# generated using pymatgen
data_Ba2MnAs4
_symmetry_space_group_name_H-M   'P 1'
_cell_length_a   4.66848993
_cell_length_b   4.69192600
_cell_length_c   8.95053482
_cell_angle_alpha   105.19489288
_cell_angle_beta   90.00000000
_cell_angle_gamma   90.00000000
_symmetry_Int_Tables_number   1
_chemical_formula_structural   Ba2MnAs4
_chemical_formula_sum   'Ba2 Mn1 As4'
_cell_volume   189.20029950
_cell_formula_units_Z   1
loop_
 _symmetry_equiv_pos_site_id
 _symmetry_equiv_pos_as_xyz
  1  'x, y, z'
loop_
 _atom_site_type_symbol
 _atom_site_label
 _atom_site_symmetry_multiplicity
 _atom_site_fract_x
 _atom_site_fract_y
 _atom_site_fract_z
 _atom_site_occupancy
  Ba  Ba0  1  0.50000001  0.60410501  0.20821002  1
  Ba  Ba1  1  0.00000000  0.39723101  0.79446201  1
  Mn  Mn2  1  0.50000001  0.80175801  0.60351602  1
  As  As3  1  0.50000001  0.24386400  0.48772801  1
  As  As4  1  0.00000000  0.74696101  0.49392202  1
  As  As5  1  0.50000001  0.94891301  0.89782603  1
  As  As6  1  1.00000001  0.06046800  0.12093600  1
