# generated using pymatgen
data_KSrCaF5
_symmetry_space_group_name_H-M   'P 1'
_cell_length_a   4.20462418
_cell_length_b   4.20462418
_cell_length_c   8.03190136
_cell_angle_alpha   105.17364502
_cell_angle_beta   105.17364502
_cell_angle_gamma   90.00000000
_symmetry_Int_Tables_number   1
_chemical_formula_structural   KSrCaF5
_chemical_formula_sum   'K1 Sr1 Ca1 F5'
_cell_volume   131.90850706
_cell_formula_units_Z   1
loop_
 _symmetry_equiv_pos_site_id
 _symmetry_equiv_pos_as_xyz
  1  'x, y, z'
loop_
 _atom_site_type_symbol
 _atom_site_label
 _atom_site_symmetry_multiplicity
 _atom_site_fract_x
 _atom_site_fract_y
 _atom_site_fract_z
 _atom_site_occupancy
  Ca  Ca0  1  0.49999999  0.49999998  1.00000005  1
  K  K1  1  0.24684500  0.24684499  0.49369002  1
  Sr  Sr2  1  0.75315498  0.75315497  0.50631004  1
  F  F3  1  0.64511998  0.14512000  0.29024002  1
  F  F4  1  0.35488000  0.85487997  0.70976004  1
  F  F5  1  0.14512000  0.64511998  0.29024002  1
  F  F6  1  0.85487998  0.35487999  0.70976004  1
  F  F7  1  0.00000000  0.00000000  0.00000000  1
