# generated using pymatgen
data_Mg5In
_symmetry_space_group_name_H-M   'P 1'
_cell_length_a   3.26414204
_cell_length_b   6.18761587
_cell_length_c   7.68694019
_cell_angle_alpha   103.74440002
_cell_angle_beta   90.00000000
_cell_angle_gamma   105.29352570
_symmetry_Int_Tables_number   1
_chemical_formula_structural   Mg5In
_chemical_formula_sum   'Mg5 In1'
_cell_volume   145.14310495
_cell_formula_units_Z   1
loop_
 _symmetry_equiv_pos_site_id
 _symmetry_equiv_pos_as_xyz
  1  'x, y, z'
loop_
 _atom_site_type_symbol
 _atom_site_label
 _atom_site_symmetry_multiplicity
 _atom_site_fract_x
 _atom_site_fract_y
 _atom_site_fract_z
 _atom_site_occupancy
  Mg  Mg0  1  0.63963596  0.27927199  0.02524900  1
  Mg  Mg1  1  0.36036390  0.72072797  0.97475100  1
  Mg  Mg2  1  0.97463087  0.94926196  0.69331200  1
  Mg  Mg3  1  0.69619994  0.39239998  0.63403500  1
  Mg  Mg4  1  0.30379992  0.60759997  0.36596500  1
  In  In5  1  0.02536899  0.05073800  0.30668800  1
