# generated using pymatgen
data_Rb5Lu4I11
_symmetry_space_group_name_H-M   'P 1'
_cell_length_a   4.44776201
_cell_length_b   14.86979198
_cell_length_c   14.86979103
_cell_angle_alpha   120.00000000
_cell_angle_beta   90.00000000
_cell_angle_gamma   90.00000000
_symmetry_Int_Tables_number   1
_chemical_formula_structural   Rb5Lu4I11
_chemical_formula_sum   'Rb5 Lu4 I11'
_cell_volume   851.69075187
_cell_formula_units_Z   1
loop_
 _symmetry_equiv_pos_site_id
 _symmetry_equiv_pos_as_xyz
  1  'x, y, z'
loop_
 _atom_site_type_symbol
 _atom_site_label
 _atom_site_symmetry_multiplicity
 _atom_site_fract_x
 _atom_site_fract_y
 _atom_site_fract_z
 _atom_site_occupancy
  Rb  Rb0  1  0.50000000  0.28329500  0.28329500  1
  Rb  Rb1  1  0.50000000  0.71670499  1.00000001  1
  Rb  Rb2  1  0.50000000  0.00000000  0.71670502  1
  Rb  Rb3  1  0.50000000  0.33333333  0.66666668  1
  Rb  Rb4  1  0.50000000  0.66666666  0.33333333  1
  Lu  Lu5  1  1.00000000  0.67605399  0.67605400  1
  Lu  Lu6  1  -0.00000000  0.00000000  0.32394601  1
  Lu  Lu7  1  -0.00000000  0.32394600  -0.00000001  1
  Lu  Lu8  1  0.50000000  0.82409899  0.82409900  1
  I  I9  1  -0.00000000  0.76101299  0.20502699  1
  I  I10  1  -0.00000000  0.44401400  0.23898700  1
  I  I11  1  0.50000000  0.00000000  0.17590101  1
  I  I12  1  0.50000000  0.17590100  -0.00000000  1
  I  I13  1  0.50000000  0.00000000  0.46829701  1
  I  I14  1  0.50000000  0.53170299  0.53170300  1
  I  I15  1  0.50000000  0.46829699  -0.00000001  1
  I  I16  1  -0.00000000  0.23898700  0.44401401  1
  I  I17  1  1.00000000  0.55598599  0.79497301  1
  I  I18  1  1.00000000  0.20502700  0.76101302  1
  I  I19  1  -0.00000000  0.79497299  0.55598600  1
