# generated using pymatgen
data_Zr(Fe2Si)2
_symmetry_space_group_name_H-M   'P 1'
_cell_length_a   3.59421611
_cell_length_b   7.04369879
_cell_length_c   7.04369879
_cell_angle_alpha   90.00000000
_cell_angle_beta   90.00000000
_cell_angle_gamma   90.00000000
_symmetry_Int_Tables_number   1
_chemical_formula_structural   Zr(Fe2Si)2
_chemical_formula_sum   'Zr2 Fe8 Si4'
_cell_volume   178.32233318
_cell_formula_units_Z   2
loop_
 _symmetry_equiv_pos_site_id
 _symmetry_equiv_pos_as_xyz
  1  'x, y, z'
loop_
 _atom_site_type_symbol
 _atom_site_label
 _atom_site_symmetry_multiplicity
 _atom_site_fract_x
 _atom_site_fract_y
 _atom_site_fract_z
 _atom_site_occupancy
  Zr  Zr0  1  0.99999997  0.50000002  0.50000002  1
  Zr  Zr1  1  0.49999998  0.00000000  -0.00000000  1
  Fe  Fe2  1  0.49999998  0.58589802  0.16251900  1
  Fe  Fe3  1  0.49999998  0.41410201  0.83748103  1
  Fe  Fe4  1  0.00000000  0.08589800  0.33748101  1
  Fe  Fe5  1  0.99999997  0.91410203  0.66251902  1
  Fe  Fe6  1  0.49999998  0.16251900  0.58589802  1
  Fe  Fe7  1  0.49999998  0.83748103  0.41410201  1
  Fe  Fe8  1  0.00000000  0.33748101  0.08589800  1
  Fe  Fe9  1  0.99999997  0.66251902  0.91410203  1
  Si  Si10  1  0.49999998  0.71952202  0.71952202  1
  Si  Si11  1  0.49999998  0.28047801  0.28047801  1
  Si  Si12  1  0.99999997  0.21952201  0.78047802  1
  Si  Si13  1  -0.00000000  0.78047802  0.21952201  1
