# generated using pymatgen
data_Si7Mo9
_symmetry_space_group_name_H-M   'P 1'
_cell_length_a   4.93561792
_cell_length_b   7.28393126
_cell_length_c   7.28393126
_cell_angle_alpha   83.40867615
_cell_angle_beta   70.19610596
_cell_angle_gamma   70.19610596
_symmetry_Int_Tables_number   1
_chemical_formula_structural   Si7Mo9
_chemical_formula_sum   'Si7 Mo9'
_cell_volume   231.80411315
_cell_formula_units_Z   1
loop_
 _symmetry_equiv_pos_site_id
 _symmetry_equiv_pos_as_xyz
  1  'x, y, z'
loop_
 _atom_site_type_symbol
 _atom_site_label
 _atom_site_symmetry_multiplicity
 _atom_site_fract_x
 _atom_site_fract_y
 _atom_site_fract_z
 _atom_site_occupancy
  Si  Si0  1  0.83264097  0.83471800  0.49999991  1
  Si  Si1  1  0.66735899  0.50000000  0.16528194  1
  Si  Si2  1  0.33264097  0.50000000  0.83471794  1
  Si  Si3  1  0.16735899  0.16528200  0.49999997  1
  Si  Si4  1  0.75000003  0.00000000  -0.00000004  1
  Si  Si5  1  0.25000001  0.00000000  0.99999997  1
  Si  Si6  1  0.27606299  0.30048200  0.14739297  1
  Mo  Mo7  1  0.72393697  0.69951800  0.85260692  1
  Mo  Mo8  1  0.42345495  0.85260700  0.30048293  1
  Mo  Mo9  1  0.57654501  0.14739300  0.69951695  1
  Mo  Mo10  1  0.92345601  0.30048200  0.85260693  1
  Mo  Mo11  1  0.22393794  0.85260700  0.69951693  1
  Mo  Mo12  1  0.77606202  0.14739300  0.30048295  1
  Mo  Mo13  1  0.07654395  0.69951800  0.14739296  1
  Mo  Mo14  1  0.74999999  0.50000000  0.49999993  1
  Mo  Mo15  1  0.24999997  0.50000000  0.49999995  1
