# generated using pymatgen
data_YFeC2
_symmetry_space_group_name_H-M   'P 1'
_cell_length_a   3.60274506
_cell_length_b   3.76432538
_cell_length_c   3.76432538
_cell_angle_alpha   106.23300171
_cell_angle_beta   90.00000000
_cell_angle_gamma   90.00000000
_symmetry_Int_Tables_number   1
_chemical_formula_structural   YFeC2
_chemical_formula_sum   'Y1 Fe1 C2'
_cell_volume   49.01614622
_cell_formula_units_Z   1
loop_
 _symmetry_equiv_pos_site_id
 _symmetry_equiv_pos_as_xyz
  1  'x, y, z'
loop_
 _atom_site_type_symbol
 _atom_site_label
 _atom_site_symmetry_multiplicity
 _atom_site_fract_x
 _atom_site_fract_y
 _atom_site_fract_z
 _atom_site_occupancy
  Y  Y0  1  0.99999998  0.99821898  0.00178099  1
  Fe  Fe1  1  0.49999999  0.38544499  0.61455498  1
  C  C2  1  0.49999999  0.84821098  0.45487398  1
  C  C3  1  0.49999999  0.54512599  0.15178899  1
