# generated using pymatgen
data_CeSi4
_symmetry_space_group_name_H-M   'P 1'
_cell_length_a   3.93850899
_cell_length_b   8.23695946
_cell_length_c   9.80272579
_cell_angle_alpha   90.00000000
_cell_angle_beta   90.00000000
_cell_angle_gamma   90.00000000
_symmetry_Int_Tables_number   1
_chemical_formula_structural   CeSi4
_chemical_formula_sum   'Ce4 Si16'
_cell_volume   318.01354909
_cell_formula_units_Z   4
loop_
 _symmetry_equiv_pos_site_id
 _symmetry_equiv_pos_as_xyz
  1  'x, y, z'
loop_
 _atom_site_type_symbol
 _atom_site_label
 _atom_site_symmetry_multiplicity
 _atom_site_fract_x
 _atom_site_fract_y
 _atom_site_fract_z
 _atom_site_occupancy
  Ce  Ce0  1  0.25000000  0.25989999  0.66958301  1
  Ce  Ce1  1  0.75000000  0.74009996  0.33041701  1
  Ce  Ce2  1  0.25000000  0.75989996  0.83041702  1
  Ce  Ce3  1  0.75000000  0.24009999  0.16958300  1
  Si  Si4  1  0.75000000  0.08261400  0.45151101  1
  Si  Si5  1  0.25000000  0.91738595  0.54848901  1
  Si  Si6  1  0.75000000  0.58261397  0.04848900  1
  Si  Si7  1  0.25000000  0.41738598  0.95151102  1
  Si  Si8  1  0.25000000  0.95231895  0.12360200  1
  Si  Si9  1  0.75000000  0.04768100  0.87639802  1
  Si  Si10  1  0.25000000  0.45231897  0.37639801  1
  Si  Si11  1  0.75000000  0.54768097  0.62360201  1
  Si  Si12  1  0.25000000  0.14333299  0.95087802  1
  Si  Si13  1  0.75000000  0.85666695  0.04912200  1
  Si  Si14  1  0.25000000  0.64333296  0.54912201  1
  Si  Si15  1  0.75000000  0.35666698  0.45087801  1
  Si  Si16  1  0.25000000  0.53092097  0.16106500  1
  Si  Si17  1  0.75000000  0.46907897  0.83893502  1
  Si  Si18  1  0.25000000  0.03092100  0.33893501  1
  Si  Si19  1  0.75000000  0.96907895  0.66106501  1
