# generated using pymatgen
data_CeSnRh
_symmetry_space_group_name_H-M   'P 1'
_cell_length_a   4.13607788
_cell_length_b   7.39753199
_cell_length_c   7.39753151
_cell_angle_alpha   120.00000000
_cell_angle_beta   90.00000000
_cell_angle_gamma   90.00000000
_symmetry_Int_Tables_number   1
_chemical_formula_structural   CeSnRh
_chemical_formula_sum   'Ce3 Sn3 Rh3'
_cell_volume   196.01667355
_cell_formula_units_Z   3
loop_
 _symmetry_equiv_pos_site_id
 _symmetry_equiv_pos_as_xyz
  1  'x, y, z'
loop_
 _atom_site_type_symbol
 _atom_site_label
 _atom_site_symmetry_multiplicity
 _atom_site_fract_x
 _atom_site_fract_y
 _atom_site_fract_z
 _atom_site_occupancy
  Ce  Ce0  1  0.50000001  0.58344499  0.58344497  1
  Ce  Ce1  1  0.50000001  0.00000000  0.41655500  1
  Ce  Ce2  1  0.50000001  0.41655499  -0.00000002  1
  Sn  Sn3  1  1.00000003  0.24522699  0.24522699  1
  Sn  Sn4  1  1.00000003  0.00000000  0.75477299  1
  Sn  Sn5  1  1.00000003  0.75477298  -0.00000004  1
  Rh  Rh6  1  1.00000003  0.66666665  0.33333330  1
  Rh  Rh7  1  1.00000003  0.33333333  0.66666664  1
  Rh  Rh8  1  0.50000001  0.00000000  -0.00000000  1
