# generated using pymatgen
data_LiNbVWO6
_symmetry_space_group_name_H-M   'P 1'
_cell_length_a   5.19279146
_cell_length_b   5.53314018
_cell_length_c   7.55139971
_cell_angle_alpha   90.00186157
_cell_angle_beta   90.53340912
_cell_angle_gamma   89.99791718
_symmetry_Int_Tables_number   1
_chemical_formula_structural   LiNbVWO6
_chemical_formula_sum   'Li2 Nb2 V2 W2 O12'
_cell_volume   216.96075967
_cell_formula_units_Z   2
loop_
 _symmetry_equiv_pos_site_id
 _symmetry_equiv_pos_as_xyz
  1  'x, y, z'
loop_
 _atom_site_type_symbol
 _atom_site_label
 _atom_site_symmetry_multiplicity
 _atom_site_fract_x
 _atom_site_fract_y
 _atom_site_fract_z
 _atom_site_occupancy
  Li  Li0  1  0.52551301  0.42489399  0.74780703  1
  Li  Li1  1  0.97435702  0.92492697  0.75220906  1
  Nb  Nb2  1  0.47448702  0.57510598  0.25219303  1
  Nb  Nb3  1  0.02564200  0.07507300  0.24779100  1
  V  V4  1  0.00000002  0.49999998  0.50000002  1
  V  V5  1  0.50000000  0.00000000  0.00000001  1
  W  W6  1  0.00000002  0.49999998  1.00000002  1
  W  W7  1  0.50000000  0.00000000  0.50000002  1
  O  O8  1  0.37368400  0.04926300  0.75917701  1
  O  O9  1  0.12629102  0.54929898  0.74082402  1
  O  O10  1  0.62631603  0.95073697  0.24082305  1
  O  O11  1  0.87370901  0.45069999  0.25917604  1
  O  O12  1  0.79989100  0.18799599  0.93999703  1
  O  O13  1  0.70009602  0.68794998  0.55994704  1
  O  O14  1  0.18109703  0.79338697  0.43176003  1
  O  O15  1  0.31892301  0.29334299  0.06826202  1
  O  O16  1  0.20010903  0.81200397  0.06000303  1
  O  O17  1  0.29990401  0.31204999  0.44005302  1
  O  O18  1  0.81890300  0.20661299  0.56824003  1
  O  O19  1  0.68107702  0.70665698  0.93173804  1
