# generated using pymatgen
data_La2YbS4
_symmetry_space_group_name_H-M   'P 1'
_cell_length_a   7.52804804
_cell_length_b   7.52804804
_cell_length_c   7.52804804
_cell_angle_alpha   109.42044067
_cell_angle_beta   109.49662018
_cell_angle_gamma   109.49662018
_symmetry_Int_Tables_number   1
_chemical_formula_structural   La2YbS4
_chemical_formula_sum   'La4 Yb2 S8'
_cell_volume   328.41649376
_cell_formula_units_Z   2
loop_
 _symmetry_equiv_pos_site_id
 _symmetry_equiv_pos_as_xyz
  1  'x, y, z'
loop_
 _atom_site_type_symbol
 _atom_site_label
 _atom_site_symmetry_multiplicity
 _atom_site_fract_x
 _atom_site_fract_y
 _atom_site_fract_z
 _atom_site_occupancy
  La  La0  1  0.50000002  0.25000001  0.75000002  1
  La  La1  1  0.00000006  0.50000002  0.50000005  1
  La  La2  1  0.87584008  0.87500004  0.25084013  1
  La  La3  1  0.37583999  0.00084000  0.12500001  1
  Yb  Yb4  1  0.12416004  0.37500002  0.99916002  1
  Yb  Yb5  1  0.62416007  0.74916004  0.62500009  1
  S  S6  1  0.25122708  0.76919804  0.36565509  1
  S  S7  1  0.24877303  0.26797101  0.36442803  1
  S  S8  1  0.59645704  0.48202902  0.23080207  1
  S  S9  1  0.75122700  0.11565501  0.01919804  1
  S  S10  1  0.40354306  0.63434503  0.88557206  1
  S  S11  1  0.09645711  0.98080205  0.73202910  1
  S  S12  1  0.74877300  0.11442801  0.51797102  1
  S  S13  1  0.90354305  0.63557203  0.88434508  1
