# generated using pymatgen
data_LiCa(S3O)2
_symmetry_space_group_name_H-M   'P 1'
_cell_length_a   4.23169565
_cell_length_b   5.83086634
_cell_length_c   5.83086634
_cell_angle_alpha   90.18668365
_cell_angle_beta   90.00000000
_cell_angle_gamma   90.00000000
_symmetry_Int_Tables_number   1
_chemical_formula_structural   LiCa(S3O)2
_chemical_formula_sum   'Li1 Ca1 S6 O2'
_cell_volume   143.87266625
_cell_formula_units_Z   1
loop_
 _symmetry_equiv_pos_site_id
 _symmetry_equiv_pos_as_xyz
  1  'x, y, z'
loop_
 _atom_site_type_symbol
 _atom_site_label
 _atom_site_symmetry_multiplicity
 _atom_site_fract_x
 _atom_site_fract_y
 _atom_site_fract_z
 _atom_site_occupancy
  Li  Li0  1  0.49999999  0.49999999  0.50000001  1
  Ca  Ca1  1  0.49999999  0.00000000  -0.00000000  1
  S  S2  1  0.00000000  0.00000000  0.49999999  1
  S  S3  1  -0.00000000  0.49999999  0.00000002  1
  S  S4  1  0.49999999  0.00000000  0.49999999  1
  S  S5  1  0.49999999  0.49999999  0.00000002  1
  S  S6  1  -0.00000000  0.30989052  0.69010948  1
  S  S7  1  -0.00000000  0.69010947  0.30989054  1
  O  O8  1  -0.00000000  0.81058632  0.81058635  1
  O  O9  1  -0.00000000  0.18941367  0.18941368  1
