# generated using pymatgen
data_Lu5ScIn2
_symmetry_space_group_name_H-M   'P 1'
_cell_length_a   5.17522192
_cell_length_b   6.39940214
_cell_length_c   6.39940119
_cell_angle_alpha   120.00000000
_cell_angle_beta   90.00000000
_cell_angle_gamma   90.00000000
_symmetry_Int_Tables_number   1
_chemical_formula_structural   Lu5ScIn2
_chemical_formula_sum   'Lu5 Sc1 In2'
_cell_volume   183.54322114
_cell_formula_units_Z   1
loop_
 _symmetry_equiv_pos_site_id
 _symmetry_equiv_pos_as_xyz
  1  'x, y, z'
loop_
 _atom_site_type_symbol
 _atom_site_label
 _atom_site_symmetry_multiplicity
 _atom_site_fract_x
 _atom_site_fract_y
 _atom_site_fract_z
 _atom_site_occupancy
  Lu  Lu0  1  0.75000001  0.83170995  0.16829095  1
  Lu  Lu1  1  0.75000001  0.33658098  0.16829098  1
  Lu  Lu2  1  0.75000001  0.83170995  0.66341997  1
  Lu  Lu3  1  0.25000000  0.16828999  0.83170902  1
  Lu  Lu4  1  0.25000000  0.66341896  0.83170898  1
  Sc  Sc5  1  0.25000000  0.16828999  0.33658000  1
  In  In6  1  0.25000000  0.66666663  0.33333330  1
  In  In7  1  0.75000001  0.33333332  0.66666667  1
