# generated using pymatgen
data_Zr6Al4V5Fe3
_symmetry_space_group_name_H-M   'P 1'
_cell_length_a   5.26525307
_cell_length_b   5.30499315
_cell_length_c   12.78839588
_cell_angle_alpha   89.96972656
_cell_angle_beta   89.48980713
_cell_angle_gamma   61.10856247
_symmetry_Int_Tables_number   1
_chemical_formula_structural   Zr6Al4V5Fe3
_chemical_formula_sum   'Zr6 Al4 V5 Fe3'
_cell_volume   312.73268391
_cell_formula_units_Z   1
loop_
 _symmetry_equiv_pos_site_id
 _symmetry_equiv_pos_as_xyz
  1  'x, y, z'
loop_
 _atom_site_type_symbol
 _atom_site_label
 _atom_site_symmetry_multiplicity
 _atom_site_fract_x
 _atom_site_fract_y
 _atom_site_fract_z
 _atom_site_occupancy
  Zr  Zr0  1  0.33734701  0.34210500  0.08550600  1
  Zr  Zr1  1  0.99670704  0.00806100  0.74438899  1
  Zr  Zr2  1  0.66353102  0.67583800  0.41356199  1
  Zr  Zr3  1  0.33646901  0.32416200  0.33643799  1
  Zr  Zr4  1  0.00329299  0.99193900  0.00561100  1
  Zr  Zr5  1  0.66265302  0.65789500  0.66449398  1
  Al  Al6  1  0.50000002  0.00000000  0.87499998  1
  Al  Al7  1  0.16330400  0.66857100  0.53980798  1
  V  V8  1  0.83669603  0.33142900  0.21019200  1
  V  V9  1  -0.00000000  0.50000000  0.87499998  1
  V  V10  1  0.66508602  0.16580700  0.54055999  1
  Al  Al11  1  0.33491401  0.83419300  0.20943999  1
  V  V12  1  0.34701501  0.32448600  0.70187198  1
  V  V13  1  0.00000000  0.00000000  0.37499999  1
  Al  Al14  1  0.65298502  0.67551400  0.04812800  1
  Fe  Fe15  1  0.50000001  0.50000000  0.87499998  1
  Fe  Fe16  1  0.16797700  0.16497900  0.54111399  1
  Fe  Fe17  1  0.83202302  0.83502100  0.20888600  1
