# generated using pymatgen
data_Ca(HO)2
_symmetry_space_group_name_H-M   'P 1'
_cell_length_a   3.53838205
_cell_length_b   3.58567548
_cell_length_c   4.80522537
_cell_angle_alpha   94.44940948
_cell_angle_beta   90.00000000
_cell_angle_gamma   119.56464386
_symmetry_Int_Tables_number   1
_chemical_formula_structural   Ca(HO)2
_chemical_formula_sum   'Ca1 H2 O2'
_cell_volume   52.81707036
_cell_formula_units_Z   1
loop_
 _symmetry_equiv_pos_site_id
 _symmetry_equiv_pos_as_xyz
  1  'x, y, z'
loop_
 _atom_site_type_symbol
 _atom_site_label
 _atom_site_symmetry_multiplicity
 _atom_site_fract_x
 _atom_site_fract_y
 _atom_site_fract_z
 _atom_site_occupancy
  Ca  Ca0  1  0.02282200  0.00000000  0.99999999  1
  H  H1  1  0.41089600  0.58497100  0.56951997  1
  H  H2  1  0.82592499  0.41502900  0.43047998  1
  O  O3  1  0.33485500  0.61321300  0.76405097  1
  O  O4  1  0.72164199  0.38678700  0.23594898  1
