# generated using pymatgen
data_ZrNb3Mo8
_symmetry_space_group_name_H-M   'P 1'
_cell_length_a   5.27152395
_cell_length_b   5.27152348
_cell_length_c   8.78940392
_cell_angle_alpha   90.00000000
_cell_angle_beta   90.00000000
_cell_angle_gamma   120.00000000
_symmetry_Int_Tables_number   1
_chemical_formula_structural   ZrNb3Mo8
_chemical_formula_sum   'Zr1 Nb3 Mo8'
_cell_volume   211.52533115
_cell_formula_units_Z   1
loop_
 _symmetry_equiv_pos_site_id
 _symmetry_equiv_pos_as_xyz
  1  'x, y, z'
loop_
 _atom_site_type_symbol
 _atom_site_label
 _atom_site_symmetry_multiplicity
 _atom_site_fract_x
 _atom_site_fract_y
 _atom_site_fract_z
 _atom_site_occupancy
  Zr  Zr0  1  0.66666665  0.33333332  0.56582201  1
  Nb  Nb1  1  0.33333328  0.66666663  0.43417800  1
  Nb  Nb2  1  0.33333328  0.66666663  0.06582200  1
  Nb  Nb3  1  0.66666665  0.33333332  0.93417801  1
  Mo  Mo4  1  0.82753799  0.17246299  0.25000000  1
  Mo  Mo5  1  0.82753796  0.65507596  0.25000000  1
  Mo  Mo6  1  0.65507494  0.82753695  0.75000001  1
  Mo  Mo7  1  0.17246194  0.82753695  0.75000001  1
  Mo  Mo8  1  0.34492499  0.17246299  0.25000000  1
  Mo  Mo9  1  0.00000000  0.00000000  0.00000000  1
  Mo  Mo10  1  0.17246197  0.34492398  0.75000001  1
  Mo  Mo11  1  0.00000000  0.00000000  0.50000000  1
