# generated using pymatgen
data_LiVF4
_symmetry_space_group_name_H-M   'P 1'
_cell_length_a   4.70895100
_cell_length_b   5.07055044
_cell_length_c   5.68728590
_cell_angle_alpha   90.00000000
_cell_angle_beta   90.00000000
_cell_angle_gamma   92.49704742
_symmetry_Int_Tables_number   1
_chemical_formula_structural   LiVF4
_chemical_formula_sum   'Li2 V2 F8'
_cell_volume   135.66623318
_cell_formula_units_Z   2
loop_
 _symmetry_equiv_pos_site_id
 _symmetry_equiv_pos_as_xyz
  1  'x, y, z'
loop_
 _atom_site_type_symbol
 _atom_site_label
 _atom_site_symmetry_multiplicity
 _atom_site_fract_x
 _atom_site_fract_y
 _atom_site_fract_z
 _atom_site_occupancy
  Li  Li0  1  0.50000004  0.75000003  0.64170801  1
  Li  Li1  1  0.50000001  0.25000001  0.35829201  1
  V  V2  1  0.00000004  0.75000003  0.16546600  1
  V  V3  1  0.00000001  0.25000001  0.83453401  1
  F  F4  1  0.21909405  0.93068004  0.89115902  1
  F  F5  1  0.21909402  0.43068002  0.10884100  1
  F  F6  1  0.26198605  0.91045404  0.37641001  1
  F  F7  1  0.26198602  0.41045402  0.62359001  1
  F  F8  1  0.73801403  0.58954602  0.37641001  1
  F  F9  1  0.73801401  0.08954600  0.62359001  1
  F  F10  1  0.78090603  0.56932002  0.89115902  1
  F  F11  1  0.78090600  0.06932000  0.10884100  1
