# generated using pymatgen
data_ZrTi3ZnSi
_symmetry_space_group_name_H-M   'P 1'
_cell_length_a   3.43251300
_cell_length_b   6.00371695
_cell_length_c   6.90314293
_cell_angle_alpha   90.00000000
_cell_angle_beta   90.00000000
_cell_angle_gamma   90.00000000
_symmetry_Int_Tables_number   1
_chemical_formula_structural   ZrTi3ZnSi
_chemical_formula_sum   'Zr1 Ti3 Zn1 Si1'
_cell_volume   142.25884051
_cell_formula_units_Z   1
loop_
 _symmetry_equiv_pos_site_id
 _symmetry_equiv_pos_as_xyz
  1  'x, y, z'
loop_
 _atom_site_type_symbol
 _atom_site_label
 _atom_site_symmetry_multiplicity
 _atom_site_fract_x
 _atom_site_fract_y
 _atom_site_fract_z
 _atom_site_occupancy
  Zr  Zr0  1  0.00000000  0.00000000  0.00000000  1
  Ti  Ti1  1  0.50000000  0.50000000  0.50000001  1
  Ti  Ti2  1  0.00000000  0.81805201  0.63786001  1
  Ti  Ti3  1  0.50000000  0.68194801  0.13786000  1
  Si  Si4  1  0.00000000  0.18194800  0.36214000  1
  Zn  Zn5  1  0.50000000  0.31805200  0.86214001  1
