# generated using pymatgen
data_Ba(GeOs)2
_symmetry_space_group_name_H-M   'P 1'
_cell_length_a   4.42846489
_cell_length_b   4.42846489
_cell_length_c   5.80432940
_cell_angle_alpha   112.42534637
_cell_angle_beta   112.42536163
_cell_angle_gamma   90.00000000
_symmetry_Int_Tables_number   1
_chemical_formula_structural   Ba(GeOs)2
_chemical_formula_sum   'Ba1 Ge2 Os2'
_cell_volume   95.84408120
_cell_formula_units_Z   1
loop_
 _symmetry_equiv_pos_site_id
 _symmetry_equiv_pos_as_xyz
  1  'x, y, z'
loop_
 _atom_site_type_symbol
 _atom_site_label
 _atom_site_symmetry_multiplicity
 _atom_site_fract_x
 _atom_site_fract_y
 _atom_site_fract_z
 _atom_site_occupancy
  Ba  Ba0  1  0.57138301  0.57138300  0.14276597  1
  Ge  Ge1  1  0.23392600  0.23392600  0.46785198  1
  Ge  Ge2  1  0.82980602  0.32980500  0.65961098  1
  Os  Os3  1  0.32980600  0.82980500  0.65961094  1
  Os  Os4  1  0.99288001  0.99288000  0.98575994  1
