# generated using pymatgen
data_Ce4Ni5Sn3
_symmetry_space_group_name_H-M   'P 1'
_cell_length_a   4.34966993
_cell_length_b   6.94923592
_cell_length_c   7.60112381
_cell_angle_alpha   90.00000000
_cell_angle_beta   90.00000000
_cell_angle_gamma   90.00000000
_symmetry_Int_Tables_number   1
_chemical_formula_structural   Ce4Ni5Sn3
_chemical_formula_sum   'Ce4 Ni5 Sn3'
_cell_volume   229.75827645
_cell_formula_units_Z   1
loop_
 _symmetry_equiv_pos_site_id
 _symmetry_equiv_pos_as_xyz
  1  'x, y, z'
loop_
 _atom_site_type_symbol
 _atom_site_label
 _atom_site_symmetry_multiplicity
 _atom_site_fract_x
 _atom_site_fract_y
 _atom_site_fract_z
 _atom_site_occupancy
  Ce  Ce0  1  0.75000001  0.49960601  0.80740002  1
  Ce  Ce1  1  0.25000000  0.00039400  0.30740001  1
  Ce  Ce2  1  0.75000001  0.99960601  0.69260002  1
  Ce  Ce3  1  0.25000000  0.50039401  0.19260000  1
  Ni  Ni4  1  0.25000000  0.79387501  0.89308002  1
  Ni  Ni5  1  0.25000000  0.29387500  0.60692002  1
  Ni  Ni6  1  0.75000001  0.20612500  0.10692000  1
  Ni  Ni7  1  0.75000001  0.70612501  0.39308001  1
  Sn  Sn8  1  0.25000000  0.66153501  0.56877301  1
  Sn  Sn9  1  0.25000000  0.16153500  0.93122702  1
  Ni  Ni10  1  0.75000001  0.83846501  0.06877300  1
  Sn  Sn11  1  0.75000001  0.33846500  0.43122701  1
