# generated using pymatgen
data_Sr2Fe2O5
_symmetry_space_group_name_H-M   'P 1'
_cell_length_a   5.47060823
_cell_length_b   5.64279556
_cell_length_c   8.94902515
_cell_angle_alpha   108.17055511
_cell_angle_beta   107.66459656
_cell_angle_gamma   90.20652008
_symmetry_Int_Tables_number   1
_chemical_formula_structural   Sr2Fe2O5
_chemical_formula_sum   'Sr4 Fe4 O10'
_cell_volume   248.62355801
_cell_formula_units_Z   2
loop_
 _symmetry_equiv_pos_site_id
 _symmetry_equiv_pos_as_xyz
  1  'x, y, z'
loop_
 _atom_site_type_symbol
 _atom_site_label
 _atom_site_symmetry_multiplicity
 _atom_site_fract_x
 _atom_site_fract_y
 _atom_site_fract_z
 _atom_site_occupancy
  Sr  Sr0  1  0.89026398  0.37368500  0.77763694  1
  Sr  Sr1  1  0.38880698  0.90740100  0.77706797  1
  Sr  Sr2  1  0.11287099  0.62606500  0.22242300  1
  Sr  Sr3  1  0.61176399  0.09248700  0.22291997  1
  Fe  Fe4  1  0.00506399  0.99986900  0.00013502  1
  Fe  Fe5  1  0.50516899  0.50009000  0.00008100  1
  Fe  Fe6  1  0.71416298  0.67792100  0.49629397  1
  Fe  Fe7  1  0.21748999  0.32189900  0.50362897  1
  O  O8  1  0.37194799  0.62199400  0.50056198  1
  O  O9  1  0.87129298  0.37828600  0.49928896  1
  O  O10  1  0.66273798  0.68337000  0.28124298  1
  O  O11  1  0.38069999  0.31662900  0.71865596  1
  O  O12  1  0.17840100  0.09209000  0.29684698  1
  O  O13  1  0.88041997  0.90814700  0.70310696  1
  O  O14  1  0.74545598  0.74345100  0.98706094  1
  O  O15  1  0.76266399  0.25379000  0.01563498  1
  O  O16  1  0.26230499  0.26136700  0.01339100  1
  O  O17  1  0.24448299  0.74146000  0.98402196  1
