# generated using pymatgen
data_MgGa6
_symmetry_space_group_name_H-M   'P 1'
_cell_length_a   2.78114200
_cell_length_b   4.67200279
_cell_length_c   9.95310402
_cell_angle_alpha   78.86128235
_cell_angle_beta   85.62437439
_cell_angle_gamma   88.02596283
_symmetry_Int_Tables_number   1
_chemical_formula_structural   MgGa6
_chemical_formula_sum   'Mg1 Ga6'
_cell_volume   126.49397681
_cell_formula_units_Z   1
loop_
 _symmetry_equiv_pos_site_id
 _symmetry_equiv_pos_as_xyz
  1  'x, y, z'
loop_
 _atom_site_type_symbol
 _atom_site_label
 _atom_site_symmetry_multiplicity
 _atom_site_fract_x
 _atom_site_fract_y
 _atom_site_fract_z
 _atom_site_occupancy
  Mg  Mg0  1  0.64749702  0.21778499  0.57124900  1
  Ga  Ga1  1  0.35250306  0.78221498  0.42875100  1
  Ga  Ga2  1  0.93923705  0.65043798  0.71360100  1
  Ga  Ga3  1  0.06076303  0.34956199  0.28639900  1
  Ga  Ga4  1  0.22320901  0.07763000  0.85666900  1
  Ga  Ga5  1  0.77679107  0.92236998  0.14333100  1
  Ga  Ga6  1  0.50000004  0.49999999  -0.00000000  1
