# generated using pymatgen
data_Y2Cu4O5
_symmetry_space_group_name_H-M   'P 1'
_cell_length_a   5.04549646
_cell_length_b   5.05044794
_cell_length_c   6.11561012
_cell_angle_alpha   65.61194611
_cell_angle_beta   89.47560120
_cell_angle_gamma   88.72991943
_symmetry_Int_Tables_number   1
_chemical_formula_structural   Y2Cu4O5
_chemical_formula_sum   'Y2 Cu4 O5'
_cell_volume   141.89774501
_cell_formula_units_Z   1
loop_
 _symmetry_equiv_pos_site_id
 _symmetry_equiv_pos_as_xyz
  1  'x, y, z'
loop_
 _atom_site_type_symbol
 _atom_site_label
 _atom_site_symmetry_multiplicity
 _atom_site_fract_x
 _atom_site_fract_y
 _atom_site_fract_z
 _atom_site_occupancy
  Y  Y0  1  0.25306503  0.88256704  0.72972695  1
  Y  Y1  1  0.74693503  0.38770602  0.72972699  1
  Cu  Cu2  1  0.74693502  0.11743300  0.27027300  1
  Cu  Cu3  1  0.25306502  0.61229402  0.27027297  1
  Cu  Cu4  1  0.25536001  0.25699901  -0.00000001  1
  Cu  Cu5  1  0.74464004  0.74300103  0.99999997  1
  O  O6  1  0.23099201  0.07102200  0.32542900  1
  O  O7  1  0.76900804  0.60354902  0.32542898  1
  O  O8  1  0.23099202  0.39645102  0.67457098  1
  O  O9  1  0.76900805  0.92897804  0.67457096  1
  O  O10  1  0.50000003  0.50000002  -0.00000002  1
