# generated using pymatgen
data_LiTi3(Se3S)3
_symmetry_space_group_name_H-M   'P 1'
_cell_length_a   7.15555143
_cell_length_b   7.15555143
_cell_length_c   7.15555143
_cell_angle_alpha   60.00000000
_cell_angle_beta   60.00000000
_cell_angle_gamma   60.00000000
_symmetry_Int_Tables_number   1
_chemical_formula_structural   LiTi3(Se3S)3
_chemical_formula_sum   'Li1 Ti3 Se9 S3'
_cell_volume   259.06832989
_cell_formula_units_Z   1
loop_
 _symmetry_equiv_pos_site_id
 _symmetry_equiv_pos_as_xyz
  1  'x, y, z'
loop_
 _atom_site_type_symbol
 _atom_site_label
 _atom_site_symmetry_multiplicity
 _atom_site_fract_x
 _atom_site_fract_y
 _atom_site_fract_z
 _atom_site_occupancy
  Li  Li0  1  0.11299500  0.11299500  0.11299500  1
  Ti  Ti1  1  0.63700501  0.08898500  0.63700501  1
  Ti  Ti2  1  0.08898500  0.63700501  0.63700501  1
  Ti  Ti3  1  0.63700501  0.63700501  0.08898500  1
  Se  Se4  1  0.66101501  0.11299500  0.11299500  1
  Se  Se5  1  0.11299500  0.11299500  0.66101501  1
  Se  Se6  1  0.11299500  0.66101501  0.11299500  1
  Se  Se7  1  0.63700501  0.63700501  0.63700501  1
  Se  Se8  1  0.87500001  0.37500000  0.37500000  1
  Se  Se9  1  0.37500000  0.37500000  0.87500001  1
  Se  Se10  1  0.37500000  0.87500001  0.37500000  1
  Se  Se11  1  0.37500000  0.37500000  0.37500000  1
  S  S12  1  0.37500000  0.87500001  0.87500001  1
  S  S13  1  0.87500001  0.87500001  0.37500000  1
  S  S14  1  0.87500001  0.37500000  0.87500001  1
  Se  Se15  1  0.87500001  0.87500001  0.87500001  1
