# generated using pymatgen
data_Ag7AsPS7
_symmetry_space_group_name_H-M   'P 1'
_cell_length_a   6.89569616
_cell_length_b   7.31556892
_cell_length_c   8.05084229
_cell_angle_alpha   90.00000000
_cell_angle_beta   90.00000000
_cell_angle_gamma   90.00000000
_symmetry_Int_Tables_number   1
_chemical_formula_structural   Ag7AsPS7
_chemical_formula_sum   'Ag7 As1 P1 S7'
_cell_volume   406.13231138
_cell_formula_units_Z   1
loop_
 _symmetry_equiv_pos_site_id
 _symmetry_equiv_pos_as_xyz
  1  'x, y, z'
loop_
 _atom_site_type_symbol
 _atom_site_label
 _atom_site_symmetry_multiplicity
 _atom_site_fract_x
 _atom_site_fract_y
 _atom_site_fract_z
 _atom_site_occupancy
  Ag  Ag0  1  0.50241399  0.35632200  0.00000000  1
  Ag  Ag1  1  0.00241400  0.64367801  0.49999998  1
  Ag  Ag2  1  0.99975798  0.66388201  0.00000000  1
  Ag  Ag3  1  0.49975799  0.33611800  0.49999998  1
  Ag  Ag4  1  0.51999399  0.82662401  0.75137897  1
  Ag  Ag5  1  0.01999400  0.17337600  0.74862097  1
  Ag  Ag6  1  0.01999400  0.17337600  0.25137899  1
  As  As7  1  0.51999399  0.82662401  0.24862099  1
  S  S8  1  0.87168898  0.37399000  -0.00000000  1
  P  P9  1  0.37168899  0.62601001  0.49999998  1
  S  S10  1  0.90197198  0.82280401  0.76429397  1
  S  S11  1  0.40197199  0.17719600  0.73570597  1
  S  S12  1  0.40197199  0.17719600  0.26429399  1
  S  S13  1  0.90197198  0.82280401  0.23570599  1
  S  S14  1  0.33470599  0.66003301  0.00000000  1
  S  S15  1  0.83470598  0.33996700  0.49999998  1
