# generated using pymatgen
data_V4O7
_symmetry_space_group_name_H-M   'P 1'
_cell_length_a   5.90822029
_cell_length_b   5.90822029
_cell_length_c   6.03398991
_cell_angle_alpha   88.40338898
_cell_angle_beta   88.40338898
_cell_angle_gamma   61.06527710
_symmetry_Int_Tables_number   1
_chemical_formula_structural   V4O7
_chemical_formula_sum   'V4 O7'
_cell_volume   184.23992940
_cell_formula_units_Z   1
loop_
 _symmetry_equiv_pos_site_id
 _symmetry_equiv_pos_as_xyz
  1  'x, y, z'
loop_
 _atom_site_type_symbol
 _atom_site_label
 _atom_site_symmetry_multiplicity
 _atom_site_fract_x
 _atom_site_fract_y
 _atom_site_fract_z
 _atom_site_occupancy
  V  V0  1  0.00000000  0.00000000  0.00000000  1
  V  V1  1  0.67123901  0.67123902  0.28954404  1
  V  V2  1  0.32876100  0.32876101  0.71045601  1
  V  V3  1  0.14393099  0.64550802  0.83581801  1
  O  O4  1  0.64550801  0.14393100  0.83581801  1
  O  O5  1  0.85606902  0.35449201  0.16418204  1
  O  O6  1  0.35449199  0.85606903  0.16418204  1
  O  O7  1  0.84936201  0.84936203  0.25008306  1
  O  O8  1  0.15063800  0.15063801  0.74991699  1
  O  O9  1  0.63792801  0.63792802  0.57246104  1
  O  O10  1  0.36207200  0.36207201  0.42753902  1
