# generated using pymatgen
data_Pm5YSc2
_symmetry_space_group_name_H-M   'P 1'
_cell_length_a   5.43029022
_cell_length_b   7.25807190
_cell_length_c   7.25807142
_cell_angle_alpha   120.00000000
_cell_angle_beta   90.00000000
_cell_angle_gamma   90.00000000
_symmetry_Int_Tables_number   1
_chemical_formula_structural   Pm5YSc2
_chemical_formula_sum   'Pm5 Y1 Sc2'
_cell_volume   247.74002461
_cell_formula_units_Z   1
loop_
 _symmetry_equiv_pos_site_id
 _symmetry_equiv_pos_as_xyz
  1  'x, y, z'
loop_
 _atom_site_type_symbol
 _atom_site_label
 _atom_site_symmetry_multiplicity
 _atom_site_fract_x
 _atom_site_fract_y
 _atom_site_fract_z
 _atom_site_occupancy
  Pm  Pm0  1  0.74999997  0.66666666  0.33333329  1
  Pm  Pm1  1  0.24999999  0.33333333  0.66666664  1
  Pm  Pm2  1  0.74999997  0.16405600  0.32811199  1
  Pm  Pm3  1  0.74999997  0.16405600  0.83594398  1
  Pm  Pm4  1  0.74999997  0.67188799  0.83594395  1
  Y  Y5  1  0.24999999  0.83594399  0.67188795  1
  Sc  Sc6  1  0.24999999  0.83594399  0.16405595  1
  Sc  Sc7  1  0.24999999  0.32811199  0.16405598  1
