# generated using pymatgen
data_Ac3Pr
_symmetry_space_group_name_H-M   'P 1'
_cell_length_a   6.46573019
_cell_length_b   7.82919216
_cell_length_c   7.82919168
_cell_angle_alpha   120.00000000
_cell_angle_beta   90.00000000
_cell_angle_gamma   90.00000000
_symmetry_Int_Tables_number   1
_chemical_formula_structural   Ac3Pr
_chemical_formula_sum   'Ac6 Pr2'
_cell_volume   343.22750898
_cell_formula_units_Z   2
loop_
 _symmetry_equiv_pos_site_id
 _symmetry_equiv_pos_as_xyz
  1  'x, y, z'
loop_
 _atom_site_type_symbol
 _atom_site_label
 _atom_site_symmetry_multiplicity
 _atom_site_fract_x
 _atom_site_fract_y
 _atom_site_fract_z
 _atom_site_occupancy
  Ac  Ac0  1  0.74999998  0.83274198  0.16725699  1
  Ac  Ac1  1  0.74999998  0.33451499  0.16725700  1
  Ac  Ac2  1  0.74999998  0.83274198  0.66548400  1
  Ac  Ac3  1  0.24999999  0.16725800  0.83274302  1
  Ac  Ac4  1  0.24999999  0.66548498  0.83274301  1
  Ac  Ac5  1  0.24999999  0.16725800  0.33451601  1
  Pr  Pr6  1  0.24999999  0.66666665  0.33333333  1
  Pr  Pr7  1  0.74999998  0.33333332  0.66666668  1
