# generated using pymatgen
data_Hf5Ni3O
_symmetry_space_group_name_H-M   'P 1'
_cell_length_a   5.63445997
_cell_length_b   7.95418978
_cell_length_c   7.95418930
_cell_angle_alpha   120.00000000
_cell_angle_beta   90.00000000
_cell_angle_gamma   90.00000000
_symmetry_Int_Tables_number   1
_chemical_formula_structural   Hf5Ni3O
_chemical_formula_sum   'Hf10 Ni6 O2'
_cell_volume   308.72713358
_cell_formula_units_Z   2
loop_
 _symmetry_equiv_pos_site_id
 _symmetry_equiv_pos_as_xyz
  1  'x, y, z'
loop_
 _atom_site_type_symbol
 _atom_site_label
 _atom_site_symmetry_multiplicity
 _atom_site_fract_x
 _atom_site_fract_y
 _atom_site_fract_z
 _atom_site_occupancy
  Hf  Hf0  1  0.25000000  0.76590800  0.76590798  1
  Hf  Hf1  1  0.75000000  0.23409200  0.23409199  1
  Hf  Hf2  1  0.25000000  0.00000000  0.23409200  1
  Hf  Hf3  1  0.75000000  0.00000000  0.76590802  1
  Hf  Hf4  1  0.25000000  0.23409200  -0.00000001  1
  Hf  Hf5  1  0.75000000  0.76590800  -0.00000003  1
  Hf  Hf6  1  0.50000000  0.66666667  0.33333331  1
  Hf  Hf7  1  0.50000000  0.33333334  0.66666667  1
  Hf  Hf8  1  1.00000000  0.33333334  0.66666667  1
  Hf  Hf9  1  -0.00000000  0.66666667  0.33333331  1
  Ni  Ni10  1  0.25000000  0.40384100  0.40384099  1
  Ni  Ni11  1  0.75000000  0.59615900  0.59615899  1
  Ni  Ni12  1  0.25000000  0.00000000  0.59615901  1
  Ni  Ni13  1  0.75000000  0.00000000  0.40384101  1
  Ni  Ni14  1  0.25000000  0.59615900  -0.00000003  1
  Ni  Ni15  1  0.75000000  0.40384100  -0.00000002  1
  O  O16  1  0.50000000  0.00000000  -0.00000000  1
  O  O17  1  0.00000000  0.00000000  0.00000000  1
