# generated using pymatgen
data_Rb8Pb5O7
_symmetry_space_group_name_H-M   'P 1'
_cell_length_a   8.03025532
_cell_length_b   8.34491825
_cell_length_c   11.16478443
_cell_angle_alpha   85.06848907
_cell_angle_beta   70.62747192
_cell_angle_gamma   61.33257294
_symmetry_Int_Tables_number   1
_chemical_formula_structural   Rb8Pb5O7
_chemical_formula_sum   'Rb8 Pb5 O7'
_cell_volume   616.86927856
_cell_formula_units_Z   1
loop_
 _symmetry_equiv_pos_site_id
 _symmetry_equiv_pos_as_xyz
  1  'x, y, z'
loop_
 _atom_site_type_symbol
 _atom_site_label
 _atom_site_symmetry_multiplicity
 _atom_site_fract_x
 _atom_site_fract_y
 _atom_site_fract_z
 _atom_site_occupancy
  Rb  Rb0  1  0.24422699  0.26129700  0.49273900  1
  Rb  Rb1  1  0.07147902  0.93786499  0.18055000  1
  Rb  Rb2  1  0.93637997  0.54980399  0.82861102  1
  Rb  Rb3  1  0.92852096  0.06213500  0.81945002  1
  Rb  Rb4  1  0.59873298  0.43204499  0.14523201  1
  Rb  Rb5  1  0.06362001  0.45019599  0.17138900  1
  Rb  Rb6  1  0.40126699  0.56795499  0.85476800  1
  Rb  Rb7  1  0.75577298  0.73870299  0.50726101  1
  Pb  Pb8  1  0.59757299  0.94164099  0.11911101  1
  Pb  Pb9  1  0.31125800  0.69344799  0.47305600  1
  Pb  Pb10  1  0.68874197  0.30655200  0.52694401  1
  Pb  Pb11  1  0.40242698  0.05835900  0.88088901  1
  Pb  Pb12  1  0.49377400  0.81696199  0.00597801  1
  O  O13  1  0.79837997  0.40809799  0.63870601  1
  O  O14  1  0.91782998  0.79173199  0.02421201  1
  O  O15  1  0.50622598  0.18303800  0.99402201  1
  O  O16  1  0.08217000  0.20826800  0.97578800  1
  O  O17  1  0.20162001  0.59190199  0.36129400  1
  O  O18  1  0.65079398  0.51384499  0.37939701  1
  O  O19  1  0.34920600  0.48615499  0.62060300  1
