# generated using pymatgen
data_Sr3Li4VO6
_symmetry_space_group_name_H-M   'P 1'
_cell_length_a   5.96555710
_cell_length_b   6.33362103
_cell_length_c   6.34892178
_cell_angle_alpha   90.00000000
_cell_angle_beta   90.00000000
_cell_angle_gamma   113.54711914
_symmetry_Int_Tables_number   1
_chemical_formula_structural   Sr3Li4VO6
_chemical_formula_sum   'Sr3 Li4 V1 O6'
_cell_volume   219.91019921
_cell_formula_units_Z   1
loop_
 _symmetry_equiv_pos_site_id
 _symmetry_equiv_pos_as_xyz
  1  'x, y, z'
loop_
 _atom_site_type_symbol
 _atom_site_label
 _atom_site_symmetry_multiplicity
 _atom_site_fract_x
 _atom_site_fract_y
 _atom_site_fract_z
 _atom_site_occupancy
  Sr  Sr0  1  0.80724199  0.06834300  0.36676501  1
  Sr  Sr1  1  0.80724196  0.56834300  0.13323500  1
  Sr  Sr2  1  0.19275797  0.43165700  0.86676503  1
  V  V3  1  0.19275794  0.93165701  0.63323502  1
  Li  Li4  1  0.67125297  0.43284400  0.61365602  1
  Li  Li5  1  0.32874699  0.06715600  0.11365600  1
  Li  Li6  1  0.67125293  0.93284401  0.88634403  1
  Li  Li7  1  0.32874696  0.56715600  0.38634401  1
  O  O8  1  -0.00000003  0.50000000  0.50000002  1
  O  O9  1  0.00000000  0.00000000  0.00000000  1
  O  O10  1  0.58511198  0.20965100  0.86212103  1
  O  O11  1  0.41488798  0.29034900  0.36212101  1
  O  O12  1  0.58511195  0.70965100  0.63787902  1
  O  O13  1  0.41488794  0.79034900  0.13787900  1
