# generated using pymatgen
data_LiCa2Nb(PbO3)4
_symmetry_space_group_name_H-M   'P 1'
_cell_length_a   5.52014589
_cell_length_b   5.55812216
_cell_length_c   9.73910332
_cell_angle_alpha   105.78308868
_cell_angle_beta   90.00000000
_cell_angle_gamma   119.77423859
_symmetry_Int_Tables_number   1
_chemical_formula_structural   LiCa2Nb(PbO3)4
_chemical_formula_sum   'Li1 Ca2 Nb1 Pb4 O12'
_cell_volume   246.30182090
_cell_formula_units_Z   1
loop_
 _symmetry_equiv_pos_site_id
 _symmetry_equiv_pos_as_xyz
  1  'x, y, z'
loop_
 _atom_site_type_symbol
 _atom_site_label
 _atom_site_symmetry_multiplicity
 _atom_site_fract_x
 _atom_site_fract_y
 _atom_site_fract_z
 _atom_site_occupancy
  Nb  Nb0  1  0.25860502  0.50506401  0.74956903  1
  Li  Li1  1  0.75354103  0.49493601  0.25043101  1
  Ca  Ca2  1  0.99968805  1.00000003  0.00000000  1
  Ca  Ca3  1  0.51461904  1.00000003  0.50000003  1
  Pb  Pb4  1  0.67652402  0.26788301  0.87644104  1
  Pb  Pb5  1  0.40864103  0.73211702  0.12355901  1
  Pb  Pb6  1  0.11060001  0.26758901  0.37578902  1
  Pb  Pb7  1  0.84301104  0.73241102  0.62421103  1
  O  O8  1  0.37775302  0.31488801  0.13450101  1
  O  O9  1  0.44968302  0.32182601  0.63115303  1
  O  O10  1  0.06286503  0.68511202  0.86549904  1
  O  O11  1  0.87036903  0.29919401  0.09188000  1
  O  O12  1  0.04452501  0.18690401  0.83165004  1
  O  O13  1  0.94534003  0.31182501  0.59066303  1
  O  O14  1  0.47528104  0.82671702  0.67012203  1
  O  O15  1  0.64856402  0.17328300  0.32987802  1
  O  O16  1  0.12785703  0.67817402  0.36884702  1
  O  O17  1  0.63351504  0.68817502  0.40933702  1
  O  O18  1  0.85762104  0.81309602  0.16835001  1
  O  O19  1  0.57117504  0.70080602  0.90812004  1
