# generated using pymatgen
data_Zr7(MnSi2)3
_symmetry_space_group_name_H-M   'P 1'
_cell_length_a   5.49760199
_cell_length_b   7.96150780
_cell_length_c   7.96150780
_cell_angle_alpha   120.00000000
_cell_angle_beta   90.00000000
_cell_angle_gamma   90.00000000
_symmetry_Int_Tables_number   1
_chemical_formula_structural   Zr7(MnSi2)3
_chemical_formula_sum   'Zr7 Mn3 Si6'
_cell_volume   301.78286410
_cell_formula_units_Z   1
loop_
 _symmetry_equiv_pos_site_id
 _symmetry_equiv_pos_as_xyz
  1  'x, y, z'
loop_
 _atom_site_type_symbol
 _atom_site_label
 _atom_site_symmetry_multiplicity
 _atom_site_fract_x
 _atom_site_fract_y
 _atom_site_fract_z
 _atom_site_occupancy
  Zr  Zr0  1  0.75000000  0.75717901  0.75717899  1
  Zr  Zr1  1  0.25000000  0.75717901  -0.00000001  1
  Zr  Zr2  1  0.25000000  0.00000000  0.75717900  1
  Zr  Zr3  1  0.75000000  0.00000000  0.24282100  1
  Zr  Zr4  1  0.75000000  0.24282100  -0.00000000  1
  Zr  Zr5  1  0.25000000  0.24282100  0.24282100  1
  Mn  Mn6  1  -0.00000000  0.33333334  0.66666667  1
  Zr  Zr7  1  0.50000000  0.66666668  0.33333333  1
  Mn  Mn8  1  0.50000000  0.33333334  0.66666667  1
  Mn  Mn9  1  -0.00000000  0.66666668  0.33333333  1
  Si  Si10  1  0.75000000  0.40150101  0.40150100  1
  Si  Si11  1  0.25000000  0.59849901  0.59849900  1
  Si  Si12  1  0.75000000  0.00000000  0.59849900  1
  Si  Si13  1  0.25000000  0.00000000  0.40150100  1
  Si  Si14  1  0.25000000  0.40150101  -0.00000001  1
  Si  Si15  1  0.75000000  0.59849901  -0.00000001  1
