# generated using pymatgen
data_Li3MgS6
_symmetry_space_group_name_H-M   'P 1'
_cell_length_a   6.41115236
_cell_length_b   6.41115236
_cell_length_c   11.68698978
_cell_angle_alpha   100.63854980
_cell_angle_beta   100.63854980
_cell_angle_gamma   109.08275604
_symmetry_Int_Tables_number   1
_chemical_formula_structural   Li3MgS6
_chemical_formula_sum   'Li6 Mg2 S12'
_cell_volume   430.37026138
_cell_formula_units_Z   2
loop_
 _symmetry_equiv_pos_site_id
 _symmetry_equiv_pos_as_xyz
  1  'x, y, z'
loop_
 _atom_site_type_symbol
 _atom_site_label
 _atom_site_symmetry_multiplicity
 _atom_site_fract_x
 _atom_site_fract_y
 _atom_site_fract_z
 _atom_site_occupancy
  Li  Li0  1  0.16651103  0.66651103  0.33302199  1
  Li  Li1  1  0.33348905  0.83348904  0.66697798  1
  Li  Li2  1  0.08348901  0.08348900  0.16697800  1
  Li  Li3  1  0.91651107  0.91651104  0.83302198  1
  Li  Li4  1  0.50232201  0.00232200  0.00464400  1
  Li  Li5  1  0.99767805  0.49767802  0.99535597  1
  Mg  Mg6  1  0.74767805  0.74767803  0.49535599  1
  Mg  Mg7  1  0.25232202  0.25232201  0.50464399  1
  S  S8  1  0.49064906  0.99064904  0.49999999  1
  S  S9  1  0.00935102  0.50935102  0.49999999  1
  S  S10  1  0.75935105  0.75935103  -0.00000000  1
  S  S11  1  0.24064902  0.24064901  0.99999997  1
  S  S12  1  0.58431304  0.59363503  0.66127898  1
  S  S13  1  0.93235507  0.92303404  0.33871999  1
  S  S14  1  0.40636503  0.41568702  0.33871999  1
  S  S15  1  0.07696601  0.06764500  0.66127898  1
  S  S16  1  0.66568702  0.15636501  0.83872098  1
  S  S17  1  0.31764505  0.82696604  0.16128000  1
  S  S18  1  0.84363504  0.33431301  0.16127999  1
  S  S19  1  0.17303404  0.68235503  0.83872098  1
