# generated using pymatgen
data_Sr3LiV2O5
_symmetry_space_group_name_H-M   'P 1'
_cell_length_a   5.98751307
_cell_length_b   5.99243641
_cell_length_c   7.29351807
_cell_angle_alpha   82.47209930
_cell_angle_beta   74.21909332
_cell_angle_gamma   60.05502319
_symmetry_Int_Tables_number   1
_chemical_formula_structural   Sr3LiV2O5
_chemical_formula_sum   'Sr3 Li1 V2 O5'
_cell_volume   218.20540356
_cell_formula_units_Z   1
loop_
 _symmetry_equiv_pos_site_id
 _symmetry_equiv_pos_as_xyz
  1  'x, y, z'
loop_
 _atom_site_type_symbol
 _atom_site_label
 _atom_site_symmetry_multiplicity
 _atom_site_fract_x
 _atom_site_fract_y
 _atom_site_fract_z
 _atom_site_occupancy
  Sr  Sr0  1  0.66896000  0.66682998  0.00379298  1
  Sr  Sr1  1  0.57481100  0.00409600  0.51138499  1
  Sr  Sr2  1  0.34110200  0.33158499  0.00382699  1
  Li  Li3  1  0.06419701  0.99790697  0.83767997  1
  V  V4  1  0.96280499  0.00130500  0.15002099  1
  V  V5  1  0.11616400  0.31188899  0.76386598  1
  O  O6  1  0.25722200  0.02562100  0.21832899  1
  O  O7  1  0.59398900  0.31520299  0.22864998  1
  O  O8  1  0.40146100  0.65745198  0.76643897  1
  O  O9  1  0.95414100  0.66624898  0.22727497  1
  O  O10  1  0.73165799  0.02186200  0.78873798  1
