# generated using pymatgen
data_LiVF4
_symmetry_space_group_name_H-M   'P 1'
_cell_length_a   3.09798408
_cell_length_b   7.75715590
_cell_length_c   7.85505915
_cell_angle_alpha   119.26616669
_cell_angle_beta   89.99987793
_cell_angle_gamma   90.00000763
_symmetry_Int_Tables_number   1
_chemical_formula_structural   LiVF4
_chemical_formula_sum   'Li2 V2 F8'
_cell_volume   164.67435044
_cell_formula_units_Z   2
loop_
 _symmetry_equiv_pos_site_id
 _symmetry_equiv_pos_as_xyz
  1  'x, y, z'
loop_
 _atom_site_type_symbol
 _atom_site_label
 _atom_site_symmetry_multiplicity
 _atom_site_fract_x
 _atom_site_fract_y
 _atom_site_fract_z
 _atom_site_occupancy
  Li  Li0  1  0.25000001  0.55618299  0.86339797  1
  Li  Li1  1  0.74999900  0.44381799  0.13660199  1
  V  V2  1  0.25000100  0.05618500  0.86339998  1
  V  V3  1  0.74999901  0.94381497  0.13659998  1
  F  F4  1  0.74999999  0.16116300  0.07045600  1
  F  F5  1  0.75000000  0.66115998  0.07045198  1
  F  F6  1  0.25000002  0.83883698  0.92954296  1
  F  F7  1  0.25000001  0.33884099  0.92954797  1
  F  F8  1  0.75000200  0.46581299  0.68190398  1
  F  F9  1  0.75000202  0.96581797  0.68191196  1
  F  F10  1  0.24999801  0.53418599  0.31809698  1
  F  F11  1  0.24999800  0.03418100  0.31808899  1
