# generated using pymatgen
data_Na2PbSeO3
_symmetry_space_group_name_H-M   'P 1'
_cell_length_a   3.67351246
_cell_length_b   6.26576424
_cell_length_c   6.48655081
_cell_angle_alpha   64.12834167
_cell_angle_beta   73.62360382
_cell_angle_gamma   89.93532562
_symmetry_Int_Tables_number   1
_chemical_formula_structural   Na2PbSeO3
_chemical_formula_sum   'Na2 Pb1 Se1 O3'
_cell_volume   127.59760123
_cell_formula_units_Z   1
loop_
 _symmetry_equiv_pos_site_id
 _symmetry_equiv_pos_as_xyz
  1  'x, y, z'
loop_
 _atom_site_type_symbol
 _atom_site_label
 _atom_site_symmetry_multiplicity
 _atom_site_fract_x
 _atom_site_fract_y
 _atom_site_fract_z
 _atom_site_occupancy
  Na  Na0  1  0.27781203  0.29473200  0.48167501  1
  Na  Na1  1  0.75607808  0.70650000  0.53010700  1
  Pb  Pb2  1  0.02316210  0.99893201  0.99050804  1
  Se  Se3  1  0.90024807  0.54078900  0.23548499  1
  O  O4  1  0.13792605  0.45114800  0.76728802  1
  O  O5  1  0.38249601  0.02349300  0.27324799  1
  O  O6  1  0.65727811  0.98440601  0.72168902  1
