# generated using pymatgen
data_Mn5Ni7
_symmetry_space_group_name_H-M   'P 1'
_cell_length_a   3.95202303
_cell_length_b   3.95202303
_cell_length_c   13.07551479
_cell_angle_alpha   81.30799866
_cell_angle_beta   81.30799866
_cell_angle_gamma   60.00001526
_symmetry_Int_Tables_number   1
_chemical_formula_structural   Mn5Ni7
_chemical_formula_sum   'Mn5 Ni7'
_cell_volume   174.14593889
_cell_formula_units_Z   1
loop_
 _symmetry_equiv_pos_site_id
 _symmetry_equiv_pos_as_xyz
  1  'x, y, z'
loop_
 _atom_site_type_symbol
 _atom_site_label
 _atom_site_symmetry_multiplicity
 _atom_site_fract_x
 _atom_site_fract_y
 _atom_site_fract_z
 _atom_site_occupancy
  Mn  Mn0  1  0.00000000  0.00000000  0.00000000  1
  Mn  Mn1  1  0.25123200  0.25123200  0.24630401  1
  Mn  Mn2  1  0.49999999  0.50000000  0.50000002  1
  Mn  Mn3  1  0.74876799  0.74876801  0.75369603  1
  Mn  Mn4  1  0.81210398  0.81210401  0.56368802  1
  Ni  Ni5  1  0.06104000  0.06104000  0.81688002  1
  Ni  Ni6  1  0.31360999  0.31361000  0.05917000  1
  Ni  Ni7  1  0.56332499  0.56332501  0.31002501  1
  Ni  Ni8  1  0.43667499  0.43667500  0.68997502  1
  Ni  Ni9  1  0.68638999  0.68639001  0.94083003  1
  Ni  Ni10  1  0.93895998  0.93896001  0.18312001  1
  Ni  Ni11  1  0.18789600  0.18789600  0.43631201  1
