# generated using pymatgen
data_Tl2Sn2I5Br7
_symmetry_space_group_name_H-M   'P 1'
_cell_length_a   7.66277790
_cell_length_b   7.66277742
_cell_length_c   14.15339279
_cell_angle_alpha   90.00000000
_cell_angle_beta   90.00000000
_cell_angle_gamma   120.00000000
_symmetry_Int_Tables_number   1
_chemical_formula_structural   Tl2Sn2I5Br7
_chemical_formula_sum   'Tl2 Sn2 I5 Br7'
_cell_volume   719.72011454
_cell_formula_units_Z   1
loop_
 _symmetry_equiv_pos_site_id
 _symmetry_equiv_pos_as_xyz
  1  'x, y, z'
loop_
 _atom_site_type_symbol
 _atom_site_label
 _atom_site_symmetry_multiplicity
 _atom_site_fract_x
 _atom_site_fract_y
 _atom_site_fract_z
 _atom_site_occupancy
  Tl  Tl0  1  0.33333332  0.66666668  0.25000000  1
  Tl  Tl1  1  0.66666666  0.33333334  0.75000001  1
  Sn  Sn2  1  0.00000000  0.00000000  0.50000001  1
  Sn  Sn3  1  0.00000000  0.00000000  0.00000000  1
  I  I4  1  0.32270499  0.31897300  0.37615101  1
  I  I5  1  0.67729499  0.68102701  0.62384901  1
  I  I6  1  0.99626799  0.67729401  0.37615101  1
  I  I7  1  0.32270500  0.00373100  0.12384900  1
  Br  Br8  1  0.00373199  0.32270600  0.62384901  1
  Br  Br9  1  0.67729498  0.99626901  0.87615101  1
  I  I10  1  0.68102601  0.00373100  0.37615101  1
  Br  Br11  1  0.99626800  0.31897300  0.12384900  1
  Br  Br12  1  0.31897397  0.99626901  0.62384901  1
  Br  Br13  1  0.00373198  0.68102701  0.87615101  1
  Br  Br14  1  0.68102599  0.67729401  0.12384900  1
  Br  Br15  1  0.31897399  0.32270600  0.87615101  1
