# generated using pymatgen
data_CaMnO3
_symmetry_space_group_name_H-M   'P 1'
_cell_length_a   5.54438782
_cell_length_b   5.55495548
_cell_length_c   9.37657833
_cell_angle_alpha   89.74481201
_cell_angle_beta   73.71492767
_cell_angle_gamma   61.55581665
_symmetry_Int_Tables_number   1
_chemical_formula_structural   CaMnO3
_chemical_formula_sum   'Ca4 Mn4 O12'
_cell_volume   240.86903206
_cell_formula_units_Z   4
loop_
 _symmetry_equiv_pos_site_id
 _symmetry_equiv_pos_as_xyz
  1  'x, y, z'
loop_
 _atom_site_type_symbol
 _atom_site_label
 _atom_site_symmetry_multiplicity
 _atom_site_fract_x
 _atom_site_fract_y
 _atom_site_fract_z
 _atom_site_occupancy
  Ca  Ca0  1  0.75989799  0.61772402  0.87324895  1
  Ca  Ca1  1  0.76023000  0.11765500  0.37309897  1
  Ca  Ca2  1  0.24008199  0.88223104  0.62675497  1
  Ca  Ca3  1  0.23992899  0.38228602  0.12684398  1
  Mn  Mn4  1  0.50003299  0.75001903  0.25001396  1
  Mn  Mn5  1  0.49996800  0.24999601  0.74999097  1
  Mn  Mn6  1  0.00014299  0.49984002  0.50014998  1
  Mn  Mn7  1  0.99971600  0.00026900  0.99995295  1
  O  O8  1  0.18357599  0.69215303  0.38495097  1
  O  O9  1  0.18348200  0.19241901  0.88484398  1
  O  O10  1  0.33501200  0.10487400  0.37298498  1
  O  O11  1  0.33497499  0.60489702  0.87299796  1
  O  O12  1  0.78171799  0.54543902  0.36457196  1
  O  O13  1  0.78155100  0.04554200  0.86451796  1
  O  O14  1  0.66499700  0.39514602  0.12700897  1
  O  O15  1  0.66499199  0.89509004  0.62699495  1
  O  O16  1  0.21829799  0.95455704  0.13541697  1
  O  O17  1  0.21834399  0.45451602  0.63548697  1
  O  O18  1  0.81649999  0.80786903  0.11504095  1
  O  O19  1  0.81655600  0.30747801  0.61512696  1
