# generated using pymatgen
data_Ca2MnBiO6
_symmetry_space_group_name_H-M   'P 1'
_cell_length_a   5.39904022
_cell_length_b   5.72995710
_cell_length_c   7.73586845
_cell_angle_alpha   90.00000000
_cell_angle_beta   90.57286835
_cell_angle_gamma   90.00000000
_symmetry_Int_Tables_number   1
_chemical_formula_structural   Ca2MnBiO6
_chemical_formula_sum   'Ca4 Mn2 Bi2 O12'
_cell_volume   239.30694436
_cell_formula_units_Z   2
loop_
 _symmetry_equiv_pos_site_id
 _symmetry_equiv_pos_as_xyz
  1  'x, y, z'
loop_
 _atom_site_type_symbol
 _atom_site_label
 _atom_site_symmetry_multiplicity
 _atom_site_fract_x
 _atom_site_fract_y
 _atom_site_fract_z
 _atom_site_occupancy
  Ca  Ca0  1  0.48191198  0.56895499  0.25235602  1
  Ca  Ca1  1  0.98191196  0.93104498  0.75235605  1
  Ca  Ca2  1  0.51808798  0.43104499  0.74764404  1
  Ca  Ca3  1  0.01808800  0.06895500  0.24764401  1
  Mn  Mn4  1  0.49999998  0.00000000  1.00000004  1
  Mn  Mn5  1  0.00000000  0.49999999  0.50000001  1
  Bi  Bi6  1  0.00000000  0.49999999  0.00000000  1
  Bi  Bi7  1  0.49999998  0.00000000  0.50000003  1
  O  O8  1  0.79692597  0.18337300  0.94637105  1
  O  O9  1  0.29692599  0.31662699  0.44637102  1
  O  O10  1  0.20307399  0.81662699  0.05362901  1
  O  O11  1  0.70307397  0.68337299  0.55362904  1
  O  O12  1  0.68050297  0.70765099  0.93851305  1
  O  O13  1  0.18050299  0.79234899  0.43851302  1
  O  O14  1  0.31949699  0.29234899  0.06148701  1
  O  O15  1  0.81949697  0.20765100  0.56148704  1
  O  O16  1  0.61277298  0.95859698  0.24210702  1
  O  O17  1  0.11277300  0.54140299  0.74210702  1
  O  O18  1  0.38722698  0.04140300  0.75789303  1
  O  O19  1  0.88722696  0.45859699  0.25789303  1
