# generated using pymatgen
data_Dy2(B2Rh3)3
_symmetry_space_group_name_H-M   'P 1'
_cell_length_a   5.59067822
_cell_length_b   5.59067869
_cell_length_c   8.56275558
_cell_angle_alpha   90.00000000
_cell_angle_beta   90.00000000
_cell_angle_gamma   119.99999237
_symmetry_Int_Tables_number   1
_chemical_formula_structural   Dy2(B2Rh3)3
_chemical_formula_sum   'Dy2 B6 Rh9'
_cell_volume   231.77855024
_cell_formula_units_Z   1
loop_
 _symmetry_equiv_pos_site_id
 _symmetry_equiv_pos_as_xyz
  1  'x, y, z'
loop_
 _atom_site_type_symbol
 _atom_site_label
 _atom_site_symmetry_multiplicity
 _atom_site_fract_x
 _atom_site_fract_y
 _atom_site_fract_z
 _atom_site_occupancy
  Dy  Dy0  1  0.00000000  0.00000000  0.29537501  1
  Dy  Dy1  1  0.00000000  0.00000000  0.70462503  1
  B  B2  1  0.33333328  0.66666665  -0.00000000  1
  B  B3  1  0.66666662  0.33333332  -0.00000000  1
  B  B4  1  0.33333328  0.66666665  0.33260902  1
  B  B5  1  0.66666662  0.33333332  0.33260902  1
  B  B6  1  0.66666662  0.33333332  0.66739103  1
  B  B7  1  0.33333328  0.66666665  0.66739103  1
  Rh  Rh8  1  0.49999998  0.00000000  0.16438701  1
  Rh  Rh9  1  0.49999995  0.49999999  0.16438701  1
  Rh  Rh10  1  -0.00000003  0.49999999  0.16438701  1
  Rh  Rh11  1  0.49999998  0.00000000  0.83561304  1
  Rh  Rh12  1  0.49999995  0.49999999  0.83561304  1
  Rh  Rh13  1  -0.00000003  0.49999999  0.83561304  1
  Rh  Rh14  1  0.49999998  0.00000000  0.50000002  1
  Rh  Rh15  1  0.49999995  0.49999999  0.50000002  1
  Rh  Rh16  1  -0.00000003  0.49999999  0.50000002  1
