# generated using pymatgen
data_SrPr2CoBO4
_symmetry_space_group_name_H-M   'P 1'
_cell_length_a   3.70870805
_cell_length_b   6.19378185
_cell_length_c   6.19378233
_cell_angle_alpha   120.00000000
_cell_angle_beta   90.00000000
_cell_angle_gamma   90.00000000
_symmetry_Int_Tables_number   1
_chemical_formula_structural   SrPr2CoBO4
_chemical_formula_sum   'Sr1 Pr2 Co1 B1 O4'
_cell_volume   123.21543721
_cell_formula_units_Z   1
loop_
 _symmetry_equiv_pos_site_id
 _symmetry_equiv_pos_as_xyz
  1  'x, y, z'
loop_
 _atom_site_type_symbol
 _atom_site_label
 _atom_site_symmetry_multiplicity
 _atom_site_fract_x
 _atom_site_fract_y
 _atom_site_fract_z
 _atom_site_occupancy
  Sr  Sr0  1  0.92157099  0.73477703  0.65677904  1
  Pr  Pr1  1  0.42632199  0.32493101  0.39787702  1
  Pr  Pr2  1  0.42632199  0.60212303  0.92705403  1
  B  B3  1  0.92157099  0.92200204  0.26522304  1
  O  O4  1  0.42632199  0.07294600  0.67506901  1
  Co  Co5  1  0.92157099  0.34322102  0.07799801  1
  O  O6  1  0.52537299  0.00000000  -0.00000000  1
  O  O7  1  0.93106699  0.33333335  0.66666669  1
  O  O8  1  0.39488299  0.66666670  0.33333336  1
