# generated using pymatgen
data_NaMn6As5
_symmetry_space_group_name_H-M   'P 1'
_cell_length_a   6.91131878
_cell_length_b   7.28858423
_cell_length_c   7.31801558
_cell_angle_alpha   60.13295364
_cell_angle_beta   90.00000000
_cell_angle_gamma   90.00000000
_symmetry_Int_Tables_number   1
_chemical_formula_structural   NaMn6As5
_chemical_formula_sum   'Na1 Mn6 As5'
_cell_volume   319.67475618
_cell_formula_units_Z   1
loop_
 _symmetry_equiv_pos_site_id
 _symmetry_equiv_pos_as_xyz
  1  'x, y, z'
loop_
 _atom_site_type_symbol
 _atom_site_label
 _atom_site_symmetry_multiplicity
 _atom_site_fract_x
 _atom_site_fract_y
 _atom_site_fract_z
 _atom_site_occupancy
  Na  Na0  1  0.00835200  0.69001797  0.32216203  1
  Mn  Mn1  1  0.00835200  0.01218000  0.67783802  1
  Mn  Mn2  1  0.50835202  0.30998198  0.67783803  1
  Mn  Mn3  1  0.50835202  0.98781995  0.32216204  1
  Mn  Mn4  1  0.03802400  0.34736298  0.00000001  1
  Mn  Mn5  1  0.53802402  0.65263697  0.00000002  1
  As  As6  1  0.62856802  0.64510497  0.31577303  1
  Mn  Mn7  1  0.62856802  0.96087795  0.68422705  1
  As  As8  1  0.12856800  0.35489498  0.68422703  1
  As  As9  1  0.12856800  0.03912200  0.31577301  1
  As  As10  1  0.67113502  0.33787298  0.00000001  1
  As  As11  1  0.17113501  0.66212697  1.00000005  1
