# generated using pymatgen
data_LiFe3F4
_symmetry_space_group_name_H-M   'P 1'
_cell_length_a   3.95873404
_cell_length_b   5.67983723
_cell_length_c   10.73597717
_cell_angle_alpha   90.00000000
_cell_angle_beta   90.00000000
_cell_angle_gamma   110.39498901
_symmetry_Int_Tables_number   1
_chemical_formula_structural   LiFe3F4
_chemical_formula_sum   'Li2 Fe6 F8'
_cell_volume   226.26542195
_cell_formula_units_Z   2
loop_
 _symmetry_equiv_pos_site_id
 _symmetry_equiv_pos_as_xyz
  1  'x, y, z'
loop_
 _atom_site_type_symbol
 _atom_site_label
 _atom_site_symmetry_multiplicity
 _atom_site_fract_x
 _atom_site_fract_y
 _atom_site_fract_z
 _atom_site_occupancy
  Li  Li0  1  0.86260695  0.72521396  0.06015300  1
  Li  Li1  1  0.86511095  0.73022196  0.44672999  1
  Fe  Fe2  1  0.81414196  0.62828397  0.75089099  1
  Fe  Fe3  1  0.18585798  0.37171598  0.25089100  1
  Fe  Fe4  1  0.13488898  0.26977799  0.94672998  1
  Fe  Fe5  1  0.13739298  0.27478599  0.56015299  1
  Fe  Fe6  1  0.95325794  0.90651595  0.61505099  1
  Fe  Fe7  1  0.29539297  0.59078597  0.42440899  1
  F  F8  1  0.70460697  0.40921398  0.92440899  1
  F  F9  1  0.04674199  0.09348400  0.11505100  1
  F  F10  1  0.95502094  0.91004195  0.88304699  1
  F  F11  1  0.30841596  0.61683197  0.08075500  1
  F  F12  1  0.24492397  0.48984797  0.73896499  1
  F  F13  1  0.75507597  0.51015197  0.23896500  1
  F  F14  1  0.69158397  0.38316798  0.58075499  1
  F  F15  1  0.04497899  0.08995800  0.38304699  1
