# generated using pymatgen
data_V2FeNi8B
_symmetry_space_group_name_H-M   'P 1'
_cell_length_a   4.48391294
_cell_length_b   4.48391294
_cell_length_c   7.53260565
_cell_angle_alpha   72.68447876
_cell_angle_beta   72.68447876
_cell_angle_gamma   59.99998474
_symmetry_Int_Tables_number   1
_chemical_formula_structural   V2FeNi8B
_chemical_formula_sum   'V2 Fe1 Ni8 B1'
_cell_volume   123.16755000
_cell_formula_units_Z   1
loop_
 _symmetry_equiv_pos_site_id
 _symmetry_equiv_pos_as_xyz
  1  'x, y, z'
loop_
 _atom_site_type_symbol
 _atom_site_label
 _atom_site_symmetry_multiplicity
 _atom_site_fract_x
 _atom_site_fract_y
 _atom_site_fract_z
 _atom_site_occupancy
  V  V0  1  0.85769406  0.85769402  0.42691800  1
  V  V1  1  0.14230601  0.14230600  0.57308201  1
  Fe  Fe2  1  0.00000000  0.00000000  0.00000000  1
  Ni  Ni3  1  0.92138305  0.41765001  0.24331700  1
  Ni  Ni4  1  0.41765003  0.41765001  0.24331700  1
  Ni  Ni5  1  0.41765004  0.92138302  0.24331700  1
  Ni  Ni6  1  0.07861702  0.58235002  0.75668301  1
  Ni  Ni7  1  0.58235004  0.58235002  0.75668301  1
  Ni  Ni8  1  0.58235002  0.07861700  0.75668301  1
  Ni  Ni9  1  0.66607504  0.66607502  0.00177500  1
  Ni  Ni10  1  0.33392502  0.33392501  0.99822501  1
  B  B11  1  0.50000003  0.50000001  0.50000001  1
