# generated using pymatgen
data_EuCuTe
_symmetry_space_group_name_H-M   'P 1'
_cell_length_a   4.19363117
_cell_length_b   4.39524794
_cell_length_c   4.39524841
_cell_angle_alpha   60.00000381
_cell_angle_beta   90.00000000
_cell_angle_gamma   90.00000000
_symmetry_Int_Tables_number   1
_chemical_formula_structural   EuCuTe
_chemical_formula_sum   'Eu1 Cu1 Te1'
_cell_volume   70.15969376
_cell_formula_units_Z   1
loop_
 _symmetry_equiv_pos_site_id
 _symmetry_equiv_pos_as_xyz
  1  'x, y, z'
loop_
 _atom_site_type_symbol
 _atom_site_label
 _atom_site_symmetry_multiplicity
 _atom_site_fract_x
 _atom_site_fract_y
 _atom_site_fract_z
 _atom_site_occupancy
  Eu  Eu0  1  0.00000000  0.66666668  0.66666668  1
  Cu  Cu1  1  0.49999998  0.00000000  -0.00000000  1
  Te  Te2  1  0.49999998  0.33333334  0.33333334  1
