# generated using pymatgen
data_Ca2Pt
_symmetry_space_group_name_H-M   'P 1'
_cell_length_a   4.84675694
_cell_length_b   7.02508307
_cell_length_c   8.79039764
_cell_angle_alpha   90.00000000
_cell_angle_beta   90.00000000
_cell_angle_gamma   90.00000000
_symmetry_Int_Tables_number   1
_chemical_formula_structural   Ca2Pt
_chemical_formula_sum   'Ca8 Pt4'
_cell_volume   299.30310720
_cell_formula_units_Z   4
loop_
 _symmetry_equiv_pos_site_id
 _symmetry_equiv_pos_as_xyz
  1  'x, y, z'
loop_
 _atom_site_type_symbol
 _atom_site_label
 _atom_site_symmetry_multiplicity
 _atom_site_fract_x
 _atom_site_fract_y
 _atom_site_fract_z
 _atom_site_occupancy
  Ca  Ca0  1  0.25000000  0.85014999  0.92562104  1
  Ca  Ca1  1  0.25000000  0.35015000  0.57437902  1
  Ca  Ca2  1  0.75000001  0.14985000  0.07437900  1
  Ca  Ca3  1  0.75000001  0.64984999  0.42562102  1
  Ca  Ca4  1  0.25000000  0.48134500  0.17870201  1
  Ca  Ca5  1  0.25000000  0.98134499  0.32129801  1
  Ca  Ca6  1  0.75000001  0.51865500  0.82129803  1
  Ca  Ca7  1  0.75000001  0.01865500  0.67870203  1
  Pt  Pt8  1  0.25000000  0.25491200  0.89551404  1
  Pt  Pt9  1  0.25000000  0.75491199  0.60448602  1
  Pt  Pt10  1  0.75000001  0.74508799  0.10448600  1
  Pt  Pt11  1  0.75000001  0.24508800  0.39551402  1
