# generated using pymatgen
data_HoSiPt
_symmetry_space_group_name_H-M   'P 1'
_cell_length_a   4.31225586
_cell_length_b   6.91946983
_cell_length_c   7.57226706
_cell_angle_alpha   90.00000000
_cell_angle_beta   90.00000000
_cell_angle_gamma   90.00000000
_symmetry_Int_Tables_number   1
_chemical_formula_structural   HoSiPt
_chemical_formula_sum   'Ho4 Si4 Pt4'
_cell_volume   225.94527479
_cell_formula_units_Z   4
loop_
 _symmetry_equiv_pos_site_id
 _symmetry_equiv_pos_as_xyz
  1  'x, y, z'
loop_
 _atom_site_type_symbol
 _atom_site_label
 _atom_site_symmetry_multiplicity
 _atom_site_fract_x
 _atom_site_fract_y
 _atom_site_fract_z
 _atom_site_occupancy
  Ho  Ho0  1  0.25000001  0.50331801  0.69492999  1
  Ho  Ho1  1  0.75000002  0.49668201  0.30507000  1
  Ho  Ho2  1  0.25000001  0.00331800  0.80506999  1
  Ho  Ho3  1  0.75000002  0.99668202  0.19493000  1
  Si  Si4  1  0.25000001  0.28742301  0.10674400  1
  Si  Si5  1  0.75000002  0.71257702  0.89325599  1
  Si  Si6  1  0.25000001  0.78742302  0.39325600  1
  Si  Si7  1  0.75000002  0.21257701  0.60674400  1
  Pt  Pt8  1  0.75000002  0.84439502  0.56678400  1
  Pt  Pt9  1  0.25000001  0.15560500  0.43321600  1
  Pt  Pt10  1  0.75000002  0.34439501  0.93321599  1
  Pt  Pt11  1  0.25000001  0.65560502  0.06678400  1
