# generated using pymatgen
data_SrLi2MnSi2
_symmetry_space_group_name_H-M   'P 1'
_cell_length_a   4.46055984
_cell_length_b   4.46056080
_cell_length_c   5.76799488
_cell_angle_alpha   90.00000000
_cell_angle_beta   90.00000000
_cell_angle_gamma   119.99999237
_symmetry_Int_Tables_number   1
_chemical_formula_structural   SrLi2MnSi2
_chemical_formula_sum   'Sr1 Li2 Mn1 Si2'
_cell_volume   99.38809469
_cell_formula_units_Z   1
loop_
 _symmetry_equiv_pos_site_id
 _symmetry_equiv_pos_as_xyz
  1  'x, y, z'
loop_
 _atom_site_type_symbol
 _atom_site_label
 _atom_site_symmetry_multiplicity
 _atom_site_fract_x
 _atom_site_fract_y
 _atom_site_fract_z
 _atom_site_occupancy
  Sr  Sr0  1  0.00000000  0.00000000  0.00000000  1
  Mn  Mn1  1  0.00000000  0.00000000  0.50000001  1
  Li  Li2  1  0.66666667  0.33333331  0.75000002  1
  Li  Li3  1  0.33333331  0.66666662  0.25000001  1
  Si  Si4  1  0.66666667  0.33333331  0.25000001  1
  Si  Si5  1  0.33333331  0.66666662  0.75000002  1
