# generated using pymatgen
data_LiV5As8
_symmetry_space_group_name_H-M   'P 1'
_cell_length_a   4.11813164
_cell_length_b   9.38672161
_cell_length_c   9.68812847
_cell_angle_alpha   104.79705048
_cell_angle_beta   101.55322266
_cell_angle_gamma   90.02122498
_symmetry_Int_Tables_number   1
_chemical_formula_structural   LiV5As8
_chemical_formula_sum   'Li1 V5 As8'
_cell_volume   354.22092380
_cell_formula_units_Z   1
loop_
 _symmetry_equiv_pos_site_id
 _symmetry_equiv_pos_as_xyz
  1  'x, y, z'
loop_
 _atom_site_type_symbol
 _atom_site_label
 _atom_site_symmetry_multiplicity
 _atom_site_fract_x
 _atom_site_fract_y
 _atom_site_fract_z
 _atom_site_occupancy
  Li  Li0  1  0.53485795  0.48087502  0.06553603  1
  V  V1  1  0.99948490  0.99975103  0.99839709  1
  V  V2  1  0.28533695  0.66234502  0.57589306  1
  V  V3  1  0.37148298  0.08278600  0.70582403  1
  V  V4  1  0.63168992  0.91374903  0.28976506  1
  V  V5  1  0.72052295  0.33304001  0.43116903  1
  As  As6  1  0.06068495  0.79411403  0.13378205  1
  As  As7  1  0.16748397  0.46944802  0.32891204  1
  As  As8  1  0.24209498  0.15745201  0.47873302  1
  As  As9  1  0.41142093  0.87394503  0.82539808  1
  As  As10  1  0.58817297  0.12676700  0.17461701  1
  As  As11  1  0.74823492  0.84882303  0.52096307  1
  As  As12  1  0.82883094  0.53209502  0.66623405  1
  As  As13  1  0.93967995  0.20469901  0.86473704  1
