# generated using pymatgen
data_LiCuF4
_symmetry_space_group_name_H-M   'P 1'
_cell_length_a   4.89821911
_cell_length_b   4.89821911
_cell_length_c   4.89821911
_cell_angle_alpha   90.00000000
_cell_angle_beta   90.00000000
_cell_angle_gamma   90.00000000
_symmetry_Int_Tables_number   1
_chemical_formula_structural   LiCuF4
_chemical_formula_sum   'Li2 Cu2 F8'
_cell_volume   117.52076901
_cell_formula_units_Z   2
loop_
 _symmetry_equiv_pos_site_id
 _symmetry_equiv_pos_as_xyz
  1  'x, y, z'
loop_
 _atom_site_type_symbol
 _atom_site_label
 _atom_site_symmetry_multiplicity
 _atom_site_fract_x
 _atom_site_fract_y
 _atom_site_fract_z
 _atom_site_occupancy
  Li  Li0  1  0.49999999  0.49999999  0.00000000  1
  Li  Li1  1  0.49999999  0.00000000  0.49999999  1
  Cu  Cu2  1  0.00000000  0.49999999  0.49999999  1
  Cu  Cu3  1  0.00000000  0.00000000  0.00000000  1
  F  F4  1  0.14920000  0.85079998  0.35079999  1
  F  F5  1  0.85079998  0.35079999  0.14920000  1
  F  F6  1  0.35079999  0.14920000  0.85079998  1
  F  F7  1  0.64919999  0.64919999  0.64919999  1
  F  F8  1  0.85079998  0.14920000  0.64919999  1
  F  F9  1  0.14920000  0.64919999  0.85079998  1
  F  F10  1  0.64919999  0.85079998  0.14920000  1
  F  F11  1  0.35079999  0.35079999  0.35079999  1
