# generated using pymatgen
data_Rb6IO7
_symmetry_space_group_name_H-M   'P 1'
_cell_length_a   6.77126789
_cell_length_b   6.79484892
_cell_length_c   8.28602505
_cell_angle_alpha   107.97041321
_cell_angle_beta   90.00000000
_cell_angle_gamma   90.00000000
_symmetry_Int_Tables_number   1
_chemical_formula_structural   Rb6IO7
_chemical_formula_sum   'Rb6 I1 O7'
_cell_volume   362.63955403
_cell_formula_units_Z   1
loop_
 _symmetry_equiv_pos_site_id
 _symmetry_equiv_pos_as_xyz
  1  'x, y, z'
loop_
 _atom_site_type_symbol
 _atom_site_label
 _atom_site_symmetry_multiplicity
 _atom_site_fract_x
 _atom_site_fract_y
 _atom_site_fract_z
 _atom_site_occupancy
  Rb  Rb0  1  0.25000000  0.76174300  0.56544697  1
  Rb  Rb1  1  0.75000001  0.23825700  0.43455298  1
  Rb  Rb2  1  0.25000000  0.72202000  0.05328798  1
  Rb  Rb3  1  0.75000001  0.27798000  0.94671197  1
  Rb  Rb4  1  0.25000000  0.26954800  0.19812399  1
  Rb  Rb5  1  0.75000001  0.73045200  0.80187596  1
  O  O6  1  0.49727901  0.50962700  0.74147097  1
  I  I7  1  0.99727902  0.49037300  0.25852898  1
  O  O8  1  0.50272101  0.49037300  0.25852898  1
  O  O9  1  0.00272100  0.50962700  0.74147097  1
  O  O10  1  0.25000000  0.07749700  0.37318999  1
  O  O11  1  0.75000001  0.92250300  0.62680996  1
  O  O12  1  0.75000001  0.90499800  0.07688498  1
  O  O13  1  0.25000000  0.09500200  0.92311497  1
