# generated using pymatgen
data_LiFeO3
_symmetry_space_group_name_H-M   'P 1'
_cell_length_a   2.91688800
_cell_length_b   5.08889484
_cell_length_c   12.13007832
_cell_angle_alpha   94.64998627
_cell_angle_beta   96.90558624
_cell_angle_gamma   90.00000000
_symmetry_Int_Tables_number   1
_chemical_formula_structural   LiFeO3
_chemical_formula_sum   'Li4 Fe4 O12'
_cell_volume   178.15249940
_cell_formula_units_Z   4
loop_
 _symmetry_equiv_pos_site_id
 _symmetry_equiv_pos_as_xyz
  1  'x, y, z'
loop_
 _atom_site_type_symbol
 _atom_site_label
 _atom_site_symmetry_multiplicity
 _atom_site_fract_x
 _atom_site_fract_y
 _atom_site_fract_z
 _atom_site_occupancy
  Li  Li0  1  -0.00000001  0.50000002  -0.00000001  1
  Li  Li1  1  0.59742698  0.70460103  0.19485398  1
  Li  Li2  1  0.20042098  0.89479103  0.40084198  1
  Li  Li3  1  0.79957899  0.10520900  0.59915798  1
  Fe  Fe4  1  0.40257299  0.29539901  0.80514598  1
  Fe  Fe5  1  0.49999998  1.00000004  -0.00000002  1
  Fe  Fe6  1  0.90292498  0.81241103  0.80584997  1
  Fe  Fe7  1  0.09707500  0.18758901  0.19414999  1
  O  O8  1  0.69993299  0.40308502  0.39986598  1
  O  O9  1  0.30006699  0.59691502  0.60013398  1
  O  O10  1  0.05519899  0.87473803  0.11039798  1
  O  O11  1  0.64594000  0.07306400  0.29187999  1
  O  O12  1  0.24862299  0.26276801  0.49724599  1
  O  O13  1  0.84818699  0.47698402  0.69637398  1
  O  O14  1  0.44354099  0.66639503  0.88708198  1
  O  O15  1  0.94480099  0.12526200  0.88960198  1
  O  O16  1  0.55645899  0.33360501  0.11291799  1
  O  O17  1  0.15181299  0.52301602  0.30362599  1
  O  O18  1  0.75137698  0.73723203  0.50275397  1
  O  O19  1  0.35405998  0.92693604  0.70811997  1
