# generated using pymatgen
data_Nb6(FeB)5
_symmetry_space_group_name_H-M   'P 1'
_cell_length_a   6.52704477
_cell_length_b   6.52704477
_cell_length_c   6.80649805
_cell_angle_alpha   90.00000000
_cell_angle_beta   90.00000000
_cell_angle_gamma   90.00000000
_symmetry_Int_Tables_number   1
_chemical_formula_structural   Nb6(FeB)5
_chemical_formula_sum   'Nb6 Fe5 B5'
_cell_volume   289.97256359
_cell_formula_units_Z   1
loop_
 _symmetry_equiv_pos_site_id
 _symmetry_equiv_pos_as_xyz
  1  'x, y, z'
loop_
 _atom_site_type_symbol
 _atom_site_label
 _atom_site_symmetry_multiplicity
 _atom_site_fract_x
 _atom_site_fract_y
 _atom_site_fract_z
 _atom_site_occupancy
  Nb  Nb0  1  0.00000000  0.50000002  0.50000000  1
  Nb  Nb1  1  0.50000002  0.00000000  0.00000000  1
  Nb  Nb2  1  0.50000002  0.00000000  0.50000000  1
  Nb  Nb3  1  0.00000000  0.50000002  0.00000000  1
  Nb  Nb4  1  0.34502801  0.65497202  0.23536400  1
  Nb  Nb5  1  0.65497202  0.34502801  0.23536400  1
  Fe  Fe6  1  0.15497201  0.15497201  0.73536399  1
  Fe  Fe7  1  0.84502803  0.84502803  0.73536399  1
  B  B8  1  0.65497202  0.34502801  0.76463599  1
  B  B9  1  0.34502801  0.65497202  0.76463599  1
  B  B10  1  0.84502803  0.84502803  0.26463600  1
  Fe  Fe11  1  0.15497201  0.15497201  0.26463600  1
  B  B12  1  0.15936101  0.84063903  0.50000000  1
  B  B13  1  0.84063903  0.15936101  0.50000000  1
  Fe  Fe14  1  0.34063901  0.34063901  0.00000000  1
  Fe  Fe15  1  0.65936102  0.65936102  0.00000000  1
