# generated using pymatgen
data_Al2Pd
_symmetry_space_group_name_H-M   'P 1'
_cell_length_a   3.18380809
_cell_length_b   3.18380809
_cell_length_c   4.73703051
_cell_angle_alpha   109.63671875
_cell_angle_beta   109.63671875
_cell_angle_gamma   90.00000000
_symmetry_Int_Tables_number   1
_chemical_formula_structural   Al2Pd
_chemical_formula_sum   'Al2 Pd1'
_cell_volume   42.24817465
_cell_formula_units_Z   1
loop_
 _symmetry_equiv_pos_site_id
 _symmetry_equiv_pos_as_xyz
  1  'x, y, z'
loop_
 _atom_site_type_symbol
 _atom_site_label
 _atom_site_symmetry_multiplicity
 _atom_site_fract_x
 _atom_site_fract_y
 _atom_site_fract_z
 _atom_site_occupancy
  Al  Al0  1  0.33822898  0.33822899  0.67645797  1
  Al  Al1  1  0.66177095  0.66177097  0.32354195  1
  Pd  Pd2  1  0.00000000  0.00000000  0.00000000  1
