# generated using pymatgen
data_Pm3Mg
_symmetry_space_group_name_H-M   'P 1'
_cell_length_a   4.89793587
_cell_length_b   4.89793587
_cell_length_c   6.13230801
_cell_angle_alpha   113.53786469
_cell_angle_beta   113.53786469
_cell_angle_gamma   90.00000000
_symmetry_Int_Tables_number   1
_chemical_formula_structural   Pm3Mg
_chemical_formula_sum   'Pm3 Mg1'
_cell_volume   121.40417600
_cell_formula_units_Z   1
loop_
 _symmetry_equiv_pos_site_id
 _symmetry_equiv_pos_as_xyz
  1  'x, y, z'
loop_
 _atom_site_type_symbol
 _atom_site_label
 _atom_site_symmetry_multiplicity
 _atom_site_fract_x
 _atom_site_fract_y
 _atom_site_fract_z
 _atom_site_occupancy
  Pm  Pm0  1  0.75000002  0.25000001  0.49999998  1
  Pm  Pm1  1  0.25000000  0.75000002  0.49999997  1
  Pm  Pm2  1  0.50000001  0.50000001  0.99999996  1
  Mg  Mg3  1  0.00000000  0.00000000  0.00000000  1
