# generated using pymatgen
data_Cs3V4Se5
_symmetry_space_group_name_H-M   'P 1'
_cell_length_a   5.62208080
_cell_length_b   8.21428490
_cell_length_c   8.21428490
_cell_angle_alpha   104.80172729
_cell_angle_beta   90.00000000
_cell_angle_gamma   90.00000000
_symmetry_Int_Tables_number   1
_chemical_formula_structural   Cs3V4Se5
_chemical_formula_sum   'Cs3 V4 Se5'
_cell_volume   366.75859016
_cell_formula_units_Z   1
loop_
 _symmetry_equiv_pos_site_id
 _symmetry_equiv_pos_as_xyz
  1  'x, y, z'
loop_
 _atom_site_type_symbol
 _atom_site_label
 _atom_site_symmetry_multiplicity
 _atom_site_fract_x
 _atom_site_fract_y
 _atom_site_fract_z
 _atom_site_occupancy
  Cs  Cs0  1  0.25000001  0.32174399  0.67825598  1
  Cs  Cs1  1  0.75000003  0.67825598  0.32174401  1
  Cs  Cs2  1  -0.00000000  0.15176499  0.15176500  1
  V  V3  1  0.50000002  0.84823497  0.84823500  1
  V  V4  1  1.00000004  0.84823497  0.84823500  1
  V  V5  1  0.50000002  0.15176499  0.15176500  1
  V  V6  1  0.25000001  0.88452897  0.11547103  1
  Se  Se7  1  0.75000003  0.11547100  0.88452896  1
  Se  Se8  1  0.25000001  0.39882899  0.16301301  1
  Se  Se9  1  0.75000003  0.60117098  0.83698699  1
  Se  Se10  1  0.75000003  0.16301299  0.39882899  1
  Se  Se11  1  0.25000001  0.83698697  0.60117101  1
