# generated using pymatgen
data_Ba5I7(NCl2)2
_symmetry_space_group_name_H-M   'P 1'
_cell_length_a   7.37645483
_cell_length_b   9.71439648
_cell_length_c   9.71439743
_cell_angle_alpha   60.00000381
_cell_angle_beta   90.00000000
_cell_angle_gamma   90.00000000
_symmetry_Int_Tables_number   1
_chemical_formula_structural   Ba5I7(NCl2)2
_chemical_formula_sum   'Ba5 I7 N2 Cl4'
_cell_volume   602.85105791
_cell_formula_units_Z   1
loop_
 _symmetry_equiv_pos_site_id
 _symmetry_equiv_pos_as_xyz
  1  'x, y, z'
loop_
 _atom_site_type_symbol
 _atom_site_label
 _atom_site_symmetry_multiplicity
 _atom_site_fract_x
 _atom_site_fract_y
 _atom_site_fract_z
 _atom_site_occupancy
  Ba  Ba0  1  0.25000001  0.24151799  0.00000000  1
  Ba  Ba1  1  0.25000001  0.00000000  0.75848197  1
  Ba  Ba2  1  0.25000001  0.75848196  0.24151799  1
  Ba  Ba3  1  0.75000002  0.75848196  0.00000000  1
  Ba  Ba4  1  0.75000002  0.00000000  0.24151799  1
  I  I5  1  0.75000002  0.24151799  0.75848198  1
  I  I6  1  1.00000002  0.66666663  0.66666665  1
  I  I7  1  1.00000002  0.33333332  0.33333332  1
  I  I8  1  0.50000001  0.33333332  0.33333332  1
  I  I9  1  0.50000001  0.66666663  0.66666665  1
  N  N10  1  0.00000000  0.00000000  0.00000000  1
  N  N11  1  0.50000001  0.00000000  0.00000000  1
  I  I12  1  0.25000001  0.59893097  0.00000000  1
  I  I13  1  0.25000001  0.00000000  0.40106899  1
  Cl  Cl14  1  0.25000001  0.40106898  0.59893098  1
  Cl  Cl15  1  0.75000002  0.40106898  0.00000000  1
  Cl  Cl16  1  0.75000002  0.00000000  0.59893098  1
  Cl  Cl17  1  0.75000002  0.59893097  0.40106899  1
