# generated using pymatgen
data_BaTlI4
_symmetry_space_group_name_H-M   'P 1'
_cell_length_a   8.30618000
_cell_length_b   8.30618000
_cell_length_c   10.16775322
_cell_angle_alpha   114.10794067
_cell_angle_beta   114.10794067
_cell_angle_gamma   90.00000000
_symmetry_Int_Tables_number   1
_chemical_formula_structural   BaTlI4
_chemical_formula_sum   'Ba2 Tl2 I8'
_cell_volume   572.62590649
_cell_formula_units_Z   2
loop_
 _symmetry_equiv_pos_site_id
 _symmetry_equiv_pos_as_xyz
  1  'x, y, z'
loop_
 _atom_site_type_symbol
 _atom_site_label
 _atom_site_symmetry_multiplicity
 _atom_site_fract_x
 _atom_site_fract_y
 _atom_site_fract_z
 _atom_site_occupancy
  Ba  Ba0  1  0.24999997  0.74999998  0.49999997  1
  Ba  Ba1  1  0.49999998  0.49999999  -0.00000004  1
  Tl  Tl2  1  0.74999998  0.24999999  0.49999998  1
  Tl  Tl3  1  0.00000000  0.00000000  0.00000000  1
  I  I4  1  0.87746796  0.87746798  0.24549094  1
  I  I5  1  0.36802296  0.87746798  0.24549096  1
  I  I6  1  0.63197697  0.63197699  0.75450897  1
  I  I7  1  0.12253198  0.63197699  0.75450898  1
  I  I8  1  0.87746798  0.36802299  0.24549096  1
  I  I9  1  0.36802298  0.36802299  0.24549098  1
  I  I10  1  0.12253199  0.12253200  0.75450900  1
  I  I11  1  0.63197699  0.12253200  0.75450899  1
