# generated using pymatgen
data_V2WO6
_symmetry_space_group_name_H-M   'P 1'
_cell_length_a   5.31228924
_cell_length_b   7.13230085
_cell_length_c   7.47295856
_cell_angle_alpha   90.00000000
_cell_angle_beta   91.52150726
_cell_angle_gamma   90.00000000
_symmetry_Int_Tables_number   1
_chemical_formula_structural   V2WO6
_chemical_formula_sum   'V4 W2 O12'
_cell_volume   283.04194152
_cell_formula_units_Z   2
loop_
 _symmetry_equiv_pos_site_id
 _symmetry_equiv_pos_as_xyz
  1  'x, y, z'
loop_
 _atom_site_type_symbol
 _atom_site_label
 _atom_site_symmetry_multiplicity
 _atom_site_fract_x
 _atom_site_fract_y
 _atom_site_fract_z
 _atom_site_occupancy
  V  V0  1  0.00000000  0.00000000  0.50000001  1
  V  V1  1  0.49999998  0.50000001  0.00000002  1
  V  V2  1  0.47906598  0.15788600  0.28450703  1
  V  V3  1  0.52093398  0.84211402  0.71549304  1
  W  W4  1  0.97906596  0.34211401  0.78450706  1
  W  W5  1  0.02093400  0.65788601  0.21549301  1
  O  O6  1  0.44376298  0.58398301  0.75923004  1
  O  O7  1  0.55623698  0.41601701  0.24077003  1
  O  O8  1  0.31591599  0.71378901  0.08582301  1
  O  O9  1  0.18408399  0.21378900  0.41417702  1
  O  O10  1  0.94376296  0.91601702  0.25923004  1
  O  O11  1  0.19885999  0.35096901  0.99478303  1
  O  O12  1  0.30113999  0.85096902  0.50521702  1
  O  O13  1  0.80113997  0.64903101  0.00521703  1
  O  O14  1  0.69885997  0.14903100  0.49478304  1
  O  O15  1  0.68408397  0.28621101  0.91417705  1
  O  O16  1  0.81591596  0.78621102  0.58582305  1
  O  O17  1  0.05623700  0.08398300  0.74077002  1
