# generated using pymatgen
data_ZrSc9Ga5Ge3
_symmetry_space_group_name_H-M   'P 1'
_cell_length_a   5.53806114
_cell_length_b   8.22546959
_cell_length_c   8.22546959
_cell_angle_alpha   120.00000000
_cell_angle_beta   90.00000000
_cell_angle_gamma   90.00000000
_symmetry_Int_Tables_number   1
_chemical_formula_structural   ZrSc9Ga5Ge3
_chemical_formula_sum   'Zr1 Sc9 Ga5 Ge3'
_cell_volume   324.49632299
_cell_formula_units_Z   1
loop_
 _symmetry_equiv_pos_site_id
 _symmetry_equiv_pos_as_xyz
  1  'x, y, z'
loop_
 _atom_site_type_symbol
 _atom_site_label
 _atom_site_symmetry_multiplicity
 _atom_site_fract_x
 _atom_site_fract_y
 _atom_site_fract_z
 _atom_site_occupancy
  Zr  Zr0  1  0.24999999  0.73008504  0.73008504  1
  Sc  Sc1  1  0.74999998  0.26991501  0.26991501  1
  Sc  Sc2  1  0.24999999  0.00000000  0.26991501  1
  Sc  Sc3  1  0.74999998  1.00000005  0.73008504  1
  Sc  Sc4  1  0.24999999  0.26991501  1.00000005  1
  Sc  Sc5  1  0.74999998  0.73008504  1.00000005  1
  Sc  Sc6  1  0.49999999  0.66666670  0.33333335  1
  Sc  Sc7  1  0.49999999  0.33333335  0.66666670  1
  Sc  Sc8  1  0.99999997  0.33333335  0.66666670  1
  Sc  Sc9  1  -0.00000000  0.66666670  0.33333335  1
  Ga  Ga10  1  0.49999999  0.00000000  -0.00000000  1
  Ga  Ga11  1  0.00000000  0.00000000  0.00000000  1
  Ga  Ga12  1  0.24999999  0.38234602  0.38234602  1
  Ga  Ga13  1  0.74999998  0.61765403  0.61765403  1
  Ga  Ga14  1  0.24999999  1.00000005  0.61765403  1
  Ge  Ge15  1  0.74999998  1.00000005  0.38234602  1
  Ge  Ge16  1  0.24999999  0.61765403  1.00000005  1
  Ge  Ge17  1  0.74999998  0.38234602  1.00000005  1
