# generated using pymatgen
data_LiNbNO
_symmetry_space_group_name_H-M   'P 1'
_cell_length_a   2.95041609
_cell_length_b   2.95041609
_cell_length_c   5.17319584
_cell_angle_alpha   73.43135071
_cell_angle_beta   73.43135071
_cell_angle_gamma   59.99999619
_symmetry_Int_Tables_number   1
_chemical_formula_structural   LiNbNO
_chemical_formula_sum   'Li1 Nb1 N1 O1'
_cell_volume   36.82435077
_cell_formula_units_Z   1
loop_
 _symmetry_equiv_pos_site_id
 _symmetry_equiv_pos_as_xyz
  1  'x, y, z'
loop_
 _atom_site_type_symbol
 _atom_site_label
 _atom_site_symmetry_multiplicity
 _atom_site_fract_x
 _atom_site_fract_y
 _atom_site_fract_z
 _atom_site_occupancy
  Li  Li0  1  0.00000000  0.00000000  0.00000000  1
  Nb  Nb1  1  0.49999999  0.50000001  0.50000002  1
  O  O2  1  0.24147700  0.24147701  0.27556901  1
  N  N3  1  0.75852299  0.75852302  0.72443103  1
