# generated using pymatgen
data_V4Ni3Ge
_symmetry_space_group_name_H-M   'P 1'
_cell_length_a   3.74049401
_cell_length_b   4.99555206
_cell_length_c   4.99555206
_cell_angle_alpha   97.46150208
_cell_angle_beta   90.00000000
_cell_angle_gamma   90.00000000
_symmetry_Int_Tables_number   1
_chemical_formula_structural   V4Ni3Ge
_chemical_formula_sum   'V4 Ni3 Ge1'
_cell_volume   92.55562691
_cell_formula_units_Z   1
loop_
 _symmetry_equiv_pos_site_id
 _symmetry_equiv_pos_as_xyz
  1  'x, y, z'
loop_
 _atom_site_type_symbol
 _atom_site_label
 _atom_site_symmetry_multiplicity
 _atom_site_fract_x
 _atom_site_fract_y
 _atom_site_fract_z
 _atom_site_occupancy
  V  V0  1  0.50000000  0.27553200  0.72446800  1
  V  V1  1  0.50000000  0.72446799  0.27553203  1
  V  V2  1  0.00000000  0.00000000  0.00000000  1
  V  V3  1  0.50000000  0.77410099  0.77410102  1
  Ni  Ni4  1  0.50000000  0.22589900  0.22589901  1
  Ni  Ni5  1  1.00000000  0.00000000  0.49999999  1
  Ge  Ge6  1  -0.00000000  0.50000000  0.00000002  1
  Ni  Ni7  1  -0.00000000  0.50000000  0.50000001  1
