# generated using pymatgen
data_NdSi3Au
_symmetry_space_group_name_H-M   'P 1'
_cell_length_a   4.20724010
_cell_length_b   4.20724010
_cell_length_c   5.71864605
_cell_angle_alpha   111.58325195
_cell_angle_beta   111.58325195
_cell_angle_gamma   90.00000000
_symmetry_Int_Tables_number   1
_chemical_formula_structural   NdSi3Au
_chemical_formula_sum   'Nd1 Si3 Au1'
_cell_volume   86.44927864
_cell_formula_units_Z   1
loop_
 _symmetry_equiv_pos_site_id
 _symmetry_equiv_pos_as_xyz
  1  'x, y, z'
loop_
 _atom_site_type_symbol
 _atom_site_label
 _atom_site_symmetry_multiplicity
 _atom_site_fract_x
 _atom_site_fract_y
 _atom_site_fract_z
 _atom_site_occupancy
  Nd  Nd0  1  0.00000000  0.00000000  0.00000000  1
  Si  Si1  1  0.63181194  0.63181197  0.26362394  1
  Si  Si2  1  0.36818797  0.36818798  0.73637597  1
  Au  Au3  1  0.24999995  0.74999996  0.49999996  1
  Si  Si4  1  0.74999995  0.24999999  0.49999996  1
