# generated using pymatgen
data_Hf2SiAuO6
_symmetry_space_group_name_H-M   'P 1'
_cell_length_a   3.64701390
_cell_length_b   3.64701343
_cell_length_c   12.92159653
_cell_angle_alpha   90.00000000
_cell_angle_beta   90.00000000
_cell_angle_gamma   120.00000763
_symmetry_Int_Tables_number   1
_chemical_formula_structural   Hf2SiAuO6
_chemical_formula_sum   'Hf2 Si1 Au1 O6'
_cell_volume   148.84064915
_cell_formula_units_Z   1
loop_
 _symmetry_equiv_pos_site_id
 _symmetry_equiv_pos_as_xyz
  1  'x, y, z'
loop_
 _atom_site_type_symbol
 _atom_site_label
 _atom_site_symmetry_multiplicity
 _atom_site_fract_x
 _atom_site_fract_y
 _atom_site_fract_z
 _atom_site_occupancy
  Si  Si0  1  0.66666669  0.33333333  0.39749001  1
  Hf  Hf1  1  0.33333336  0.66666666  0.89749003  1
  Hf  Hf2  1  0.33333336  0.66666666  0.60251002  1
  Au  Au3  1  0.66666669  0.33333333  0.10251000  1
  O  O4  1  0.00000000  0.00000000  0.75000003  1
  O  O5  1  0.00000000  0.00000000  0.25000001  1
  O  O6  1  0.33333336  0.66666666  0.43175002  1
  O  O7  1  0.66666669  0.33333333  0.93175003  1
  O  O8  1  0.66666669  0.33333333  0.56825002  1
  O  O9  1  0.33333336  0.66666666  0.06825000  1
