# generated using pymatgen
data_O2
_symmetry_space_group_name_H-M   'P 1'
_cell_length_a   4.77031517
_cell_length_b   5.17381382
_cell_length_c   5.70201206
_cell_angle_alpha   92.11766052
_cell_angle_beta   90.00000000
_cell_angle_gamma   90.00000000
_symmetry_Int_Tables_number   1
_chemical_formula_structural   O2
_chemical_formula_sum   O12
_cell_volume   140.63366650
_cell_formula_units_Z   6
loop_
 _symmetry_equiv_pos_site_id
 _symmetry_equiv_pos_as_xyz
  1  'x, y, z'
loop_
 _atom_site_type_symbol
 _atom_site_label
 _atom_site_symmetry_multiplicity
 _atom_site_fract_x
 _atom_site_fract_y
 _atom_site_fract_z
 _atom_site_occupancy
  O  O0  1  0.48439298  0.21477501  0.64034202  1
  O  O1  1  0.01560700  0.21477501  0.14034201  1
  O  O2  1  0.98439296  0.78522503  0.85965805  1
  O  O3  1  0.51560698  0.78522503  0.35965804  1
  O  O4  1  0.23461199  0.08868300  0.86867102  1
  O  O5  1  0.26538799  0.08868300  0.36867101  1
  O  O6  1  0.73461197  0.91131703  0.63132905  1
  O  O7  1  0.76538797  0.91131703  0.13132904  1
  O  O8  1  0.76973697  0.41738502  0.87834703  1
  O  O9  1  0.73026297  0.41738502  0.37834702  1
  O  O10  1  0.26973699  0.58261502  0.62165303  1
  O  O11  1  0.23026299  0.58261502  0.12165302  1
