# generated using pymatgen
data_Mg3AlO4
_symmetry_space_group_name_H-M   'P 1'
_cell_length_a   3.00111604
_cell_length_b   3.00111532
_cell_length_c   13.65120888
_cell_angle_alpha   90.00000000
_cell_angle_beta   90.00000000
_cell_angle_gamma   120.00000763
_symmetry_Int_Tables_number   1
_chemical_formula_structural   Mg3AlO4
_chemical_formula_sum   'Mg3 Al1 O4'
_cell_volume   106.47978901
_cell_formula_units_Z   1
loop_
 _symmetry_equiv_pos_site_id
 _symmetry_equiv_pos_as_xyz
  1  'x, y, z'
loop_
 _atom_site_type_symbol
 _atom_site_label
 _atom_site_symmetry_multiplicity
 _atom_site_fract_x
 _atom_site_fract_y
 _atom_site_fract_z
 _atom_site_occupancy
  O  O0  1  0.66666667  0.33333335  0.58535801  1
  O  O1  1  0.33333334  0.66666669  0.41464200  1
  O  O2  1  0.33333334  0.66666669  0.08535800  1
  O  O3  1  0.66666667  0.33333335  0.91464201  1
  Al  Al4  1  0.66666667  0.33333335  0.25000000  1
  Mg  Mg5  1  0.33333334  0.66666669  0.75000001  1
  Mg  Mg6  1  0.00000000  0.00000000  0.50000000  1
  Mg  Mg7  1  0.00000000  0.00000000  0.00000000  1
