# generated using pymatgen
data_Zn
_symmetry_space_group_name_H-M   'P 1'
_cell_length_a   4.62291384
_cell_length_b   6.29882193
_cell_length_c   6.29882288
_cell_angle_alpha   119.99999237
_cell_angle_beta   90.00000000
_cell_angle_gamma   90.00000000
_symmetry_Int_Tables_number   1
_chemical_formula_structural   Zn
_chemical_formula_sum   Zn8
_cell_volume   158.84194309
_cell_formula_units_Z   8
loop_
 _symmetry_equiv_pos_site_id
 _symmetry_equiv_pos_as_xyz
  1  'x, y, z'
loop_
 _atom_site_type_symbol
 _atom_site_label
 _atom_site_symmetry_multiplicity
 _atom_site_fract_x
 _atom_site_fract_y
 _atom_site_fract_z
 _atom_site_occupancy
  Zn  Zn0  1  0.25000001  0.66666666  0.33333331  1
  Zn  Zn1  1  0.75000003  0.33333333  0.66666666  1
  Zn  Zn2  1  0.75000003  0.29245900  0.14622999  1
  Zn  Zn3  1  0.75000003  0.85377099  0.70754197  1
  Zn  Zn4  1  0.25000001  0.14622900  0.85377001  1
  Zn  Zn5  1  0.25000001  0.70754099  0.85376998  1
  Zn  Zn6  1  0.25000001  0.14622900  0.29245800  1
  Zn  Zn7  1  0.75000003  0.85377099  0.14622996  1
