# generated using pymatgen
data_TiH4O
_symmetry_space_group_name_H-M   'P 1'
_cell_length_a   3.38122797
_cell_length_b   3.41382098
_cell_length_c   3.41382098
_cell_angle_alpha   90.00000000
_cell_angle_beta   90.00000000
_cell_angle_gamma   90.00000000
_symmetry_Int_Tables_number   1
_chemical_formula_structural   TiH4O
_chemical_formula_sum   'Ti1 H4 O1'
_cell_volume   39.40541807
_cell_formula_units_Z   1
loop_
 _symmetry_equiv_pos_site_id
 _symmetry_equiv_pos_as_xyz
  1  'x, y, z'
loop_
 _atom_site_type_symbol
 _atom_site_label
 _atom_site_symmetry_multiplicity
 _atom_site_fract_x
 _atom_site_fract_y
 _atom_site_fract_z
 _atom_site_occupancy
  H  H0  1  0.32740600  0.33694300  0.33694300  1
  H  H1  1  0.32740600  0.66305700  0.66305700  1
  H  H2  1  0.82740601  0.83694300  0.16305700  1
  O  O3  1  0.82740601  0.16305700  0.83694300  1
  Ti  Ti4  1  0.00518800  0.00000000  0.00000000  1
  H  H5  1  0.50518800  0.50000000  0.50000000  1
