# generated using pymatgen
data_K
_symmetry_space_group_name_H-M   'P 1'
_cell_length_a   5.29866600
_cell_length_b   5.29866600
_cell_length_c   10.23205090
_cell_angle_alpha   105.00627899
_cell_angle_beta   105.00627899
_cell_angle_gamma   90.00000000
_symmetry_Int_Tables_number   1
_chemical_formula_structural   K
_chemical_formula_sum   K6
_cell_volume   267.32132913
_cell_formula_units_Z   6
loop_
 _symmetry_equiv_pos_site_id
 _symmetry_equiv_pos_as_xyz
  1  'x, y, z'
loop_
 _atom_site_type_symbol
 _atom_site_label
 _atom_site_symmetry_multiplicity
 _atom_site_fract_x
 _atom_site_fract_y
 _atom_site_fract_z
 _atom_site_occupancy
  K  K0  1  0.31982000  0.31982000  0.63964002  1
  K  K1  1  0.68017999  0.68018000  0.36036000  1
  K  K2  1  0.50000000  0.00000000  -0.00000000  1
  K  K3  1  -0.00000000  0.50000000  -0.00000000  1
  K  K4  1  0.86631799  0.86631800  0.73263602  1
  K  K5  1  0.13368200  0.13368200  0.26736401  1
