# generated using pymatgen
data_O2
_symmetry_space_group_name_H-M   'P 1'
_cell_length_a   5.32620811
_cell_length_b   5.32620811
_cell_length_c   6.59814548
_cell_angle_alpha   113.80430603
_cell_angle_beta   113.80430603
_cell_angle_gamma   90.00000000
_symmetry_Int_Tables_number   1
_chemical_formula_structural   O2
_chemical_formula_sum   O12
_cell_volume   153.69146487
_cell_formula_units_Z   6
loop_
 _symmetry_equiv_pos_site_id
 _symmetry_equiv_pos_as_xyz
  1  'x, y, z'
loop_
 _atom_site_type_symbol
 _atom_site_label
 _atom_site_symmetry_multiplicity
 _atom_site_fract_x
 _atom_site_fract_y
 _atom_site_fract_z
 _atom_site_occupancy
  O  O0  1  0.75000001  0.25000000  0.50000005  1
  O  O1  1  0.00000000  0.00000000  0.00000000  1
  O  O2  1  0.25000004  0.75000001  0.50000006  1
  O  O3  1  0.50000003  0.50000000  0.00000005  1
  O  O4  1  0.61590301  0.12170500  0.70852703  1
  O  O5  1  0.09262503  0.58682301  0.70852804  1
  O  O6  1  0.87829505  0.90737501  0.29147209  1
  O  O7  1  0.41317802  0.38409800  0.29147304  1
  O  O8  1  0.33682204  0.86590201  0.20852707  1
  O  O9  1  0.87170502  0.34262500  0.20852806  1
  O  O10  1  0.65737503  0.66317701  0.79147207  1
  O  O11  1  0.13409701  0.12829500  0.79147302  1
