# generated using pymatgen
data_CsF5
_symmetry_space_group_name_H-M   'P 1'
_cell_length_a   4.99768925
_cell_length_b   4.99768925
_cell_length_c   4.99768925
_cell_angle_alpha   60.00000000
_cell_angle_beta   60.00000000
_cell_angle_gamma   60.00000000
_symmetry_Int_Tables_number   1
_chemical_formula_structural   CsF5
_chemical_formula_sum   'Cs1 F5'
_cell_volume   88.26585810
_cell_formula_units_Z   1
loop_
 _symmetry_equiv_pos_site_id
 _symmetry_equiv_pos_as_xyz
  1  'x, y, z'
loop_
 _atom_site_type_symbol
 _atom_site_label
 _atom_site_symmetry_multiplicity
 _atom_site_fract_x
 _atom_site_fract_y
 _atom_site_fract_z
 _atom_site_occupancy
  Cs  Cs0  1  0.00000000  0.00000000  0.00000000  1
  F  F1  1  0.50000001  0.50000001  0.50000001  1
  F  F2  1  0.60065301  0.19804300  0.60065201  1
  F  F3  1  0.60065301  0.60065201  0.60065201  1
  F  F4  1  0.60065301  0.60065201  0.19804300  1
  F  F5  1  0.19804400  0.60065201  0.60065201  1
