# generated using pymatgen
data_BaAs9
_symmetry_space_group_name_H-M   'P 1'
_cell_length_a   6.24888611
_cell_length_b   6.79526806
_cell_length_c   7.83797598
_cell_angle_alpha   115.68884277
_cell_angle_beta   113.49248505
_cell_angle_gamma   90.00000000
_symmetry_Int_Tables_number   1
_chemical_formula_structural   BaAs9
_chemical_formula_sum   'Ba1 As9'
_cell_volume   268.98738632
_cell_formula_units_Z   1
loop_
 _symmetry_equiv_pos_site_id
 _symmetry_equiv_pos_as_xyz
  1  'x, y, z'
loop_
 _atom_site_type_symbol
 _atom_site_label
 _atom_site_symmetry_multiplicity
 _atom_site_fract_x
 _atom_site_fract_y
 _atom_site_fract_z
 _atom_site_occupancy
  Ba  Ba0  1  0.35411298  0.19080700  0.70822597  1
  As  As1  1  0.64588696  0.80919299  0.29177397  1
  As  As2  1  0.85411296  0.51741899  0.70822595  1
  As  As3  1  0.14588699  0.48258099  0.29177399  1
  As  As4  1  0.74999998  0.00000000  -0.00000002  1
  As  As5  1  0.24999999  0.00000000  -0.00000001  1
  As  As6  1  0.60190597  0.29001200  0.20381197  1
  As  As7  1  0.39809397  0.70998799  0.79618796  1
  As  As8  1  0.10190598  0.91379999  0.20381199  1
  As  As9  1  0.89809397  0.08620000  0.79618795  1
