# generated using pymatgen
data_Ba3LiO7
_symmetry_space_group_name_H-M   'P 1'
_cell_length_a   4.89163971
_cell_length_b   5.67465210
_cell_length_c   5.67465210
_cell_angle_alpha   77.11502075
_cell_angle_beta   82.54420471
_cell_angle_gamma   97.45579529
_symmetry_Int_Tables_number   1
_chemical_formula_structural   Ba3LiO7
_chemical_formula_sum   'Ba3 Li1 O7'
_cell_volume   150.18822535
_cell_formula_units_Z   1
loop_
 _symmetry_equiv_pos_site_id
 _symmetry_equiv_pos_as_xyz
  1  'x, y, z'
loop_
 _atom_site_type_symbol
 _atom_site_label
 _atom_site_symmetry_multiplicity
 _atom_site_fract_x
 _atom_site_fract_y
 _atom_site_fract_z
 _atom_site_occupancy
  Li  Li0  1  0.50000001  0.24585801  0.24585797  1
  Ba  Ba1  1  0.50000005  0.63165302  0.63165295  1
  Ba  Ba2  1  0.08604807  0.74855703  0.17643496  1
  Ba  Ba3  1  0.91395200  0.17643501  0.74855695  1
  O  O4  1  0.24611406  0.62628902  0.95980997  1
  O  O5  1  0.77823904  0.57461102  0.32890494  1
  O  O6  1  0.30553808  0.83761803  0.36185895  1
  O  O7  1  0.75388608  0.95981003  0.62628892  1
  O  O8  1  0.00000000  0.04158100  0.04158100  1
  O  O9  1  0.69446202  0.36185901  0.83761796  1
  O  O10  1  0.22176103  0.32890501  0.57461098  1
