# generated using pymatgen
data_CsLiO18
_symmetry_space_group_name_H-M   'P 1'
_cell_length_a   6.53543472
_cell_length_b   6.53543472
_cell_length_c   7.03253841
_cell_angle_alpha   65.20109558
_cell_angle_beta   65.20109558
_cell_angle_gamma   75.61843872
_symmetry_Int_Tables_number   1
_chemical_formula_structural   CsLiO18
_chemical_formula_sum   'Cs1 Li1 O18'
_cell_volume   246.57128693
_cell_formula_units_Z   1
loop_
 _symmetry_equiv_pos_site_id
 _symmetry_equiv_pos_as_xyz
  1  'x, y, z'
loop_
 _atom_site_type_symbol
 _atom_site_label
 _atom_site_symmetry_multiplicity
 _atom_site_fract_x
 _atom_site_fract_y
 _atom_site_fract_z
 _atom_site_occupancy
  Li  Li0  1  0.78327195  0.78327200  0.31816912  1
  Cs  Cs1  1  0.21672799  0.21672800  0.68183105  1
  O  O2  1  0.44327096  0.65052100  0.17924109  1
  O  O3  1  0.65052097  0.44327100  0.17924108  1
  O  O4  1  0.55672898  0.34947900  0.82075909  1
  O  O5  1  0.34947897  0.55672900  0.82075909  1
  O  O6  1  0.23736500  0.04149200  0.23945003  1
  O  O7  1  0.04149199  0.23736500  0.23945003  1
  O  O8  1  0.76263494  0.95850800  0.76055015  1
  O  O9  1  0.95850895  0.76263500  0.76055015  1
  O  O10  1  0.25560595  0.92034700  0.13051710  1
  O  O11  1  0.92034698  0.25560600  0.13051708  1
  O  O12  1  0.74439399  0.07965300  0.86948308  1
  O  O13  1  0.07965296  0.74439400  0.86948309  1
  O  O14  1  0.35824700  0.01968800  0.34907204  1
  O  O15  1  0.01968798  0.35824700  0.34907204  1
  O  O16  1  0.64175294  0.98031200  0.65092814  1
  O  O17  1  0.98031196  0.64175300  0.65092813  1
  O  O18  1  0.52329097  0.52329100  0.26901408  1
  O  O19  1  0.47670897  0.47670900  0.73098609  1
