# generated using pymatgen
data_O2
_symmetry_space_group_name_H-M   'P 1'
_cell_length_a   5.37340879
_cell_length_b   5.37340879
_cell_length_c   7.39398575
_cell_angle_alpha   69.30834198
_cell_angle_beta   69.30834198
_cell_angle_gamma   71.79728699
_symmetry_Int_Tables_number   1
_chemical_formula_structural   O2
_chemical_formula_sum   O18
_cell_volume   182.49653541
_cell_formula_units_Z   9
loop_
 _symmetry_equiv_pos_site_id
 _symmetry_equiv_pos_as_xyz
  1  'x, y, z'
loop_
 _atom_site_type_symbol
 _atom_site_label
 _atom_site_symmetry_multiplicity
 _atom_site_fract_x
 _atom_site_fract_y
 _atom_site_fract_z
 _atom_site_occupancy
  O  O0  1  0.49796798  0.49796802  0.50094897  1
  O  O1  1  0.49743096  0.99652803  0.00115297  1
  O  O2  1  0.99652797  0.49743102  0.00115296  1
  O  O3  1  0.69411997  0.69412002  0.77018695  1
  O  O4  1  0.49433198  0.49433202  0.00261298  1
  O  O5  1  0.30140099  0.30140101  0.23266398  1
  O  O6  1  0.90296196  0.90296203  0.29605196  1
  O  O7  1  0.09174200  0.09174200  0.70751598  1
  O  O8  1  0.77545996  0.77546003  0.50523996  1
  O  O9  1  0.65117497  0.65117502  0.91797995  1
  O  O10  1  0.80605896  0.80605903  0.16527596  1
  O  O11  1  0.17878297  0.78917703  0.75399097  1
  O  O12  1  0.20599097  0.81633803  0.24929598  1
  O  O13  1  0.78917698  0.17878301  0.75399096  1
  O  O14  1  0.81633798  0.20599101  0.24929597  1
  O  O15  1  0.18891399  0.18891401  0.83796097  1
  O  O16  1  0.34297898  0.34297901  0.08505598  1
  O  O17  1  0.21963799  0.21963801  0.49762498  1
