# generated using pymatgen
data_BaS2
_symmetry_space_group_name_H-M   'P 1'
_cell_length_a   7.32021666
_cell_length_b   7.32021666
_cell_length_c   7.32021666
_cell_angle_alpha   60.00000000
_cell_angle_beta   60.00000000
_cell_angle_gamma   60.00000000
_symmetry_Int_Tables_number   1
_chemical_formula_structural   BaS2
_chemical_formula_sum   'Ba3 S6'
_cell_volume   277.36828883
_cell_formula_units_Z   3
loop_
 _symmetry_equiv_pos_site_id
 _symmetry_equiv_pos_as_xyz
  1  'x, y, z'
loop_
 _atom_site_type_symbol
 _atom_site_label
 _atom_site_symmetry_multiplicity
 _atom_site_fract_x
 _atom_site_fract_y
 _atom_site_fract_z
 _atom_site_occupancy
  Ba  Ba0  1  0.25000001  0.25000001  0.25000001  1
  Ba  Ba1  1  0.75000002  0.75000002  0.75000002  1
  Ba  Ba2  1  0.00000000  0.00000000  0.00000000  1
  S  S3  1  0.24752201  0.24752201  0.75247802  1
  S  S4  1  0.75247802  0.24752201  0.24752201  1
  S  S5  1  0.75247802  0.24752201  0.75247802  1
  S  S6  1  0.75247802  0.75247802  0.24752201  1
  S  S7  1  0.24752201  0.75247802  0.75247802  1
  S  S8  1  0.24752201  0.75247802  0.24752201  1
