# generated using pymatgen
data_Si
_symmetry_space_group_name_H-M   'P 1'
_cell_length_a   4.66689396
_cell_length_b   4.75313854
_cell_length_c   6.51089382
_cell_angle_alpha   90.00000000
_cell_angle_beta   90.00000000
_cell_angle_gamma   119.40157318
_symmetry_Int_Tables_number   1
_chemical_formula_structural   Si
_chemical_formula_sum   Si9
_cell_volume   125.82503252
_cell_formula_units_Z   9
loop_
 _symmetry_equiv_pos_site_id
 _symmetry_equiv_pos_as_xyz
  1  'x, y, z'
loop_
 _atom_site_type_symbol
 _atom_site_label
 _atom_site_symmetry_multiplicity
 _atom_site_fract_x
 _atom_site_fract_y
 _atom_site_fract_z
 _atom_site_occupancy
  Si  Si0  1  0.50000004  0.50000002  0.33641401  1
  Si  Si1  1  1.00000004  0.50000002  0.66358602  1
  Si  Si2  1  0.50000000  0.00000000  0.00000000  1
  Si  Si3  1  0.84069705  0.68139402  -0.00000000  1
  Si  Si4  1  0.83094402  0.15298100  0.32498501  1
  Si  Si5  1  0.32203701  0.15298100  0.67501502  1
  Si  Si6  1  0.15930202  0.31860401  -0.00000000  1
  Si  Si7  1  0.16905606  0.84701903  0.32498501  1
  Si  Si8  1  0.67796306  0.84701903  0.67501502  1
