# generated using pymatgen
data_LaO3
_symmetry_space_group_name_H-M   'P 1'
_cell_length_a   3.90554595
_cell_length_b   3.90554595
_cell_length_c   9.33997154
_cell_angle_alpha   90.00000000
_cell_angle_beta   90.00000000
_cell_angle_gamma   90.00000000
_symmetry_Int_Tables_number   1
_chemical_formula_structural   LaO3
_chemical_formula_sum   'La2 O6'
_cell_volume   142.46528675
_cell_formula_units_Z   2
loop_
 _symmetry_equiv_pos_site_id
 _symmetry_equiv_pos_as_xyz
  1  'x, y, z'
loop_
 _atom_site_type_symbol
 _atom_site_label
 _atom_site_symmetry_multiplicity
 _atom_site_fract_x
 _atom_site_fract_y
 _atom_site_fract_z
 _atom_site_occupancy
  O  O0  1  0.00000000  0.00000000  0.00000000  1
  O  O1  1  0.50000001  0.50000001  0.26752701  1
  O  O2  1  0.50000001  0.50000001  0.73247304  1
  La  La3  1  0.00000000  0.00000000  0.50000002  1
  La  La4  1  0.00000000  0.50000001  0.14681501  1
  O  O5  1  0.50000001  0.00000000  0.85318504  1
  O  O6  1  0.00000000  0.50000001  0.85318504  1
  O  O7  1  0.50000001  0.00000000  0.14681501  1
