# generated using pymatgen
data_AuO4
_symmetry_space_group_name_H-M   'P 1'
_cell_length_a   4.62171698
_cell_length_b   4.62171698
_cell_length_c   8.71383667
_cell_angle_alpha   99.75469208
_cell_angle_beta   100.86401367
_cell_angle_gamma   108.97735596
_symmetry_Int_Tables_number   1
_chemical_formula_structural   AuO4
_chemical_formula_sum   'Au2 O8'
_cell_volume   167.43914481
_cell_formula_units_Z   2
loop_
 _symmetry_equiv_pos_site_id
 _symmetry_equiv_pos_as_xyz
  1  'x, y, z'
loop_
 _atom_site_type_symbol
 _atom_site_label
 _atom_site_symmetry_multiplicity
 _atom_site_fract_x
 _atom_site_fract_y
 _atom_site_fract_z
 _atom_site_occupancy
  Au  Au0  1  0.49999995  0.49999996  -0.00000002  1
  Au  Au1  1  0.49999998  0.00000000  0.49999999  1
  O  O2  1  0.97224594  0.29366598  0.26591198  1
  O  O3  1  0.02775395  0.70633395  0.73408796  1
  O  O4  1  0.89389793  0.49102396  0.80471396  1
  O  O5  1  0.31368993  0.91081593  0.80471394  1
  O  O6  1  0.88320192  0.70975395  0.59295595  1
  O  O7  1  0.68630997  0.08918399  0.19528599  1
  O  O8  1  0.10610196  0.50897596  0.19528597  1
  O  O9  1  0.11679798  0.29024598  0.40704398  1
