# generated using pymatgen
data_Cs2Cl3
_symmetry_space_group_name_H-M   'P 1'
_cell_length_a   8.12729836
_cell_length_b   8.12729836
_cell_length_c   8.12729836
_cell_angle_alpha   60.00000000
_cell_angle_beta   60.00000000
_cell_angle_gamma   60.00000000
_symmetry_Int_Tables_number   1
_chemical_formula_structural   Cs2Cl3
_chemical_formula_sum   'Cs4 Cl6'
_cell_volume   379.59773419
_cell_formula_units_Z   2
loop_
 _symmetry_equiv_pos_site_id
 _symmetry_equiv_pos_as_xyz
  1  'x, y, z'
loop_
 _atom_site_type_symbol
 _atom_site_label
 _atom_site_symmetry_multiplicity
 _atom_site_fract_x
 _atom_site_fract_y
 _atom_site_fract_z
 _atom_site_occupancy
  Cs  Cs0  1  0.25000001  0.25000001  0.25000001  1
  Cs  Cs1  1  0.75000003  0.75000003  0.75000003  1
  Cs  Cs2  1  0.50000002  0.50000002  0.50000002  1
  Cs  Cs3  1  0.00000000  0.00000000  0.00000000  1
  Cl  Cl4  1  0.22823201  0.77176803  0.22823201  1
  Cl  Cl5  1  0.22823201  0.22823201  0.77176803  1
  Cl  Cl6  1  0.77176803  0.22823201  0.77176803  1
  Cl  Cl7  1  0.22823201  0.77176803  0.77176803  1
  Cl  Cl8  1  0.77176803  0.22823201  0.22823201  1
  Cl  Cl9  1  0.77176803  0.77176803  0.22823201  1
