# generated using pymatgen
data_Cl2
_symmetry_space_group_name_H-M   'P 1'
_cell_length_a   7.89334249
_cell_length_b   7.89334249
_cell_length_c   7.89334249
_cell_angle_alpha   60.00000000
_cell_angle_beta   60.00000000
_cell_angle_gamma   60.00000000
_symmetry_Int_Tables_number   1
_chemical_formula_structural   Cl2
_chemical_formula_sum   Cl14
_cell_volume   347.75056509
_cell_formula_units_Z   7
loop_
 _symmetry_equiv_pos_site_id
 _symmetry_equiv_pos_as_xyz
  1  'x, y, z'
loop_
 _atom_site_type_symbol
 _atom_site_label
 _atom_site_symmetry_multiplicity
 _atom_site_fract_x
 _atom_site_fract_y
 _atom_site_fract_z
 _atom_site_occupancy
  Cl  Cl0  1  0.25000000  0.25000000  0.25000000  1
  Cl  Cl1  1  0.87500000  0.87500000  0.37500000  1
  Cl  Cl2  1  0.87500000  0.37500000  0.87500000  1
  Cl  Cl3  1  0.37500000  0.87500000  0.87500000  1
  Cl  Cl4  1  0.50000000  0.50000000  0.50000000  1
  Cl  Cl5  1  0.87500000  0.87500000  0.87500000  1
  Cl  Cl6  1  0.63458300  0.63458400  0.09624900  1
  Cl  Cl7  1  0.63458300  0.63458400  0.63458400  1
  Cl  Cl8  1  0.09624800  0.63458400  0.63458400  1
  Cl  Cl9  1  0.11541700  0.65375100  0.11541600  1
  Cl  Cl10  1  0.63458300  0.09624900  0.63458400  1
  Cl  Cl11  1  0.11541700  0.11541600  0.11541600  1
  Cl  Cl12  1  0.65375200  0.11541600  0.11541600  1
  Cl  Cl13  1  0.11541700  0.11541600  0.65375100  1
