# generated using pymatgen
data_Co
_symmetry_space_group_name_H-M   'P 1'
_cell_length_a   2.94983602
_cell_length_b   2.97183108
_cell_length_c   3.95945001
_cell_angle_alpha   90.00000000
_cell_angle_beta   111.87023926
_cell_angle_gamma   90.00000000
_symmetry_Int_Tables_number   1
_chemical_formula_structural   Co
_chemical_formula_sum   Co4
_cell_volume   32.21208318
_cell_formula_units_Z   4
loop_
 _symmetry_equiv_pos_site_id
 _symmetry_equiv_pos_as_xyz
  1  'x, y, z'
loop_
 _atom_site_type_symbol
 _atom_site_label
 _atom_site_symmetry_multiplicity
 _atom_site_fract_x
 _atom_site_fract_y
 _atom_site_fract_z
 _atom_site_occupancy
  Co  Co0  1  0.14701500  0.74999998  0.29403001  1
  Co  Co1  1  0.85298501  0.24999999  0.70597004  1
  Co  Co2  1  0.43301100  0.74999998  0.86602203  1
  Co  Co3  1  0.56698900  0.24999999  0.13397802  1
