# generated using pymatgen
data_Mo
_symmetry_space_group_name_H-M   'P 1'
_cell_length_a   3.47868991
_cell_length_b   3.47869015
_cell_length_c   31.98718262
_cell_angle_alpha   90.00000000
_cell_angle_beta   90.00000000
_cell_angle_gamma   120.00000000
_symmetry_Int_Tables_number   1
_chemical_formula_structural   Mo
_chemical_formula_sum   Mo9
_cell_volume   335.22630183
_cell_formula_units_Z   9
loop_
 _symmetry_equiv_pos_site_id
 _symmetry_equiv_pos_as_xyz
  1  'x, y, z'
loop_
 _atom_site_type_symbol
 _atom_site_label
 _atom_site_symmetry_multiplicity
 _atom_site_fract_x
 _atom_site_fract_y
 _atom_site_fract_z
 _atom_site_occupancy
  Mo  Mo0  1  0.66666669  0.33333333  0.28884599  1
  Mo  Mo1  1  0.66666669  0.33333333  0.82619898  1
  Mo  Mo2  1  0.66666669  0.33333333  0.17380100  1
  Mo  Mo3  1  0.66666669  0.33333333  0.71115399  1
  Mo  Mo4  1  0.00000000  0.00000000  0.23133300  1
  Mo  Mo5  1  0.00000000  0.00000000  0.76866699  1
  Mo  Mo6  1  0.66666669  0.33333333  0.99999998  1
  Mo  Mo7  1  0.00000000  0.00000000  0.94921198  1
  Mo  Mo8  1  0.00000000  0.00000000  0.05078800  1
