# generated using pymatgen
data_LaAs6
_symmetry_space_group_name_H-M   'P 1'
_cell_length_a   4.61761618
_cell_length_b   4.61761618
_cell_length_c   8.39280224
_cell_angle_alpha   105.96760559
_cell_angle_beta   105.96760559
_cell_angle_gamma   90.00000000
_symmetry_Int_Tables_number   1
_chemical_formula_structural   LaAs6
_chemical_formula_sum   'La1 As6'
_cell_volume   164.85652234
_cell_formula_units_Z   1
loop_
 _symmetry_equiv_pos_site_id
 _symmetry_equiv_pos_as_xyz
  1  'x, y, z'
loop_
 _atom_site_type_symbol
 _atom_site_label
 _atom_site_symmetry_multiplicity
 _atom_site_fract_x
 _atom_site_fract_y
 _atom_site_fract_z
 _atom_site_occupancy
  La  La0  1  0.35322999  0.35322999  0.70646005  1
  As  As1  1  0.64676999  0.64676998  0.29354003  1
  As  As2  1  0.00000000  0.00000000  0.00000000  1
  As  As3  1  0.15078100  0.15078100  0.30156202  1
  As  As4  1  0.84921899  0.84921897  0.69843806  1
  As  As5  1  0.49999998  0.00000000  0.00000001  1
  As  As6  1  0.00000001  0.49999999  0.00000001  1
