# generated using pymatgen
data_BaAu15
_symmetry_space_group_name_H-M   'P 1'
_cell_length_a   6.60946608
_cell_length_b   6.60946655
_cell_length_c   10.42288208
_cell_angle_alpha   90.00000000
_cell_angle_beta   90.00000000
_cell_angle_gamma   120.00000000
_symmetry_Int_Tables_number   1
_chemical_formula_structural   BaAu15
_chemical_formula_sum   'Ba1 Au15'
_cell_volume   394.32221355
_cell_formula_units_Z   1
loop_
 _symmetry_equiv_pos_site_id
 _symmetry_equiv_pos_as_xyz
  1  'x, y, z'
loop_
 _atom_site_type_symbol
 _atom_site_label
 _atom_site_symmetry_multiplicity
 _atom_site_fract_x
 _atom_site_fract_y
 _atom_site_fract_z
 _atom_site_occupancy
  Au  Au0  1  0.00000000  0.00000000  0.50000000  1
  Au  Au1  1  0.00000000  0.00000000  0.00000000  1
  Ba  Ba2  1  0.99052901  0.49526501  0.50000000  1
  Au  Au3  1  0.00164202  0.50082101  -0.00000000  1
  Au  Au4  1  0.50473599  0.00947200  0.50000000  1
  Au  Au5  1  0.49917904  0.99835801  -0.00000000  1
  Au  Au6  1  0.50473602  0.49526501  0.50000000  1
  Au  Au7  1  0.49917902  0.50082101  -0.00000000  1
  Au  Au8  1  0.82966900  0.17033100  0.75956799  1
  Au  Au9  1  0.82966900  0.17033100  0.24043200  1
  Au  Au10  1  0.82966902  0.65933801  0.75956799  1
  Au  Au11  1  0.82966902  0.65933801  0.24043200  1
  Au  Au12  1  0.34066200  0.17033100  0.75956799  1
  Au  Au13  1  0.34066200  0.17033100  0.24043200  1
  Au  Au14  1  0.33333336  0.66666667  0.74638199  1
  Au  Au15  1  0.33333336  0.66666667  0.25361800  1
