# generated using pymatgen
data_LiF11
_symmetry_space_group_name_H-M   'P 1'
_cell_length_a   2.95314097
_cell_length_b   4.74763107
_cell_length_c   9.72596931
_cell_angle_alpha   90.00000000
_cell_angle_beta   90.00000000
_cell_angle_gamma   90.00000000
_symmetry_Int_Tables_number   1
_chemical_formula_structural   LiF11
_chemical_formula_sum   'Li1 F11'
_cell_volume   136.36221216
_cell_formula_units_Z   1
loop_
 _symmetry_equiv_pos_site_id
 _symmetry_equiv_pos_as_xyz
  1  'x, y, z'
loop_
 _atom_site_type_symbol
 _atom_site_label
 _atom_site_symmetry_multiplicity
 _atom_site_fract_x
 _atom_site_fract_y
 _atom_site_fract_z
 _atom_site_occupancy
  F  F0  1  0.25000000  0.72870699  0.48931298  1
  F  F1  1  0.25000000  0.77129299  0.98931297  1
  F  F2  1  0.75000001  0.27129300  0.51068698  1
  Li  Li3  1  0.75000001  0.22870700  0.01068700  1
  F  F4  1  0.25000000  0.46159099  0.74434098  1
  F  F5  1  0.25000000  0.03840900  0.24434099  1
  F  F6  1  0.75000001  0.53840899  0.25565899  1
  F  F7  1  0.75000001  0.96159099  0.75565898  1
  F  F8  1  0.25000000  0.13877500  0.86453497  1
  F  F9  1  0.25000000  0.36122499  0.36453499  1
  F  F10  1  0.75000001  0.86122499  0.13546500  1
  F  F11  1  0.75000001  0.63877499  0.63546498  1
