# generated using pymatgen
data_F2
_symmetry_space_group_name_H-M   'P 1'
_cell_length_a   5.18896914
_cell_length_b   5.18904877
_cell_length_c   5.66634512
_cell_angle_alpha   90.00011444
_cell_angle_beta   117.25003815
_cell_angle_gamma   119.99940491
_symmetry_Int_Tables_number   1
_chemical_formula_structural   F2
_chemical_formula_sum   F10
_cell_volume   112.15355993
_cell_formula_units_Z   5
loop_
 _symmetry_equiv_pos_site_id
 _symmetry_equiv_pos_as_xyz
  1  'x, y, z'
loop_
 _atom_site_type_symbol
 _atom_site_label
 _atom_site_symmetry_multiplicity
 _atom_site_fract_x
 _atom_site_fract_y
 _atom_site_fract_z
 _atom_site_occupancy
  F  F0  1  0.29280400  0.14640201  0.43920699  1
  F  F1  1  0.70720699  0.85360604  0.56081395  1
  F  F2  1  0.28237500  0.64118303  0.92354395  1
  F  F3  1  0.71757199  0.35878102  0.07636099  1
  F  F4  1  0.16893000  0.95542404  0.73233293  1
  F  F5  1  0.77691199  0.21352101  0.73233099  1
  F  F6  1  0.51882299  0.56340403  0.73233096  1
  F  F7  1  0.83108599  0.04459700  0.26769201  1
  F  F8  1  0.22309000  0.78647904  0.26769395  1
  F  F9  1  0.48120099  0.43660302  0.26769398  1
