# generated using pymatgen
data_Yb10TmAl
_symmetry_space_group_name_H-M   'P 1'
_cell_length_a   4.97153759
_cell_length_b   4.97194386
_cell_length_c   8.35536480
_cell_angle_alpha   90.00000000
_cell_angle_beta   90.00000000
_cell_angle_gamma   119.67088318
_symmetry_Int_Tables_number   1
_chemical_formula_structural   Yb10TmAl
_chemical_formula_sum   'Yb10 Tm1 Al1'
_cell_volume   179.45011993
_cell_formula_units_Z   1
loop_
 _symmetry_equiv_pos_site_id
 _symmetry_equiv_pos_as_xyz
  1  'x, y, z'
loop_
 _atom_site_type_symbol
 _atom_site_label
 _atom_site_symmetry_multiplicity
 _atom_site_fract_x
 _atom_site_fract_y
 _atom_site_fract_z
 _atom_site_occupancy
  Tm  Tm0  1  0.66385998  0.33612599  0.44141801  1
  Yb  Yb1  1  0.33167296  0.66834498  0.56873001  1
  Yb  Yb2  1  0.33167296  0.66834498  0.93127002  1
  Yb  Yb3  1  0.66385998  0.33612599  0.05858200  1
  Al  Al4  1  0.00473994  0.99533797  0.50547301  1
  Yb  Yb5  1  0.00473994  0.99533797  0.99452702  1
  Yb  Yb6  1  0.16715398  0.34255799  0.25000001  1
  Yb  Yb7  1  0.65748195  0.83284197  0.25000001  1
  Yb  Yb8  1  0.16639395  0.83366997  0.25000001  1
  Yb  Yb9  1  0.82922796  0.64875598  0.75000002  1
  Yb  Yb10  1  0.35110599  0.17071499  0.75000002  1
  Yb  Yb11  1  0.82808999  0.17183999  0.75000002  1
