# generated using pymatgen
data_Ba3(WO3)4
_symmetry_space_group_name_H-M   'P 1'
_cell_length_a   7.42547083
_cell_length_b   7.42547083
_cell_length_c   7.42547083
_cell_angle_alpha   92.19524384
_cell_angle_beta   118.74077606
_cell_angle_gamma   118.74077606
_symmetry_Int_Tables_number   1
_chemical_formula_structural   Ba3(WO3)4
_chemical_formula_sum   'Ba3 W4 O12'
_cell_volume   294.78171877
_cell_formula_units_Z   1
loop_
 _symmetry_equiv_pos_site_id
 _symmetry_equiv_pos_as_xyz
  1  'x, y, z'
loop_
 _atom_site_type_symbol
 _atom_site_label
 _atom_site_symmetry_multiplicity
 _atom_site_fract_x
 _atom_site_fract_y
 _atom_site_fract_z
 _atom_site_occupancy
  Ba  Ba0  1  0.00000004  0.32589601  0.32589601  1
  Ba  Ba1  1  0.00000009  0.67410402  0.67410403  1
  Ba  Ba2  1  0.50000003  0.25000001  0.75000003  1
  W  W3  1  0.37554903  0.25098701  0.19034604  1
  W  W4  1  0.06064110  0.80965403  0.18520306  1
  W  W5  1  0.93935902  0.12456200  0.74901305  1
  W  W6  1  0.62445111  0.81479703  0.87543807  1
  O  O7  1  0.75327711  0.88200603  0.74066009  1
  O  O8  1  0.24672313  0.98738304  0.12872808  1
  O  O9  1  0.85865511  0.87127203  0.11799511  1
  O  O10  1  0.80670603  0.23328501  0.66079005  1
  O  O11  1  0.19329411  0.85408403  0.42658006  1
  O  O12  1  0.43752805  0.35078401  0.40901504  1
  O  O13  1  0.56247212  0.97148804  0.91325608  1
  O  O14  1  0.94176808  0.59098402  0.02851210  1
  O  O15  1  0.57249504  0.33920901  0.14591605  1
  O  O16  1  0.05823201  0.08674500  0.64921599  1
  O  O17  1  0.14134503  0.25934001  0.01261603  1
  O  O18  1  0.42750507  0.57342102  0.76671505  1
