# generated using pymatgen
data_BaCl3O8
_symmetry_space_group_name_H-M   'P 1'
_cell_length_a   6.33409786
_cell_length_b   6.33409786
_cell_length_c   6.33409786
_cell_angle_alpha   90.00000000
_cell_angle_beta   90.00000000
_cell_angle_gamma   90.00000000
_symmetry_Int_Tables_number   1
_chemical_formula_structural   BaCl3O8
_chemical_formula_sum   'Ba1 Cl3 O8'
_cell_volume   254.12904646
_cell_formula_units_Z   1
loop_
 _symmetry_equiv_pos_site_id
 _symmetry_equiv_pos_as_xyz
  1  'x, y, z'
loop_
 _atom_site_type_symbol
 _atom_site_label
 _atom_site_symmetry_multiplicity
 _atom_site_fract_x
 _atom_site_fract_y
 _atom_site_fract_z
 _atom_site_occupancy
  Cl  Cl0  1  0.37658701  0.12341300  0.87658702  1
  Ba  Ba1  1  0.62341301  0.62341301  0.62341301  1
  Cl  Cl2  1  0.12341300  0.87658702  0.37658701  1
  Cl  Cl3  1  0.87658702  0.37658701  0.12341300  1
  O  O4  1  0.08368100  0.41631901  0.58368101  1
  O  O5  1  0.58368101  0.08368100  0.41631901  1
  O  O6  1  0.41631901  0.58368101  0.08368100  1
  O  O7  1  0.91631902  0.91631902  0.91631902  1
  O  O8  1  0.31208101  0.31208101  0.31208101  1
  O  O9  1  0.81208102  0.18791900  0.68791901  1
  O  O10  1  0.18791900  0.68791901  0.81208102  1
  O  O11  1  0.68791901  0.81208102  0.18791900  1
