# generated using pymatgen
data_TmMnO4
_symmetry_space_group_name_H-M   'P 1'
_cell_length_a   3.94442940
_cell_length_b   3.94442940
_cell_length_c   6.17468977
_cell_angle_alpha   90.00000000
_cell_angle_beta   90.00000000
_cell_angle_gamma   91.11782074
_symmetry_Int_Tables_number   1
_chemical_formula_structural   TmMnO4
_chemical_formula_sum   'Tm1 Mn1 O4'
_cell_volume   96.05077185
_cell_formula_units_Z   1
loop_
 _symmetry_equiv_pos_site_id
 _symmetry_equiv_pos_as_xyz
  1  'x, y, z'
loop_
 _atom_site_type_symbol
 _atom_site_label
 _atom_site_symmetry_multiplicity
 _atom_site_fract_x
 _atom_site_fract_y
 _atom_site_fract_z
 _atom_site_occupancy
  O  O0  1  0.50157901  0.50157899  1.00000004  1
  O  O1  1  0.50157901  0.50157899  0.50000002  1
  O  O2  1  0.98381498  0.13329400  0.25000001  1
  O  O3  1  0.13329405  0.98381497  0.75000003  1
  Tm  Tm4  1  0.47494404  0.99878997  0.75000003  1
  Mn  Mn5  1  0.99879000  0.47494399  0.25000001  1
