# generated using pymatgen
data_Sn
_symmetry_space_group_name_H-M   'P 1'
_cell_length_a   5.45987177
_cell_length_b   5.59028578
_cell_length_c   6.43873405
_cell_angle_alpha   64.27416992
_cell_angle_beta   89.99994659
_cell_angle_gamma   89.99991608
_symmetry_Int_Tables_number   1
_chemical_formula_structural   Sn
_chemical_formula_sum   Sn10
_cell_volume   177.04537000
_cell_formula_units_Z   10
loop_
 _symmetry_equiv_pos_site_id
 _symmetry_equiv_pos_as_xyz
  1  'x, y, z'
loop_
 _atom_site_type_symbol
 _atom_site_label
 _atom_site_symmetry_multiplicity
 _atom_site_fract_x
 _atom_site_fract_y
 _atom_site_fract_z
 _atom_site_occupancy
  Sn  Sn0  1  0.49996901  0.50000003  -0.00000002  1
  Sn  Sn1  1  0.00004100  0.00000100  0.00000000  1
  Sn  Sn2  1  0.75001503  0.00000000  0.49999900  1
  Sn  Sn3  1  0.24995001  0.00000000  0.50000000  1
  Sn  Sn4  1  0.25002200  0.50000003  0.49999897  1
  Sn  Sn5  1  0.74998202  0.49999903  0.50000098  1
  Sn  Sn6  1  0.49992500  0.86522806  0.26980296  1
  Sn  Sn7  1  0.00008599  0.36507602  0.26980398  1
  Sn  Sn8  1  0.00008598  0.63492404  0.73019696  1
  Sn  Sn9  1  0.49992502  0.13477201  0.73019699  1
