# generated using pymatgen
data_BaAu6
_symmetry_space_group_name_H-M   'P 1'
_cell_length_a   4.26236582
_cell_length_b   7.27998018
_cell_length_c   7.27998018
_cell_angle_alpha   89.70168304
_cell_angle_beta   90.00000000
_cell_angle_gamma   90.00000000
_symmetry_Int_Tables_number   1
_chemical_formula_structural   BaAu6
_chemical_formula_sum   'Ba1 Au6'
_cell_volume   225.89427681
_cell_formula_units_Z   1
loop_
 _symmetry_equiv_pos_site_id
 _symmetry_equiv_pos_as_xyz
  1  'x, y, z'
loop_
 _atom_site_type_symbol
 _atom_site_label
 _atom_site_symmetry_multiplicity
 _atom_site_fract_x
 _atom_site_fract_y
 _atom_site_fract_z
 _atom_site_occupancy
  Ba  Ba0  1  0.50000002  0.49354201  0.99324500  1
  Au  Au1  1  0.50000002  0.00675500  0.50645801  1
  Au  Au2  1  1.00000004  0.00204800  0.99795202  1
  Au  Au3  1  -0.00000000  0.76330201  0.23669798  1
  Au  Au4  1  -0.00000000  0.23078600  0.76921401  1
  Au  Au5  1  0.00000000  0.22795300  0.22438600  1
  Au  Au6  1  1.00000004  0.77561401  0.77204699  1
