# generated using pymatgen
data_CsAs9
_symmetry_space_group_name_H-M   'P 1'
_cell_length_a   7.18785381
_cell_length_b   8.09816170
_cell_length_c   8.09816170
_cell_angle_alpha   120.00000000
_cell_angle_beta   90.00000000
_cell_angle_gamma   90.00000000
_symmetry_Int_Tables_number   1
_chemical_formula_structural   CsAs9
_chemical_formula_sum   'Cs1 As9'
_cell_volume   408.22796856
_cell_formula_units_Z   1
loop_
 _symmetry_equiv_pos_site_id
 _symmetry_equiv_pos_as_xyz
  1  'x, y, z'
loop_
 _atom_site_type_symbol
 _atom_site_label
 _atom_site_symmetry_multiplicity
 _atom_site_fract_x
 _atom_site_fract_y
 _atom_site_fract_z
 _atom_site_occupancy
  As  As0  1  0.75000002  0.84204103  0.15795800  1
  As  As1  1  0.25000001  0.15795901  0.31591801  1
  As  As2  1  0.25000001  0.68408303  0.84204203  1
  As  As3  1  0.75000002  0.31591701  0.15795801  1
  As  As4  1  0.75000002  0.84204103  0.68408202  1
  As  As5  1  0.25000001  0.15795901  0.84204203  1
  Cs  Cs6  1  0.75000002  0.33333335  0.66666669  1
  As  As7  1  0.25000001  0.66666669  0.33333334  1
  As  As8  1  0.00000000  0.00000000  0.00000000  1
  As  As9  1  0.50000001  0.00000000  -0.00000000  1
