# generated using pymatgen
data_Ba3O2
_symmetry_space_group_name_H-M   'P 1'
_cell_length_a   3.86961889
_cell_length_b   7.70784712
_cell_length_c   8.82386208
_cell_angle_alpha   90.00000000
_cell_angle_beta   90.00000000
_cell_angle_gamma   90.00000000
_symmetry_Int_Tables_number   1
_chemical_formula_structural   Ba3O2
_chemical_formula_sum   'Ba6 O4'
_cell_volume   263.18431187
_cell_formula_units_Z   2
loop_
 _symmetry_equiv_pos_site_id
 _symmetry_equiv_pos_as_xyz
  1  'x, y, z'
loop_
 _atom_site_type_symbol
 _atom_site_label
 _atom_site_symmetry_multiplicity
 _atom_site_fract_x
 _atom_site_fract_y
 _atom_site_fract_z
 _atom_site_occupancy
  Ba  Ba0  1  0.02502000  0.97290099  0.00000000  1
  O  O1  1  0.97498003  0.47290099  0.00000000  1
  Ba  Ba2  1  0.99577003  0.95919499  0.71740399  1
  Ba  Ba3  1  0.99577003  0.95919499  0.28259600  1
  O  O4  1  0.00423000  0.45919499  0.71740399  1
  Ba  Ba5  1  0.00423000  0.45919499  0.28259600  1
  O  O6  1  0.50733601  0.96863399  0.00000000  1
  Ba  Ba7  1  0.99813403  0.71719499  -0.00000000  1
  O  O8  1  0.49266401  0.46863399  0.00000000  1
  Ba  Ba9  1  0.00186600  0.21719500  0.00000000  1
