# generated using pymatgen
data_LaAl9
_symmetry_space_group_name_H-M   'P 1'
_cell_length_a   4.12809706
_cell_length_b   4.12809706
_cell_length_c   9.87145424
_cell_angle_alpha   90.00000000
_cell_angle_beta   90.00000000
_cell_angle_gamma   90.00000000
_symmetry_Int_Tables_number   1
_chemical_formula_structural   LaAl9
_chemical_formula_sum   'La1 Al9'
_cell_volume   168.22128101
_cell_formula_units_Z   1
loop_
 _symmetry_equiv_pos_site_id
 _symmetry_equiv_pos_as_xyz
  1  'x, y, z'
loop_
 _atom_site_type_symbol
 _atom_site_label
 _atom_site_symmetry_multiplicity
 _atom_site_fract_x
 _atom_site_fract_y
 _atom_site_fract_z
 _atom_site_occupancy
  Al  Al0  1  0.00000000  0.49999999  0.25495199  1
  La  La1  1  0.49999999  0.00000000  0.74504798  1
  Al  Al2  1  0.00000000  0.00000000  0.49999999  1
  Al  Al3  1  0.49999999  0.49999999  0.49999999  1
  Al  Al4  1  0.00000000  0.49999999  0.86893198  1
  Al  Al5  1  0.49999999  0.00000000  0.13106800  1
  Al  Al6  1  0.00000000  0.00000000  0.00000000  1
  Al  Al7  1  0.49999999  0.49999999  0.00000000  1
  Al  Al8  1  0.00000000  0.49999999  0.62867298  1
  Al  Al9  1  0.49999999  0.00000000  0.37132699  1
