# generated using pymatgen
data_Zn3S
_symmetry_space_group_name_H-M   'P 1'
_cell_length_a   3.80737591
_cell_length_b   3.80737567
_cell_length_c   13.21328259
_cell_angle_alpha   90.00000000
_cell_angle_beta   90.00000000
_cell_angle_gamma   120.00000000
_symmetry_Int_Tables_number   1
_chemical_formula_structural   Zn3S
_chemical_formula_sum   'Zn6 S2'
_cell_volume   165.87954771
_cell_formula_units_Z   2
loop_
 _symmetry_equiv_pos_site_id
 _symmetry_equiv_pos_as_xyz
  1  'x, y, z'
loop_
 _atom_site_type_symbol
 _atom_site_label
 _atom_site_symmetry_multiplicity
 _atom_site_fract_x
 _atom_site_fract_y
 _atom_site_fract_z
 _atom_site_occupancy
  S  S0  1  0.33333331  0.66666666  0.10211400  1
  Zn  Zn1  1  0.66666667  0.33333333  0.60211402  1
  S  S2  1  0.33333331  0.66666666  0.39788601  1
  Zn  Zn3  1  0.66666667  0.33333333  0.89788603  1
  Zn  Zn4  1  0.66666667  0.33333333  0.25000001  1
  Zn  Zn5  1  0.33333331  0.66666666  0.75000002  1
  Zn  Zn6  1  0.00000000  0.00000000  0.00000000  1
  Zn  Zn7  1  0.00000000  0.00000000  0.50000002  1
