# generated using pymatgen
data_BaTeO
_symmetry_space_group_name_H-M   'P 1'
_cell_length_a   3.20718408
_cell_length_b   5.25421476
_cell_length_c   9.37248611
_cell_angle_alpha   90.00000000
_cell_angle_beta   99.85153198
_cell_angle_gamma   90.00000000
_symmetry_Int_Tables_number   1
_chemical_formula_structural   BaTeO
_chemical_formula_sum   'Ba2 Te2 O2'
_cell_volume   155.60906810
_cell_formula_units_Z   2
loop_
 _symmetry_equiv_pos_site_id
 _symmetry_equiv_pos_as_xyz
  1  'x, y, z'
loop_
 _atom_site_type_symbol
 _atom_site_label
 _atom_site_symmetry_multiplicity
 _atom_site_fract_x
 _atom_site_fract_y
 _atom_site_fract_z
 _atom_site_occupancy
  Ba  Ba0  1  0.12657300  0.25000001  0.25314599  1
  O  O1  1  0.79667298  0.25000001  0.59334598  1
  Ba  Ba2  1  0.20332700  0.75000003  0.40665399  1
  Te  Te3  1  0.87342698  0.75000003  0.74685398  1
  Te  Te4  1  0.45975199  0.25000001  0.91950397  1
  O  O5  1  0.54024799  0.75000003  0.08049600  1
