# generated using pymatgen
data_CaSi11
_symmetry_space_group_name_H-M   'P 1'
_cell_length_a   4.42254400
_cell_length_b   4.42254400
_cell_length_c   11.21450996
_cell_angle_alpha   90.00000000
_cell_angle_beta   90.00000000
_cell_angle_gamma   90.00000000
_symmetry_Int_Tables_number   1
_chemical_formula_structural   CaSi11
_chemical_formula_sum   'Ca1 Si11'
_cell_volume   219.34342796
_cell_formula_units_Z   1
loop_
 _symmetry_equiv_pos_site_id
 _symmetry_equiv_pos_as_xyz
  1  'x, y, z'
loop_
 _atom_site_type_symbol
 _atom_site_label
 _atom_site_symmetry_multiplicity
 _atom_site_fract_x
 _atom_site_fract_y
 _atom_site_fract_z
 _atom_site_occupancy
  Si  Si0  1  0.00000000  0.50000000  0.63231700  1
  Si  Si1  1  0.50000000  0.00000000  0.36768300  1
  Si  Si2  1  0.00000000  0.50000000  0.12868400  1
  Si  Si3  1  0.50000000  0.00000000  0.87131600  1
  Si  Si4  1  0.00000000  0.00000000  0.81295500  1
  Si  Si5  1  0.50000000  0.50000000  0.81295500  1
  Si  Si6  1  0.50000000  0.50000000  0.18704500  1
  Si  Si7  1  0.00000000  0.00000000  0.18704500  1
  Ca  Ca8  1  0.00000000  0.00000000  0.50000000  1
  Si  Si9  1  0.50000000  0.50000000  0.50000000  1
  Si  Si10  1  0.00000000  0.50000000  0.31701000  1
  Si  Si11  1  0.50000000  0.00000000  0.68299000  1
