# generated using pymatgen
data_Zn
_symmetry_space_group_name_H-M   'P 1'
_cell_length_a   4.06976986
_cell_length_b   4.06976986
_cell_length_c   8.25643730
_cell_angle_alpha   104.26815796
_cell_angle_beta   104.26815796
_cell_angle_gamma   90.00000000
_symmetry_Int_Tables_number   1
_chemical_formula_structural   Zn
_chemical_formula_sum   Zn7
_cell_volume   128.17604173
_cell_formula_units_Z   7
loop_
 _symmetry_equiv_pos_site_id
 _symmetry_equiv_pos_as_xyz
  1  'x, y, z'
loop_
 _atom_site_type_symbol
 _atom_site_label
 _atom_site_symmetry_multiplicity
 _atom_site_fract_x
 _atom_site_fract_y
 _atom_site_fract_z
 _atom_site_occupancy
  Zn  Zn0  1  0.18196501  0.18196501  0.36393001  1
  Zn  Zn1  1  0.81803505  0.81803504  0.63607004  1
  Zn  Zn2  1  0.50000002  0.00000000  0.00000001  1
  Zn  Zn3  1  0.00000001  0.50000002  0.00000001  1
  Zn  Zn4  1  0.38253802  0.38253802  0.76507603  1
  Zn  Zn5  1  0.61746204  0.61746203  0.23492403  1
  Zn  Zn6  1  0.00000000  0.00000000  0.00000000  1
