# generated using pymatgen
data_O2
_symmetry_space_group_name_H-M   'P 1'
_cell_length_a   5.64229822
_cell_length_b   5.68465900
_cell_length_c   5.73737907
_cell_angle_alpha   119.15966034
_cell_angle_beta   91.45520020
_cell_angle_gamma   118.47304535
_symmetry_Int_Tables_number   1
_chemical_formula_structural   O2
_chemical_formula_sum   O14
_cell_volume   133.06628034
_cell_formula_units_Z   7
loop_
 _symmetry_equiv_pos_site_id
 _symmetry_equiv_pos_as_xyz
  1  'x, y, z'
loop_
 _atom_site_type_symbol
 _atom_site_label
 _atom_site_symmetry_multiplicity
 _atom_site_fract_x
 _atom_site_fract_y
 _atom_site_fract_z
 _atom_site_occupancy
  O  O0  1  0.11281699  0.23490800  0.86934101  1
  O  O1  1  0.88722196  0.76520200  0.13071495  1
  O  O2  1  0.49991798  0.00002400  0.49982200  1
  O  O3  1  0.00011100  0.49998500  0.50001100  1
  O  O4  1  0.49972198  0.49958600  0.49975298  1
  O  O5  1  0.49998498  0.00006200  0.00024599  1
  O  O6  1  0.25451599  0.52129100  0.29194498  1
  O  O7  1  0.74607997  0.50418500  0.28541697  1
  O  O8  1  0.74551097  0.47878200  0.70818498  1
  O  O9  1  0.69914397  0.95798000  0.72776397  1
  O  O10  1  0.25383299  0.49586900  0.71455899  1
  O  O11  1  0.75558897  0.04482200  0.25669199  1
  O  O12  1  0.30119099  0.04211900  0.27235000  1
  O  O13  1  0.24435999  0.95519100  0.74320198  1
