# generated using pymatgen
data_BaO5
_symmetry_space_group_name_H-M   'P 1'
_cell_length_a   5.87297392
_cell_length_b   5.87297392
_cell_length_c   8.64300632
_cell_angle_alpha   109.86182404
_cell_angle_beta   109.86182404
_cell_angle_gamma   90.00000000
_symmetry_Int_Tables_number   1
_chemical_formula_structural   BaO5
_chemical_formula_sum   'Ba2 O10'
_cell_volume   261.44630091
_cell_formula_units_Z   2
loop_
 _symmetry_equiv_pos_site_id
 _symmetry_equiv_pos_as_xyz
  1  'x, y, z'
loop_
 _atom_site_type_symbol
 _atom_site_label
 _atom_site_symmetry_multiplicity
 _atom_site_fract_x
 _atom_site_fract_y
 _atom_site_fract_z
 _atom_site_occupancy
  Ba  Ba0  1  0.00000000  0.00000000  0.00000000  1
  Ba  Ba1  1  0.75000001  0.25000000  0.49999998  1
  O  O2  1  0.50000000  0.50000000  -0.00000001  1
  O  O3  1  0.25000000  0.75000001  0.49999998  1
  O  O4  1  0.56169100  0.79353301  0.12338199  1
  O  O5  1  0.07984900  0.81169101  0.62338197  1
  O  O6  1  0.54353300  0.81169101  0.62338197  1
  O  O7  1  0.56169100  0.32984900  0.12338199  1
  O  O8  1  0.18830900  0.92015101  0.37661798  1
  O  O9  1  0.20646700  0.43830900  0.87661797  1
  O  O10  1  0.67015100  0.43830900  0.87661797  1
  O  O11  1  0.18830900  0.45646700  0.37661798  1
