# generated using pymatgen
data_Rh
_symmetry_space_group_name_H-M   'P 1'
_cell_length_a   3.43719912
_cell_length_b   4.52589417
_cell_length_c   4.52589321
_cell_angle_alpha   120.00000763
_cell_angle_beta   90.00000000
_cell_angle_gamma   90.00000000
_symmetry_Int_Tables_number   1
_chemical_formula_structural   Rh
_chemical_formula_sum   Rh6
_cell_volume   60.97390170
_cell_formula_units_Z   6
loop_
 _symmetry_equiv_pos_site_id
 _symmetry_equiv_pos_as_xyz
  1  'x, y, z'
loop_
 _atom_site_type_symbol
 _atom_site_label
 _atom_site_symmetry_multiplicity
 _atom_site_fract_x
 _atom_site_fract_y
 _atom_site_fract_z
 _atom_site_occupancy
  Rh  Rh0  1  0.00000000  0.00000000  0.00000000  1
  Rh  Rh1  1  0.00000000  0.66666664  0.33333332  1
  Rh  Rh2  1  0.99999997  0.33333332  0.66666663  1
  Rh  Rh3  1  0.49999998  0.49999998  0.49999998  1
  Rh  Rh4  1  0.49999998  0.49999998  0.00000000  1
  Rh  Rh5  1  0.49999998  0.00000000  0.49999997  1
