# generated using pymatgen
data_La5Si
_symmetry_space_group_name_H-M   'P 1'
_cell_length_a   3.81636095
_cell_length_b   4.64068460
_cell_length_c   8.07618713
_cell_angle_alpha   90.00338745
_cell_angle_beta   90.00000000
_cell_angle_gamma   90.00000000
_symmetry_Int_Tables_number   1
_chemical_formula_structural   La5Si
_chemical_formula_sum   'La5 Si1'
_cell_volume   143.03353415
_cell_formula_units_Z   1
loop_
 _symmetry_equiv_pos_site_id
 _symmetry_equiv_pos_as_xyz
  1  'x, y, z'
loop_
 _atom_site_type_symbol
 _atom_site_label
 _atom_site_symmetry_multiplicity
 _atom_site_fract_x
 _atom_site_fract_y
 _atom_site_fract_z
 _atom_site_occupancy
  La  La0  1  0.00000000  0.99996502  0.99244595  1
  La  La1  1  0.00000000  0.50004901  0.50652497  1
  Si  Si2  1  0.50000001  0.99993502  0.66434496  1
  La  La3  1  0.50000001  0.00014200  0.33355699  1
  La  La4  1  0.50000001  0.49998601  0.83427597  1
  La  La5  1  0.50000001  0.50012301  0.16885098  1
