# generated using pymatgen
data_Ti2O3
_symmetry_space_group_name_H-M   'P 1'
_cell_length_a   5.53816938
_cell_length_b   5.53816938
_cell_length_c   6.37856817
_cell_angle_alpha   64.27047729
_cell_angle_beta   64.27047729
_cell_angle_gamma   60.00001144
_symmetry_Int_Tables_number   1
_chemical_formula_structural   Ti2O3
_chemical_formula_sum   'Ti4 O6'
_cell_volume   146.60368190
_cell_formula_units_Z   2
loop_
 _symmetry_equiv_pos_site_id
 _symmetry_equiv_pos_as_xyz
  1  'x, y, z'
loop_
 _atom_site_type_symbol
 _atom_site_label
 _atom_site_symmetry_multiplicity
 _atom_site_fract_x
 _atom_site_fract_y
 _atom_site_fract_z
 _atom_site_occupancy
  Ti  Ti0  1  0.65881502  0.65881497  0.02355494  1
  Ti  Ti1  1  0.34118501  0.34118498  0.97644500  1
  Ti  Ti2  1  0.85842603  0.85842596  0.42472194  1
  Ti  Ti3  1  0.14157401  0.14157399  0.57527801  1
  O  O4  1  0.05873204  0.69129197  0.79095399  1
  O  O5  1  0.69129201  0.45902198  0.79095397  1
  O  O6  1  0.45902199  0.05873200  0.79095400  1
  O  O7  1  0.94126800  0.30870799  0.20904596  1
  O  O8  1  0.54097804  0.94126796  0.20904594  1
  O  O9  1  0.30870803  0.54097798  0.20904597  1
