# generated using pymatgen
data_LaNb4Sb
_symmetry_space_group_name_H-M   'P 1'
_cell_length_a   3.86016703
_cell_length_b   3.86016703
_cell_length_c   9.89424133
_cell_angle_alpha   90.00000000
_cell_angle_beta   90.00000000
_cell_angle_gamma   90.00000000
_symmetry_Int_Tables_number   1
_chemical_formula_structural   LaNb4Sb
_chemical_formula_sum   'La1 Nb4 Sb1'
_cell_volume   147.43299652
_cell_formula_units_Z   1
loop_
 _symmetry_equiv_pos_site_id
 _symmetry_equiv_pos_as_xyz
  1  'x, y, z'
loop_
 _atom_site_type_symbol
 _atom_site_label
 _atom_site_symmetry_multiplicity
 _atom_site_fract_x
 _atom_site_fract_y
 _atom_site_fract_z
 _atom_site_occupancy
  Nb  Nb0  1  0.00000000  0.50000000  0.39344699  1
  Nb  Nb1  1  0.50000000  0.00000000  0.60655298  1
  La  La2  1  0.50000000  0.00000000  0.19864799  1
  Sb  Sb3  1  0.00000000  0.50000000  0.80135197  1
  Nb  Nb4  1  0.00000000  0.00000000  0.49999998  1
  Nb  Nb5  1  0.50000000  0.50000000  0.49999998  1
