# generated using pymatgen
data_S
_symmetry_space_group_name_H-M   'P 1'
_cell_length_a   5.88839388
_cell_length_b   5.88839388
_cell_length_c   7.37051249
_cell_angle_alpha   113.54418945
_cell_angle_beta   113.54418945
_cell_angle_gamma   90.00000000
_symmetry_Int_Tables_number   1
_chemical_formula_structural   S
_chemical_formula_sum   S7
_cell_volume   210.87413316
_cell_formula_units_Z   7
loop_
 _symmetry_equiv_pos_site_id
 _symmetry_equiv_pos_as_xyz
  1  'x, y, z'
loop_
 _atom_site_type_symbol
 _atom_site_label
 _atom_site_symmetry_multiplicity
 _atom_site_fract_x
 _atom_site_fract_y
 _atom_site_fract_z
 _atom_site_occupancy
  S  S0  1  0.50000004  0.50000002  0.00000004  1
  S  S1  1  0.25000004  0.75000003  0.50000006  1
  S  S2  1  0.75000004  0.25000001  0.50000005  1
  S  S3  1  0.34230703  0.34230702  0.23471403  1
  S  S4  1  0.65769303  0.10759300  0.76528605  1
  S  S5  1  0.89240707  0.89240704  0.23471408  1
  S  S6  1  0.10759303  0.65769303  0.76528606  1
