# generated using pymatgen
data_BaAl(AuO5)2
_symmetry_space_group_name_H-M   'P 1'
_cell_length_a   5.69730997
_cell_length_b   5.69731092
_cell_length_c   7.31331921
_cell_angle_alpha   90.00000000
_cell_angle_beta   90.00000000
_cell_angle_gamma   119.99999237
_symmetry_Int_Tables_number   1
_chemical_formula_structural   BaAl(AuO5)2
_chemical_formula_sum   'Ba1 Al1 Au2 O10'
_cell_volume   205.58194211
_cell_formula_units_Z   1
loop_
 _symmetry_equiv_pos_site_id
 _symmetry_equiv_pos_as_xyz
  1  'x, y, z'
loop_
 _atom_site_type_symbol
 _atom_site_label
 _atom_site_symmetry_multiplicity
 _atom_site_fract_x
 _atom_site_fract_y
 _atom_site_fract_z
 _atom_site_occupancy
  Ba  Ba0  1  0.33333329  0.66666662  0.48749799  1
  Al  Al1  1  0.66666665  0.33333331  0.84704298  1
  Au  Au2  1  0.33333329  0.66666662  0.00704800  1
  Au  Au3  1  0.00000000  0.00000000  0.18936599  1
  O  O4  1  0.00000000  0.00000000  0.71483998  1
  O  O5  1  0.66666665  0.33333331  0.27940799  1
  O  O6  1  0.14835398  0.29670798  0.79241798  1
  O  O7  1  0.14835394  0.85164494  0.79241798  1
  O  O8  1  0.70329094  0.85164494  0.79241798  1
  O  O9  1  0.51925100  0.03850200  0.20084599  1
  O  O10  1  0.51925097  0.48074896  0.20084599  1
  O  O11  1  0.96149797  0.48074896  0.20084599  1
  O  O12  1  0.00000000  0.00000000  0.50473399  1
  O  O13  1  0.66666665  0.33333331  0.49029799  1
