# generated using pymatgen
data_O2
_symmetry_space_group_name_H-M   'P 1'
_cell_length_a   5.45170021
_cell_length_b   5.79079008
_cell_length_c   5.95512009
_cell_angle_alpha   90.00000000
_cell_angle_beta   90.00000000
_cell_angle_gamma   90.00000000
_symmetry_Int_Tables_number   1
_chemical_formula_structural   O2
_chemical_formula_sum   O8
_cell_volume   188.00106580
_cell_formula_units_Z   4
loop_
 _symmetry_equiv_pos_site_id
 _symmetry_equiv_pos_as_xyz
  1  'x, y, z'
loop_
 _atom_site_type_symbol
 _atom_site_label
 _atom_site_symmetry_multiplicity
 _atom_site_fract_x
 _atom_site_fract_y
 _atom_site_fract_z
 _atom_site_occupancy
  O  O0  1  0.75248397  0.47408099  0.27862700  1
  O  O1  1  0.75248397  0.97408099  0.72137299  1
  O  O2  1  0.25248399  0.52591899  0.72137299  1
  O  O3  1  0.25248399  0.02591900  0.27862700  1
  O  O4  1  0.86704997  0.11566700  0.38447699  1
  O  O5  1  0.86704997  0.61566699  0.61552299  1
  O  O6  1  0.36704999  0.38433299  0.38447699  1
  O  O7  1  0.36704999  0.88433299  0.61552299  1
