# generated using pymatgen
data_BaZn3O6
_symmetry_space_group_name_H-M   'P 1'
_cell_length_a   5.16060781
_cell_length_b   5.16060781
_cell_length_c   5.53831053
_cell_angle_alpha   62.23146439
_cell_angle_beta   62.23146439
_cell_angle_gamma   60.00000381
_symmetry_Int_Tables_number   1
_chemical_formula_structural   BaZn3O6
_chemical_formula_sum   'Ba1 Zn3 O6'
_cell_volume   107.67546077
_cell_formula_units_Z   1
loop_
 _symmetry_equiv_pos_site_id
 _symmetry_equiv_pos_as_xyz
  1  'x, y, z'
loop_
 _atom_site_type_symbol
 _atom_site_label
 _atom_site_symmetry_multiplicity
 _atom_site_fract_x
 _atom_site_fract_y
 _atom_site_fract_z
 _atom_site_occupancy
  Ba  Ba0  1  0.14950599  0.14950599  0.55148200  1
  Zn  Zn1  1  0.64950594  0.64950598  0.05148201  1
  Zn  Zn2  1  0.35049397  0.35049399  0.94851801  1
  Zn  Zn3  1  0.85049393  0.85049397  0.44851802  1
  O  O4  1  0.24999995  0.94654897  0.25000001  1
  O  O5  1  0.05345098  0.44654898  0.75000001  1
  O  O6  1  0.44654895  0.74999997  0.75000001  1
  O  O7  1  0.55345096  0.24999999  0.25000001  1
  O  O8  1  0.94654893  0.55345098  0.25000001  1
  O  O9  1  0.74999996  0.05345100  0.75000001  1
