# generated using pymatgen
data_Au3F
_symmetry_space_group_name_H-M   'P 1'
_cell_length_a   3.82796597
_cell_length_b   3.82796621
_cell_length_c   6.28564215
_cell_angle_alpha   90.00000000
_cell_angle_beta   90.00000000
_cell_angle_gamma   120.00000000
_symmetry_Int_Tables_number   1
_chemical_formula_structural   Au3F
_chemical_formula_sum   'Au3 F1'
_cell_volume   79.76574920
_cell_formula_units_Z   1
loop_
 _symmetry_equiv_pos_site_id
 _symmetry_equiv_pos_as_xyz
  1  'x, y, z'
loop_
 _atom_site_type_symbol
 _atom_site_label
 _atom_site_symmetry_multiplicity
 _atom_site_fract_x
 _atom_site_fract_y
 _atom_site_fract_z
 _atom_site_occupancy
  Au  Au0  1  0.33333336  0.66666667  0.12583700  1
  Au  Au1  1  0.66666668  0.33333333  0.62583699  1
  F  F2  1  0.33333336  0.66666667  0.49916299  1
  Au  Au3  1  0.66666668  0.33333333  0.99916298  1
