# generated using pymatgen
data_Tm2NiO3
_symmetry_space_group_name_H-M   'P 1'
_cell_length_a   2.94735408
_cell_length_b   3.98729610
_cell_length_c   5.16987371
_cell_angle_alpha   112.68273163
_cell_angle_beta   106.56188965
_cell_angle_gamma   90.00000000
_symmetry_Int_Tables_number   1
_chemical_formula_structural   Tm2NiO3
_chemical_formula_sum   'Tm2 Ni1 O3'
_cell_volume   53.31464834
_cell_formula_units_Z   1
loop_
 _symmetry_equiv_pos_site_id
 _symmetry_equiv_pos_as_xyz
  1  'x, y, z'
loop_
 _atom_site_type_symbol
 _atom_site_label
 _atom_site_symmetry_multiplicity
 _atom_site_fract_x
 _atom_site_fract_y
 _atom_site_fract_z
 _atom_site_occupancy
  Tm  Tm0  1  0.32999599  0.32999599  0.65999201  1
  Tm  Tm1  1  0.67000399  0.67000398  0.34000801  1
  Ni  Ni2  1  0.00000000  0.00000000  0.00000000  1
  O  O3  1  0.00000000  0.49999999  -0.00000000  1
  O  O4  1  0.35234599  0.85234598  0.70469201  1
  O  O5  1  0.64765398  0.14765400  0.29530801  1
