# generated using pymatgen
data_Ba5S
_symmetry_space_group_name_H-M   'P 1'
_cell_length_a   4.61687183
_cell_length_b   4.61687183
_cell_length_c   9.54764748
_cell_angle_alpha   103.99165344
_cell_angle_beta   103.99165344
_cell_angle_gamma   90.00000000
_symmetry_Int_Tables_number   1
_chemical_formula_structural   Ba5S
_chemical_formula_sum   'Ba5 S1'
_cell_volume   191.24632702
_cell_formula_units_Z   1
loop_
 _symmetry_equiv_pos_site_id
 _symmetry_equiv_pos_as_xyz
  1  'x, y, z'
loop_
 _atom_site_type_symbol
 _atom_site_label
 _atom_site_symmetry_multiplicity
 _atom_site_fract_x
 _atom_site_fract_y
 _atom_site_fract_z
 _atom_site_occupancy
  Ba  Ba0  1  1.00000000  0.50000001  -0.00000005  1
  Ba  Ba1  1  0.50000001  0.00000000  -0.00000002  1
  S  S2  1  0.67983599  0.67983601  0.35967195  1
  Ba  Ba3  1  0.32016400  0.32016401  0.64032797  1
  Ba  Ba4  1  0.86202399  0.86202401  0.72404793  1
  Ba  Ba5  1  0.13797600  0.13797600  0.27595199  1
