# generated using pymatgen
data_Zn10O
_symmetry_space_group_name_H-M   'P 1'
_cell_length_a   4.25766993
_cell_length_b   4.25766993
_cell_length_c   11.39620686
_cell_angle_alpha   100.76621246
_cell_angle_beta   100.76621246
_cell_angle_gamma   90.00000000
_symmetry_Int_Tables_number   1
_chemical_formula_structural   Zn10O
_chemical_formula_sum   'Zn10 O1'
_cell_volume   199.24838378
_cell_formula_units_Z   1
loop_
 _symmetry_equiv_pos_site_id
 _symmetry_equiv_pos_as_xyz
  1  'x, y, z'
loop_
 _atom_site_type_symbol
 _atom_site_label
 _atom_site_symmetry_multiplicity
 _atom_site_fract_x
 _atom_site_fract_y
 _atom_site_fract_z
 _atom_site_occupancy
  Zn  Zn0  1  0.68302099  0.68302100  0.36604196  1
  Zn  Zn1  1  0.31697900  0.31697900  0.63395796  1
  Zn  Zn2  1  0.49999999  0.50000000  -0.00000002  1
  Zn  Zn3  1  0.89716299  0.89716301  0.79432593  1
  O  O4  1  0.10283700  0.10283700  0.20567399  1
  Zn  Zn5  1  0.80137599  0.80137601  0.60275194  1
  Zn  Zn6  1  0.19862400  0.19862400  0.39724798  1
  Zn  Zn7  1  0.41608698  0.91608701  0.83217394  1
  Zn  Zn8  1  0.91608700  0.41608700  0.83217394  1
  Zn  Zn9  1  0.58391300  0.08391300  0.16782598  1
  Zn  Zn10  1  0.08391299  0.58391300  0.16782598  1
