# generated using pymatgen
data_Ti
_symmetry_space_group_name_H-M   'P 1'
_cell_length_a   3.33846211
_cell_length_b   6.13055420
_cell_length_c   7.66856194
_cell_angle_alpha   104.83793640
_cell_angle_beta   90.00000000
_cell_angle_gamma   105.80001831
_symmetry_Int_Tables_number   1
_chemical_formula_structural   Ti
_chemical_formula_sum   Ti6
_cell_volume   145.57301385
_cell_formula_units_Z   6
loop_
 _symmetry_equiv_pos_site_id
 _symmetry_equiv_pos_as_xyz
  1  'x, y, z'
loop_
 _atom_site_type_symbol
 _atom_site_label
 _atom_site_symmetry_multiplicity
 _atom_site_fract_x
 _atom_site_fract_y
 _atom_site_fract_z
 _atom_site_occupancy
  Ti  Ti0  1  0.00270500  0.00541000  0.99520399  1
  Ti  Ti1  1  0.71928094  0.43856201  0.93956301  1
  Ti  Ti2  1  0.33187093  0.66374201  0.67080802  1
  Ti  Ti3  1  0.05762399  0.11524800  0.61423700  1
  Ti  Ti4  1  0.66596295  0.33192600  0.33479101  1
  Ti  Ti5  1  0.38921992  0.77844001  0.27873103  1
