# generated using pymatgen
data_BaLa9O10
_symmetry_space_group_name_H-M   'P 1'
_cell_length_a   4.26170015
_cell_length_b   10.14121532
_cell_length_c   10.94422245
_cell_angle_alpha   90.00000000
_cell_angle_beta   90.00000000
_cell_angle_gamma   90.00000000
_symmetry_Int_Tables_number   1
_chemical_formula_structural   BaLa9O10
_chemical_formula_sum   'Ba1 La9 O10'
_cell_volume   472.99636811
_cell_formula_units_Z   1
loop_
 _symmetry_equiv_pos_site_id
 _symmetry_equiv_pos_as_xyz
  1  'x, y, z'
loop_
 _atom_site_type_symbol
 _atom_site_label
 _atom_site_symmetry_multiplicity
 _atom_site_fract_x
 _atom_site_fract_y
 _atom_site_fract_z
 _atom_site_occupancy
  La  La0  1  0.24999999  0.24778299  0.17476799  1
  Ba  Ba1  1  0.74999997  0.75221698  0.82523197  1
  La  La2  1  0.24999999  0.74778298  0.32523199  1
  La  La3  1  0.74999997  0.25221699  0.67476797  1
  La  La4  1  0.24999999  0.60067998  0.04735900  1
  O  O5  1  0.74999997  0.39931999  0.95264096  1
  O  O6  1  0.24999999  0.10068000  0.45264098  1
  La  La7  1  0.74999997  0.89931997  0.54735898  1
  O  O8  1  0.24999999  0.54163398  0.61866097  1
  O  O9  1  0.74999997  0.45836599  0.38133898  1
  O  O10  1  0.24999999  0.04163400  0.88133896  1
  O  O11  1  0.74999997  0.95836597  0.11866100  1
  La  La12  1  0.24999999  0.97601197  0.65598497  1
  O  O13  1  0.74999997  0.02398800  0.34401499  1
  La  La14  1  0.24999999  0.47601198  0.84401497  1
  O  O15  1  0.74999997  0.52398798  0.15598499  1
  O  O16  1  0.24999999  0.35476699  0.45866098  1
  La  La17  1  0.74999997  0.64523298  0.54133898  1
  La  La18  1  0.24999999  0.85476697  0.04133900  1
  O  O19  1  0.74999997  0.14523300  0.95866096  1
