# generated using pymatgen
data_KSe
_symmetry_space_group_name_H-M   'P 1'
_cell_length_a   6.09595919
_cell_length_b   6.42141390
_cell_length_c   6.42141390
_cell_angle_alpha   82.64302826
_cell_angle_beta   68.77118683
_cell_angle_gamma   111.22881317
_symmetry_Int_Tables_number   1
_chemical_formula_structural   KSe
_chemical_formula_sum   'K4 Se4'
_cell_volume   208.46591212
_cell_formula_units_Z   4
loop_
 _symmetry_equiv_pos_site_id
 _symmetry_equiv_pos_as_xyz
  1  'x, y, z'
loop_
 _atom_site_type_symbol
 _atom_site_label
 _atom_site_symmetry_multiplicity
 _atom_site_fract_x
 _atom_site_fract_y
 _atom_site_fract_z
 _atom_site_occupancy
  Se  Se0  1  0.74999998  0.35896298  0.35896302  1
  Se  Se1  1  0.24999997  0.64103697  0.64103698  1
  Se  Se2  1  0.25000000  0.08221100  0.08221101  1
  Se  Se3  1  0.74999995  0.91778896  0.91778899  1
  K  K4  1  0.20948299  0.12214899  0.76762199  1
  K  K5  1  0.29051696  0.76762197  0.12214900  1
  K  K6  1  0.70948299  0.23237799  0.87785100  1
  K  K7  1  0.79051695  0.87785096  0.23237801  1
