# generated using pymatgen
data_Ca5HS
_symmetry_space_group_name_H-M   'P 1'
_cell_length_a   4.29224110
_cell_length_b   6.53618097
_cell_length_c   7.14246559
_cell_angle_alpha   100.39254761
_cell_angle_beta   107.47222900
_cell_angle_gamma   109.15417480
_symmetry_Int_Tables_number   1
_chemical_formula_structural   Ca5HS
_chemical_formula_sum   'Ca5 H1 S1'
_cell_volume   171.68726884
_cell_formula_units_Z   1
loop_
 _symmetry_equiv_pos_site_id
 _symmetry_equiv_pos_as_xyz
  1  'x, y, z'
loop_
 _atom_site_type_symbol
 _atom_site_label
 _atom_site_symmetry_multiplicity
 _atom_site_fract_x
 _atom_site_fract_y
 _atom_site_fract_z
 _atom_site_occupancy
  Ca  Ca0  1  0.75330798  0.80366100  0.70283800  1
  Ca  Ca1  1  0.24669800  0.19634500  0.29717000  1
  S  S2  1  0.61427000  0.30273600  0.92580700  1
  H  H3  1  0.38572198  0.69725600  0.07419000  1
  Ca  Ca4  1  0.96474599  0.64998400  0.27967702  1
  Ca  Ca5  1  0.03525699  0.35002100  0.72031798  1
  Ca  Ca6  1  0.49999498  0.99999500  0.99999898  1
