# generated using pymatgen
data_Zn9O2
_symmetry_space_group_name_H-M   'P 1'
_cell_length_a   3.97283411
_cell_length_b   3.97283411
_cell_length_c   11.59392834
_cell_angle_alpha   90.00000000
_cell_angle_beta   90.00000000
_cell_angle_gamma   90.00000000
_symmetry_Int_Tables_number   1
_chemical_formula_structural   Zn9O2
_chemical_formula_sum   'Zn9 O2'
_cell_volume   182.99173451
_cell_formula_units_Z   1
loop_
 _symmetry_equiv_pos_site_id
 _symmetry_equiv_pos_as_xyz
  1  'x, y, z'
loop_
 _atom_site_type_symbol
 _atom_site_label
 _atom_site_symmetry_multiplicity
 _atom_site_fract_x
 _atom_site_fract_y
 _atom_site_fract_z
 _atom_site_occupancy
  Zn  Zn0  1  0.49999999  0.49999999  0.51404799  1
  O  O1  1  0.00000000  0.00000000  0.32540799  1
  O  O2  1  0.00000000  0.00000000  0.68934398  1
  Zn  Zn3  1  0.49999999  0.49999999  0.83231498  1
  Zn  Zn4  1  0.49999999  0.49999999  0.16108400  1
  Zn  Zn5  1  0.00000000  0.00000000  0.00670800  1
  Zn  Zn6  1  0.00000000  0.49999999  0.70649098  1
  Zn  Zn7  1  0.49999999  0.00000000  0.70649098  1
  Zn  Zn8  1  0.00000000  0.49999999  0.28555599  1
  Zn  Zn9  1  0.49999999  0.00000000  0.28555599  1
  Zn  Zn10  1  0.00000000  0.00000000  0.48699899  1
