# generated using pymatgen
data_Ba3InS6
_symmetry_space_group_name_H-M   'P 1'
_cell_length_a   7.23536825
_cell_length_b   7.23536825
_cell_length_c   7.23536825
_cell_angle_alpha   60.00000000
_cell_angle_beta   60.00000000
_cell_angle_gamma   60.00000000
_symmetry_Int_Tables_number   1
_chemical_formula_structural   Ba3InS6
_chemical_formula_sum   'Ba3 In1 S6'
_cell_volume   267.83474898
_cell_formula_units_Z   1
loop_
 _symmetry_equiv_pos_site_id
 _symmetry_equiv_pos_as_xyz
  1  'x, y, z'
loop_
 _atom_site_type_symbol
 _atom_site_label
 _atom_site_symmetry_multiplicity
 _atom_site_fract_x
 _atom_site_fract_y
 _atom_site_fract_z
 _atom_site_occupancy
  Ba  Ba0  1  0.25000000  0.25000000  0.25000000  1
  Ba  Ba1  1  0.75000001  0.75000001  0.75000001  1
  In  In2  1  0.50000000  0.50000000  0.50000000  1
  Ba  Ba3  1  0.00000000  0.00000000  0.00000000  1
  S  S4  1  0.24463600  0.75536401  0.24463600  1
  S  S5  1  0.24463600  0.24463600  0.75536401  1
  S  S6  1  0.75536401  0.24463600  0.75536401  1
  S  S7  1  0.24463600  0.75536401  0.75536401  1
  S  S8  1  0.75536401  0.24463600  0.24463600  1
  S  S9  1  0.75536401  0.75536401  0.24463600  1
