# generated using pymatgen
data_MoSe5
_symmetry_space_group_name_H-M   'P 1'
_cell_length_a   3.25559211
_cell_length_b   3.25559258
_cell_length_c   36.94458389
_cell_angle_alpha   90.00000000
_cell_angle_beta   90.00000000
_cell_angle_gamma   119.99999237
_symmetry_Int_Tables_number   1
_chemical_formula_structural   MoSe5
_chemical_formula_sum   'Mo2 Se10'
_cell_volume   339.11069125
_cell_formula_units_Z   2
loop_
 _symmetry_equiv_pos_site_id
 _symmetry_equiv_pos_as_xyz
  1  'x, y, z'
loop_
 _atom_site_type_symbol
 _atom_site_label
 _atom_site_symmetry_multiplicity
 _atom_site_fract_x
 _atom_site_fract_y
 _atom_site_fract_z
 _atom_site_occupancy
  Mo  Mo0  1  0.33333329  0.66666664  0.71822402  1
  Se  Se1  1  0.66666663  0.33333332  0.90608903  1
  Se  Se2  1  0.66666663  0.33333332  0.53030902  1
  Se  Se3  1  0.33333329  0.66666664  0.34244301  1
  Se  Se4  1  0.66666663  0.33333332  0.67226802  1
  Se  Se5  1  0.33333329  0.66666664  0.57656702  1
  Se  Se6  1  0.33333329  0.66666664  0.48408001  1
  Se  Se7  1  0.66666663  0.33333332  0.76420402  1
  Se  Se8  1  0.66666663  0.33333332  0.30047001  1
  Se  Se9  1  0.33333329  0.66666664  0.94806603  1
  Mo  Mo10  1  0.33333329  0.66666664  0.86410503  1
  Se  Se11  1  0.66666663  0.33333332  0.38442801  1
