# generated using pymatgen
data_BaAs11
_symmetry_space_group_name_H-M   'P 1'
_cell_length_a   6.89885712
_cell_length_b   6.89885712
_cell_length_c   6.89885712
_cell_angle_alpha   90.00000000
_cell_angle_beta   90.00000000
_cell_angle_gamma   90.00000000
_symmetry_Int_Tables_number   1
_chemical_formula_structural   BaAs11
_chemical_formula_sum   'Ba1 As11'
_cell_volume   328.34578901
_cell_formula_units_Z   1
loop_
 _symmetry_equiv_pos_site_id
 _symmetry_equiv_pos_as_xyz
  1  'x, y, z'
loop_
 _atom_site_type_symbol
 _atom_site_label
 _atom_site_symmetry_multiplicity
 _atom_site_fract_x
 _atom_site_fract_y
 _atom_site_fract_z
 _atom_site_occupancy
  Ba  Ba0  1  0.37389699  0.87389699  0.62610299  1
  As  As1  1  0.62610299  0.37389699  0.87389699  1
  As  As2  1  0.87389699  0.62610299  0.37389699  1
  As  As3  1  0.12610300  0.12610300  0.12610300  1
  As  As4  1  0.07723600  0.57723599  0.92276398  1
  As  As5  1  0.57723599  0.92276398  0.07723600  1
  As  As6  1  0.92276398  0.07723600  0.57723599  1
  As  As7  1  0.42276399  0.42276399  0.42276399  1
  As  As8  1  0.67199799  0.17199800  0.32800199  1
  As  As9  1  0.32800199  0.67199799  0.17199800  1
  As  As10  1  0.17199800  0.32800199  0.67199799  1
  As  As11  1  0.82800199  0.82800199  0.82800199  1
