# generated using pymatgen
data_Cs2SF5
_symmetry_space_group_name_H-M   'P 1'
_cell_length_a   7.66681576
_cell_length_b   7.66681576
_cell_length_c   8.82592392
_cell_angle_alpha   64.25701141
_cell_angle_beta   64.25701141
_cell_angle_gamma   60.00000381
_symmetry_Int_Tables_number   1
_chemical_formula_structural   Cs2SF5
_chemical_formula_sum   'Cs2 S1 F5'
_cell_volume   388.69441574
_cell_formula_units_Z   1
loop_
 _symmetry_equiv_pos_site_id
 _symmetry_equiv_pos_as_xyz
  1  'x, y, z'
loop_
 _atom_site_type_symbol
 _atom_site_label
 _atom_site_symmetry_multiplicity
 _atom_site_fract_x
 _atom_site_fract_y
 _atom_site_fract_z
 _atom_site_occupancy
  Cs  Cs0  1  0.83206701  0.83206698  0.50379900  1
  Cs  Cs1  1  0.16793300  0.16793300  0.49620099  1
  S  S2  1  0.57543600  0.22491300  0.26409700  1
  F  F3  1  0.22491301  0.93555398  0.26409700  1
  F  F4  1  0.93555400  0.57543599  0.26409700  1
  F  F5  1  0.42456401  0.77508698  0.73590299  1
  F  F6  1  0.77508699  0.06444600  0.73590299  1
  F  F7  1  0.06444601  0.42456399  0.73590299  1
