# generated using pymatgen
data_MnO
_symmetry_space_group_name_H-M   'P 1'
_cell_length_a   3.42272806
_cell_length_b   5.89485216
_cell_length_c   5.89485216
_cell_angle_alpha   109.66215515
_cell_angle_beta   90.00000000
_cell_angle_gamma   90.00000000
_symmetry_Int_Tables_number   1
_chemical_formula_structural   MnO
_chemical_formula_sum   'Mn4 O4'
_cell_volume   112.00246260
_cell_formula_units_Z   4
loop_
 _symmetry_equiv_pos_site_id
 _symmetry_equiv_pos_as_xyz
  1  'x, y, z'
loop_
 _atom_site_type_symbol
 _atom_site_label
 _atom_site_symmetry_multiplicity
 _atom_site_fract_x
 _atom_site_fract_y
 _atom_site_fract_z
 _atom_site_occupancy
  O  O0  1  0.99999998  0.50000000  0.49999998  1
  O  O1  1  0.49999999  0.50000000  1.00000000  1
  O  O2  1  0.49999999  0.00000000  0.50000002  1
  O  O3  1  0.00000000  0.00000000  0.00000000  1
  Mn  Mn4  1  0.99999998  0.74678101  0.25321896  1
  Mn  Mn5  1  0.49999999  0.74558901  0.74558897  1
  Mn  Mn6  1  0.49999999  0.25441100  0.25441099  1
  Mn  Mn7  1  0.99999998  0.25321900  0.74678101  1
