# generated using pymatgen
data_LiMgBeSi
_symmetry_space_group_name_H-M   'P 1'
_cell_length_a   2.44199443
_cell_length_b   3.97660446
_cell_length_c   4.38761854
_cell_angle_alpha   89.97549438
_cell_angle_beta   90.05195618
_cell_angle_gamma   89.86560059
_symmetry_Int_Tables_number   1
_chemical_formula_structural   LiMgBeSi
_chemical_formula_sum   'Li1 Mg1 Be1 Si1'
_cell_volume   42.60734903
_cell_formula_units_Z   1
loop_
 _symmetry_equiv_pos_site_id
 _symmetry_equiv_pos_as_xyz
  1  'x, y, z'
loop_
 _atom_site_type_symbol
 _atom_site_label
 _atom_site_symmetry_multiplicity
 _atom_site_fract_x
 _atom_site_fract_y
 _atom_site_fract_z
 _atom_site_occupancy
  Be  Be0  1  0.62409594  0.99996698  0.53385204  1
  Mg  Mg1  1  0.62587496  0.50003199  0.21617103  1
  Li  Li2  1  0.12410695  0.99996598  0.03384306  1
  Si  Si3  1  0.12592297  0.50003499  0.71613400  1
