# generated using pymatgen
data_Zn2S9
_symmetry_space_group_name_H-M   'P 1'
_cell_length_a   3.91039395
_cell_length_b   3.91039395
_cell_length_c   11.31445789
_cell_angle_alpha   90.00000000
_cell_angle_beta   90.00000000
_cell_angle_gamma   90.00000000
_symmetry_Int_Tables_number   1
_chemical_formula_structural   Zn2S9
_chemical_formula_sum   'Zn2 S9'
_cell_volume   173.01142210
_cell_formula_units_Z   1
loop_
 _symmetry_equiv_pos_site_id
 _symmetry_equiv_pos_as_xyz
  1  'x, y, z'
loop_
 _atom_site_type_symbol
 _atom_site_label
 _atom_site_symmetry_multiplicity
 _atom_site_fract_x
 _atom_site_fract_y
 _atom_site_fract_z
 _atom_site_occupancy
  S  S0  1  0.50000001  0.50000001  0.50000000  1
  Zn  Zn1  1  0.50000001  0.50000001  -0.00000000  1
  S  S2  1  0.00000000  0.00000000  0.20368300  1
  S  S3  1  0.00000000  0.00000000  0.79631701  1
  Zn  Zn4  1  0.00000000  0.00000000  0.00000000  1
  S  S5  1  0.00000000  0.50000001  0.16559000  1
  S  S6  1  0.50000001  0.00000000  0.16559000  1
  S  S7  1  0.00000000  0.50000001  0.83441001  1
  S  S8  1  0.50000001  0.00000000  0.83441001  1
  S  S9  1  0.00000000  0.00000000  0.36298300  1
  S  S10  1  0.00000000  0.00000000  0.63701701  1
