# generated using pymatgen
data_BaZn4O6
_symmetry_space_group_name_H-M   'P 1'
_cell_length_a   3.91039395
_cell_length_b   3.91039395
_cell_length_c   11.31445789
_cell_angle_alpha   90.00000000
_cell_angle_beta   90.00000000
_cell_angle_gamma   90.00000000
_symmetry_Int_Tables_number   1
_chemical_formula_structural   BaZn4O6
_chemical_formula_sum   'Ba1 Zn4 O6'
_cell_volume   173.01142210
_cell_formula_units_Z   1
loop_
 _symmetry_equiv_pos_site_id
 _symmetry_equiv_pos_as_xyz
  1  'x, y, z'
loop_
 _atom_site_type_symbol
 _atom_site_label
 _atom_site_symmetry_multiplicity
 _atom_site_fract_x
 _atom_site_fract_y
 _atom_site_fract_z
 _atom_site_occupancy
  Zn  Zn0  1  0.50000001  0.50000001  0.50000000  1
  Zn  Zn1  1  0.50000001  0.50000001  -0.00000000  1
  Zn  Zn2  1  0.00000000  0.00000000  0.20368300  1
  Zn  Zn3  1  0.00000000  0.00000000  0.79631701  1
  Ba  Ba4  1  0.00000000  0.00000000  0.00000000  1
  O  O5  1  0.00000000  0.50000001  0.16559000  1
  O  O6  1  0.50000001  0.00000000  0.16559000  1
  O  O7  1  0.00000000  0.50000001  0.83441001  1
  O  O8  1  0.50000001  0.00000000  0.83441001  1
  O  O9  1  0.00000000  0.00000000  0.36298300  1
  O  O10  1  0.00000000  0.00000000  0.63701701  1
