# generated using pymatgen
data_Tm4O
_symmetry_space_group_name_H-M   'P 1'
_cell_length_a   3.36769795
_cell_length_b   3.36769795
_cell_length_c   12.21191502
_cell_angle_alpha   90.00000000
_cell_angle_beta   90.00000000
_cell_angle_gamma   120.00000000
_symmetry_Int_Tables_number   1
_chemical_formula_structural   Tm4O
_chemical_formula_sum   'Tm8 O2'
_cell_volume   119.94459192
_cell_formula_units_Z   2
loop_
 _symmetry_equiv_pos_site_id
 _symmetry_equiv_pos_as_xyz
  1  'x, y, z'
loop_
 _atom_site_type_symbol
 _atom_site_label
 _atom_site_symmetry_multiplicity
 _atom_site_fract_x
 _atom_site_fract_y
 _atom_site_fract_z
 _atom_site_occupancy
  O  O0  1  0.00000000  0.00000000  0.50000000  1
  Tm  Tm1  1  0.00000000  0.00000000  0.00000000  1
  Tm  Tm2  1  0.33333334  0.66666667  0.25000000  1
  O  O3  1  0.66666667  0.33333334  0.75000000  1
  Tm  Tm4  1  0.66666667  0.33333334  0.58733300  1
  Tm  Tm5  1  0.33333334  0.66666667  0.08733300  1
  Tm  Tm6  1  0.33333334  0.66666667  0.41266700  1
  Tm  Tm7  1  0.66666667  0.33333334  0.91266700  1
  Tm  Tm8  1  0.00000000  0.00000000  0.75000000  1
  Tm  Tm9  1  0.00000000  0.00000000  0.25000000  1
