# generated using pymatgen
data_LiO2
_symmetry_space_group_name_H-M   'P 1'
_cell_length_a   3.56121159
_cell_length_b   3.56121159
_cell_length_c   4.55612898
_cell_angle_alpha   90.00000000
_cell_angle_beta   90.00000000
_cell_angle_gamma   89.78814697
_symmetry_Int_Tables_number   1
_chemical_formula_structural   LiO2
_chemical_formula_sum   'Li2 O4'
_cell_volume   57.78147134
_cell_formula_units_Z   2
loop_
 _symmetry_equiv_pos_site_id
 _symmetry_equiv_pos_as_xyz
  1  'x, y, z'
loop_
 _atom_site_type_symbol
 _atom_site_label
 _atom_site_symmetry_multiplicity
 _atom_site_fract_x
 _atom_site_fract_y
 _atom_site_fract_z
 _atom_site_occupancy
  Li  Li0  1  0.53992699  0.46007299  0.50000000  1
  Li  Li1  1  0.03992701  0.96007298  0.50000000  1
  O  O2  1  0.07955800  0.42044199  0.10306100  1
  O  O3  1  0.57955800  0.92044198  0.89693900  1
  O  O4  1  0.04165801  0.45834199  0.31016100  1
  O  O5  1  0.54165800  0.95834198  0.68983900  1
