# generated using pymatgen
data_O2
_symmetry_space_group_name_H-M   'P 1'
_cell_length_a   4.88297701
_cell_length_b   4.88297701
_cell_length_c   6.16995096
_cell_angle_alpha   90.00000000
_cell_angle_beta   90.00000000
_cell_angle_gamma   91.77146912
_symmetry_Int_Tables_number   1
_chemical_formula_structural   O2
_chemical_formula_sum   O12
_cell_volume   147.04269795
_cell_formula_units_Z   6
loop_
 _symmetry_equiv_pos_site_id
 _symmetry_equiv_pos_as_xyz
  1  'x, y, z'
loop_
 _atom_site_type_symbol
 _atom_site_label
 _atom_site_symmetry_multiplicity
 _atom_site_fract_x
 _atom_site_fract_y
 _atom_site_fract_z
 _atom_site_occupancy
  O  O0  1  0.96944894  0.96944897  0.25000000  1
  O  O1  1  0.03055100  0.03055100  0.75000000  1
  O  O2  1  0.49999997  0.49999999  1.00000001  1
  O  O3  1  0.49999997  0.49999999  0.50000000  1
  O  O4  1  0.33186298  0.33186299  0.75000000  1
  O  O5  1  0.66813696  0.66813698  0.25000000  1
  O  O6  1  0.20485497  0.79514498  -0.00000000  1
  O  O7  1  0.20485497  0.79514498  0.50000000  1
  O  O8  1  0.29013398  0.29013399  0.25000000  1
  O  O9  1  0.70986596  0.70986598  0.75000000  1
  O  O10  1  0.79514497  0.20485499  0.50000000  1
  O  O11  1  0.79514497  0.20485499  -0.00000000  1
