# generated using pymatgen
data_CaS13
_symmetry_space_group_name_H-M   'P 1'
_cell_length_a   3.48084021
_cell_length_b   5.85283566
_cell_length_c   17.53061295
_cell_angle_alpha   90.00000000
_cell_angle_beta   90.00000000
_cell_angle_gamma   89.96344757
_symmetry_Int_Tables_number   1
_chemical_formula_structural   CaS13
_chemical_formula_sum   'Ca1 S13'
_cell_volume   357.14734750
_cell_formula_units_Z   1
loop_
 _symmetry_equiv_pos_site_id
 _symmetry_equiv_pos_as_xyz
  1  'x, y, z'
loop_
 _atom_site_type_symbol
 _atom_site_label
 _atom_site_symmetry_multiplicity
 _atom_site_fract_x
 _atom_site_fract_y
 _atom_site_fract_z
 _atom_site_occupancy
  S  S0  1  0.00000000  0.00000000  0.50000000  1
  Ca  Ca1  1  0.50000006  0.49999998  -0.00000000  1
  S  S2  1  0.00025200  0.00093300  0.74999700  1
  S  S3  1  0.50025206  0.50093298  0.75000300  1
  S  S4  1  0.99974812  0.99906696  0.25000300  1
  S  S5  1  0.49974806  0.49906698  0.24999700  1
  S  S6  1  0.49993402  0.16629399  0.66233100  1
  S  S7  1  0.99989608  0.66450797  0.66231600  1
  S  S8  1  0.00010404  0.33549199  0.33768400  1
  S  S9  1  0.50006610  0.83370597  0.33766900  1
  S  S10  1  0.00006604  0.33370599  0.16233100  1
  S  S11  1  0.50010410  0.83549197  0.16231600  1
  S  S12  1  0.49989602  0.16450799  0.83768400  1
  S  S13  1  0.99993408  0.66629397  0.83766900  1
