# generated using pymatgen
data_BaYb5
_symmetry_space_group_name_H-M   'P 1'
_cell_length_a   3.16976404
_cell_length_b   6.71401167
_cell_length_c   7.65289497
_cell_angle_alpha   103.83573151
_cell_angle_beta   90.00000000
_cell_angle_gamma   103.65386963
_symmetry_Int_Tables_number   1
_chemical_formula_structural   BaYb5
_chemical_formula_sum   'Ba1 Yb5'
_cell_volume   153.39763326
_cell_formula_units_Z   1
loop_
 _symmetry_equiv_pos_site_id
 _symmetry_equiv_pos_as_xyz
  1  'x, y, z'
loop_
 _atom_site_type_symbol
 _atom_site_label
 _atom_site_symmetry_multiplicity
 _atom_site_fract_x
 _atom_site_fract_y
 _atom_site_fract_z
 _atom_site_occupancy
  Yb  Yb0  1  0.33387392  0.66774797  0.65517599  1
  Yb  Yb1  1  0.92118690  0.84237396  0.39205699  1
  Yb  Yb2  1  0.30064993  0.60129997  0.07038499  1
  Yb  Yb3  1  0.01574600  0.03149200  0.00105200  1
  Ba  Ba4  1  0.60994797  0.21989599  0.72121200  1
  Yb  Yb5  1  0.65192696  0.30385399  0.32678600  1
