# generated using pymatgen
data_S
_symmetry_space_group_name_H-M   'P 1'
_cell_length_a   5.88086796
_cell_length_b   5.88086796
_cell_length_c   7.10267353
_cell_angle_alpha   114.45571136
_cell_angle_beta   114.45571136
_cell_angle_gamma   90.00000000
_symmetry_Int_Tables_number   1
_chemical_formula_structural   S
_chemical_formula_sum   S7
_cell_volume   199.14148765
_cell_formula_units_Z   7
loop_
 _symmetry_equiv_pos_site_id
 _symmetry_equiv_pos_as_xyz
  1  'x, y, z'
loop_
 _atom_site_type_symbol
 _atom_site_label
 _atom_site_symmetry_multiplicity
 _atom_site_fract_x
 _atom_site_fract_y
 _atom_site_fract_z
 _atom_site_occupancy
  S  S0  1  0.50000000  0.50000000  0.00000000  1
  S  S1  1  0.75000001  0.25000000  0.50000001  1
  S  S2  1  0.25000000  0.75000001  0.50000001  1
  S  S3  1  0.64982601  0.64982601  0.78054402  1
  S  S4  1  0.86928201  0.35017400  0.21945601  1
  S  S5  1  0.13071800  0.13071800  0.78054402  1
  S  S6  1  0.35017400  0.86928201  0.21945601  1
