# generated using pymatgen
data_LiO2
_symmetry_space_group_name_H-M   'P 1'
_cell_length_a   2.95158792
_cell_length_b   4.66248178
_cell_length_c   8.25180626
_cell_angle_alpha   92.09014130
_cell_angle_beta   90.00000000
_cell_angle_gamma   90.00000000
_symmetry_Int_Tables_number   1
_chemical_formula_structural   LiO2
_chemical_formula_sum   'Li3 O6'
_cell_volume   113.48353494
_cell_formula_units_Z   3
loop_
 _symmetry_equiv_pos_site_id
 _symmetry_equiv_pos_as_xyz
  1  'x, y, z'
loop_
 _atom_site_type_symbol
 _atom_site_label
 _atom_site_symmetry_multiplicity
 _atom_site_fract_x
 _atom_site_fract_y
 _atom_site_fract_z
 _atom_site_occupancy
  O  O0  1  0.50000001  0.73537003  0.08559699  1
  Li  Li1  1  0.50000001  0.25421801  0.57163998  1
  O  O2  1  0.50000001  0.26463001  0.91440298  1
  O  O3  1  0.50000001  0.74578203  0.42835998  1
  O  O4  1  0.00000000  0.74932903  0.75707397  1
  O  O5  1  0.00000000  0.25067101  0.24292599  1
  Li  Li6  1  0.00000000  0.70703003  0.25857499  1
  O  O7  1  0.00000000  0.29297001  0.74142498  1
  Li  Li8  1  0.00000000  0.00000000  0.00000000  1
