# generated using pymatgen
data_Zn4O
_symmetry_space_group_name_H-M   'P 1'
_cell_length_a   4.57492828
_cell_length_b   4.57492828
_cell_length_c   4.57492781
_cell_angle_alpha   83.89768982
_cell_angle_beta   83.89768982
_cell_angle_gamma   83.89768982
_symmetry_Int_Tables_number   1
_chemical_formula_structural   Zn4O
_chemical_formula_sum   'Zn4 O1'
_cell_volume   94.23296018
_cell_formula_units_Z   1
loop_
 _symmetry_equiv_pos_site_id
 _symmetry_equiv_pos_as_xyz
  1  'x, y, z'
loop_
 _atom_site_type_symbol
 _atom_site_label
 _atom_site_symmetry_multiplicity
 _atom_site_fract_x
 _atom_site_fract_y
 _atom_site_fract_z
 _atom_site_occupancy
  Zn  Zn0  1  0.00065600  0.00065600  0.00065600  1
  O  O1  1  0.48884198  0.48884201  0.48884193  1
  Zn  Zn2  1  0.15895797  0.55577201  0.55577194  1
  Zn  Zn3  1  0.55577200  0.15895800  0.55577194  1
  Zn  Zn4  1  0.55577198  0.55577201  0.15895793  1
