# generated using pymatgen
data_Zn
_symmetry_space_group_name_H-M   'P 1'
_cell_length_a   4.33283663
_cell_length_b   4.33283663
_cell_length_c   10.74489594
_cell_angle_alpha   78.36811066
_cell_angle_beta   78.36811066
_cell_angle_gamma   59.99998856
_symmetry_Int_Tables_number   1
_chemical_formula_structural   Zn
_chemical_formula_sum   Zn5
_cell_volume   169.89339942
_cell_formula_units_Z   5
loop_
 _symmetry_equiv_pos_site_id
 _symmetry_equiv_pos_as_xyz
  1  'x, y, z'
loop_
 _atom_site_type_symbol
 _atom_site_label
 _atom_site_symmetry_multiplicity
 _atom_site_fract_x
 _atom_site_fract_y
 _atom_site_fract_z
 _atom_site_occupancy
  Zn  Zn0  1  0.60327798  0.60327801  0.19016602  1
  Zn  Zn1  1  0.39672198  0.39672201  0.80983403  1
  Zn  Zn2  1  0.78462497  0.78462501  0.64612504  1
  Zn  Zn3  1  0.21537499  0.21537500  0.35387501  1
  Zn  Zn4  1  0.00000000  0.00000000  0.00000000  1
