# generated using pymatgen
data_Ti5O4
_symmetry_space_group_name_H-M   'P 1'
_cell_length_a   3.51351190
_cell_length_b   6.21885204
_cell_length_c   6.37598515
_cell_angle_alpha   119.18805695
_cell_angle_beta   105.99342346
_cell_angle_gamma   90.00000000
_symmetry_Int_Tables_number   1
_chemical_formula_structural   Ti5O4
_chemical_formula_sum   'Ti5 O4'
_cell_volume   115.40956787
_cell_formula_units_Z   1
loop_
 _symmetry_equiv_pos_site_id
 _symmetry_equiv_pos_as_xyz
  1  'x, y, z'
loop_
 _atom_site_type_symbol
 _atom_site_label
 _atom_site_symmetry_multiplicity
 _atom_site_fract_x
 _atom_site_fract_y
 _atom_site_fract_z
 _atom_site_occupancy
  Ti  Ti0  1  0.80296204  0.30296199  0.60592403  1
  Ti  Ti1  1  0.19703802  0.69703798  0.39407600  1
  Ti  Ti2  1  0.00000000  0.00000000  0.00000000  1
  Ti  Ti3  1  0.50000003  0.64266399  1.00000002  1
  Ti  Ti4  1  0.50000003  0.35733599  -0.00000000  1
  O  O5  1  0.37791403  0.63956399  0.75582801  1
  O  O6  1  0.37791502  0.11626500  0.75582903  1
  O  O7  1  0.62208504  0.88373498  0.24417099  1
  O  O8  1  0.62208603  0.36043599  0.24417201  1
