# generated using pymatgen
data_BaLaAs8
_symmetry_space_group_name_H-M   'P 1'
_cell_length_a   5.27561378
_cell_length_b   7.37415504
_cell_length_c   7.37415504
_cell_angle_alpha   89.94610596
_cell_angle_beta   90.00000000
_cell_angle_gamma   90.00000000
_symmetry_Int_Tables_number   1
_chemical_formula_structural   BaLaAs8
_chemical_formula_sum   'Ba1 La1 As8'
_cell_volume   286.87805740
_cell_formula_units_Z   1
loop_
 _symmetry_equiv_pos_site_id
 _symmetry_equiv_pos_as_xyz
  1  'x, y, z'
loop_
 _atom_site_type_symbol
 _atom_site_label
 _atom_site_symmetry_multiplicity
 _atom_site_fract_x
 _atom_site_fract_y
 _atom_site_fract_z
 _atom_site_occupancy
  As  As0  1  -0.00000000  0.29375800  0.29375802  1
  As  As1  1  1.00000004  0.80224601  0.21395204  1
  As  As2  1  -0.00000000  0.21395200  0.80224602  1
  As  As3  1  0.50000002  0.02256100  0.52501101  1
  As  As4  1  0.50000002  0.52501100  0.02256103  1
  As  As5  1  -0.00000000  0.70568001  0.70568004  1
  Ba  Ba6  1  0.50000002  0.99904601  0.99904606  1
  La  La7  1  0.50000002  0.49693300  0.49693303  1
  As  As8  1  1.00000004  0.50756500  0.00554803  1
  As  As9  1  0.00000000  0.00554800  0.50756500  1
