# generated using pymatgen
data_LiO2
_symmetry_space_group_name_H-M   'P 1'
_cell_length_a   5.24555111
_cell_length_b   5.82933807
_cell_length_c   6.12362051
_cell_angle_alpha   116.30159760
_cell_angle_beta   90.00000000
_cell_angle_gamma   90.00000000
_symmetry_Int_Tables_number   1
_chemical_formula_structural   LiO2
_chemical_formula_sum   'Li4 O8'
_cell_volume   167.86353712
_cell_formula_units_Z   4
loop_
 _symmetry_equiv_pos_site_id
 _symmetry_equiv_pos_as_xyz
  1  'x, y, z'
loop_
 _atom_site_type_symbol
 _atom_site_label
 _atom_site_symmetry_multiplicity
 _atom_site_fract_x
 _atom_site_fract_y
 _atom_site_fract_z
 _atom_site_occupancy
  Li  Li0  1  0.49999999  0.49999999  -0.00000001  1
  Li  Li1  1  0.99999998  0.99999998  0.49999998  1
  Li  Li2  1  0.49999999  0.49999999  0.49999999  1
  Li  Li3  1  0.00000000  0.00000000  0.00000000  1
  O  O4  1  0.69035099  0.30187799  0.63890100  1
  O  O5  1  0.19035100  0.19812200  0.86109900  1
  O  O6  1  0.67163299  0.34264699  0.17972299  1
  O  O7  1  0.17163300  0.15735300  0.32027700  1
  O  O8  1  0.82836698  0.84264698  0.67972299  1
  O  O9  1  0.32836699  0.65735299  0.82027699  1
  O  O10  1  0.80964898  0.80187798  0.13890099  1
  O  O11  1  0.30964899  0.69812199  0.36109899  1
