# generated using pymatgen
data_Zn
_symmetry_space_group_name_H-M   'P 1'
_cell_length_a   3.87851191
_cell_length_b   3.87851191
_cell_length_c   5.59736204
_cell_angle_alpha   110.27088165
_cell_angle_beta   110.27088165
_cell_angle_gamma   90.00000000
_symmetry_Int_Tables_number   1
_chemical_formula_structural   Zn
_chemical_formula_sum   Zn5
_cell_volume   73.40085689
_cell_formula_units_Z   5
loop_
 _symmetry_equiv_pos_site_id
 _symmetry_equiv_pos_as_xyz
  1  'x, y, z'
loop_
 _atom_site_type_symbol
 _atom_site_label
 _atom_site_symmetry_multiplicity
 _atom_site_fract_x
 _atom_site_fract_y
 _atom_site_fract_z
 _atom_site_occupancy
  Zn  Zn0  1  0.00000000  0.00000000  0.00000000  1
  Zn  Zn1  1  0.75000004  0.25000001  0.50000001  1
  Zn  Zn2  1  0.25000003  0.75000003  0.50000002  1
  Zn  Zn3  1  0.62822004  0.62822003  0.25644003  1
  Zn  Zn4  1  0.37178003  0.37178002  0.74356000  1
