# generated using pymatgen
data_CsAuSe
_symmetry_space_group_name_H-M   'P 1'
_cell_length_a   4.68942022
_cell_length_b   4.68942022
_cell_length_c   7.50316000
_cell_angle_alpha   90.00000000
_cell_angle_beta   90.00000000
_cell_angle_gamma   120.00000000
_symmetry_Int_Tables_number   1
_chemical_formula_structural   CsAuSe
_chemical_formula_sum   'Cs1 Au1 Se1'
_cell_volume   142.89372026
_cell_formula_units_Z   1
loop_
 _symmetry_equiv_pos_site_id
 _symmetry_equiv_pos_as_xyz
  1  'x, y, z'
loop_
 _atom_site_type_symbol
 _atom_site_label
 _atom_site_symmetry_multiplicity
 _atom_site_fract_x
 _atom_site_fract_y
 _atom_site_fract_z
 _atom_site_occupancy
  Cs  Cs0  1  0.00000000  0.00000000  0.00000000  1
  Au  Au1  1  0.33333333  0.66666666  0.24701400  1
  Se  Se2  1  0.66666664  0.33333333  0.75298600  1
