# generated using pymatgen
data_Au3O13
_symmetry_space_group_name_H-M   'P 1'
_cell_length_a   4.93864393
_cell_length_b   4.93864489
_cell_length_c   9.60097027
_cell_angle_alpha   90.00000000
_cell_angle_beta   90.00000000
_cell_angle_gamma   119.99999237
_symmetry_Int_Tables_number   1
_chemical_formula_structural   Au3O13
_chemical_formula_sum   'Au3 O13'
_cell_volume   202.79689654
_cell_formula_units_Z   1
loop_
 _symmetry_equiv_pos_site_id
 _symmetry_equiv_pos_as_xyz
  1  'x, y, z'
loop_
 _atom_site_type_symbol
 _atom_site_label
 _atom_site_symmetry_multiplicity
 _atom_site_fract_x
 _atom_site_fract_y
 _atom_site_fract_z
 _atom_site_occupancy
  Au  Au0  1  0.00000000  0.00000000  0.49999999  1
  Au  Au1  1  0.00000000  0.00000000  0.00000000  1
  O  O2  1  0.33333330  0.66666663  0.24999999  1
  Au  Au3  1  0.66666666  0.33333331  0.74999998  1
  O  O4  1  0.66666666  0.33333331  0.24999999  1
  O  O5  1  0.33333330  0.66666663  0.74999998  1
  O  O6  1  0.61543397  0.67075896  0.74999998  1
  O  O7  1  0.67075897  0.61543396  0.24999999  1
  O  O8  1  0.32924095  0.94467494  0.74999998  1
  O  O9  1  0.38456600  0.05532500  0.24999999  1
  O  O10  1  0.94467499  0.32924098  0.24999999  1
  O  O11  1  0.05532498  0.38456598  0.74999998  1
  O  O12  1  0.33333330  0.66666663  0.44431399  1
  O  O13  1  0.66666666  0.33333331  0.55568598  1
  O  O14  1  0.66666666  0.33333331  0.94431397  1
  O  O15  1  0.33333330  0.66666663  0.05568600  1
