# generated using pymatgen
data_Tm8AlO
_symmetry_space_group_name_H-M   'P 1'
_cell_length_a   3.88079691
_cell_length_b   3.88079691
_cell_length_c   9.49349213
_cell_angle_alpha   90.00000000
_cell_angle_beta   90.00000000
_cell_angle_gamma   89.88764954
_symmetry_Int_Tables_number   1
_chemical_formula_structural   Tm8AlO
_chemical_formula_sum   'Tm8 Al1 O1'
_cell_volume   142.97726693
_cell_formula_units_Z   1
loop_
 _symmetry_equiv_pos_site_id
 _symmetry_equiv_pos_as_xyz
  1  'x, y, z'
loop_
 _atom_site_type_symbol
 _atom_site_label
 _atom_site_symmetry_multiplicity
 _atom_site_fract_x
 _atom_site_fract_y
 _atom_site_fract_z
 _atom_site_occupancy
  Al  Al0  1  0.72018401  0.27981600  0.25000000  1
  O  O1  1  0.27981602  0.72018400  0.74999999  1
  Tm  Tm2  1  0.75406102  0.74323400  0.74999999  1
  Tm  Tm3  1  0.74323402  0.75406100  0.25000000  1
  Tm  Tm4  1  0.25676601  0.24593900  0.74999999  1
  Tm  Tm5  1  0.24593901  0.25676600  0.25000000  1
  Tm  Tm6  1  0.75878501  0.24121500  0.05155100  1
  Tm  Tm7  1  0.75878501  0.24121500  0.44844899  1
  Tm  Tm8  1  0.24121502  0.75878500  0.55155099  1
  Tm  Tm9  1  0.24121502  0.75878500  0.94844899  1
