# generated using pymatgen
data_Zn
_symmetry_space_group_name_H-M   'P 1'
_cell_length_a   4.11381197
_cell_length_b   4.11381197
_cell_length_c   7.70717144
_cell_angle_alpha   105.47881317
_cell_angle_beta   105.47881317
_cell_angle_gamma   90.00000000
_symmetry_Int_Tables_number   1
_chemical_formula_structural   Zn
_chemical_formula_sum   Zn6
_cell_volume   120.78502837
_cell_formula_units_Z   6
loop_
 _symmetry_equiv_pos_site_id
 _symmetry_equiv_pos_as_xyz
  1  'x, y, z'
loop_
 _atom_site_type_symbol
 _atom_site_label
 _atom_site_symmetry_multiplicity
 _atom_site_fract_x
 _atom_site_fract_y
 _atom_site_fract_z
 _atom_site_occupancy
  Zn  Zn0  1  0.75117596  0.75117599  0.50235195  1
  Zn  Zn1  1  0.50117599  0.00117600  0.00235198  1
  Zn  Zn2  1  0.32926598  0.32926600  0.65853198  1
  Zn  Zn3  1  0.07926598  0.57926599  0.15853197  1
  Zn  Zn4  1  0.91225798  0.41225799  0.82451595  1
  Zn  Zn5  1  0.16225799  0.16225800  0.32451599  1
