# generated using pymatgen
data_MnO5F4
_symmetry_space_group_name_H-M   'P 1'
_cell_length_a   3.40402603
_cell_length_b   5.75646019
_cell_length_c   5.75646019
_cell_angle_alpha   90.00000000
_cell_angle_beta   90.00000000
_cell_angle_gamma   90.00000000
_symmetry_Int_Tables_number   1
_chemical_formula_structural   MnO5F4
_chemical_formula_sum   'Mn1 O5 F4'
_cell_volume   112.79864525
_cell_formula_units_Z   1
loop_
 _symmetry_equiv_pos_site_id
 _symmetry_equiv_pos_as_xyz
  1  'x, y, z'
loop_
 _atom_site_type_symbol
 _atom_site_label
 _atom_site_symmetry_multiplicity
 _atom_site_fract_x
 _atom_site_fract_y
 _atom_site_fract_z
 _atom_site_occupancy
  Mn  Mn0  1  0.50000000  0.67969898  0.17969899  1
  F  F1  1  0.50000000  0.32030099  0.82030097  1
  F  F2  1  0.50000000  0.17969899  0.32030099  1
  F  F3  1  0.50000000  0.82030097  0.67969898  1
  O  O4  1  0.00000000  0.49999998  0.49999998  1
  O  O5  1  0.00000000  0.00000000  0.00000000  1
  F  F6  1  0.00000000  0.11466500  0.61466498  1
  O  O7  1  0.00000000  0.88533497  0.38533499  1
  O  O8  1  0.00000000  0.61466498  0.88533497  1
  O  O9  1  0.00000000  0.38533499  0.11466500  1
