# generated using pymatgen
data_La
_symmetry_space_group_name_H-M   'P 1'
_cell_length_a   4.43909502
_cell_length_b   7.93297720
_cell_length_c   7.93297720
_cell_angle_alpha   90.00000000
_cell_angle_beta   90.00000000
_cell_angle_gamma   90.00000000
_symmetry_Int_Tables_number   1
_chemical_formula_structural   La
_chemical_formula_sum   La10
_cell_volume   279.36169269
_cell_formula_units_Z   10
loop_
 _symmetry_equiv_pos_site_id
 _symmetry_equiv_pos_as_xyz
  1  'x, y, z'
loop_
 _atom_site_type_symbol
 _atom_site_label
 _atom_site_symmetry_multiplicity
 _atom_site_fract_x
 _atom_site_fract_y
 _atom_site_fract_z
 _atom_site_occupancy
  La  La0  1  0.50000000  0.82407898  0.67592098  1
  La  La1  1  0.50000000  0.32407899  0.82407898  1
  La  La2  1  0.50000000  0.17592100  0.32407899  1
  La  La3  1  0.50000000  0.67592098  0.17592100  1
  La  La4  1  0.00000000  0.49999999  0.49999999  1
  La  La5  1  0.00000000  0.00000000  0.00000000  1
  La  La6  1  0.00000000  0.10935100  0.60935098  1
  La  La7  1  0.00000000  0.60935098  0.89064898  1
  La  La8  1  0.00000000  0.39064899  0.10935100  1
  La  La9  1  0.00000000  0.89064898  0.39064899  1
