# generated using pymatgen
data_Ba5O13
_symmetry_space_group_name_H-M   'P 1'
_cell_length_a   3.33529806
_cell_length_b   3.33529806
_cell_length_c   22.16093636
_cell_angle_alpha   90.00000000
_cell_angle_beta   90.00000000
_cell_angle_gamma   120.00000000
_symmetry_Int_Tables_number   1
_chemical_formula_structural   Ba5O13
_chemical_formula_sum   'Ba5 O13'
_cell_volume   213.49516313
_cell_formula_units_Z   1
loop_
 _symmetry_equiv_pos_site_id
 _symmetry_equiv_pos_as_xyz
  1  'x, y, z'
loop_
 _atom_site_type_symbol
 _atom_site_label
 _atom_site_symmetry_multiplicity
 _atom_site_fract_x
 _atom_site_fract_y
 _atom_site_fract_z
 _atom_site_occupancy
  O  O0  1  0.33333335  0.66666670  0.94234798  1
  O  O1  1  0.66666667  0.33333335  0.05765200  1
  O  O2  1  0.66666667  0.33333335  0.44234799  1
  O  O3  1  0.33333335  0.66666670  0.55765199  1
  O  O4  1  0.00000000  0.00000000  0.84152799  1
  O  O5  1  0.00000000  0.00000000  0.65847299  1
  O  O6  1  0.00000000  0.00000000  0.15847300  1
  O  O7  1  0.00000000  0.00000000  0.34152699  1
  O  O8  1  0.33333335  0.66666670  0.25000000  1
  O  O9  1  0.66666667  0.33333335  0.74999999  1
  O  O10  1  0.33333335  0.66666670  0.37324399  1
  O  O11  1  0.66666667  0.33333335  0.62675599  1
  Ba  Ba12  1  0.00000000  0.00000000  0.74999999  1
  Ba  Ba13  1  0.66666667  0.33333335  0.87324399  1
  Ba  Ba14  1  0.00000000  0.00000000  0.00000000  1
  Ba  Ba15  1  0.33333335  0.66666670  0.12675600  1
  O  O16  1  0.00000000  0.00000000  0.49999999  1
  Ba  Ba17  1  0.00000000  0.00000000  0.25000000  1
