# generated using pymatgen
data_La
_symmetry_space_group_name_H-M   'P 1'
_cell_length_a   4.37380981
_cell_length_b   4.43987179
_cell_length_c   8.50759792
_cell_angle_alpha   74.87441254
_cell_angle_beta   90.00000000
_cell_angle_gamma   90.00000000
_symmetry_Int_Tables_number   1
_chemical_formula_structural   La
_chemical_formula_sum   La6
_cell_volume   159.48684587
_cell_formula_units_Z   6
loop_
 _symmetry_equiv_pos_site_id
 _symmetry_equiv_pos_as_xyz
  1  'x, y, z'
loop_
 _atom_site_type_symbol
 _atom_site_label
 _atom_site_symmetry_multiplicity
 _atom_site_fract_x
 _atom_site_fract_y
 _atom_site_fract_z
 _atom_site_occupancy
  La  La0  1  0.25000001  0.90105903  0.19788302  1
  La  La1  1  0.75000003  0.09894100  0.80211798  1
  La  La2  1  0.25000001  0.56337402  0.87325199  1
  La  La3  1  0.75000003  0.43662601  0.12674801  1
  La  La4  1  0.25000001  0.25110101  0.49779799  1
  La  La5  1  0.75000003  0.74889902  0.50220201  1
