# generated using pymatgen
data_TiOF12
_symmetry_space_group_name_H-M   'P 1'
_cell_length_a   4.34336996
_cell_length_b   4.34336948
_cell_length_c   9.49093819
_cell_angle_alpha   90.00000000
_cell_angle_beta   90.00000000
_cell_angle_gamma   120.00000763
_symmetry_Int_Tables_number   1
_chemical_formula_structural   TiOF12
_chemical_formula_sum   'Ti1 O1 F12'
_cell_volume   155.05770164
_cell_formula_units_Z   1
loop_
 _symmetry_equiv_pos_site_id
 _symmetry_equiv_pos_as_xyz
  1  'x, y, z'
loop_
 _atom_site_type_symbol
 _atom_site_label
 _atom_site_symmetry_multiplicity
 _atom_site_fract_x
 _atom_site_fract_y
 _atom_site_fract_z
 _atom_site_occupancy
  Ti  Ti0  1  0.66666669  0.33333333  0.74999999  1
  F  F1  1  0.33333337  0.66666666  0.25000000  1
  F  F2  1  0.66650906  0.99999999  0.49999999  1
  F  F3  1  0.33349102  0.33349100  0.49999999  1
  O  O4  1  0.00000004  0.66650900  0.49999999  1
  F  F5  1  0.33349106  0.99999999  0.49999999  1
  F  F6  1  0.00000002  0.33349100  0.49999999  1
  F  F7  1  0.66650904  0.66650900  0.49999999  1
  F  F8  1  0.33349106  0.99999999  0.99999998  1
  F  F9  1  0.66650904  0.66650900  -0.00000000  1
  F  F10  1  0.00000002  0.33349100  0.99999998  1
  F  F11  1  0.66650906  0.99999999  0.99999998  1
  F  F12  1  0.00000004  0.66650900  0.99999998  1
  F  F13  1  0.33349102  0.33349100  0.99999998  1
