# generated using pymatgen
data_BaLa11
_symmetry_space_group_name_H-M   'P 1'
_cell_length_a   4.75394201
_cell_length_b   8.23671436
_cell_length_c   10.15750885
_cell_angle_alpha   90.00000000
_cell_angle_beta   90.00000000
_cell_angle_gamma   90.00000000
_symmetry_Int_Tables_number   1
_chemical_formula_structural   BaLa11
_chemical_formula_sum   'Ba1 La11'
_cell_volume   397.73617696
_cell_formula_units_Z   1
loop_
 _symmetry_equiv_pos_site_id
 _symmetry_equiv_pos_as_xyz
  1  'x, y, z'
loop_
 _atom_site_type_symbol
 _atom_site_label
 _atom_site_symmetry_multiplicity
 _atom_site_fract_x
 _atom_site_fract_y
 _atom_site_fract_z
 _atom_site_occupancy
  La  La0  1  0.25000000  0.73162897  0.92813301  1
  La  La1  1  0.75000000  0.26837099  0.07186700  1
  Ba  Ba2  1  0.25000000  0.23162899  0.57186701  1
  La  La3  1  0.75000000  0.76837097  0.42813301  1
  La  La4  1  0.25000000  0.50671698  0.15330900  1
  La  La5  1  0.75000000  0.49328298  0.84669101  1
  La  La6  1  0.25000000  0.00671700  0.34669101  1
  La  La7  1  0.75000000  0.99328296  0.65330901  1
  La  La8  1  0.75000000  0.35934098  0.41271401  1
  La  La9  1  0.25000000  0.64065897  0.58728601  1
  La  La10  1  0.75000000  0.85934096  0.08728600  1
  La  La11  1  0.25000000  0.14065899  0.91271401  1
