# generated using pymatgen
data_SmRh5
_symmetry_space_group_name_H-M   'P 1'
_cell_length_a   4.00801516
_cell_length_b   5.15930414
_cell_length_c   5.15930367
_cell_angle_alpha   120.00000000
_cell_angle_beta   90.00000000
_cell_angle_gamma   90.00000000
_symmetry_Int_Tables_number   1
_chemical_formula_structural   SmRh5
_chemical_formula_sum   'Sm1 Rh5'
_cell_volume   92.39366770
_cell_formula_units_Z   1
loop_
 _symmetry_equiv_pos_site_id
 _symmetry_equiv_pos_as_xyz
  1  'x, y, z'
loop_
 _atom_site_type_symbol
 _atom_site_label
 _atom_site_symmetry_multiplicity
 _atom_site_fract_x
 _atom_site_fract_y
 _atom_site_fract_z
 _atom_site_occupancy
  Sm  Sm0  1  -0.00000000  0.33333332  0.66666666  1
  Rh  Rh1  1  0.00000000  0.00000000  0.00000000  1
  Rh  Rh2  1  0.99999996  0.66666664  0.33333331  1
  Rh  Rh3  1  0.49999998  0.33563898  0.16781999  1
  Rh  Rh4  1  0.49999998  0.83218096  0.66436198  1
  Rh  Rh5  1  0.49999998  0.83218096  0.16781997  1
