# generated using pymatgen
data_Zn3Se4
_symmetry_space_group_name_H-M   'P 1'
_cell_length_a   3.36065340
_cell_length_b   3.36065340
_cell_length_c   8.92681885
_cell_angle_alpha   79.15029144
_cell_angle_beta   79.15029144
_cell_angle_gamma   60.00001144
_symmetry_Int_Tables_number   1
_chemical_formula_structural   Zn3Se4
_chemical_formula_sum   'Zn3 Se4'
_cell_volume   85.22481182
_cell_formula_units_Z   1
loop_
 _symmetry_equiv_pos_site_id
 _symmetry_equiv_pos_as_xyz
  1  'x, y, z'
loop_
 _atom_site_type_symbol
 _atom_site_label
 _atom_site_symmetry_multiplicity
 _atom_site_fract_x
 _atom_site_fract_y
 _atom_site_fract_z
 _atom_site_occupancy
  Se  Se0  1  0.21838201  0.21838200  0.34485400  1
  Zn  Zn1  1  0.00276800  0.00276800  0.99169600  1
  Se  Se2  1  0.78703404  0.78703401  0.63889799  1
  Se  Se3  1  0.29514302  0.29514300  0.11457099  1
  Se  Se4  1  0.71135804  0.71135801  0.86592599  1
  Zn  Zn5  1  0.12171701  0.12171700  0.63484900  1
  Zn  Zn6  1  0.86359905  0.86359901  0.40920298  1
