# generated using pymatgen
data_Ca2H5O
_symmetry_space_group_name_H-M   'P 1'
_cell_length_a   3.66959906
_cell_length_b   6.58698893
_cell_length_c   6.66071749
_cell_angle_alpha   111.02436829
_cell_angle_beta   90.00000000
_cell_angle_gamma   90.00000000
_symmetry_Int_Tables_number   1
_chemical_formula_structural   Ca2H5O
_chemical_formula_sum   'Ca2 H5 O1'
_cell_volume   150.28213351
_cell_formula_units_Z   1
loop_
 _symmetry_equiv_pos_site_id
 _symmetry_equiv_pos_as_xyz
  1  'x, y, z'
loop_
 _atom_site_type_symbol
 _atom_site_label
 _atom_site_symmetry_multiplicity
 _atom_site_fract_x
 _atom_site_fract_y
 _atom_site_fract_z
 _atom_site_occupancy
  Ca  Ca0  1  0.00000000  0.00000000  0.50000002  1
  Ca  Ca1  1  0.49999999  0.50000001  0.50000004  1
  H  H2  1  0.00000000  0.50000001  0.00000002  1
  H  H3  1  0.49999999  0.00000000  1.00000003  1
  O  O4  1  0.49999999  0.86104802  0.67448806  1
  H  H5  1  0.00000000  0.58473001  0.32500303  1
  H  H6  1  0.49999999  0.13895200  0.32551202  1
  H  H7  1  0.00000000  0.41527001  0.67499704  1
