# generated using pymatgen
data_K2O11
_symmetry_space_group_name_H-M   'P 1'
_cell_length_a   5.74799585
_cell_length_b   5.74799538
_cell_length_c   8.58503819
_cell_angle_alpha   90.00000000
_cell_angle_beta   90.00000000
_cell_angle_gamma   120.00000000
_symmetry_Int_Tables_number   1
_chemical_formula_structural   K2O11
_chemical_formula_sum   'K2 O11'
_cell_volume   245.64375027
_cell_formula_units_Z   1
loop_
 _symmetry_equiv_pos_site_id
 _symmetry_equiv_pos_as_xyz
  1  'x, y, z'
loop_
 _atom_site_type_symbol
 _atom_site_label
 _atom_site_symmetry_multiplicity
 _atom_site_fract_x
 _atom_site_fract_y
 _atom_site_fract_z
 _atom_site_occupancy
  K  K0  1  0.33333330  0.66666666  0.59263299  1
  K  K1  1  0.66666667  0.33333333  0.40736699  1
  O  O2  1  0.00000000  0.00000000  0.20146200  1
  O  O3  1  0.00000000  0.00000000  0.79853798  1
  O  O4  1  0.66666667  0.33333333  0.84735098  1
  O  O5  1  0.33333330  0.66666666  0.15264900  1
  O  O6  1  0.66556997  0.83278500  0.27868999  1
  O  O7  1  0.83278498  0.66557000  0.72130998  1
  O  O8  1  0.16721499  0.33443000  0.27868999  1
  O  O9  1  0.16721496  0.83278500  0.27868999  1
  O  O10  1  0.33443000  0.16721500  0.72130998  1
  O  O11  1  0.00000000  0.00000000  0.00000000  1
  O  O12  1  0.83278501  0.16721500  0.72130998  1
