# generated using pymatgen
data_LaSi2
_symmetry_space_group_name_H-M   'P 1'
_cell_length_a   4.39413404
_cell_length_b   5.61535501
_cell_length_c   5.61535501
_cell_angle_alpha   79.61154938
_cell_angle_beta   66.96704102
_cell_angle_gamma   66.96704102
_symmetry_Int_Tables_number   1
_chemical_formula_structural   LaSi2
_chemical_formula_sum   'La2 Si4'
_cell_volume   117.28512998
_cell_formula_units_Z   2
loop_
 _symmetry_equiv_pos_site_id
 _symmetry_equiv_pos_as_xyz
  1  'x, y, z'
loop_
 _atom_site_type_symbol
 _atom_site_label
 _atom_site_symmetry_multiplicity
 _atom_site_fract_x
 _atom_site_fract_y
 _atom_site_fract_z
 _atom_site_occupancy
  La  La0  1  0.46219301  0.28780699  0.78780695  1
  La  La1  1  0.53780702  0.71219297  0.21219294  1
  Si  Si2  1  0.83470702  0.71576697  0.61481893  1
  Si  Si3  1  0.16529301  0.28423299  0.38518097  1
  Si  Si4  1  0.16529404  0.88518097  0.78423191  1
  Si  Si5  1  0.83470599  0.11481900  0.21576799  1
