# generated using pymatgen
data_OF7
_symmetry_space_group_name_H-M   'P 1'
_cell_length_a   4.30880022
_cell_length_b   4.30880022
_cell_length_c   5.03368807
_cell_angle_alpha   115.34046936
_cell_angle_beta   115.34046936
_cell_angle_gamma   90.00000000
_symmetry_Int_Tables_number   1
_chemical_formula_structural   OF7
_chemical_formula_sum   'O1 F7'
_cell_volume   74.39088395
_cell_formula_units_Z   1
loop_
 _symmetry_equiv_pos_site_id
 _symmetry_equiv_pos_as_xyz
  1  'x, y, z'
loop_
 _atom_site_type_symbol
 _atom_site_label
 _atom_site_symmetry_multiplicity
 _atom_site_fract_x
 _atom_site_fract_y
 _atom_site_fract_z
 _atom_site_occupancy
  F  F0  1  0.74999996  0.24999999  0.49999998  1
  F  F1  1  0.00000000  0.00000000  0.00000000  1
  F  F2  1  0.24999998  0.74999996  0.49999998  1
  F  F3  1  0.49999997  0.49999997  -0.00000001  1
  O  O4  1  0.68967096  0.62499997  0.74999997  1
  F  F5  1  0.87499995  0.31032898  0.24999998  1
  F  F6  1  0.37499997  0.93967095  0.24999998  1
  F  F7  1  0.06032900  0.12499999  0.74999998  1
