# generated using pymatgen
data_Ba7S
_symmetry_space_group_name_H-M   'P 1'
_cell_length_a   6.04212523
_cell_length_b   7.59885406
_cell_length_c   7.59885359
_cell_angle_alpha   120.00000000
_cell_angle_beta   90.00000000
_cell_angle_gamma   90.00000000
_symmetry_Int_Tables_number   1
_chemical_formula_structural   Ba7S
_chemical_formula_sum   'Ba7 S1'
_cell_volume   302.14578102
_cell_formula_units_Z   1
loop_
 _symmetry_equiv_pos_site_id
 _symmetry_equiv_pos_as_xyz
  1  'x, y, z'
loop_
 _atom_site_type_symbol
 _atom_site_label
 _atom_site_symmetry_multiplicity
 _atom_site_fract_x
 _atom_site_fract_y
 _atom_site_fract_z
 _atom_site_occupancy
  Ba  Ba0  1  0.74999997  0.83479097  0.16520796  1
  Ba  Ba1  1  0.74999997  0.33041699  0.16520798  1
  Ba  Ba2  1  0.74999997  0.83479097  0.66958195  1
  Ba  Ba3  1  0.24999999  0.16520899  0.83479198  1
  Ba  Ba4  1  0.24999999  0.66958298  0.83479196  1
  S  S5  1  0.24999999  0.16520899  0.33041799  1
  Ba  Ba6  1  0.24999999  0.66666665  0.33333330  1
  Ba  Ba7  1  0.74999997  0.33333332  0.66666664  1
