# generated using pymatgen
data_MgBeSi
_symmetry_space_group_name_H-M   'P 1'
_cell_length_a   2.56954408
_cell_length_b   2.56954455
_cell_length_c   6.20706511
_cell_angle_alpha   90.00000000
_cell_angle_beta   90.00000000
_cell_angle_gamma   119.99999237
_symmetry_Int_Tables_number   1
_chemical_formula_structural   MgBeSi
_chemical_formula_sum   'Mg1 Be1 Si1'
_cell_volume   35.49189516
_cell_formula_units_Z   1
loop_
 _symmetry_equiv_pos_site_id
 _symmetry_equiv_pos_as_xyz
  1  'x, y, z'
loop_
 _atom_site_type_symbol
 _atom_site_label
 _atom_site_symmetry_multiplicity
 _atom_site_fract_x
 _atom_site_fract_y
 _atom_site_fract_z
 _atom_site_occupancy
  Mg  Mg0  1  0.00000000  0.00000000  0.00000000  1
  Si  Si1  1  0.66666664  0.33333333  0.34672899  1
  Be  Be2  1  0.33333331  0.66666666  0.65327099  1
