# generated using pymatgen
data_Na3NiF4
_symmetry_space_group_name_H-M   'P 1'
_cell_length_a   4.21642494
_cell_length_b   4.28366613
_cell_length_c   5.82342815
_cell_angle_alpha   90.00000000
_cell_angle_beta   90.00000000
_cell_angle_gamma   90.00000000
_symmetry_Int_Tables_number   1
_chemical_formula_structural   Na3NiF4
_chemical_formula_sum   'Na3 Ni1 F4'
_cell_volume   105.18134265
_cell_formula_units_Z   1
loop_
 _symmetry_equiv_pos_site_id
 _symmetry_equiv_pos_as_xyz
  1  'x, y, z'
loop_
 _atom_site_type_symbol
 _atom_site_label
 _atom_site_symmetry_multiplicity
 _atom_site_fract_x
 _atom_site_fract_y
 _atom_site_fract_z
 _atom_site_occupancy
  Na  Na0  1  0.50000001  0.78262198  0.18750300  1
  Ni  Ni1  1  0.00000000  0.21737799  0.68750298  1
  F  F2  1  0.50000001  0.28566499  0.93759498  1
  F  F3  1  0.00000000  0.71433498  0.43759499  1
  F  F4  1  0.50000001  0.27248799  0.43621099  1
  F  F5  1  0.00000000  0.72751198  0.93621098  1
  Na  Na6  1  0.00000000  0.22830299  0.18869100  1
  Na  Na7  1  0.50000001  0.77169698  0.68869098  1
