# generated using pymatgen
data_Ba(In4S3)2
_symmetry_space_group_name_H-M   'P 1'
_cell_length_a   7.82370949
_cell_length_b   7.82370949
_cell_length_c   7.82370949
_cell_angle_alpha   60.00000000
_cell_angle_beta   60.00000000
_cell_angle_gamma   60.00000000
_symmetry_Int_Tables_number   1
_chemical_formula_structural   Ba(In4S3)2
_chemical_formula_sum   'Ba1 In8 S6'
_cell_volume   338.62822128
_cell_formula_units_Z   1
loop_
 _symmetry_equiv_pos_site_id
 _symmetry_equiv_pos_as_xyz
  1  'x, y, z'
loop_
 _atom_site_type_symbol
 _atom_site_label
 _atom_site_symmetry_multiplicity
 _atom_site_fract_x
 _atom_site_fract_y
 _atom_site_fract_z
 _atom_site_occupancy
  Ba  Ba0  1  0.50000000  0.00000000  -0.00000000  1
  In  In1  1  0.50000000  0.00000000  0.50000000  1
  In  In2  1  0.99999999  0.50000000  -0.00000000  1
  In  In3  1  0.99999999  0.50000000  0.50000000  1
  In  In4  1  0.50000000  0.50000000  -0.00000000  1
  In  In5  1  0.00000000  0.00000000  0.50000000  1
  In  In6  1  0.00000000  0.00000000  0.00000000  1
  S  S7  1  0.75000000  0.75000000  0.75000000  1
  S  S8  1  0.25000000  0.25000000  0.25000000  1
  In  In9  1  0.24287300  0.75712700  0.75712700  1
  S  S10  1  0.75712700  0.24287300  0.75712700  1
  S  S11  1  0.24287300  0.75712700  0.24287300  1
  S  S12  1  0.75712700  0.75712700  0.24287300  1
  S  S13  1  0.24287300  0.24287300  0.75712700  1
  In  In14  1  0.75712700  0.24287300  0.24287300  1
