# generated using pymatgen
data_Yb13I2
_symmetry_space_group_name_H-M   'P 1'
_cell_length_a   7.82370949
_cell_length_b   7.82370949
_cell_length_c   7.82370949
_cell_angle_alpha   60.00000000
_cell_angle_beta   60.00000000
_cell_angle_gamma   60.00000000
_symmetry_Int_Tables_number   1
_chemical_formula_structural   Yb13I2
_chemical_formula_sum   'Yb13 I2'
_cell_volume   338.62822128
_cell_formula_units_Z   1
loop_
 _symmetry_equiv_pos_site_id
 _symmetry_equiv_pos_as_xyz
  1  'x, y, z'
loop_
 _atom_site_type_symbol
 _atom_site_label
 _atom_site_symmetry_multiplicity
 _atom_site_fract_x
 _atom_site_fract_y
 _atom_site_fract_z
 _atom_site_occupancy
  Yb  Yb0  1  0.50000000  0.00000000  -0.00000000  1
  Yb  Yb1  1  0.50000000  0.00000000  0.50000000  1
  I  I2  1  0.99999999  0.50000000  -0.00000000  1
  Yb  Yb3  1  0.99999999  0.50000000  0.50000000  1
  Yb  Yb4  1  0.50000000  0.50000000  -0.00000000  1
  Yb  Yb5  1  0.00000000  0.00000000  0.50000000  1
  Yb  Yb6  1  0.00000000  0.00000000  0.00000000  1
  Yb  Yb7  1  0.75000000  0.75000000  0.75000000  1
  Yb  Yb8  1  0.25000000  0.25000000  0.25000000  1
  Yb  Yb9  1  0.24287300  0.75712700  0.75712700  1
  Yb  Yb10  1  0.75712700  0.24287300  0.75712700  1
  Yb  Yb11  1  0.24287300  0.75712700  0.24287300  1
  Yb  Yb12  1  0.75712700  0.75712700  0.24287300  1
  I  I13  1  0.24287300  0.24287300  0.75712700  1
  Yb  Yb14  1  0.75712700  0.24287300  0.24287300  1
