# generated using pymatgen
data_S11O
_symmetry_space_group_name_H-M   'P 1'
_cell_length_a   6.42695618
_cell_length_b   6.42695618
_cell_length_c   7.26132774
_cell_angle_alpha   116.00746155
_cell_angle_beta   116.00746155
_cell_angle_gamma   90.52547455
_symmetry_Int_Tables_number   1
_chemical_formula_structural   S11O
_chemical_formula_sum   'S11 O1'
_cell_volume   234.61056535
_cell_formula_units_Z   1
loop_
 _symmetry_equiv_pos_site_id
 _symmetry_equiv_pos_as_xyz
  1  'x, y, z'
loop_
 _atom_site_type_symbol
 _atom_site_label
 _atom_site_symmetry_multiplicity
 _atom_site_fract_x
 _atom_site_fract_y
 _atom_site_fract_z
 _atom_site_occupancy
  S  S0  1  0.14900499  0.14900499  0.29800999  1
  O  O1  1  0.85099494  0.85099497  0.70198992  1
  S  S2  1  0.10099497  0.60099498  0.20198996  1
  S  S3  1  0.39900495  0.89900497  0.79800994  1
  S  S4  1  0.62499997  0.37499999  0.24999995  1
  S  S5  1  0.12499998  0.37499999  0.74999999  1
  S  S6  1  0.62499994  0.87499997  0.24999991  1
  S  S7  1  0.62499997  0.37499999  0.74999997  1
  S  S8  1  0.03786897  0.53786898  0.49999997  1
  S  S9  1  0.78786894  0.78786897  -0.00000009  1
  S  S10  1  0.46213094  0.96213096  0.49999992  1
  S  S11  1  0.21213098  0.21213099  -0.00000003  1
