# generated using pymatgen
data_Si
_symmetry_space_group_name_H-M   'P 1'
_cell_length_a   5.21310663
_cell_length_b   5.21948385
_cell_length_c   6.34165287
_cell_angle_alpha   65.75804901
_cell_angle_beta   65.84413147
_cell_angle_gamma   89.99808502
_symmetry_Int_Tables_number   1
_chemical_formula_structural   Si
_chemical_formula_sum   Si8
_cell_volume   140.60451789
_cell_formula_units_Z   8
loop_
 _symmetry_equiv_pos_site_id
 _symmetry_equiv_pos_as_xyz
  1  'x, y, z'
loop_
 _atom_site_type_symbol
 _atom_site_label
 _atom_site_symmetry_multiplicity
 _atom_site_fract_x
 _atom_site_fract_y
 _atom_site_fract_z
 _atom_site_occupancy
  Si  Si0  1  0.99799901  0.99798501  0.00084792  1
  Si  Si1  1  0.24964101  0.74885801  0.50035597  1
  Si  Si2  1  0.74537600  0.24750100  0.50133998  1
  Si  Si3  1  0.50272801  0.49486900  0.00105696  1
  Si  Si4  1  0.71898201  0.72398201  0.56166195  1
  Si  Si5  1  0.95717900  0.46947500  0.06244095  1
  Si  Si6  1  0.28530300  0.27932700  0.44081199  1
  Si  Si7  1  0.52742500  0.04122600  0.94112700  1
