# generated using pymatgen
data_In
_symmetry_space_group_name_H-M   'P 1'
_cell_length_a   7.14396620
_cell_length_b   7.14396620
_cell_length_c   7.14396620
_cell_angle_alpha   60.00000000
_cell_angle_beta   60.00000000
_cell_angle_gamma   60.00000000
_symmetry_Int_Tables_number   1
_chemical_formula_structural   In
_chemical_formula_sum   In10
_cell_volume   257.81202802
_cell_formula_units_Z   10
loop_
 _symmetry_equiv_pos_site_id
 _symmetry_equiv_pos_as_xyz
  1  'x, y, z'
loop_
 _atom_site_type_symbol
 _atom_site_label
 _atom_site_symmetry_multiplicity
 _atom_site_fract_x
 _atom_site_fract_y
 _atom_site_fract_z
 _atom_site_occupancy
  In  In0  1  0.25000000  0.25000000  0.25000000  1
  In  In1  1  0.75000001  0.75000001  0.75000001  1
  In  In2  1  0.50000001  0.50000001  0.50000001  1
  In  In3  1  0.00000000  0.00000000  0.00000000  1
  In  In4  1  0.21909500  0.78090501  0.21909500  1
  In  In5  1  0.21909500  0.21909500  0.78090501  1
  In  In6  1  0.78090501  0.21909500  0.78090501  1
  In  In7  1  0.21909500  0.78090501  0.78090501  1
  In  In8  1  0.78090501  0.21909500  0.21909500  1
  In  In9  1  0.78090501  0.78090501  0.21909500  1
