# generated using pymatgen
data_Ca2O3
_symmetry_space_group_name_H-M   'P 1'
_cell_length_a   3.81438804
_cell_length_b   5.87858009
_cell_length_c   7.16478491
_cell_angle_alpha   90.00000000
_cell_angle_beta   90.00000000
_cell_angle_gamma   108.93110657
_symmetry_Int_Tables_number   1
_chemical_formula_structural   Ca2O3
_chemical_formula_sum   'Ca4 O6'
_cell_volume   151.96724550
_cell_formula_units_Z   2
loop_
 _symmetry_equiv_pos_site_id
 _symmetry_equiv_pos_as_xyz
  1  'x, y, z'
loop_
 _atom_site_type_symbol
 _atom_site_label
 _atom_site_symmetry_multiplicity
 _atom_site_fract_x
 _atom_site_fract_y
 _atom_site_fract_z
 _atom_site_occupancy
  O  O0  1  0.45376693  0.90753401  0.75000001  1
  O  O1  1  0.54623299  0.09246600  0.25000000  1
  Ca  Ca2  1  0.73210696  0.46421400  0.75000001  1
  Ca  Ca3  1  0.26789296  0.53578601  0.25000000  1
  O  O4  1  0.16404697  0.32809400  0.94296301  1
  O  O5  1  0.83595294  0.67190601  0.05703700  1
  O  O6  1  0.83595294  0.67190601  0.44296301  1
  O  O7  1  0.16404697  0.32809400  0.55703701  1
  Ca  Ca8  1  0.00000000  0.00000000  0.00000000  1
  Ca  Ca9  1  0.00000000  0.00000000  0.50000001  1
