# generated using pymatgen
data_F2
_symmetry_space_group_name_H-M   'P 1'
_cell_length_a   3.15596223
_cell_length_b   3.15596223
_cell_length_c   3.15596223
_cell_angle_alpha   98.49113464
_cell_angle_beta   115.22486115
_cell_angle_gamma   115.22486115
_symmetry_Int_Tables_number   1
_chemical_formula_structural   F2
_chemical_formula_sum   F2
_cell_volume   23.55047032
_cell_formula_units_Z   1
loop_
 _symmetry_equiv_pos_site_id
 _symmetry_equiv_pos_as_xyz
  1  'x, y, z'
loop_
 _atom_site_type_symbol
 _atom_site_label
 _atom_site_symmetry_multiplicity
 _atom_site_fract_x
 _atom_site_fract_y
 _atom_site_fract_z
 _atom_site_occupancy
  F  F0  1  1.00000012  0.90896503  0.90896509  1
  F  F1  1  0.00000001  0.09103500  0.09103500  1
