# generated using pymatgen
data_KBa2S9
_symmetry_space_group_name_H-M   'P 1'
_cell_length_a   4.58996201
_cell_length_b   8.38917542
_cell_length_c   12.02787971
_cell_angle_alpha   90.00000000
_cell_angle_beta   90.00000000
_cell_angle_gamma   105.87648773
_symmetry_Int_Tables_number   1
_chemical_formula_structural   KBa2S9
_chemical_formula_sum   'K1 Ba2 S9'
_cell_volume   445.47818413
_cell_formula_units_Z   1
loop_
 _symmetry_equiv_pos_site_id
 _symmetry_equiv_pos_as_xyz
  1  'x, y, z'
loop_
 _atom_site_type_symbol
 _atom_site_label
 _atom_site_symmetry_multiplicity
 _atom_site_fract_x
 _atom_site_fract_y
 _atom_site_fract_z
 _atom_site_occupancy
  K  K0  1  0.75034298  0.50068600  0.75349902  1
  Ba  Ba1  1  0.24965698  0.49931400  0.25349901  1
  S  S2  1  0.44996896  0.89993800  0.74487202  1
  Ba  Ba3  1  0.55003100  0.10006200  0.24487201  1
  S  S4  1  0.01059000  0.02118000  0.98846302  1
  S  S5  1  0.98940996  0.97882000  0.48846301  1
  S  S6  1  0.36387097  0.72774200  0.54053101  1
  S  S7  1  0.62309499  0.24619000  0.45954501  1
  S  S8  1  0.37690497  0.75381000  0.95954502  1
  S  S9  1  0.63612899  0.27225800  0.04053100  1
  S  S10  1  0.06558999  0.13118000  0.75788902  1
  S  S11  1  0.93440996  0.86882000  0.25788901  1
