# generated using pymatgen
data_KTi(OF)4
_symmetry_space_group_name_H-M   'P 1'
_cell_length_a   3.65540695
_cell_length_b   5.35308695
_cell_length_c   5.35308695
_cell_angle_alpha   90.00000000
_cell_angle_beta   90.00000000
_cell_angle_gamma   90.00000000
_symmetry_Int_Tables_number   1
_chemical_formula_structural   KTi(OF)4
_chemical_formula_sum   'K1 Ti1 O4 F4'
_cell_volume   104.74765968
_cell_formula_units_Z   1
loop_
 _symmetry_equiv_pos_site_id
 _symmetry_equiv_pos_as_xyz
  1  'x, y, z'
loop_
 _atom_site_type_symbol
 _atom_site_label
 _atom_site_symmetry_multiplicity
 _atom_site_fract_x
 _atom_site_fract_y
 _atom_site_fract_z
 _atom_site_occupancy
  K  K0  1  0.00000000  0.50000000  0.50000000  1
  Ti  Ti1  1  0.00000000  0.00000000  0.00000000  1
  F  F2  1  0.50000001  0.86317801  0.36317800  1
  F  F3  1  0.50000001  0.13682200  0.63682201  1
  F  F4  1  0.50000001  0.36317800  0.13682200  1
  F  F5  1  0.50000001  0.63682201  0.86317801  1
  O  O6  1  0.50000001  0.66160101  0.16160100  1
  O  O7  1  0.50000001  0.33839900  0.83839901  1
  O  O8  1  0.50000001  0.16160100  0.33839900  1
  O  O9  1  0.50000001  0.83839901  0.66160101  1
