# generated using pymatgen
data_Re
_symmetry_space_group_name_H-M   'P 1'
_cell_length_a   5.52881193
_cell_length_b   5.55982780
_cell_length_c   5.52881193
_cell_angle_alpha   60.18436813
_cell_angle_beta   90.00000000
_cell_angle_gamma   119.81563568
_symmetry_Int_Tables_number   1
_chemical_formula_structural   Re
_chemical_formula_sum   Re8
_cell_volume   120.84052825
_cell_formula_units_Z   8
loop_
 _symmetry_equiv_pos_site_id
 _symmetry_equiv_pos_as_xyz
  1  'x, y, z'
loop_
 _atom_site_type_symbol
 _atom_site_label
 _atom_site_symmetry_multiplicity
 _atom_site_fract_x
 _atom_site_fract_y
 _atom_site_fract_z
 _atom_site_occupancy
  Re  Re0  1  0.75000004  0.50000003  0.75000001  1
  Re  Re1  1  0.25000003  0.50000003  0.25000000  1
  Re  Re2  1  0.75000004  0.50000003  0.25000000  1
  Re  Re3  1  0.25000003  0.50000003  0.75000001  1
  Re  Re4  1  0.22013600  0.00000000  0.72013601  1
  Re  Re5  1  0.77986401  0.00000000  0.27986400  1
  Re  Re6  1  0.72013601  0.00000000  0.77986401  1
  Re  Re7  1  0.27986400  0.00000000  0.22013600  1
