# generated using pymatgen
data_Al6O
_symmetry_space_group_name_H-M   'P 1'
_cell_length_a   3.89907098
_cell_length_b   3.89907098
_cell_length_c   12.75195694
_cell_angle_alpha   90.00000000
_cell_angle_beta   90.00000000
_cell_angle_gamma   90.00000000
_symmetry_Int_Tables_number   1
_chemical_formula_structural   Al6O
_chemical_formula_sum   'Al12 O2'
_cell_volume   193.86487066
_cell_formula_units_Z   2
loop_
 _symmetry_equiv_pos_site_id
 _symmetry_equiv_pos_as_xyz
  1  'x, y, z'
loop_
 _atom_site_type_symbol
 _atom_site_label
 _atom_site_symmetry_multiplicity
 _atom_site_fract_x
 _atom_site_fract_y
 _atom_site_fract_z
 _atom_site_occupancy
  Al  Al0  1  0.00000000  0.00000000  0.64557000  1
  Al  Al1  1  0.00000000  0.00000000  0.35443000  1
  O  O2  1  0.50000000  0.50000000  0.13721700  1
  Al  Al3  1  0.50000000  0.50000000  0.86278300  1
  O  O4  1  0.00000000  0.00000000  0.00000000  1
  Al  Al5  1  0.50000000  0.50000000  0.50000000  1
  Al  Al6  1  0.50000000  0.50000000  0.33305300  1
  Al  Al7  1  0.00000000  0.00000000  0.82916600  1
  Al  Al8  1  0.00000000  0.00000000  0.17083400  1
  Al  Al9  1  0.50000000  0.50000000  0.66694700  1
  Al  Al10  1  0.00000000  0.50000000  0.50000000  1
  Al  Al11  1  0.50000000  0.00000000  -0.00000000  1
  Al  Al12  1  0.50000000  0.00000000  0.50000000  1
  Al  Al13  1  0.00000000  0.50000000  -0.00000000  1
