# generated using pymatgen
data_Ba2YbS6I
_symmetry_space_group_name_H-M   'P 1'
_cell_length_a   7.71818352
_cell_length_b   7.71818352
_cell_length_c   7.71818352
_cell_angle_alpha   60.00000000
_cell_angle_beta   60.00000000
_cell_angle_gamma   60.00000000
_symmetry_Int_Tables_number   1
_chemical_formula_structural   Ba2YbS6I
_chemical_formula_sum   'Ba2 Yb1 S6 I1'
_cell_volume   325.10998217
_cell_formula_units_Z   1
loop_
 _symmetry_equiv_pos_site_id
 _symmetry_equiv_pos_as_xyz
  1  'x, y, z'
loop_
 _atom_site_type_symbol
 _atom_site_label
 _atom_site_symmetry_multiplicity
 _atom_site_fract_x
 _atom_site_fract_y
 _atom_site_fract_z
 _atom_site_occupancy
  Ba  Ba0  1  0.25000000  0.25000000  0.25000000  1
  Ba  Ba1  1  0.75000001  0.75000001  0.75000001  1
  Yb  Yb2  1  0.00000000  0.00000000  0.00000000  1
  S  S3  1  0.50000001  0.50000001  0.50000001  1
  I  I4  1  0.21587000  0.78413001  0.21587000  1
  S  S5  1  0.21587000  0.21587000  0.78413001  1
  S  S6  1  0.78413001  0.21587000  0.78413001  1
  S  S7  1  0.21587000  0.78413001  0.78413001  1
  S  S8  1  0.78413001  0.21587000  0.21587000  1
  S  S9  1  0.78413001  0.78413001  0.21587000  1
