# generated using pymatgen
data_Cs3Se
_symmetry_space_group_name_H-M   'P 1'
_cell_length_a   7.22657824
_cell_length_b   10.46590519
_cell_length_c   11.31801128
_cell_angle_alpha   90.00000000
_cell_angle_beta   90.00000000
_cell_angle_gamma   90.00000000
_symmetry_Int_Tables_number   1
_chemical_formula_structural   Cs3Se
_chemical_formula_sum   'Cs12 Se4'
_cell_volume   856.01155576
_cell_formula_units_Z   4
loop_
 _symmetry_equiv_pos_site_id
 _symmetry_equiv_pos_as_xyz
  1  'x, y, z'
loop_
 _atom_site_type_symbol
 _atom_site_label
 _atom_site_symmetry_multiplicity
 _atom_site_fract_x
 _atom_site_fract_y
 _atom_site_fract_z
 _atom_site_occupancy
  Cs  Cs0  1  0.24999999  0.47057999  0.82284898  1
  Cs  Cs1  1  0.74999998  0.52941999  0.17715100  1
  Cs  Cs2  1  0.74999998  0.97057998  0.67715098  1
  Cs  Cs3  1  0.24999999  0.02942000  0.32284899  1
  Cs  Cs4  1  0.24999999  0.36752799  0.16822300  1
  Cs  Cs5  1  0.74999998  0.63247199  0.83177698  1
  Cs  Cs6  1  0.74999998  0.86752798  0.33177699  1
  Cs  Cs7  1  0.24999999  0.13247200  0.66822298  1
  Se  Se8  1  0.24999999  0.55533199  0.37026699  1
  Se  Se9  1  0.74999998  0.44466799  0.62973298  1
  Cs  Cs10  1  0.74999998  0.05533200  0.12973300  1
  Se  Se11  1  0.24999999  0.94466798  0.87026698  1
  Cs  Cs12  1  0.24999999  0.73615199  0.56471899  1
  Cs  Cs13  1  0.74999998  0.26384800  0.43528099  1
  Se  Se14  1  0.74999998  0.23615200  0.93528098  1
  Cs  Cs15  1  0.24999999  0.76384799  0.06471900  1
