# generated using pymatgen
data_Mn(O4F)2
_symmetry_space_group_name_H-M   'P 1'
_cell_length_a   3.46684790
_cell_length_b   5.80028009
_cell_length_c   5.80028009
_cell_angle_alpha   96.72865295
_cell_angle_beta   90.00000000
_cell_angle_gamma   90.00000000
_symmetry_Int_Tables_number   1
_chemical_formula_structural   Mn(O4F)2
_chemical_formula_sum   'Mn1 O8 F2'
_cell_volume   115.83265962
_cell_formula_units_Z   1
loop_
 _symmetry_equiv_pos_site_id
 _symmetry_equiv_pos_as_xyz
  1  'x, y, z'
loop_
 _atom_site_type_symbol
 _atom_site_label
 _atom_site_symmetry_multiplicity
 _atom_site_fract_x
 _atom_site_fract_y
 _atom_site_fract_z
 _atom_site_occupancy
  F  F0  1  1.00000003  0.72282403  0.27717602  1
  Mn  Mn1  1  1.00000003  0.27717601  0.72282403  1
  O  O2  1  0.50000001  0.00000000  -0.00000000  1
  F  F3  1  -0.00000000  0.22558601  0.22558601  1
  O  O4  1  -0.00000000  0.77441403  0.77441404  1
  O  O5  1  0.50000001  0.08412200  0.38494902  1
  O  O6  1  0.50000001  0.91587804  0.61505103  1
  O  O7  1  0.50000001  0.38494902  0.08412201  1
  O  O8  1  0.50000001  0.61505102  0.91587804  1
  O  O9  1  0.50000001  0.38691402  0.38691402  1
  O  O10  1  0.50000001  0.61308602  0.61308603  1
