# generated using pymatgen
data_Ba5S7
_symmetry_space_group_name_H-M   'P 1'
_cell_length_a   4.28006792
_cell_length_b   8.56277275
_cell_length_c   8.63809204
_cell_angle_alpha   89.78884888
_cell_angle_beta   90.00000000
_cell_angle_gamma   90.00000000
_symmetry_Int_Tables_number   1
_chemical_formula_structural   Ba5S7
_chemical_formula_sum   'Ba5 S7'
_cell_volume   316.57743600
_cell_formula_units_Z   1
loop_
 _symmetry_equiv_pos_site_id
 _symmetry_equiv_pos_as_xyz
  1  'x, y, z'
loop_
 _atom_site_type_symbol
 _atom_site_label
 _atom_site_symmetry_multiplicity
 _atom_site_fract_x
 _atom_site_fract_y
 _atom_site_fract_z
 _atom_site_occupancy
  Ba  Ba0  1  0.22024000  0.12776700  0.72354397  1
  Ba  Ba1  1  0.27976001  0.62776702  0.72354399  1
  Ba  Ba2  1  0.77976001  0.87223303  0.27645601  1
  Ba  Ba3  1  0.72024001  0.37223301  0.27645600  1
  S  S4  1  0.67765001  0.11723900  0.99762896  1
  Ba  Ba5  1  0.17765000  0.38276101  0.00237101  1
  S  S6  1  0.82235002  0.61723902  0.99762897  1
  S  S7  1  0.75862301  0.87490503  0.63451500  1
  S  S8  1  0.25862300  0.62509502  0.36548500  1
  S  S9  1  0.32235001  0.88276103  0.00237103  1
  S  S10  1  0.74137701  0.37490501  0.63451498  1
  S  S11  1  0.24137700  0.12509500  0.36548499  1
