# generated using pymatgen
data_La
_symmetry_space_group_name_H-M   'P 1'
_cell_length_a   4.64635611
_cell_length_b   7.67557621
_cell_length_c   8.35652542
_cell_angle_alpha   90.00000000
_cell_angle_beta   90.00000000
_cell_angle_gamma   90.00000000
_symmetry_Int_Tables_number   1
_chemical_formula_structural   La
_chemical_formula_sum   La12
_cell_volume   298.02261335
_cell_formula_units_Z   12
loop_
 _symmetry_equiv_pos_site_id
 _symmetry_equiv_pos_as_xyz
  1  'x, y, z'
loop_
 _atom_site_type_symbol
 _atom_site_label
 _atom_site_symmetry_multiplicity
 _atom_site_fract_x
 _atom_site_fract_y
 _atom_site_fract_z
 _atom_site_occupancy
  La  La0  1  0.74999998  0.84873498  0.42797598  1
  La  La1  1  0.24999999  0.15126500  0.57202397  1
  La  La2  1  0.24999999  0.65126498  0.92797595  1
  La  La3  1  0.74999998  0.34873499  0.07202400  1
  La  La4  1  0.74999998  0.48963899  0.70163196  1
  La  La5  1  0.74999998  0.98963897  0.79836796  1
  La  La6  1  0.24999999  0.51036099  0.29836798  1
  La  La7  1  0.24999999  0.01036100  0.20163199  1
  La  La8  1  0.74999998  0.73080798  0.10044999  1
  La  La9  1  0.24999999  0.26919199  0.89954995  1
  La  La10  1  0.74999998  0.23080799  0.39954998  1
  La  La11  1  0.24999999  0.76919198  0.60044997  1
