# generated using pymatgen
data_As
_symmetry_space_group_name_H-M   'P 1'
_cell_length_a   3.91525793
_cell_length_b   6.72261143
_cell_length_c   7.42913628
_cell_angle_alpha   116.44985962
_cell_angle_beta   105.27825165
_cell_angle_gamma   90.00000000
_symmetry_Int_Tables_number   1
_chemical_formula_structural   As
_chemical_formula_sum   As8
_cell_volume   167.31801166
_cell_formula_units_Z   8
loop_
 _symmetry_equiv_pos_site_id
 _symmetry_equiv_pos_as_xyz
  1  'x, y, z'
loop_
 _atom_site_type_symbol
 _atom_site_label
 _atom_site_symmetry_multiplicity
 _atom_site_fract_x
 _atom_site_fract_y
 _atom_site_fract_z
 _atom_site_occupancy
  As  As0  1  0.75711100  0.76734802  0.51422203  1
  As  As1  1  0.24288900  0.23265201  0.48577801  1
  As  As2  1  0.43975300  0.10687700  0.87950599  1
  As  As3  1  0.56024700  0.89312302  0.12049405  1
  As  As4  1  0.36816600  0.69521702  0.73633204  1
  As  As5  1  0.87262301  0.21377601  0.74524599  1
  As  As6  1  0.63183400  0.30478301  0.26366801  1
  As  As7  1  0.12737700  0.78622402  0.25475405  1
