# generated using pymatgen
data_BaEr3I5
_symmetry_space_group_name_H-M   'P 1'
_cell_length_a   7.64080906
_cell_length_b   8.03783607
_cell_length_c   8.03783607
_cell_angle_alpha   120.00000000
_cell_angle_beta   90.00000000
_cell_angle_gamma   90.00000000
_symmetry_Int_Tables_number   1
_chemical_formula_structural   BaEr3I5
_chemical_formula_sum   'Ba1 Er3 I5'
_cell_volume   427.51195942
_cell_formula_units_Z   1
loop_
 _symmetry_equiv_pos_site_id
 _symmetry_equiv_pos_as_xyz
  1  'x, y, z'
loop_
 _atom_site_type_symbol
 _atom_site_label
 _atom_site_symmetry_multiplicity
 _atom_site_fract_x
 _atom_site_fract_y
 _atom_site_fract_z
 _atom_site_occupancy
  Ba  Ba0  1  0.00000000  0.00000000  0.00000000  1
  I  I1  1  0.50000000  0.66666666  0.33333332  1
  I  I2  1  0.50000000  0.33333333  0.66666664  1
  I  I3  1  0.26745300  0.99999998  0.64657397  1
  I  I4  1  0.73254699  0.99999998  0.35342598  1
  Er  Er5  1  0.26745300  0.64657399  -0.00000001  1
  Er  Er6  1  0.73254699  0.35342599  -0.00000000  1
  I  I7  1  0.73254699  0.64657399  0.64657397  1
  Er  Er8  1  0.26745300  0.35342599  0.35342599  1
