# generated using pymatgen
data_O2
_symmetry_space_group_name_H-M   'P 1'
_cell_length_a   5.76531029
_cell_length_b   5.76531029
_cell_length_c   5.76531029
_cell_angle_alpha   60.00000000
_cell_angle_beta   60.00000000
_cell_angle_gamma   60.00000000
_symmetry_Int_Tables_number   1
_chemical_formula_structural   O2
_chemical_formula_sum   O14
_cell_volume   135.50429462
_cell_formula_units_Z   7
loop_
 _symmetry_equiv_pos_site_id
 _symmetry_equiv_pos_as_xyz
  1  'x, y, z'
loop_
 _atom_site_type_symbol
 _atom_site_label
 _atom_site_symmetry_multiplicity
 _atom_site_fract_x
 _atom_site_fract_y
 _atom_site_fract_z
 _atom_site_occupancy
  O  O0  1  0.37500000  0.87500000  0.37500000  1
  O  O1  1  0.37500000  0.37500000  0.37500000  1
  O  O2  1  0.37500000  0.37500000  0.87500000  1
  O  O3  1  0.87500000  0.37500000  0.37500000  1
  O  O4  1  0.75000000  0.75000000  0.75000000  1
  O  O5  1  0.00000000  0.00000000  0.00000000  1
  O  O6  1  0.11906400  0.64280600  0.11906500  1
  O  O7  1  0.11906400  0.11906500  0.11906500  1
  O  O8  1  0.11906400  0.11906500  0.64280600  1
  O  O9  1  0.64280500  0.11906500  0.11906500  1
  O  O10  1  0.63093600  0.10719400  0.63093500  1
  O  O11  1  0.63093600  0.63093500  0.63093500  1
  O  O12  1  0.63093600  0.63093500  0.10719400  1
  O  O13  1  0.10719500  0.63093500  0.63093500  1
