# generated using pymatgen
data_S
_symmetry_space_group_name_H-M   'P 1'
_cell_length_a   4.22175407
_cell_length_b   4.22175407
_cell_length_c   15.21626377
_cell_angle_alpha   97.97407532
_cell_angle_beta   97.97407532
_cell_angle_gamma   90.00000000
_symmetry_Int_Tables_number   1
_chemical_formula_structural   S
_chemical_formula_sum   S10
_cell_volume   265.93222044
_cell_formula_units_Z   10
loop_
 _symmetry_equiv_pos_site_id
 _symmetry_equiv_pos_as_xyz
  1  'x, y, z'
loop_
 _atom_site_type_symbol
 _atom_site_label
 _atom_site_symmetry_multiplicity
 _atom_site_fract_x
 _atom_site_fract_y
 _atom_site_fract_z
 _atom_site_occupancy
  S  S0  1  0.80000597  0.80000598  0.60001199  1
  S  S1  1  0.19999399  0.19999400  0.39998800  1
  S  S2  1  0.59905898  0.59905899  0.19811799  1
  S  S3  1  0.00000000  0.00000000  0.00000000  1
  S  S4  1  0.40094099  0.40094099  0.80188199  1
  S  S5  1  0.90025297  0.90025298  0.80050598  1
  S  S6  1  0.30003699  0.30003699  0.60007400  1
  S  S7  1  0.69996298  0.69996298  0.39992599  1
  S  S8  1  0.09974700  0.09974700  0.19949400  1
  S  S9  1  0.49999998  0.49999999  0.99999999  1
