# generated using pymatgen
data_Se
_symmetry_space_group_name_H-M   'P 1'
_cell_length_a   5.73480654
_cell_length_b   5.83863783
_cell_length_c   6.67291451
_cell_angle_alpha   64.86129761
_cell_angle_beta   65.36718750
_cell_angle_gamma   91.69052887
_symmetry_Int_Tables_number   1
_chemical_formula_structural   Se
_chemical_formula_sum   Se7
_cell_volume   177.97537541
_cell_formula_units_Z   7
loop_
 _symmetry_equiv_pos_site_id
 _symmetry_equiv_pos_as_xyz
  1  'x, y, z'
loop_
 _atom_site_type_symbol
 _atom_site_label
 _atom_site_symmetry_multiplicity
 _atom_site_fract_x
 _atom_site_fract_y
 _atom_site_fract_z
 _atom_site_occupancy
  Se  Se0  1  0.00367700  0.00367700  0.99264603  1
  Se  Se1  1  0.24575903  0.74575801  0.50848301  1
  Se  Se2  1  0.50471401  0.50471301  0.99057303  1
  Se  Se3  1  0.12095202  0.58669201  0.27407100  1
  Se  Se4  1  0.60497699  0.13923700  0.27407101  1
  Se  Se5  1  0.87544102  0.85559501  0.73007802  1
  Se  Se6  1  0.39448001  0.41432801  0.73007802  1
