# generated using pymatgen
data_LaTiF8
_symmetry_space_group_name_H-M   'P 1'
_cell_length_a   3.16644311
_cell_length_b   5.77591896
_cell_length_c   5.77591896
_cell_angle_alpha   90.00000000
_cell_angle_beta   90.00000000
_cell_angle_gamma   90.00000000
_symmetry_Int_Tables_number   1
_chemical_formula_structural   LaTiF8
_chemical_formula_sum   'La1 Ti1 F8'
_cell_volume   105.63646801
_cell_formula_units_Z   1
loop_
 _symmetry_equiv_pos_site_id
 _symmetry_equiv_pos_as_xyz
  1  'x, y, z'
loop_
 _atom_site_type_symbol
 _atom_site_label
 _atom_site_symmetry_multiplicity
 _atom_site_fract_x
 _atom_site_fract_y
 _atom_site_fract_z
 _atom_site_occupancy
  La  La0  1  0.00000000  0.50000000  0.50000000  1
  Ti  Ti1  1  0.00000000  0.00000000  0.00000000  1
  F  F2  1  0.00000000  0.11307800  0.61307800  1
  F  F3  1  0.00000000  0.88692201  0.38692200  1
  F  F4  1  0.00000000  0.61307800  0.88692201  1
  F  F5  1  0.99999997  0.38692200  0.11307800  1
  F  F6  1  0.49999998  0.67760500  0.17760500  1
  F  F7  1  0.49999998  0.32239500  0.82239501  1
  F  F8  1  0.49999998  0.17760500  0.32239500  1
  F  F9  1  0.49999998  0.82239501  0.67760500  1
