# generated using pymatgen
data_H5O
_symmetry_space_group_name_H-M   'P 1'
_cell_length_a   2.91643596
_cell_length_b   5.44679499
_cell_length_c   6.18073988
_cell_angle_alpha   89.94698334
_cell_angle_beta   90.00000000
_cell_angle_gamma   90.00000000
_symmetry_Int_Tables_number   1
_chemical_formula_structural   H5O
_chemical_formula_sum   'H5 O1'
_cell_volume   98.18242480
_cell_formula_units_Z   1
loop_
 _symmetry_equiv_pos_site_id
 _symmetry_equiv_pos_as_xyz
  1  'x, y, z'
loop_
 _atom_site_type_symbol
 _atom_site_label
 _atom_site_symmetry_multiplicity
 _atom_site_fract_x
 _atom_site_fract_y
 _atom_site_fract_z
 _atom_site_occupancy
  H  H0  1  0.50000001  0.50000000  0.49999997  1
  H  H1  1  0.00000000  0.00000000  0.00000000  1
  H  H2  1  0.50000001  0.31640000  0.87149696  1
  H  H3  1  0.50000001  0.68360000  0.12850298  1
  O  O4  1  0.00000000  0.83241700  0.64380996  1
  H  H5  1  0.00000000  0.16758300  0.35618998  1
