# generated using pymatgen
data_CaSiO2
_symmetry_space_group_name_H-M   'P 1'
_cell_length_a   6.20145226
_cell_length_b   6.20145226
_cell_length_c   6.20145226
_cell_angle_alpha   79.25473022
_cell_angle_beta   65.95228577
_cell_angle_gamma   113.95755768
_symmetry_Int_Tables_number   1
_chemical_formula_structural   CaSiO2
_chemical_formula_sum   'Ca2 Si2 O4'
_cell_volume   180.47030595
_cell_formula_units_Z   2
loop_
 _symmetry_equiv_pos_site_id
 _symmetry_equiv_pos_as_xyz
  1  'x, y, z'
loop_
 _atom_site_type_symbol
 _atom_site_label
 _atom_site_symmetry_multiplicity
 _atom_site_fract_x
 _atom_site_fract_y
 _atom_site_fract_z
 _atom_site_occupancy
  Ca  Ca0  1  0.25025499  0.00000000  0.74974497  1
  Ca  Ca1  1  0.25025501  0.49999999  0.24974499  1
  Si  Si2  1  0.79613000  0.77283098  0.47669997  1
  Si  Si3  1  0.75046899  0.22716999  0.97670095  1
  O  O4  1  0.45207000  0.60042299  0.64835297  1
  O  O5  1  0.75122399  0.39957699  0.14835298  1
  O  O6  1  0.04458802  0.89558798  0.35100099  1
  O  O7  1  0.75341098  0.10441100  0.85099996  1
