# generated using pymatgen
data_LiO2
_symmetry_space_group_name_H-M   'P 1'
_cell_length_a   3.78200483
_cell_length_b   6.49001646
_cell_length_c   6.50860548
_cell_angle_alpha   85.14771271
_cell_angle_beta   73.17803192
_cell_angle_gamma   73.39282990
_symmetry_Int_Tables_number   1
_chemical_formula_structural   LiO2
_chemical_formula_sum   'Li4 O8'
_cell_volume   146.54028330
_cell_formula_units_Z   4
loop_
 _symmetry_equiv_pos_site_id
 _symmetry_equiv_pos_as_xyz
  1  'x, y, z'
loop_
 _atom_site_type_symbol
 _atom_site_label
 _atom_site_symmetry_multiplicity
 _atom_site_fract_x
 _atom_site_fract_y
 _atom_site_fract_z
 _atom_site_occupancy
  Li  Li0  1  0.97931800  0.30903501  0.72752900  1
  Li  Li1  1  0.29520101  0.72719202  0.69063497  1
  Li  Li2  1  0.70479900  0.27280801  0.30936500  1
  Li  Li3  1  0.02068201  0.69096502  0.27247097  1
  O  O4  1  0.84917301  0.64684402  0.66017599  1
  O  O5  1  0.15627300  0.01132900  0.68046999  1
  O  O6  1  0.49529301  0.65869402  0.35244398  1
  O  O7  1  0.83005400  0.31816401  0.01155201  1
  O  O8  1  0.16994601  0.68183602  0.98844797  1
  O  O9  1  0.50470700  0.34130601  0.64755599  1
  O  O10  1  0.84372701  0.98867103  0.31952998  1
  O  O11  1  0.15082700  0.35315601  0.33982399  1
