# generated using pymatgen
data_S
_symmetry_space_group_name_H-M   'P 1'
_cell_length_a   6.03834009
_cell_length_b   6.95057440
_cell_length_c   6.03834009
_cell_angle_alpha   64.25434113
_cell_angle_beta   90.00000000
_cell_angle_gamma   115.74565887
_symmetry_Int_Tables_number   1
_chemical_formula_structural   S
_chemical_formula_sum   S7
_cell_volume   199.97328475
_cell_formula_units_Z   7
loop_
 _symmetry_equiv_pos_site_id
 _symmetry_equiv_pos_as_xyz
  1  'x, y, z'
loop_
 _atom_site_type_symbol
 _atom_site_label
 _atom_site_symmetry_multiplicity
 _atom_site_fract_x
 _atom_site_fract_y
 _atom_site_fract_z
 _atom_site_occupancy
  S  S0  1  0.49999999  0.00000000  0.49999999  1
  S  S1  1  0.24999995  0.49999996  0.25000004  1
  S  S2  1  0.74999995  0.49999996  0.75000003  1
  S  S3  1  0.64710292  0.78132493  0.85327605  1
  S  S4  1  0.13422193  0.78132493  0.36539906  1
  S  S5  1  0.85327597  0.21867498  0.13422202  1
  S  S6  1  0.36539898  0.21867498  0.64710301  1
