# generated using pymatgen
data_O2
_symmetry_space_group_name_H-M   'P 1'
_cell_length_a   5.98987579
_cell_length_b   5.98987579
_cell_length_c   5.98987579
_cell_angle_alpha   61.73877716
_cell_angle_beta   61.73877716
_cell_angle_gamma   61.73877716
_symmetry_Int_Tables_number   1
_chemical_formula_structural   O2
_chemical_formula_sum   O14
_cell_volume   157.88449935
_cell_formula_units_Z   7
loop_
 _symmetry_equiv_pos_site_id
 _symmetry_equiv_pos_as_xyz
  1  'x, y, z'
loop_
 _atom_site_type_symbol
 _atom_site_label
 _atom_site_symmetry_multiplicity
 _atom_site_fract_x
 _atom_site_fract_y
 _atom_site_fract_z
 _atom_site_occupancy
  O  O0  1  0.89372504  0.89372503  0.89372496  1
  O  O1  1  0.10627500  0.10627500  0.10627500  1
  O  O2  1  0.00000000  0.50000002  0.50000000  1
  O  O3  1  0.50000002  0.50000002  0.49999998  1
  O  O4  1  0.50000002  0.50000002  -0.00000004  1
  O  O5  1  0.50000002  0.00000000  0.50000000  1
  O  O6  1  0.25797301  0.25797301  0.69508800  1
  O  O7  1  0.69508803  0.25797301  0.25797297  1
  O  O8  1  0.25797301  0.69508803  0.25797297  1
  O  O9  1  0.74202703  0.30491201  0.74202699  1
  O  O10  1  0.74202703  0.74202703  0.30491196  1
  O  O11  1  0.30491201  0.74202703  0.74202698  1
  O  O12  1  0.23740401  0.23740401  0.23740399  1
  O  O13  1  0.76259603  0.76259603  0.76259597  1
