# generated using pymatgen
data_O2
_symmetry_space_group_name_H-M   'P 1'
_cell_length_a   3.25723410
_cell_length_b   7.04210949
_cell_length_c   8.17680168
_cell_angle_alpha   100.16942596
_cell_angle_beta   90.00000000
_cell_angle_gamma   103.37175751
_symmetry_Int_Tables_number   1
_chemical_formula_structural   O2
_chemical_formula_sum   O15
_cell_volume   179.44312651
_cell_formula_units_Z   7
loop_
 _symmetry_equiv_pos_site_id
 _symmetry_equiv_pos_as_xyz
  1  'x, y, z'
loop_
 _atom_site_type_symbol
 _atom_site_label
 _atom_site_symmetry_multiplicity
 _atom_site_fract_x
 _atom_site_fract_y
 _atom_site_fract_z
 _atom_site_occupancy
  O  O0  1  0.03025800  0.06051600  0.80893102  1
  O  O1  1  0.62920400  0.25840801  0.47464702  1
  O  O2  1  0.69614301  0.39228601  0.13227602  1
  O  O3  1  0.30385703  0.60771402  0.86772404  1
  O  O4  1  0.37079604  0.74159202  0.52535304  1
  O  O5  1  0.96974204  0.93948403  0.19106905  1
  O  O6  1  0.53515799  0.07031600  0.65664902  1
  O  O7  1  0.17177102  0.34354201  0.96433104  1
  O  O8  1  0.12662001  0.25324001  0.28545202  1
  O  O9  1  0.87338003  0.74676002  0.71454805  1
  O  O10  1  0.82822902  0.65645802  0.03566903  1
  O  O11  1  0.46484205  0.92968403  0.34335105  1
  O  O12  1  0.20982902  0.41965801  0.61741303  1
  O  O13  1  0.79017102  0.58034202  0.38258703  1
  O  O14  1  0.49999999  0.00000000  1.00000002  1
