# generated using pymatgen
data_Zn
_symmetry_space_group_name_H-M   'P 1'
_cell_length_a   3.45514202
_cell_length_b   3.66859674
_cell_length_c   3.54639006
_cell_angle_alpha   118.90404510
_cell_angle_beta   90.00000000
_cell_angle_gamma   118.09324646
_symmetry_Int_Tables_number   1
_chemical_formula_structural   Zn
_chemical_formula_sum   Zn4
_cell_volume   33.17422801
_cell_formula_units_Z   4
loop_
 _symmetry_equiv_pos_site_id
 _symmetry_equiv_pos_as_xyz
  1  'x, y, z'
loop_
 _atom_site_type_symbol
 _atom_site_label
 _atom_site_symmetry_multiplicity
 _atom_site_fract_x
 _atom_site_fract_y
 _atom_site_fract_z
 _atom_site_occupancy
  Zn  Zn0  1  0.76183702  0.56774999  0.28387498  1
  Zn  Zn1  1  0.19408702  0.43224999  0.71612498  1
  Zn  Zn2  1  0.76251100  0.00000000  0.99999998  1
  Zn  Zn3  1  0.06156500  0.00000000  0.99999998  1
