# generated using pymatgen
data_BaYb9
_symmetry_space_group_name_H-M   'P 1'
_cell_length_a   4.19870377
_cell_length_b   7.10204983
_cell_length_c   7.10204983
_cell_angle_alpha   90.00000000
_cell_angle_beta   90.00000000
_cell_angle_gamma   90.00000000
_symmetry_Int_Tables_number   1
_chemical_formula_structural   BaYb9
_chemical_formula_sum   'Ba1 Yb9'
_cell_volume   211.77888847
_cell_formula_units_Z   1
loop_
 _symmetry_equiv_pos_site_id
 _symmetry_equiv_pos_as_xyz
  1  'x, y, z'
loop_
 _atom_site_type_symbol
 _atom_site_label
 _atom_site_symmetry_multiplicity
 _atom_site_fract_x
 _atom_site_fract_y
 _atom_site_fract_z
 _atom_site_occupancy
  Yb  Yb0  1  0.50000003  0.67880502  0.17880500  1
  Ba  Ba1  1  0.50000003  0.32119501  0.82119502  1
  Yb  Yb2  1  0.50000003  0.17880500  0.32119501  1
  Yb  Yb3  1  0.50000003  0.82119502  0.67880502  1
  Yb  Yb4  1  0.00000000  0.00000000  0.00000000  1
  Yb  Yb5  1  1.00000006  0.50000001  0.50000001  1
  Yb  Yb6  1  1.00000006  0.11877900  0.61877902  1
  Yb  Yb7  1  0.00000000  0.88122102  0.38122101  1
  Yb  Yb8  1  0.00000000  0.61877902  0.88122102  1
  Yb  Yb9  1  0.00000000  0.38122101  0.11877900  1
