# generated using pymatgen
data_TmOF5
_symmetry_space_group_name_H-M   'P 1'
_cell_length_a   3.71291399
_cell_length_b   3.71291327
_cell_length_c   8.18096733
_cell_angle_alpha   90.00000000
_cell_angle_beta   90.00000000
_cell_angle_gamma   120.00000763
_symmetry_Int_Tables_number   1
_chemical_formula_structural   TmOF5
_chemical_formula_sum   'Tm1 O1 F5'
_cell_volume   97.67084629
_cell_formula_units_Z   1
loop_
 _symmetry_equiv_pos_site_id
 _symmetry_equiv_pos_as_xyz
  1  'x, y, z'
loop_
 _atom_site_type_symbol
 _atom_site_label
 _atom_site_symmetry_multiplicity
 _atom_site_fract_x
 _atom_site_fract_y
 _atom_site_fract_z
 _atom_site_occupancy
  F  F0  1  0.33333335  0.66666667  0.17657299  1
  O  O1  1  0.66666668  0.33333334  0.82342697  1
  F  F2  1  0.00000000  0.00000000  0.49999998  1
  F  F3  1  0.00000000  0.00000000  0.34889999  1
  F  F4  1  0.00000000  0.00000000  0.65109997  1
  F  F5  1  0.66666668  0.33333334  0.10279900  1
  Tm  Tm6  1  0.33333335  0.66666667  0.89720096  1
