# generated using pymatgen
data_ZnS2
_symmetry_space_group_name_H-M   'P 1'
_cell_length_a   3.88341999
_cell_length_b   6.71503210
_cell_length_c   7.44899273
_cell_angle_alpha   105.61348724
_cell_angle_beta   105.10967255
_cell_angle_gamma   90.00000000
_symmetry_Int_Tables_number   1
_chemical_formula_structural   ZnS2
_chemical_formula_sum   'Zn2 S4'
_cell_volume   180.09903728
_cell_formula_units_Z   2
loop_
 _symmetry_equiv_pos_site_id
 _symmetry_equiv_pos_as_xyz
  1  'x, y, z'
loop_
 _atom_site_type_symbol
 _atom_site_label
 _atom_site_symmetry_multiplicity
 _atom_site_fract_x
 _atom_site_fract_y
 _atom_site_fract_z
 _atom_site_occupancy
  S  S0  1  0.12332801  0.34476801  0.24665600  1
  S  S1  1  0.87667202  0.65523202  0.75334401  1
  S  S2  1  0.34950701  0.13810600  0.69901401  1
  S  S3  1  0.65049202  0.86189402  0.30098400  1
  Zn  Zn4  1  0.75194801  0.20751401  0.50389601  1
  Zn  Zn5  1  0.24805201  0.79248602  0.49610399  1
