# generated using pymatgen
data_Mg
_symmetry_space_group_name_H-M   'P 1'
_cell_length_a   3.69892311
_cell_length_b   6.66566420
_cell_length_c   6.66566372
_cell_angle_alpha   120.00000000
_cell_angle_beta   90.00000000
_cell_angle_gamma   90.00000000
_symmetry_Int_Tables_number   1
_chemical_formula_structural   Mg
_chemical_formula_sum   Mg9
_cell_volume   142.32879295
_cell_formula_units_Z   9
loop_
 _symmetry_equiv_pos_site_id
 _symmetry_equiv_pos_as_xyz
  1  'x, y, z'
loop_
 _atom_site_type_symbol
 _atom_site_label
 _atom_site_symmetry_multiplicity
 _atom_site_fract_x
 _atom_site_fract_y
 _atom_site_fract_z
 _atom_site_occupancy
  Mg  Mg0  1  0.49999999  0.00000000  0.41342900  1
  Mg  Mg1  1  0.49999999  0.41342898  -0.00000001  1
  Mg  Mg2  1  0.49999999  0.58657097  0.58657098  1
  Mg  Mg3  1  0.99999997  0.66666664  0.33333331  1
  Mg  Mg4  1  0.99999997  0.33333332  0.66666665  1
  Mg  Mg5  1  0.49999999  0.00000000  -0.00000000  1
  Mg  Mg6  1  0.99999997  0.00000000  0.75412300  1
  Mg  Mg7  1  0.99999997  0.75412297  -0.00000002  1
  Mg  Mg8  1  -0.00000000  0.24587699  0.24587699  1
