# generated using pymatgen
data_S
_symmetry_space_group_name_H-M   'P 1'
_cell_length_a   6.02005816
_cell_length_b   6.16752672
_cell_length_c   6.16752672
_cell_angle_alpha   65.01686096
_cell_angle_beta   60.78785324
_cell_angle_gamma   60.78785324
_symmetry_Int_Tables_number   1
_chemical_formula_structural   S
_chemical_formula_sum   S8
_cell_volume   169.27573056
_cell_formula_units_Z   8
loop_
 _symmetry_equiv_pos_site_id
 _symmetry_equiv_pos_as_xyz
  1  'x, y, z'
loop_
 _atom_site_type_symbol
 _atom_site_label
 _atom_site_symmetry_multiplicity
 _atom_site_fract_x
 _atom_site_fract_y
 _atom_site_fract_z
 _atom_site_occupancy
  S  S0  1  0.23111000  0.28914000  0.24864002  1
  S  S1  1  0.00000000  0.05692900  0.94307102  1
  S  S2  1  0.76888998  0.75136000  0.71086006  1
  S  S3  1  0.49999999  0.51050700  0.48949304  1
  S  S4  1  0.66959898  0.48880300  0.17199904  1
  S  S5  1  0.33040100  0.82800100  0.51119704  1
  S  S6  1  0.74432797  0.36313000  0.63687005  1
  S  S7  1  0.25567200  0.36313000  0.63687003  1
