# generated using pymatgen
data_Mo8W
_symmetry_space_group_name_H-M   'P 1'
_cell_length_a   3.55223393
_cell_length_b   3.55223322
_cell_length_c   32.57431030
_cell_angle_alpha   90.00000000
_cell_angle_beta   90.00000000
_cell_angle_gamma   120.00000763
_symmetry_Int_Tables_number   1
_chemical_formula_structural   Mo8W
_chemical_formula_sum   'Mo8 W1'
_cell_volume   355.96627794
_cell_formula_units_Z   1
loop_
 _symmetry_equiv_pos_site_id
 _symmetry_equiv_pos_as_xyz
  1  'x, y, z'
loop_
 _atom_site_type_symbol
 _atom_site_label
 _atom_site_symmetry_multiplicity
 _atom_site_fract_x
 _atom_site_fract_y
 _atom_site_fract_z
 _atom_site_occupancy
  Mo  Mo0  1  0.00000000  0.00000000  0.59732199  1
  W  W1  1  0.66666668  0.33333334  0.94002899  1
  Mo  Mo2  1  0.66666668  0.33333334  0.47745800  1
  Mo  Mo3  1  0.66666668  0.33333334  0.82863599  1
  Mo  Mo4  1  0.66666668  0.33333334  0.36594100  1
  Mo  Mo5  1  0.00000000  0.00000000  0.70871399  1
  Mo  Mo6  1  0.00000000  0.00000000  0.88435199  1
  Mo  Mo7  1  0.66666668  0.33333334  0.65302099  1
  Mo  Mo8  1  0.00000000  0.00000000  0.42168600  1
