# generated using pymatgen
data_BaSi11
_symmetry_space_group_name_H-M   'P 1'
_cell_length_a   4.36086988
_cell_length_b   7.29391241
_cell_length_c   9.47369385
_cell_angle_alpha   90.00000000
_cell_angle_beta   90.00000000
_cell_angle_gamma   107.39389038
_symmetry_Int_Tables_number   1
_chemical_formula_structural   BaSi11
_chemical_formula_sum   'Ba1 Si11'
_cell_volume   287.55789477
_cell_formula_units_Z   1
loop_
 _symmetry_equiv_pos_site_id
 _symmetry_equiv_pos_as_xyz
  1  'x, y, z'
loop_
 _atom_site_type_symbol
 _atom_site_label
 _atom_site_symmetry_multiplicity
 _atom_site_fract_x
 _atom_site_fract_y
 _atom_site_fract_z
 _atom_site_occupancy
  Si  Si0  1  0.36103104  0.72206201  0.04625800  1
  Si  Si1  1  0.63896903  0.27793800  0.54625801  1
  Si  Si2  1  0.36103104  0.72206201  0.45374201  1
  Si  Si3  1  0.63896903  0.27793800  0.95374202  1
  Ba  Ba4  1  0.99048907  0.98097801  0.75000001  1
  Si  Si5  1  0.00951100  0.01902200  0.25000000  1
  Si  Si6  1  0.20859602  0.41719200  0.54129501  1
  Si  Si7  1  0.20859602  0.41719200  0.95870502  1
  Si  Si8  1  0.70993904  0.41987800  0.75000001  1
  Si  Si9  1  0.29006103  0.58012201  0.25000000  1
  Si  Si10  1  0.79140404  0.58280801  0.45870501  1
  Si  Si11  1  0.79140404  0.58280801  0.04129400  1
