# generated using pymatgen
data_La4F3
_symmetry_space_group_name_H-M   'P 1'
_cell_length_a   4.09092188
_cell_length_b   5.98052692
_cell_length_c   6.17066526
_cell_angle_alpha   73.05844116
_cell_angle_beta   70.64128113
_cell_angle_gamma   70.00000000
_symmetry_Int_Tables_number   1
_chemical_formula_structural   La4F3
_chemical_formula_sum   'La4 F3'
_cell_volume   131.11903127
_cell_formula_units_Z   1
loop_
 _symmetry_equiv_pos_site_id
 _symmetry_equiv_pos_as_xyz
  1  'x, y, z'
loop_
 _atom_site_type_symbol
 _atom_site_label
 _atom_site_symmetry_multiplicity
 _atom_site_fract_x
 _atom_site_fract_y
 _atom_site_fract_z
 _atom_site_occupancy
  F  F0  1  0.42881108  0.83771399  0.30466404  1
  La  La1  1  0.57118903  0.16228600  0.69533601  1
  F  F2  1  0.79697605  0.31878699  0.08726100  1
  F  F3  1  0.20302406  0.68121299  0.91273905  1
  La  La4  1  0.84763308  0.60127299  0.70346103  1
  La  La5  1  0.15236703  0.39872699  0.29653903  1
  La  La6  1  0.00000000  0.00000000  0.00000000  1
