# generated using pymatgen
data_LuF7
_symmetry_space_group_name_H-M   'P 1'
_cell_length_a   4.32485819
_cell_length_b   5.47935009
_cell_length_c   5.47934961
_cell_angle_alpha   120.00000000
_cell_angle_beta   90.00000000
_cell_angle_gamma   90.00000000
_symmetry_Int_Tables_number   1
_chemical_formula_structural   LuF7
_chemical_formula_sum   'Lu1 F7'
_cell_volume   112.45028606
_cell_formula_units_Z   1
loop_
 _symmetry_equiv_pos_site_id
 _symmetry_equiv_pos_as_xyz
  1  'x, y, z'
loop_
 _atom_site_type_symbol
 _atom_site_label
 _atom_site_symmetry_multiplicity
 _atom_site_fract_x
 _atom_site_fract_y
 _atom_site_fract_z
 _atom_site_occupancy
  F  F0  1  0.24999999  0.66666664  0.33333332  1
  F  F1  1  0.74999997  0.33333332  0.66666667  1
  F  F2  1  0.74999997  0.83407297  0.16592698  1
  F  F3  1  0.74999997  0.33185399  0.16592699  1
  F  F4  1  0.74999997  0.83407297  0.66814599  1
  F  F5  1  0.24999999  0.16592699  0.83407301  1
  F  F6  1  0.24999999  0.66814598  0.83407300  1
  Lu  Lu7  1  0.24999999  0.16592699  0.33185400  1
