# generated using pymatgen
data_Si
_symmetry_space_group_name_H-M   'P 1'
_cell_length_a   3.92176008
_cell_length_b   5.62942314
_cell_length_c   5.64714909
_cell_angle_alpha   73.33142853
_cell_angle_beta   69.68179321
_cell_angle_gamma   69.61498260
_symmetry_Int_Tables_number   1
_chemical_formula_structural   Si
_chemical_formula_sum   Si7
_cell_volume   107.62498711
_cell_formula_units_Z   7
loop_
 _symmetry_equiv_pos_site_id
 _symmetry_equiv_pos_as_xyz
  1  'x, y, z'
loop_
 _atom_site_type_symbol
 _atom_site_label
 _atom_site_symmetry_multiplicity
 _atom_site_fract_x
 _atom_site_fract_y
 _atom_site_fract_z
 _atom_site_occupancy
  Si  Si0  1  0.44005705  0.82520102  0.29468499  1
  Si  Si1  1  0.55994301  0.17479900  0.70531497  1
  Si  Si2  1  0.79890802  0.30681401  0.09536997  1
  Si  Si3  1  0.20109204  0.69318601  0.90462999  1
  Si  Si4  1  0.83805404  0.60658601  0.71730597  1
  Si  Si5  1  0.16194602  0.39341401  0.28269400  1
  Si  Si6  1  0.00000000  0.00000000  0.00000000  1
