# generated using pymatgen
data_BaAsAu8
_symmetry_space_group_name_H-M   'P 1'
_cell_length_a   5.60180616
_cell_length_b   7.41837215
_cell_length_c   7.41837215
_cell_angle_alpha   60.00000000
_cell_angle_beta   90.00000000
_cell_angle_gamma   90.00000000
_symmetry_Int_Tables_number   1
_chemical_formula_structural   BaAsAu8
_chemical_formula_sum   'Ba1 As1 Au8'
_cell_volume   266.97828688
_cell_formula_units_Z   1
loop_
 _symmetry_equiv_pos_site_id
 _symmetry_equiv_pos_as_xyz
  1  'x, y, z'
loop_
 _atom_site_type_symbol
 _atom_site_label
 _atom_site_symmetry_multiplicity
 _atom_site_fract_x
 _atom_site_fract_y
 _atom_site_fract_z
 _atom_site_occupancy
  Au  Au0  1  0.74999998  0.66666666  0.66666666  1
  Au  Au1  1  0.24999999  0.33333333  0.33333333  1
  As  As2  1  0.49999999  0.00000000  -0.00000000  1
  Au  Au3  1  0.00000000  0.00000000  0.00000000  1
  Au  Au4  1  0.24999999  0.32612700  0.83693701  1
  Au  Au5  1  0.74999998  0.16306400  0.67387201  1
  Au  Au6  1  0.74999998  0.16306400  0.16306300  1
  Au  Au7  1  0.24999999  0.83693600  0.83693700  1
  Ba  Ba8  1  0.74999998  0.67387300  0.16306298  1
  Au  Au9  1  0.24999999  0.83693600  0.32612798  1
