# generated using pymatgen
data_BaLaF6
_symmetry_space_group_name_H-M   'P 1'
_cell_length_a   4.23531914
_cell_length_b   4.26056385
_cell_length_c   8.58940887
_cell_angle_alpha   104.35993958
_cell_angle_beta   90.00000000
_cell_angle_gamma   90.00000000
_symmetry_Int_Tables_number   1
_chemical_formula_structural   BaLaF6
_chemical_formula_sum   'Ba1 La1 F6'
_cell_volume   150.15204850
_cell_formula_units_Z   1
loop_
 _symmetry_equiv_pos_site_id
 _symmetry_equiv_pos_as_xyz
  1  'x, y, z'
loop_
 _atom_site_type_symbol
 _atom_site_label
 _atom_site_symmetry_multiplicity
 _atom_site_fract_x
 _atom_site_fract_y
 _atom_site_fract_z
 _atom_site_occupancy
  Ba  Ba0  1  0.24999999  0.10749500  0.21498999  1
  La  La1  1  0.74999998  0.89250502  0.78500996  1
  F  F2  1  0.24999999  0.31678101  0.63356198  1
  F  F3  1  0.74999998  0.68321902  0.36643798  1
  F  F4  1  0.24999999  0.45421201  0.90842397  1
  F  F5  1  0.74999998  0.54578801  0.09157599  1
  F  F6  1  0.24999999  0.74974302  0.49948597  1
  F  F7  1  0.74999998  0.25025701  0.50051398  1
