# generated using pymatgen
data_BaAu
_symmetry_space_group_name_H-M   'P 1'
_cell_length_a   4.14118624
_cell_length_b   7.55109882
_cell_length_c   8.71519661
_cell_angle_alpha   105.21010590
_cell_angle_beta   90.00000000
_cell_angle_gamma   105.91499329
_symmetry_Int_Tables_number   1
_chemical_formula_structural   BaAu
_chemical_formula_sum   'Ba3 Au3'
_cell_volume   252.14066008
_cell_formula_units_Z   3
loop_
 _symmetry_equiv_pos_site_id
 _symmetry_equiv_pos_as_xyz
  1  'x, y, z'
loop_
 _atom_site_type_symbol
 _atom_site_label
 _atom_site_symmetry_multiplicity
 _atom_site_fract_x
 _atom_site_fract_y
 _atom_site_fract_z
 _atom_site_occupancy
  Ba  Ba0  1  0.68425500  0.36851000  0.13935600  1
  Ba  Ba1  1  0.97686604  0.95373199  0.26811600  1
  Ba  Ba2  1  0.02313400  0.04626800  0.73188400  1
  Au  Au3  1  0.31574505  0.63148999  0.86064400  1
  Au  Au4  1  0.32604405  0.65208799  0.45505200  1
  Au  Au5  1  0.67395600  0.34791200  0.54494800  1
