# generated using pymatgen
data_Cs2Te
_symmetry_space_group_name_H-M   'P 1'
_cell_length_a   3.43750000
_cell_length_b   3.43749976
_cell_length_c   39.21108246
_cell_angle_alpha   90.00000000
_cell_angle_beta   90.00000000
_cell_angle_gamma   120.00000000
_symmetry_Int_Tables_number   1
_chemical_formula_structural   Cs2Te
_chemical_formula_sum   'Cs8 Te4'
_cell_volume   401.25905574
_cell_formula_units_Z   4
loop_
 _symmetry_equiv_pos_site_id
 _symmetry_equiv_pos_as_xyz
  1  'x, y, z'
loop_
 _atom_site_type_symbol
 _atom_site_label
 _atom_site_symmetry_multiplicity
 _atom_site_fract_x
 _atom_site_fract_y
 _atom_site_fract_z
 _atom_site_occupancy
  Te  Te0  1  0.66666665  0.33333332  0.04636600  1
  Te  Te1  1  0.33333330  0.66666664  0.95363401  1
  Cs  Cs2  1  0.33333330  0.66666664  0.85844801  1
  Cs  Cs3  1  0.66666665  0.33333332  0.14155200  1
  Cs  Cs4  1  0.66666665  0.33333332  0.28180700  1
  Cs  Cs5  1  0.66666665  0.33333332  0.90604201  1
  Cs  Cs6  1  0.33333330  0.66666664  0.09395800  1
  Cs  Cs7  1  0.33333330  0.66666664  0.71819301  1
  Te  Te8  1  0.66666665  0.33333332  0.67629601  1
  Te  Te9  1  0.33333330  0.66666664  0.32370400  1
  Cs  Cs10  1  0.33333330  0.66666664  0.23990500  1
  Cs  Cs11  1  0.66666665  0.33333332  0.76009501  1
