# generated using pymatgen
data_CsCl4
_symmetry_space_group_name_H-M   'P 1'
_cell_length_a   7.62021923
_cell_length_b   7.62021923
_cell_length_c   7.62021923
_cell_angle_alpha   60.22584534
_cell_angle_beta   60.22584534
_cell_angle_gamma   60.22585297
_symmetry_Int_Tables_number   1
_chemical_formula_structural   CsCl4
_chemical_formula_sum   'Cs2 Cl8'
_cell_volume   314.48676616
_cell_formula_units_Z   2
loop_
 _symmetry_equiv_pos_site_id
 _symmetry_equiv_pos_as_xyz
  1  'x, y, z'
loop_
 _atom_site_type_symbol
 _atom_site_label
 _atom_site_symmetry_multiplicity
 _atom_site_fract_x
 _atom_site_fract_y
 _atom_site_fract_z
 _atom_site_occupancy
  Cs  Cs0  1  0.73101097  0.73101099  0.73101103  1
  Cs  Cs1  1  0.23101099  0.23101100  0.23101101  1
  Cl  Cl2  1  0.99499796  0.99499799  0.99499804  1
  Cl  Cl3  1  0.49499798  0.49499799  0.49499802  1
  Cl  Cl4  1  0.75359998  0.17939100  0.31250002  1
  Cl  Cl5  1  0.17939099  0.31250000  0.75360002  1
  Cl  Cl6  1  0.31249998  0.75359999  0.17939102  1
  Cl  Cl7  1  0.81249997  0.67939099  0.25360002  1
  Cl  Cl8  1  0.25359998  0.81249999  0.67939103  1
  Cl  Cl9  1  0.67939098  0.25360000  0.81250003  1
