# generated using pymatgen
data_CsMo11
_symmetry_space_group_name_H-M   'P 1'
_cell_length_a   3.43750000
_cell_length_b   3.43749976
_cell_length_c   39.21108246
_cell_angle_alpha   90.00000000
_cell_angle_beta   90.00000000
_cell_angle_gamma   120.00000000
_symmetry_Int_Tables_number   1
_chemical_formula_structural   CsMo11
_chemical_formula_sum   'Cs1 Mo11'
_cell_volume   401.25905574
_cell_formula_units_Z   1
loop_
 _symmetry_equiv_pos_site_id
 _symmetry_equiv_pos_as_xyz
  1  'x, y, z'
loop_
 _atom_site_type_symbol
 _atom_site_label
 _atom_site_symmetry_multiplicity
 _atom_site_fract_x
 _atom_site_fract_y
 _atom_site_fract_z
 _atom_site_occupancy
  Mo  Mo0  1  0.66666665  0.33333332  0.04636600  1
  Mo  Mo1  1  0.33333330  0.66666664  0.95363401  1
  Cs  Cs2  1  0.33333330  0.66666664  0.85844801  1
  Mo  Mo3  1  0.66666665  0.33333332  0.14155200  1
  Mo  Mo4  1  0.66666665  0.33333332  0.28180700  1
  Mo  Mo5  1  0.66666665  0.33333332  0.90604201  1
  Mo  Mo6  1  0.33333330  0.66666664  0.09395800  1
  Mo  Mo7  1  0.33333330  0.66666664  0.71819301  1
  Mo  Mo8  1  0.66666665  0.33333332  0.67629601  1
  Mo  Mo9  1  0.33333330  0.66666664  0.32370400  1
  Mo  Mo10  1  0.33333330  0.66666664  0.23990500  1
  Mo  Mo11  1  0.66666665  0.33333332  0.76009501  1
