# generated using pymatgen
data_Ti3O2
_symmetry_space_group_name_H-M   'P 1'
_cell_length_a   4.36963415
_cell_length_b   4.36963463
_cell_length_c   8.36400890
_cell_angle_alpha   90.00000000
_cell_angle_beta   90.00000000
_cell_angle_gamma   119.99999237
_symmetry_Int_Tables_number   1
_chemical_formula_structural   Ti3O2
_chemical_formula_sum   'Ti6 O4'
_cell_volume   138.30419498
_cell_formula_units_Z   2
loop_
 _symmetry_equiv_pos_site_id
 _symmetry_equiv_pos_as_xyz
  1  'x, y, z'
loop_
 _atom_site_type_symbol
 _atom_site_label
 _atom_site_symmetry_multiplicity
 _atom_site_fract_x
 _atom_site_fract_y
 _atom_site_fract_z
 _atom_site_occupancy
  O  O0  1  0.00000000  0.00000000  0.50000001  1
  O  O1  1  0.00000000  0.00000000  0.00000000  1
  O  O2  1  0.33333330  0.66666669  0.25000000  1
  Ti  Ti3  1  0.66666663  0.33333334  0.75000001  1
  Ti  Ti4  1  0.66666663  0.33333334  0.25000000  1
  O  O5  1  0.33333330  0.66666669  0.75000001  1
  Ti  Ti6  1  0.66666663  0.33333334  0.55660501  1
  Ti  Ti7  1  0.33333330  0.66666669  0.44339501  1
  Ti  Ti8  1  0.66666663  0.33333334  0.94339501  1
  Ti  Ti9  1  0.33333330  0.66666669  0.05660500  1
