# generated using pymatgen
data_Ba3ZnO6
_symmetry_space_group_name_H-M   'P 1'
_cell_length_a   5.98943424
_cell_length_b   5.98943424
_cell_length_c   6.12732410
_cell_angle_alpha   60.74166870
_cell_angle_beta   60.74166870
_cell_angle_gamma   59.99999619
_symmetry_Int_Tables_number   1
_chemical_formula_structural   Ba3ZnO6
_chemical_formula_sum   'Ba3 Zn1 O6'
_cell_volume   157.14701191
_cell_formula_units_Z   1
loop_
 _symmetry_equiv_pos_site_id
 _symmetry_equiv_pos_as_xyz
  1  'x, y, z'
loop_
 _atom_site_type_symbol
 _atom_site_label
 _atom_site_symmetry_multiplicity
 _atom_site_fract_x
 _atom_site_fract_y
 _atom_site_fract_z
 _atom_site_occupancy
  Ba  Ba0  1  0.85814999  0.85815001  0.42555000  1
  Zn  Zn1  1  0.14185000  0.14185000  0.57445000  1
  Ba  Ba2  1  0.64341499  0.64341501  0.06975500  1
  Ba  Ba3  1  0.35658499  0.35658500  0.93024500  1
  O  O4  1  0.54415500  0.21853400  0.24950500  1
  O  O5  1  0.78146600  0.01219400  0.75049500  1
  O  O6  1  0.01219399  0.45584500  0.75049500  1
  O  O7  1  0.98780599  0.54415501  0.24950500  1
  O  O8  1  0.21853398  0.98780601  0.24950500  1
  O  O9  1  0.45584499  0.78146601  0.75049500  1
