# generated using pymatgen
data_O2
_symmetry_space_group_name_H-M   'P 1'
_cell_length_a   5.61391306
_cell_length_b   6.00554085
_cell_length_c   7.50769758
_cell_angle_alpha   110.02338409
_cell_angle_beta   99.30938721
_cell_angle_gamma   106.19543457
_symmetry_Int_Tables_number   1
_chemical_formula_structural   O2
_chemical_formula_sum   O19
_cell_volume   218.90039281
_cell_formula_units_Z   9
loop_
 _symmetry_equiv_pos_site_id
 _symmetry_equiv_pos_as_xyz
  1  'x, y, z'
loop_
 _atom_site_type_symbol
 _atom_site_label
 _atom_site_symmetry_multiplicity
 _atom_site_fract_x
 _atom_site_fract_y
 _atom_site_fract_z
 _atom_site_occupancy
  O  O0  1  0.33649796  0.70775596  0.25111397  1
  O  O1  1  0.66350199  0.29224399  0.74888599  1
  O  O2  1  0.00000000  0.00000000  0.00000000  1
  O  O3  1  0.85394095  0.87393296  0.62100797  1
  O  O4  1  0.14605899  0.12606699  0.37899199  1
  O  O5  1  0.08196899  0.14162799  0.71625498  1
  O  O6  1  0.91803096  0.85837196  0.28374498  1
  O  O7  1  0.33880596  0.66688997  0.76277596  1
  O  O8  1  0.66119398  0.33310998  0.23722400  1
  O  O9  1  0.10396796  0.67897297  0.87755195  1
  O  O10  1  0.89603199  0.32102698  0.12244801  1
  O  O11  1  0.61943396  0.75862496  0.93734097  1
  O  O12  1  0.38056599  0.24137499  0.06265900  1
  O  O13  1  0.35630895  0.83409296  0.62725696  1
  O  O14  1  0.64369099  0.16590699  0.37274301  1
  O  O15  1  0.27489098  0.35762498  0.62871798  1
  O  O16  1  0.72510897  0.64237497  0.37128199  1
  O  O17  1  0.92692500  0.03888000  0.73856701  1
  O  O18  1  0.07307494  0.96111995  0.26143295  1
