# generated using pymatgen
data_BaYb5
_symmetry_space_group_name_H-M   'P 1'
_cell_length_a   3.35258198
_cell_length_b   5.46681023
_cell_length_c   8.78042698
_cell_angle_alpha   90.00000000
_cell_angle_beta   101.00602722
_cell_angle_gamma   90.00000000
_symmetry_Int_Tables_number   1
_chemical_formula_structural   BaYb5
_chemical_formula_sum   'Ba1 Yb5'
_cell_volume   157.96713202
_cell_formula_units_Z   1
loop_
 _symmetry_equiv_pos_site_id
 _symmetry_equiv_pos_as_xyz
  1  'x, y, z'
loop_
 _atom_site_type_symbol
 _atom_site_label
 _atom_site_symmetry_multiplicity
 _atom_site_fract_x
 _atom_site_fract_y
 _atom_site_fract_z
 _atom_site_occupancy
  Yb  Yb0  1  0.89260901  0.24999999  0.78521805  1
  Yb  Yb1  1  0.10739100  0.74999997  0.21478201  1
  Yb  Yb2  1  0.55792501  0.24999999  0.11585001  1
  Ba  Ba3  1  0.22068400  0.24999999  0.44136702  1
  Yb  Yb4  1  0.77931701  0.74999997  0.55863304  1
  Yb  Yb5  1  0.44207501  0.74999997  0.88415005  1
