# generated using pymatgen
data_Si
_symmetry_space_group_name_H-M   'P 1'
_cell_length_a   4.72356606
_cell_length_b   4.72356606
_cell_length_c   4.72356606
_cell_angle_alpha   90.00000000
_cell_angle_beta   90.00000000
_cell_angle_gamma   90.00000000
_symmetry_Int_Tables_number   1
_chemical_formula_structural   Si
_chemical_formula_sum   Si8
_cell_volume   105.39256613
_cell_formula_units_Z   8
loop_
 _symmetry_equiv_pos_site_id
 _symmetry_equiv_pos_as_xyz
  1  'x, y, z'
loop_
 _atom_site_type_symbol
 _atom_site_label
 _atom_site_symmetry_multiplicity
 _atom_site_fract_x
 _atom_site_fract_y
 _atom_site_fract_z
 _atom_site_occupancy
  Si  Si0  1  0.15345300  0.34654700  0.65345299  1
  Si  Si1  1  0.34654700  0.65345299  0.15345300  1
  Si  Si2  1  0.65345299  0.15345300  0.34654700  1
  Si  Si3  1  0.84654699  0.84654699  0.84654699  1
  Si  Si4  1  0.84494399  0.65505599  0.34494400  1
  Si  Si5  1  0.65505599  0.34494400  0.84494399  1
  Si  Si6  1  0.34494400  0.84494399  0.65505599  1
  Si  Si7  1  0.15505600  0.15505600  0.15505600  1
