# generated using pymatgen
data_OF3
_symmetry_space_group_name_H-M   'P 1'
_cell_length_a   4.19873619
_cell_length_b   5.12412405
_cell_length_c   5.12412357
_cell_angle_alpha   120.00000000
_cell_angle_beta   90.00000000
_cell_angle_gamma   90.00000000
_symmetry_Int_Tables_number   1
_chemical_formula_structural   OF3
_chemical_formula_sum   'O2 F6'
_cell_volume   95.47473242
_cell_formula_units_Z   2
loop_
 _symmetry_equiv_pos_site_id
 _symmetry_equiv_pos_as_xyz
  1  'x, y, z'
loop_
 _atom_site_type_symbol
 _atom_site_label
 _atom_site_symmetry_multiplicity
 _atom_site_fract_x
 _atom_site_fract_y
 _atom_site_fract_z
 _atom_site_occupancy
  F  F0  1  0.74999997  0.33333332  0.66666664  1
  O  O1  1  0.24999999  0.66666664  0.33333329  1
  F  F2  1  0.24999999  0.16659199  0.33318399  1
  F  F3  1  0.24999999  0.66681697  0.83340895  1
  O  O4  1  0.24999999  0.16659199  0.83340898  1
  F  F5  1  0.74999997  0.83340797  0.66681594  1
  F  F6  1  0.74999997  0.33318299  0.16659098  1
  F  F7  1  0.74999997  0.83340797  0.16659095  1
