# generated using pymatgen
data_Sr3O8F
_symmetry_space_group_name_H-M   'P 1'
_cell_length_a   4.34386587
_cell_length_b   4.34386587
_cell_length_c   7.10305309
_cell_angle_alpha   90.00000000
_cell_angle_beta   90.00000000
_cell_angle_gamma   120.00000000
_symmetry_Int_Tables_number   1
_chemical_formula_structural   Sr3O8F
_chemical_formula_sum   'Sr3 O8 F1'
_cell_volume   116.07227754
_cell_formula_units_Z   1
loop_
 _symmetry_equiv_pos_site_id
 _symmetry_equiv_pos_as_xyz
  1  'x, y, z'
loop_
 _atom_site_type_symbol
 _atom_site_label
 _atom_site_symmetry_multiplicity
 _atom_site_fract_x
 _atom_site_fract_y
 _atom_site_fract_z
 _atom_site_occupancy
  O  O0  1  0.00000000  0.00000000  0.49999999  1
  O  O1  1  0.00000000  0.00000000  0.00000000  1
  O  O2  1  0.16999199  0.33998398  0.74200299  1
  O  O3  1  0.16999197  0.83000696  0.74200299  1
  O  O4  1  0.66001499  0.83000696  0.74200299  1
  O  O5  1  0.83000800  0.66001597  0.25799700  1
  O  O6  1  0.83000802  0.16999299  0.25799700  1
  O  O7  1  0.33998500  0.16999299  0.25799700  1
  Sr  Sr8  1  0.66666667  0.33333332  0.55984199  1
  Sr  Sr9  1  0.33333332  0.66666663  0.44015799  1
  Sr  Sr10  1  0.33333332  0.66666663  0.06579400  1
  F  F11  1  0.66666667  0.33333332  0.93420599  1
