# generated using pymatgen
data_KBaAuO17
_symmetry_space_group_name_H-M   'P 1'
_cell_length_a   5.06448507
_cell_length_b   5.07723618
_cell_length_c   11.78840446
_cell_angle_alpha   102.09160614
_cell_angle_beta   90.00000000
_cell_angle_gamma   119.91696167
_symmetry_Int_Tables_number   1
_chemical_formula_structural   KBaAuO17
_chemical_formula_sum   'K1 Ba1 Au1 O17'
_cell_volume   254.94252710
_cell_formula_units_Z   1
loop_
 _symmetry_equiv_pos_site_id
 _symmetry_equiv_pos_as_xyz
  1  'x, y, z'
loop_
 _atom_site_type_symbol
 _atom_site_label
 _atom_site_symmetry_multiplicity
 _atom_site_fract_x
 _atom_site_fract_y
 _atom_site_fract_z
 _atom_site_occupancy
  K  K0  1  0.22708300  0.00000000  0.75000000  1
  Ba  Ba1  1  0.77291699  0.00000000  0.25000000  1
  Au  Au2  1  -0.00000002  0.49999998  -0.00000001  1
  O  O3  1  0.49999997  0.49999998  0.49999999  1
  O  O4  1  0.83837898  0.22908199  0.60830800  1
  O  O5  1  0.60929696  0.77091797  0.89169198  1
  O  O6  1  0.16162096  0.77091797  0.39169198  1
  O  O7  1  0.39070298  0.22908199  0.10830799  1
  O  O8  1  0.87243096  0.63666998  0.40211998  1
  O  O9  1  0.23576098  0.36332999  0.09787999  1
  O  O10  1  0.12756898  0.36332999  0.59787999  1
  O  O11  1  0.76423896  0.63666998  0.90211999  1
  O  O12  1  0.74724599  0.06262600  0.88602700  1
  O  O13  1  0.68461995  0.93737397  0.61397298  1
  O  O14  1  0.25275395  0.93737397  0.11397298  1
  O  O15  1  0.31537999  0.06262600  0.38602700  1
  O  O16  1  0.70075197  0.39109099  0.62313099  1
  O  O17  1  0.30966097  0.60890898  0.87686899  1
  O  O18  1  0.29924797  0.60890898  0.37686898  1
  O  O19  1  0.69033897  0.39109099  0.12313099  1
