# generated using pymatgen
data_SmAu8
_symmetry_space_group_name_H-M   'P 1'
_cell_length_a   3.83341193
_cell_length_b   6.73547983
_cell_length_c   6.73548031
_cell_angle_alpha   120.00000000
_cell_angle_beta   90.00000000
_cell_angle_gamma   90.00000000
_symmetry_Int_Tables_number   1
_chemical_formula_structural   SmAu8
_chemical_formula_sum   'Sm1 Au8'
_cell_volume   150.60980036
_cell_formula_units_Z   1
loop_
 _symmetry_equiv_pos_site_id
 _symmetry_equiv_pos_as_xyz
  1  'x, y, z'
loop_
 _atom_site_type_symbol
 _atom_site_label
 _atom_site_symmetry_multiplicity
 _atom_site_fract_x
 _atom_site_fract_y
 _atom_site_fract_z
 _atom_site_occupancy
  Sm  Sm0  1  0.50000001  0.58234502  0.99999999  1
  Au  Au1  1  0.50000001  0.41765501  0.41765500  1
  Au  Au2  1  0.50000001  0.00000000  0.58234499  1
  Au  Au3  1  0.00000000  0.33333334  0.66666666  1
  Au  Au4  1  0.00000000  0.66666669  0.33333334  1
  Au  Au5  1  0.50000001  0.00000000  -0.00000000  1
  Au  Au6  1  0.00000000  0.24556801  0.99999999  1
  Au  Au7  1  -0.00000000  0.75443203  0.75443200  1
  Au  Au8  1  0.00000000  1.00000003  0.24556801  1
