# generated using pymatgen
data_Ba5S4
_symmetry_space_group_name_H-M   'P 1'
_cell_length_a   6.13201189
_cell_length_b   7.49494314
_cell_length_c   7.50268030
_cell_angle_alpha   80.31894684
_cell_angle_beta   65.87964630
_cell_angle_gamma   65.85315704
_symmetry_Int_Tables_number   1
_chemical_formula_structural   Ba5S4
_chemical_formula_sum   'Ba5 S4'
_cell_volume   287.17273276
_cell_formula_units_Z   1
loop_
 _symmetry_equiv_pos_site_id
 _symmetry_equiv_pos_as_xyz
  1  'x, y, z'
loop_
 _atom_site_type_symbol
 _atom_site_label
 _atom_site_symmetry_multiplicity
 _atom_site_fract_x
 _atom_site_fract_y
 _atom_site_fract_z
 _atom_site_occupancy
  Ba  Ba0  1  0.50265697  0.98364202  0.01104406  1
  Ba  Ba1  1  0.71571298  0.38074401  0.18783005  1
  Ba  Ba2  1  0.88812997  0.80638801  0.41735206  1
  Ba  Ba3  1  0.09829199  0.21554300  0.58787299  1
  Ba  Ba4  1  0.60004099  0.20280000  0.59711802  1
  S  S5  1  0.79348097  0.60323501  0.80980304  1
  S  S6  1  0.99167599  0.01021300  0.00643506  1
  S  S7  1  0.20471199  0.39446401  0.19611202  1
  S  S8  1  0.40529797  0.80297101  0.38643304  1
