# generated using pymatgen
data_BaO7
_symmetry_space_group_name_H-M   'P 1'
_cell_length_a   3.56052995
_cell_length_b   6.50055933
_cell_length_c   6.75842142
_cell_angle_alpha   98.11290741
_cell_angle_beta   105.27275085
_cell_angle_gamma   90.00000000
_symmetry_Int_Tables_number   1
_chemical_formula_structural   BaO7
_chemical_formula_sum   'Ba1 O7'
_cell_volume   149.27860114
_cell_formula_units_Z   1
loop_
 _symmetry_equiv_pos_site_id
 _symmetry_equiv_pos_as_xyz
  1  'x, y, z'
loop_
 _atom_site_type_symbol
 _atom_site_label
 _atom_site_symmetry_multiplicity
 _atom_site_fract_x
 _atom_site_fract_y
 _atom_site_fract_z
 _atom_site_occupancy
  O  O0  1  0.25032000  0.19532700  0.50064001  1
  O  O1  1  0.74968002  0.80467302  0.49936004  1
  O  O2  1  0.50000000  0.00000000  -0.00000001  1
  O  O3  1  0.00000001  0.50000001  0.00000002  1
  O  O4  1  0.08764000  0.17037900  0.17528001  1
  O  O5  1  0.58760402  0.73793702  0.17520803  1
  O  O6  1  0.41239601  0.26206301  0.82479202  1
  Ba  Ba7  1  0.91236002  0.82962102  0.82472004  1
