# generated using pymatgen
data_In2Se
_symmetry_space_group_name_H-M   'P 1'
_cell_length_a   4.36584377
_cell_length_b   4.36584425
_cell_length_c   17.83034515
_cell_angle_alpha   90.00000000
_cell_angle_beta   90.00000000
_cell_angle_gamma   120.00000000
_symmetry_Int_Tables_number   1
_chemical_formula_structural   In2Se
_chemical_formula_sum   'In6 Se3'
_cell_volume   294.32476848
_cell_formula_units_Z   3
loop_
 _symmetry_equiv_pos_site_id
 _symmetry_equiv_pos_as_xyz
  1  'x, y, z'
loop_
 _atom_site_type_symbol
 _atom_site_label
 _atom_site_symmetry_multiplicity
 _atom_site_fract_x
 _atom_site_fract_y
 _atom_site_fract_z
 _atom_site_occupancy
  In  In0  1  0.00000000  0.00000000  0.34804902  1
  Se  Se1  1  0.00000000  0.00000000  0.65195103  1
  In  In2  1  0.33333337  0.66666666  0.56550203  1
  Se  Se3  1  0.66666671  0.33333333  0.11057101  1
  Se  Se4  1  0.33333337  0.66666666  0.88942904  1
  In  In5  1  0.66666671  0.33333333  0.43449802  1
  In  In6  1  0.00000000  0.00000000  0.00000000  1
  In  In7  1  0.33333337  0.66666666  0.20597301  1
  In  In8  1  0.66666671  0.33333333  0.79402704  1
