# generated using pymatgen
data_Li2O2
_symmetry_space_group_name_H-M   'P 1'
_cell_length_a   5.69576979
_cell_length_b   6.16911745
_cell_length_c   6.16911745
_cell_angle_alpha   66.99970245
_cell_angle_beta   62.50729370
_cell_angle_gamma   62.50729370
_symmetry_Int_Tables_number   1
_chemical_formula_structural   Li2O2
_chemical_formula_sum   'Li6 O6'
_cell_volume   166.17171924
_cell_formula_units_Z   3
loop_
 _symmetry_equiv_pos_site_id
 _symmetry_equiv_pos_as_xyz
  1  'x, y, z'
loop_
 _atom_site_type_symbol
 _atom_site_label
 _atom_site_symmetry_multiplicity
 _atom_site_fract_x
 _atom_site_fract_y
 _atom_site_fract_z
 _atom_site_occupancy
  Li  Li0  1  0.00000004  1.00000005  0.49999995  1
  Li  Li1  1  0.50000006  1.00000005  0.49999995  1
  Li  Li2  1  0.00000002  0.50000002  0.49999998  1
  Li  Li3  1  0.00000000  0.00000000  0.00000000  1
  O  O4  1  0.27596602  0.22429301  0.72429301  1
  O  O5  1  0.75183806  0.80950604  0.68681798  1
  O  O6  1  0.24816304  0.81318204  0.69049297  1
  Li  Li7  1  0.22455204  0.77570704  0.27570696  1
  Li  Li8  1  0.77544803  0.22429301  0.72429302  1
  O  O9  1  0.75183703  0.18681801  0.30950701  1
  O  O10  1  0.24816202  0.19049401  0.31318200  1
  O  O11  1  0.72403405  0.77570704  0.27570696  1
