# generated using pymatgen
data_Zn
_symmetry_space_group_name_H-M   'P 1'
_cell_length_a   5.04770803
_cell_length_b   6.31479979
_cell_length_c   6.31479979
_cell_angle_alpha   120.00000000
_cell_angle_beta   90.00000000
_cell_angle_gamma   90.00000000
_symmetry_Int_Tables_number   1
_chemical_formula_structural   Zn
_chemical_formula_sum   Zn8
_cell_volume   174.31872055
_cell_formula_units_Z   8
loop_
 _symmetry_equiv_pos_site_id
 _symmetry_equiv_pos_as_xyz
  1  'x, y, z'
loop_
 _atom_site_type_symbol
 _atom_site_label
 _atom_site_symmetry_multiplicity
 _atom_site_fract_x
 _atom_site_fract_y
 _atom_site_fract_z
 _atom_site_occupancy
  Zn  Zn0  1  0.25000000  0.17140100  0.34280200  1
  Zn  Zn1  1  0.25000000  0.65719702  0.82859799  1
  Zn  Zn2  1  0.25000000  0.17140100  0.82859800  1
  Zn  Zn3  1  0.74999999  0.82859902  0.65719799  1
  Zn  Zn4  1  0.74999999  0.34280301  0.17140199  1
  Zn  Zn5  1  0.74999999  0.82859902  0.17140198  1
  Zn  Zn6  1  0.74999999  0.33333334  0.66666666  1
  Zn  Zn7  1  0.25000000  0.66666668  0.33333332  1
