# generated using pymatgen
data_ZnS4
_symmetry_space_group_name_H-M   'P 1'
_cell_length_a   5.59127378
_cell_length_b   5.59127378
_cell_length_c   5.59127474
_cell_angle_alpha   60.94953537
_cell_angle_beta   60.94953537
_cell_angle_gamma   60.94953156
_symmetry_Int_Tables_number   1
_chemical_formula_structural   ZnS4
_chemical_formula_sum   'Zn2 S8'
_cell_volume   126.24414997
_cell_formula_units_Z   2
loop_
 _symmetry_equiv_pos_site_id
 _symmetry_equiv_pos_as_xyz
  1  'x, y, z'
loop_
 _atom_site_type_symbol
 _atom_site_label
 _atom_site_symmetry_multiplicity
 _atom_site_fract_x
 _atom_site_fract_y
 _atom_site_fract_z
 _atom_site_occupancy
  Zn  Zn0  1  0.24986001  0.24986001  0.24985999  1
  Zn  Zn1  1  0.75014002  0.75014003  0.75013996  1
  S  S2  1  0.00000000  0.00000000  0.00000000  1
  S  S3  1  0.50000002  0.50000002  0.49999997  1
  S  S4  1  0.67885102  0.23692701  0.83930197  1
  S  S5  1  0.23692701  0.83930203  0.67885097  1
  S  S6  1  0.83930203  0.67885102  0.23692697  1
  S  S7  1  0.32114901  0.76307303  0.16069798  1
  S  S8  1  0.16069800  0.32114901  0.76307298  1
  S  S9  1  0.76307303  0.16069801  0.32114898  1
