# generated using pymatgen
data_TiO
_symmetry_space_group_name_H-M   'P 1'
_cell_length_a   2.73552608
_cell_length_b   5.20986366
_cell_length_c   6.62783337
_cell_angle_alpha   76.18064117
_cell_angle_beta   78.09049225
_cell_angle_gamma   74.77956390
_symmetry_Int_Tables_number   1
_chemical_formula_structural   TiO
_chemical_formula_sum   'Ti4 O4'
_cell_volume   87.45997658
_cell_formula_units_Z   4
loop_
 _symmetry_equiv_pos_site_id
 _symmetry_equiv_pos_as_xyz
  1  'x, y, z'
loop_
 _atom_site_type_symbol
 _atom_site_label
 _atom_site_symmetry_multiplicity
 _atom_site_fract_x
 _atom_site_fract_y
 _atom_site_fract_z
 _atom_site_occupancy
  Ti  Ti0  1  0.34156399  0.42815302  0.88871901  1
  Ti  Ti1  1  0.05549300  0.46741902  0.42159500  1
  Ti  Ti2  1  0.86397898  0.00884000  0.26320200  1
  Ti  Ti3  1  0.15655500  0.95508704  0.73180299  1
  O  O4  1  0.73681698  0.71310803  0.81325799  1
  O  O5  1  0.56491199  0.20836201  0.66181401  1
  O  O6  1  0.43483499  0.77130503  0.35902498  1
  O  O7  1  0.28084399  0.25382801  0.18448399  1
