# generated using pymatgen
data_BaF9
_symmetry_space_group_name_H-M   'P 1'
_cell_length_a   5.09104395
_cell_length_b   5.09104395
_cell_length_c   6.36716270
_cell_angle_alpha   66.43502045
_cell_angle_beta   66.43502045
_cell_angle_gamma   60.00000381
_symmetry_Int_Tables_number   1
_chemical_formula_structural   BaF9
_chemical_formula_sum   'Ba1 F9'
_cell_volume   126.77914060
_cell_formula_units_Z   1
loop_
 _symmetry_equiv_pos_site_id
 _symmetry_equiv_pos_as_xyz
  1  'x, y, z'
loop_
 _atom_site_type_symbol
 _atom_site_label
 _atom_site_symmetry_multiplicity
 _atom_site_fract_x
 _atom_site_fract_y
 _atom_site_fract_z
 _atom_site_occupancy
  Ba  Ba0  1  0.00000000  0.00000000  0.00000000  1
  F  F1  1  0.49999998  0.49999998  0.50000004  1
  F  F2  1  0.76000297  0.76000296  0.71999106  1
  F  F3  1  0.23999699  0.23999699  0.28000902  1
  F  F4  1  0.05157200  0.61081897  0.72679003  1
  F  F5  1  0.61081897  0.05157200  0.72679003  1
  F  F6  1  0.38918098  0.38918098  0.27321003  1
  F  F7  1  0.94842796  0.38918098  0.27321004  1
  F  F8  1  0.38918099  0.94842796  0.27321004  1
  F  F9  1  0.61081898  0.61081897  0.72679005  1
