# generated using pymatgen
data_Cs4Se
_symmetry_space_group_name_H-M   'P 1'
_cell_length_a   8.82457542
_cell_length_b   8.82457542
_cell_length_c   8.82457542
_cell_angle_alpha   60.00000000
_cell_angle_beta   60.00000000
_cell_angle_gamma   60.00000000
_symmetry_Int_Tables_number   1
_chemical_formula_structural   Cs4Se
_chemical_formula_sum   'Cs8 Se2'
_cell_volume   485.92188619
_cell_formula_units_Z   2
loop_
 _symmetry_equiv_pos_site_id
 _symmetry_equiv_pos_as_xyz
  1  'x, y, z'
loop_
 _atom_site_type_symbol
 _atom_site_label
 _atom_site_symmetry_multiplicity
 _atom_site_fract_x
 _atom_site_fract_y
 _atom_site_fract_z
 _atom_site_occupancy
  Cs  Cs0  1  0.25000000  0.25000000  0.25000000  1
  Cs  Cs1  1  0.74999999  0.74999999  0.74999999  1
  Se  Se2  1  0.49999999  0.49999999  0.49999999  1
  Se  Se3  1  0.00000000  0.00000000  0.00000000  1
  Cs  Cs4  1  0.24355400  0.75644599  0.24355400  1
  Cs  Cs5  1  0.24355400  0.24355400  0.75644599  1
  Cs  Cs6  1  0.75644599  0.24355400  0.75644599  1
  Cs  Cs7  1  0.24355400  0.75644599  0.75644599  1
  Cs  Cs8  1  0.75644599  0.24355400  0.24355400  1
  Cs  Cs9  1  0.75644599  0.75644599  0.24355400  1
