# generated using pymatgen
data_Ba3MgC6
_symmetry_space_group_name_H-M   'P 1'
_cell_length_a   3.90086389
_cell_length_b   7.71043205
_cell_length_c   8.68143940
_cell_angle_alpha   90.00000000
_cell_angle_beta   90.00000000
_cell_angle_gamma   90.00000000
_symmetry_Int_Tables_number   1
_chemical_formula_structural   Ba3MgC6
_chemical_formula_sum   'Ba3 Mg1 C6'
_cell_volume   261.11465607
_cell_formula_units_Z   1
loop_
 _symmetry_equiv_pos_site_id
 _symmetry_equiv_pos_as_xyz
  1  'x, y, z'
loop_
 _atom_site_type_symbol
 _atom_site_label
 _atom_site_symmetry_multiplicity
 _atom_site_fract_x
 _atom_site_fract_y
 _atom_site_fract_z
 _atom_site_occupancy
  Ba  Ba0  1  0.95262203  0.01785000  -0.00000000  1
  C  C1  1  0.04737800  0.51785000  -0.00000000  1
  Ba  Ba2  1  0.00829700  0.04325400  0.28381999  1
  Ba  Ba3  1  0.00829700  0.04325400  0.71617997  1
  C  C4  1  0.99170303  0.54325400  0.28381999  1
  C  C5  1  0.99170303  0.54325400  0.71617997  1
  C  C6  1  0.49404701  0.03402600  0.00000000  1
  C  C7  1  0.00368700  0.28449600  -0.00000000  1
  C  C8  1  0.50595301  0.53402600  0.00000000  1
  Mg  Mg9  1  0.99631303  0.78449599  -0.00000000  1
