# generated using pymatgen
data_S
_symmetry_space_group_name_H-M   'P 1'
_cell_length_a   5.59131813
_cell_length_b   5.59131813
_cell_length_c   6.85117006
_cell_angle_alpha   114.08275604
_cell_angle_beta   114.08275604
_cell_angle_gamma   90.00000000
_symmetry_Int_Tables_number   1
_chemical_formula_structural   S
_chemical_formula_sum   S8
_cell_volume   174.92420504
_cell_formula_units_Z   8
loop_
 _symmetry_equiv_pos_site_id
 _symmetry_equiv_pos_as_xyz
  1  'x, y, z'
loop_
 _atom_site_type_symbol
 _atom_site_label
 _atom_site_symmetry_multiplicity
 _atom_site_fract_x
 _atom_site_fract_y
 _atom_site_fract_z
 _atom_site_occupancy
  S  S0  1  0.00000000  0.00000000  0.00000000  1
  S  S1  1  0.25000001  0.74999999  0.50000002  1
  S  S2  1  0.74999999  0.25000000  0.50000002  1
  S  S3  1  0.50000000  0.49999999  0.00000002  1
  S  S4  1  0.86181399  0.38924200  0.25105602  1
  S  S5  1  0.38924201  0.86181399  0.25105603  1
  S  S6  1  0.61075800  0.61075799  0.74894403  1
  S  S7  1  0.13818600  0.13818600  0.74894401  1
