# generated using pymatgen
data_O2
_symmetry_space_group_name_H-M   'P 1'
_cell_length_a   5.01338911
_cell_length_b   5.51733971
_cell_length_c   6.71567774
_cell_angle_alpha   102.72457886
_cell_angle_beta   90.07620239
_cell_angle_gamma   116.84986877
_symmetry_Int_Tables_number   1
_chemical_formula_structural   O2
_chemical_formula_sum   O14
_cell_volume   160.57459423
_cell_formula_units_Z   7
loop_
 _symmetry_equiv_pos_site_id
 _symmetry_equiv_pos_as_xyz
  1  'x, y, z'
loop_
 _atom_site_type_symbol
 _atom_site_label
 _atom_site_symmetry_multiplicity
 _atom_site_fract_x
 _atom_site_fract_y
 _atom_site_fract_z
 _atom_site_occupancy
  O  O0  1  0.06359300  0.00297800  0.49794199  1
  O  O1  1  0.03310500  0.00016700  0.00461700  1
  O  O2  1  0.35512096  0.71431096  0.27095495  1
  O  O3  1  0.64026397  0.28664499  0.72562296  1
  O  O4  1  0.31387596  0.64664197  0.76785495  1
  O  O5  1  0.67142197  0.35642198  0.22825896  1
  O  O6  1  0.75334895  0.67257297  0.31984194  1
  O  O7  1  0.30331796  0.83194896  0.62236294  1
  O  O8  1  0.21423496  0.73173096  0.97808694  1
  O  O9  1  0.63867495  0.68395797  0.78761793  1
  O  O10  1  0.95760896  0.31646098  0.20951995  1
  O  O11  1  0.48496798  0.27013699  0.01837097  1
  O  O12  1  0.47497498  0.17296799  0.37373697  1
  O  O13  1  0.07898798  0.33220898  0.67386097  1
