# generated using pymatgen
data_Li2O2
_symmetry_space_group_name_H-M   'P 1'
_cell_length_a   2.89996791
_cell_length_b   2.89996815
_cell_length_c   14.30778503
_cell_angle_alpha   90.00000000
_cell_angle_beta   90.00000000
_cell_angle_gamma   120.00000000
_symmetry_Int_Tables_number   1
_chemical_formula_structural   Li2O2
_chemical_formula_sum   'Li6 O6'
_cell_volume   104.20521595
_cell_formula_units_Z   3
loop_
 _symmetry_equiv_pos_site_id
 _symmetry_equiv_pos_as_xyz
  1  'x, y, z'
loop_
 _atom_site_type_symbol
 _atom_site_label
 _atom_site_symmetry_multiplicity
 _atom_site_fract_x
 _atom_site_fract_y
 _atom_site_fract_z
 _atom_site_occupancy
  O  O0  1  0.66666669  0.33333332  0.33333333  1
  O  O1  1  0.66666669  0.33333332  0.83333600  1
  O  O2  1  0.33333335  0.66666664  0.66941800  1
  O  O3  1  0.00000000  0.00000000  0.99721800  1
  O  O4  1  0.33333335  0.66666664  0.16629200  1
  O  O5  1  0.00000000  0.00000000  0.50037000  1
  Li  Li6  1  0.66666669  0.33333332  0.09097900  1
  Li  Li7  1  0.33333335  0.66666664  0.42378900  1
  Li  Li8  1  0.66666669  0.33333332  0.57571600  1
  Li  Li9  1  0.00000000  0.00000000  0.24286200  1
  Li  Li10  1  0.33333335  0.66666664  0.91561300  1
  Li  Li11  1  0.00000000  0.00000000  0.75105600  1
