# generated using pymatgen
data_S11O
_symmetry_space_group_name_H-M   'P 1'
_cell_length_a   5.92934799
_cell_length_b   5.92934799
_cell_length_c   10.87135410
_cell_angle_alpha   90.00000000
_cell_angle_beta   90.00000000
_cell_angle_gamma   90.00000000
_symmetry_Int_Tables_number   1
_chemical_formula_structural   S11O
_chemical_formula_sum   'S11 O1'
_cell_volume   382.20601835
_cell_formula_units_Z   1
loop_
 _symmetry_equiv_pos_site_id
 _symmetry_equiv_pos_as_xyz
  1  'x, y, z'
loop_
 _atom_site_type_symbol
 _atom_site_label
 _atom_site_symmetry_multiplicity
 _atom_site_fract_x
 _atom_site_fract_y
 _atom_site_fract_z
 _atom_site_occupancy
  S  S0  1  0.00000000  0.50000000  0.25000000  1
  S  S1  1  0.50000000  0.00000000  0.74999999  1
  S  S2  1  0.00000000  0.00000000  0.00000000  1
  S  S3  1  0.00000000  0.00000000  0.50000000  1
  O  O4  1  0.22852100  0.26451800  0.12351400  1
  S  S5  1  0.77147900  0.73548300  0.12351400  1
  S  S6  1  0.26451800  0.77147900  0.87648599  1
  S  S7  1  0.77147900  0.26451800  0.37648600  1
  S  S8  1  0.73548300  0.22852100  0.87648599  1
  S  S9  1  0.22852100  0.73548300  0.37648600  1
  S  S10  1  0.73548300  0.77147900  0.62351399  1
  S  S11  1  0.26451800  0.22852100  0.62351399  1
