# generated using pymatgen
data_Ti
_symmetry_space_group_name_H-M   'P 1'
_cell_length_a   4.20427799
_cell_length_b   4.20427799
_cell_length_c   8.48690033
_cell_angle_alpha   90.00000000
_cell_angle_beta   90.00000000
_cell_angle_gamma   90.00000000
_symmetry_Int_Tables_number   1
_chemical_formula_structural   Ti
_chemical_formula_sum   Ti8
_cell_volume   150.01405504
_cell_formula_units_Z   8
loop_
 _symmetry_equiv_pos_site_id
 _symmetry_equiv_pos_as_xyz
  1  'x, y, z'
loop_
 _atom_site_type_symbol
 _atom_site_label
 _atom_site_symmetry_multiplicity
 _atom_site_fract_x
 _atom_site_fract_y
 _atom_site_fract_z
 _atom_site_occupancy
  Ti  Ti0  1  0.00000000  0.50000000  0.15258299  1
  Ti  Ti1  1  0.50000000  0.00000000  0.84741697  1
  Ti  Ti2  1  0.50000000  0.00000000  0.41286198  1
  Ti  Ti3  1  0.00000000  0.50000000  0.58713798  1
  Ti  Ti4  1  0.00000000  0.50000000  0.82451197  1
  Ti  Ti5  1  0.50000000  0.00000000  0.17548799  1
  Ti  Ti6  1  0.00000000  0.00000000  0.49999998  1
  Ti  Ti7  1  0.50000000  0.50000000  0.49999998  1
