# generated using pymatgen
data_Ti3O7
_symmetry_space_group_name_H-M   'P 1'
_cell_length_a   5.19779825
_cell_length_b   5.19779825
_cell_length_c   5.67939281
_cell_angle_alpha   62.76755142
_cell_angle_beta   62.76755142
_cell_angle_gamma   59.99999619
_symmetry_Int_Tables_number   1
_chemical_formula_structural   Ti3O7
_chemical_formula_sum   'Ti3 O7'
_cell_volume   112.81817713
_cell_formula_units_Z   1
loop_
 _symmetry_equiv_pos_site_id
 _symmetry_equiv_pos_as_xyz
  1  'x, y, z'
loop_
 _atom_site_type_symbol
 _atom_site_label
 _atom_site_symmetry_multiplicity
 _atom_site_fract_x
 _atom_site_fract_y
 _atom_site_fract_z
 _atom_site_occupancy
  O  O0  1  0.92694998  0.57305000  0.25000004  1
  O  O1  1  0.57304999  0.25000000  0.25000003  1
  O  O2  1  0.24999997  0.92695000  0.25000004  1
  O  O3  1  0.74999999  0.07305000  0.75000003  1
  O  O4  1  0.42694998  0.75000000  0.75000005  1
  O  O5  1  0.07304999  0.42695000  0.75000003  1
  Ti  Ti6  1  0.84059497  0.84059500  0.47821505  1
  Ti  Ti7  1  0.65940498  0.65940500  0.02178504  1
  O  O8  1  0.34059499  0.34059500  0.97821503  1
  Ti  Ti9  1  0.15940499  0.15940500  0.52178502  1
