# generated using pymatgen
data_KS6
_symmetry_space_group_name_H-M   'P 1'
_cell_length_a   5.97852421
_cell_length_b   5.97852421
_cell_length_c   5.97852468
_cell_angle_alpha   61.79943085
_cell_angle_beta   61.79943085
_cell_angle_gamma   61.79942703
_symmetry_Int_Tables_number   1
_chemical_formula_structural   KS6
_chemical_formula_sum   'K1 S6'
_cell_volume   157.19131609
_cell_formula_units_Z   1
loop_
 _symmetry_equiv_pos_site_id
 _symmetry_equiv_pos_as_xyz
  1  'x, y, z'
loop_
 _atom_site_type_symbol
 _atom_site_label
 _atom_site_symmetry_multiplicity
 _atom_site_fract_x
 _atom_site_fract_y
 _atom_site_fract_z
 _atom_site_occupancy
  K  K0  1  0.50000001  0.49999998  0.49999997  1
  S  S1  1  0.00000000  0.00000000  0.00000000  1
  S  S2  1  0.75911801  0.75911797  0.75911795  1
  S  S3  1  0.24088200  0.24088199  0.24088198  1
  S  S4  1  0.00000002  0.49999998  -0.00000002  1
  S  S5  1  0.00000000  0.00000000  0.50000000  1
  S  S6  1  0.49999999  0.00000000  -0.00000001  1
