# generated using pymatgen
data_Yb
_symmetry_space_group_name_H-M   'P 1'
_cell_length_a   3.77360392
_cell_length_b   6.34586287
_cell_length_c   6.66700029
_cell_angle_alpha   109.66093445
_cell_angle_beta   90.00000000
_cell_angle_gamma   107.29718018
_symmetry_Int_Tables_number   1
_chemical_formula_structural   Yb
_chemical_formula_sum   Yb6
_cell_volume   142.65482484
_cell_formula_units_Z   6
loop_
 _symmetry_equiv_pos_site_id
 _symmetry_equiv_pos_as_xyz
  1  'x, y, z'
loop_
 _atom_site_type_symbol
 _atom_site_label
 _atom_site_symmetry_multiplicity
 _atom_site_fract_x
 _atom_site_fract_y
 _atom_site_fract_z
 _atom_site_occupancy
  Yb  Yb0  1  0.83606502  0.67213000  0.91024100  1
  Yb  Yb1  1  0.16393500  0.32787000  0.08975900  1
  Yb  Yb2  1  0.50327801  0.00655600  0.23509400  1
  Yb  Yb3  1  0.49672201  0.99344400  0.76490599  1
  Yb  Yb4  1  0.15686100  0.31372200  0.60847400  1
  Yb  Yb5  1  0.84313902  0.68627800  0.39152599  1
