# generated using pymatgen
data_Zn
_symmetry_space_group_name_H-M   'P 1'
_cell_length_a   3.70805979
_cell_length_b   3.70805979
_cell_length_c   13.15808582
_cell_angle_alpha   90.00000000
_cell_angle_beta   90.00000000
_cell_angle_gamma   120.00000000
_symmetry_Int_Tables_number   1
_chemical_formula_structural   Zn
_chemical_formula_sum   Zn6
_cell_volume   156.68116872
_cell_formula_units_Z   6
loop_
 _symmetry_equiv_pos_site_id
 _symmetry_equiv_pos_as_xyz
  1  'x, y, z'
loop_
 _atom_site_type_symbol
 _atom_site_label
 _atom_site_symmetry_multiplicity
 _atom_site_fract_x
 _atom_site_fract_y
 _atom_site_fract_z
 _atom_site_occupancy
  Zn  Zn0  1  0.33333337  0.66666670  0.16666600  1
  Zn  Zn1  1  0.33333337  0.66666670  0.84033301  1
  Zn  Zn2  1  0.00000000  0.00000000  0.66666668  1
  Zn  Zn3  1  0.33333337  0.66666670  0.49300001  1
  Zn  Zn4  1  0.00000000  0.00000000  0.31814700  1
  Zn  Zn5  1  0.00000000  0.00000000  0.01518700  1
