# generated using pymatgen
data_BaYb8
_symmetry_space_group_name_H-M   'P 1'
_cell_length_a   4.16539288
_cell_length_b   7.70633411
_cell_length_c   7.70633316
_cell_angle_alpha   120.00000000
_cell_angle_beta   90.00000000
_cell_angle_gamma   90.00000000
_symmetry_Int_Tables_number   1
_chemical_formula_structural   BaYb8
_chemical_formula_sum   'Ba1 Yb8'
_cell_volume   214.23095133
_cell_formula_units_Z   1
loop_
 _symmetry_equiv_pos_site_id
 _symmetry_equiv_pos_as_xyz
  1  'x, y, z'
loop_
 _atom_site_type_symbol
 _atom_site_label
 _atom_site_symmetry_multiplicity
 _atom_site_fract_x
 _atom_site_fract_y
 _atom_site_fract_z
 _atom_site_occupancy
  Yb  Yb0  1  0.00000000  0.41325098  0.41325097  1
  Yb  Yb1  1  1.00000003  0.99999995  0.58674892  1
  Yb  Yb2  1  0.00000000  0.58674897  -0.00000004  1
  Ba  Ba3  1  0.50000001  0.76104196  0.76104194  1
  Yb  Yb4  1  0.50000001  0.99999995  0.23895792  1
  Yb  Yb5  1  0.50000001  0.23895799  -0.00000002  1
  Yb  Yb6  1  0.50000001  0.66666663  0.33333328  1
  Yb  Yb7  1  0.50000001  0.33333332  0.66666664  1
  Yb  Yb8  1  0.00000000  0.00000000  0.00000000  1
