# generated using pymatgen
data_LaMg5
_symmetry_space_group_name_H-M   'P 1'
_cell_length_a   3.20304608
_cell_length_b   5.88579178
_cell_length_c   7.37704897
_cell_angle_alpha   104.70114899
_cell_angle_beta   90.00000000
_cell_angle_gamma   105.78926086
_symmetry_Int_Tables_number   1
_chemical_formula_structural   LaMg5
_chemical_formula_sum   'La1 Mg5'
_cell_volume   129.09017400
_cell_formula_units_Z   1
loop_
 _symmetry_equiv_pos_site_id
 _symmetry_equiv_pos_as_xyz
  1  'x, y, z'
loop_
 _atom_site_type_symbol
 _atom_site_label
 _atom_site_symmetry_multiplicity
 _atom_site_fract_x
 _atom_site_fract_y
 _atom_site_fract_z
 _atom_site_occupancy
  Mg  Mg0  1  0.47226907  0.94453799  0.19527499  1
  La  La1  1  0.52773099  0.05546200  0.80472502  1
  Mg  Mg2  1  0.19175103  0.38350200  0.13560800  1
  Mg  Mg3  1  0.86130704  0.72261399  0.47113200  1
  Mg  Mg4  1  0.13869302  0.27738600  0.52886801  1
  Mg  Mg5  1  0.80824903  0.61649799  0.86439202  1
