# generated using pymatgen
data_Sm2O2F
_symmetry_space_group_name_H-M   'P 1'
_cell_length_a   4.08535814
_cell_length_b   4.08535814
_cell_length_c   7.70477104
_cell_angle_alpha   105.37400818
_cell_angle_beta   105.37400818
_cell_angle_gamma   90.00000000
_symmetry_Int_Tables_number   1
_chemical_formula_structural   Sm2O2F
_chemical_formula_sum   'Sm2 O2 F1'
_cell_volume   119.21304323
_cell_formula_units_Z   1
loop_
 _symmetry_equiv_pos_site_id
 _symmetry_equiv_pos_as_xyz
  1  'x, y, z'
loop_
 _atom_site_type_symbol
 _atom_site_label
 _atom_site_symmetry_multiplicity
 _atom_site_fract_x
 _atom_site_fract_y
 _atom_site_fract_z
 _atom_site_occupancy
  F  F0  1  0.00000000  0.00000000  0.00000000  1
  O  O1  1  0.25000000  0.74999998  0.50000000  1
  O  O2  1  0.74999998  0.24999999  0.50000000  1
  Sm  Sm3  1  0.65820499  0.65820498  0.31641001  1
  Sm  Sm4  1  0.34179499  0.34179499  0.68359000  1
