# generated using pymatgen
data_Ba4S
_symmetry_space_group_name_H-M   'P 1'
_cell_length_a   4.03152800
_cell_length_b   6.88943958
_cell_length_c   6.88943958
_cell_angle_alpha   70.69907379
_cell_angle_beta   72.98706818
_cell_angle_gamma   72.98706818
_symmetry_Int_Tables_number   1
_chemical_formula_structural   Ba4S
_chemical_formula_sum   'Ba4 S1'
_cell_volume   168.57913451
_cell_formula_units_Z   1
loop_
 _symmetry_equiv_pos_site_id
 _symmetry_equiv_pos_as_xyz
  1  'x, y, z'
loop_
 _atom_site_type_symbol
 _atom_site_label
 _atom_site_symmetry_multiplicity
 _atom_site_fract_x
 _atom_site_fract_y
 _atom_site_fract_z
 _atom_site_occupancy
  S  S0  1  0.79307897  0.70692101  0.70692101  1
  Ba  Ba1  1  0.20692099  0.29307900  0.29307901  1
  Ba  Ba2  1  0.49999997  0.77965301  0.22034702  1
  Ba  Ba3  1  0.49999999  0.22034700  0.77965301  1
  Ba  Ba4  1  0.00000000  0.00000000  0.00000000  1
