# generated using pymatgen
data_Ba3LaF6
_symmetry_space_group_name_H-M   'P 1'
_cell_length_a   5.99576664
_cell_length_b   5.99576664
_cell_length_c   5.99576664
_cell_angle_alpha   60.00000000
_cell_angle_beta   60.00000000
_cell_angle_gamma   60.00000000
_symmetry_Int_Tables_number   1
_chemical_formula_structural   Ba3LaF6
_chemical_formula_sum   'Ba3 La1 F6'
_cell_volume   152.41200151
_cell_formula_units_Z   1
loop_
 _symmetry_equiv_pos_site_id
 _symmetry_equiv_pos_as_xyz
  1  'x, y, z'
loop_
 _atom_site_type_symbol
 _atom_site_label
 _atom_site_symmetry_multiplicity
 _atom_site_fract_x
 _atom_site_fract_y
 _atom_site_fract_z
 _atom_site_occupancy
  Ba  Ba0  1  0.25000000  0.25000000  0.25000000  1
  Ba  Ba1  1  0.75000000  0.75000000  0.75000000  1
  Ba  Ba2  1  0.50000000  0.50000000  0.50000000  1
  La  La3  1  0.00000000  0.00000000  0.00000000  1
  F  F4  1  0.23657602  0.76342398  0.23657602  1
  F  F5  1  0.76342398  0.23657602  0.76342398  1
  F  F6  1  0.76342398  0.23657602  0.23657602  1
  F  F7  1  0.23657602  0.76342398  0.76342398  1
  F  F8  1  0.76342398  0.76342398  0.23657602  1
  F  F9  1  0.23657602  0.23657602  0.76342398  1
