# generated using pymatgen
data_BaAuO4
_symmetry_space_group_name_H-M   'P 1'
_cell_length_a   6.00179386
_cell_length_b   6.00179386
_cell_length_c   8.16538620
_cell_angle_alpha   90.00000000
_cell_angle_beta   90.00000000
_cell_angle_gamma   120.00000000
_symmetry_Int_Tables_number   1
_chemical_formula_structural   BaAuO4
_chemical_formula_sum   'Ba2 Au2 O8'
_cell_volume   254.72379249
_cell_formula_units_Z   2
loop_
 _symmetry_equiv_pos_site_id
 _symmetry_equiv_pos_as_xyz
  1  'x, y, z'
loop_
 _atom_site_type_symbol
 _atom_site_label
 _atom_site_symmetry_multiplicity
 _atom_site_fract_x
 _atom_site_fract_y
 _atom_site_fract_z
 _atom_site_occupancy
  Ba  Ba0  1  0.00000000  0.00000000  0.00000000  1
  Ba  Ba1  1  0.00000000  0.00000000  0.49999999  1
  Au  Au2  1  0.66666668  0.33333334  0.73399898  1
  Au  Au3  1  0.33333334  0.66666667  0.26600099  1
  O  O4  1  0.83175101  0.66350201  0.66332198  1
  O  O5  1  0.16824900  0.33649800  0.33667799  1
  O  O6  1  0.83175102  0.16824900  0.66332198  1
  O  O7  1  0.16824900  0.83175101  0.33667799  1
  O  O8  1  0.33649801  0.16824900  0.66332198  1
  O  O9  1  0.66350201  0.83175101  0.33667799  1
  O  O10  1  0.66666668  0.33333334  0.94896798  1
  O  O11  1  0.33333334  0.66666667  0.05103200  1
