# generated using pymatgen
data_TmSn
_symmetry_space_group_name_H-M   'P 1'
_cell_length_a   4.25891590
_cell_length_b   4.25891542
_cell_length_c   7.16218185
_cell_angle_alpha   90.00000000
_cell_angle_beta   90.00000000
_cell_angle_gamma   120.00000000
_symmetry_Int_Tables_number   1
_chemical_formula_structural   TmSn
_chemical_formula_sum   'Tm3 Sn3'
_cell_volume   112.50557813
_cell_formula_units_Z   3
loop_
 _symmetry_equiv_pos_site_id
 _symmetry_equiv_pos_as_xyz
  1  'x, y, z'
loop_
 _atom_site_type_symbol
 _atom_site_label
 _atom_site_symmetry_multiplicity
 _atom_site_fract_x
 _atom_site_fract_y
 _atom_site_fract_z
 _atom_site_occupancy
  Tm  Tm0  1  0.00000000  0.00000000  0.24952601  1
  Sn  Sn1  1  0.00000000  0.00000000  0.74952602  1
  Tm  Tm2  1  0.33333330  0.66666668  0.46403701  1
  Sn  Sn3  1  0.66666666  0.33333334  0.96403702  1
  Sn  Sn4  1  0.66666666  0.33333334  0.52573601  1
  Tm  Tm5  1  0.33333330  0.66666668  0.02573600  1
