# generated using pymatgen
data_Rh8O
_symmetry_space_group_name_H-M   'P 1'
_cell_length_a   4.88753319
_cell_length_b   5.97272587
_cell_length_c   5.97272635
_cell_angle_alpha   120.00000000
_cell_angle_beta   90.00000000
_cell_angle_gamma   90.00000000
_symmetry_Int_Tables_number   1
_chemical_formula_structural   Rh8O
_chemical_formula_sum   'Rh8 O1'
_cell_volume   150.99603744
_cell_formula_units_Z   1
loop_
 _symmetry_equiv_pos_site_id
 _symmetry_equiv_pos_as_xyz
  1  'x, y, z'
loop_
 _atom_site_type_symbol
 _atom_site_label
 _atom_site_symmetry_multiplicity
 _atom_site_fract_x
 _atom_site_fract_y
 _atom_site_fract_z
 _atom_site_occupancy
  Rh  Rh0  1  0.67993297  0.33333335  0.66666670  1
  Rh  Rh1  1  0.32006699  0.66666670  0.33333338  1
  O  O2  1  0.00000000  0.00000000  0.00000000  1
  Rh  Rh3  1  0.77398697  0.32379902  0.16189902  1
  Rh  Rh4  1  0.22601299  0.67620103  0.83810106  1
  Rh  Rh5  1  0.77398697  0.83810004  0.67620006  1
  Rh  Rh6  1  0.22601299  0.16190001  0.32380002  1
  Rh  Rh7  1  0.77398697  0.83810004  0.16189905  1
  Rh  Rh8  1  0.22601299  0.16190001  0.83810103  1
