# generated using pymatgen
data_YbPb5I8
_symmetry_space_group_name_H-M   'P 1'
_cell_length_a   7.25727606
_cell_length_b   7.62743187
_cell_length_c   9.05226898
_cell_angle_alpha   90.00000000
_cell_angle_beta   113.63157654
_cell_angle_gamma   90.00000000
_symmetry_Int_Tables_number   1
_chemical_formula_structural   YbPb5I8
_chemical_formula_sum   'Yb1 Pb5 I8'
_cell_volume   459.06290614
_cell_formula_units_Z   1
loop_
 _symmetry_equiv_pos_site_id
 _symmetry_equiv_pos_as_xyz
  1  'x, y, z'
loop_
 _atom_site_type_symbol
 _atom_site_label
 _atom_site_symmetry_multiplicity
 _atom_site_fract_x
 _atom_site_fract_y
 _atom_site_fract_z
 _atom_site_occupancy
  I  I0  1  0.67758699  0.43020601  0.35517398  1
  I  I1  1  0.32241300  0.56979401  0.64482597  1
  Pb  Pb2  1  0.17758700  0.06979400  0.35517398  1
  Pb  Pb3  1  0.82241299  0.93020602  0.64482597  1
  I  I4  1  0.72982299  0.25000000  0.95964596  1
  Pb  Pb5  1  0.77017699  0.75000001  0.04035400  1
  Pb  Pb6  1  0.27017700  0.75000001  0.04035400  1
  Pb  Pb7  1  0.22982300  0.25000000  0.95964596  1
  I  I8  1  0.13436100  0.47542401  0.26872199  1
  I  I9  1  0.86563899  0.52457601  0.73127797  1
  I  I10  1  0.36563900  0.97542402  0.73127797  1
  I  I11  1  0.63436099  0.02457600  0.26872199  1
  I  I12  1  0.50000000  0.50000001  -0.00000000  1
  Yb  Yb13  1  0.00000000  0.00000000  0.00000000  1
