# generated using pymatgen
data_Zn
_symmetry_space_group_name_H-M   'P 1'
_cell_length_a   3.80172205
_cell_length_b   3.80172205
_cell_length_c   6.83693647
_cell_angle_alpha   106.14255524
_cell_angle_beta   106.14255524
_cell_angle_gamma   90.00000000
_symmetry_Int_Tables_number   1
_chemical_formula_structural   Zn
_chemical_formula_sum   Zn7
_cell_volume   90.85598921
_cell_formula_units_Z   7
loop_
 _symmetry_equiv_pos_site_id
 _symmetry_equiv_pos_as_xyz
  1  'x, y, z'
loop_
 _atom_site_type_symbol
 _atom_site_label
 _atom_site_symmetry_multiplicity
 _atom_site_fract_x
 _atom_site_fract_y
 _atom_site_fract_z
 _atom_site_occupancy
  Zn  Zn0  1  0.64217798  0.64217799  0.28435598  1
  Zn  Zn1  1  0.35809199  0.35809199  0.71618398  1
  Zn  Zn2  1  0.00437600  0.00437600  0.00875200  1
  Zn  Zn3  1  0.83939998  0.83939999  0.67879997  1
  Zn  Zn4  1  0.16427700  0.16427700  0.32855399  1
  Zn  Zn5  1  0.99583898  0.49583899  0.99167796  1
  Zn  Zn6  1  0.49583898  0.99583898  0.99167796  1
