# generated using pymatgen
data_NaNiO5
_symmetry_space_group_name_H-M   'P 1'
_cell_length_a   3.25906610
_cell_length_b   5.21362543
_cell_length_c   5.21362543
_cell_angle_alpha   77.96720123
_cell_angle_beta   71.78685760
_cell_angle_gamma   71.78685760
_symmetry_Int_Tables_number   1
_chemical_formula_structural   NaNiO5
_chemical_formula_sum   'Na1 Ni1 O5'
_cell_volume   79.32877496
_cell_formula_units_Z   1
loop_
 _symmetry_equiv_pos_site_id
 _symmetry_equiv_pos_as_xyz
  1  'x, y, z'
loop_
 _atom_site_type_symbol
 _atom_site_label
 _atom_site_symmetry_multiplicity
 _atom_site_fract_x
 _atom_site_fract_y
 _atom_site_fract_z
 _atom_site_occupancy
  Na  Na0  1  0.73375191  0.76624802  0.76624799  1
  Ni  Ni1  1  0.26624797  0.23375201  0.23375200  1
  O  O2  1  0.49999993  0.63436602  0.36563400  1
  O  O3  1  0.49999996  0.36563401  0.63436600  1
  O  O4  1  -0.00000002  0.22822401  0.77177602  1
  O  O5  1  0.99999991  0.77177602  0.22822398  1
  O  O6  1  0.00000000  0.00000000  0.00000000  1
