# generated using pymatgen
data_Ba3S
_symmetry_space_group_name_H-M   'P 1'
_cell_length_a   6.54069424
_cell_length_b   6.84836578
_cell_length_c   9.41879368
_cell_angle_alpha   111.31824493
_cell_angle_beta   110.31707001
_cell_angle_gamma   90.00000000
_symmetry_Int_Tables_number   1
_chemical_formula_structural   Ba3S
_chemical_formula_sum   'Ba9 S3'
_cell_volume   364.70876356
_cell_formula_units_Z   3
loop_
 _symmetry_equiv_pos_site_id
 _symmetry_equiv_pos_as_xyz
  1  'x, y, z'
loop_
 _atom_site_type_symbol
 _atom_site_label
 _atom_site_symmetry_multiplicity
 _atom_site_fract_x
 _atom_site_fract_y
 _atom_site_fract_z
 _atom_site_occupancy
  Ba  Ba0  1  0.67194296  0.43260900  0.34388595  1
  Ba  Ba1  1  0.32805696  0.56739100  0.65611393  1
  Ba  Ba2  1  0.17194196  0.91127600  0.34388493  1
  Ba  Ba3  1  0.82805796  0.08872400  0.65611495  1
  Ba  Ba4  1  0.24999997  0.50000000  -0.00000003  1
  Ba  Ba5  1  0.74999995  0.50000000  -0.00000004  1
  S  S6  1  0.24999999  0.00000000  -0.00000000  1
  S  S7  1  0.74999993  1.00000000  -0.00000007  1
  S  S8  1  0.91964993  0.72274800  0.83929990  1
  Ba  Ba9  1  0.08034999  0.27725200  0.16069997  1
  Ba  Ba10  1  0.41964998  0.11655200  0.83929995  1
  Ba  Ba11  1  0.58034994  0.88344800  0.16069993  1
