# generated using pymatgen
data_S
_symmetry_space_group_name_H-M   'P 1'
_cell_length_a   7.38378668
_cell_length_b   7.38440084
_cell_length_c   7.42598200
_cell_angle_alpha   60.20738220
_cell_angle_beta   60.19080353
_cell_angle_gamma   60.00689697
_symmetry_Int_Tables_number   1
_chemical_formula_structural   S
_chemical_formula_sum   S14
_cell_volume   287.18148102
_cell_formula_units_Z   14
loop_
 _symmetry_equiv_pos_site_id
 _symmetry_equiv_pos_as_xyz
  1  'x, y, z'
loop_
 _atom_site_type_symbol
 _atom_site_label
 _atom_site_symmetry_multiplicity
 _atom_site_fract_x
 _atom_site_fract_y
 _atom_site_fract_z
 _atom_site_occupancy
  S  S0  1  0.49999631  0.49996845  0.50002311  1
  S  S1  1  0.12502294  0.12494675  0.62489319  1
  S  S2  1  0.87500172  0.87506671  0.37501873  1
  S  S3  1  0.49995849  0.49999569  0.00005467  1
  S  S4  1  0.00000033  0.50001584  0.00001452  1
  S  S5  1  0.49999453  0.99999008  0.00002813  1
  S  S6  1  0.26064468  0.26066952  0.21813597  1
  S  S7  1  0.75129164  0.75140052  0.21673686  1
  S  S8  1  0.75141855  0.28044736  0.21679394  1
  S  S9  1  0.28053314  0.75140803  0.21679179  1
  S  S10  1  0.24860651  0.71955708  0.78316329  1
  S  S11  1  0.71946543  0.24860224  0.78320395  1
  S  S12  1  0.73936235  0.73935155  0.78184934  1
  S  S13  1  0.24869955  0.24858483  0.78329261  1
