# generated using pymatgen
data_O2
_symmetry_space_group_name_H-M   'P 1'
_cell_length_a   4.77330208
_cell_length_b   5.10455704
_cell_length_c   8.06179047
_cell_angle_alpha   73.41217804
_cell_angle_beta   72.77980042
_cell_angle_gamma   62.12442780
_symmetry_Int_Tables_number   1
_chemical_formula_structural   O2
_chemical_formula_sum   O14
_cell_volume   163.31875439
_cell_formula_units_Z   7
loop_
 _symmetry_equiv_pos_site_id
 _symmetry_equiv_pos_as_xyz
  1  'x, y, z'
loop_
 _atom_site_type_symbol
 _atom_site_label
 _atom_site_symmetry_multiplicity
 _atom_site_fract_x
 _atom_site_fract_y
 _atom_site_fract_z
 _atom_site_occupancy
  O  O0  1  0.60789601  0.51323499  0.39517801  1
  O  O1  1  0.48369100  0.01323500  0.89517800  1
  O  O2  1  0.28096201  0.47248499  0.08289501  1
  O  O3  1  0.16365802  0.97248498  0.58289504  1
  O  O4  1  0.89813102  0.76354799  0.25291001  1
  O  O5  1  0.08541101  0.26354800  0.75291002  1
  O  O6  1  0.72914102  0.85587199  0.11158702  1
  O  O7  1  0.73474301  0.59779099  0.42181201  1
  O  O8  1  0.24565400  0.09779100  0.92181201  1
  O  O9  1  0.30340001  0.35587199  0.61158701  1
  O  O10  1  0.24864301  0.50596599  0.20265902  1
  O  O11  1  0.94309002  0.97033698  0.31956802  1
  O  O12  1  0.76700501  0.47033699  0.81956801  1
  O  O13  1  0.04273200  0.00596600  0.70265901  1
