# generated using pymatgen
data_Zn2O3
_symmetry_space_group_name_H-M   'P 1'
_cell_length_a   5.05131388
_cell_length_b   5.05131388
_cell_length_c   6.46332645
_cell_angle_alpha   66.99774933
_cell_angle_beta   66.99774933
_cell_angle_gamma   60.00000381
_symmetry_Int_Tables_number   1
_chemical_formula_structural   Zn2O3
_chemical_formula_sum   'Zn4 O6'
_cell_volume   127.45633084
_cell_formula_units_Z   2
loop_
 _symmetry_equiv_pos_site_id
 _symmetry_equiv_pos_as_xyz
  1  'x, y, z'
loop_
 _atom_site_type_symbol
 _atom_site_label
 _atom_site_symmetry_multiplicity
 _atom_site_fract_x
 _atom_site_fract_y
 _atom_site_fract_z
 _atom_site_occupancy
  Zn  Zn0  1  0.49999999  0.49999998  0.50000005  1
  Zn  Zn1  1  0.00000000  0.00000000  0.00000000  1
  Zn  Zn2  1  0.24999999  0.24999999  0.25000002  1
  Zn  Zn3  1  0.74999998  0.74999998  0.75000007  1
  O  O4  1  0.50725699  0.99274297  0.25000007  1
  O  O5  1  0.99274297  0.24999999  0.25000006  1
  O  O6  1  0.24999999  0.50725698  0.25000004  1
  O  O7  1  0.00725700  0.74999998  0.75000004  1
  O  O8  1  0.74999998  0.49274298  0.75000006  1
  O  O9  1  0.49274298  0.00725700  0.75000002  1
