# generated using pymatgen
data_Cs2Ca3
_symmetry_space_group_name_H-M   'P 1'
_cell_length_a   4.12622976
_cell_length_b   7.09971619
_cell_length_c   7.09971619
_cell_angle_alpha   70.33899689
_cell_angle_beta   73.10664368
_cell_angle_gamma   73.10664368
_symmetry_Int_Tables_number   1
_chemical_formula_structural   Cs2Ca3
_chemical_formula_sum   'Cs2 Ca3'
_cell_volume   183.06774681
_cell_formula_units_Z   1
loop_
 _symmetry_equiv_pos_site_id
 _symmetry_equiv_pos_as_xyz
  1  'x, y, z'
loop_
 _atom_site_type_symbol
 _atom_site_label
 _atom_site_symmetry_multiplicity
 _atom_site_fract_x
 _atom_site_fract_y
 _atom_site_fract_z
 _atom_site_occupancy
  Cs  Cs0  1  0.19700299  0.30299701  0.30299700  1
  Cs  Cs1  1  0.80299700  0.69700303  0.69700299  1
  Ca  Ca2  1  0.50000002  0.21158001  0.78842001  1
  Ca  Ca3  1  0.49999997  0.78842004  0.21157998  1
  Ca  Ca4  1  0.00000000  0.00000000  0.00000000  1
