# generated using pymatgen
data_Li5O3
_symmetry_space_group_name_H-M   'P 1'
_cell_length_a   6.06565332
_cell_length_b   6.06817150
_cell_length_c   6.06817150
_cell_angle_alpha   61.52065659
_cell_angle_beta   61.61659241
_cell_angle_gamma   61.61659241
_symmetry_Int_Tables_number   1
_chemical_formula_structural   Li5O3
_chemical_formula_sum   'Li10 O6'
_cell_volume   163.54915881
_cell_formula_units_Z   2
loop_
 _symmetry_equiv_pos_site_id
 _symmetry_equiv_pos_as_xyz
  1  'x, y, z'
loop_
 _atom_site_type_symbol
 _atom_site_label
 _atom_site_symmetry_multiplicity
 _atom_site_fract_x
 _atom_site_fract_y
 _atom_site_fract_z
 _atom_site_occupancy
  Li  Li0  1  0.49999999  0.49999998  0.50000001  1
  Li  Li1  1  0.49999998  0.00000000  0.00000001  1
  Li  Li2  1  0.99999997  0.00000000  0.50000001  1
  Li  Li3  1  0.00000000  0.49999998  0.00000001  1
  Li  Li4  1  0.99999997  0.49999998  0.50000002  1
  Li  Li5  1  0.49999999  0.49999998  0.00000002  1
  Li  Li6  1  0.49999998  0.00000000  0.50000000  1
  Li  Li7  1  0.00000000  0.00000000  0.00000000  1
  O  O8  1  0.72539498  0.74313396  0.74313401  1
  O  O9  1  0.77066798  0.23601799  0.23601802  1
  O  O10  1  0.23778199  0.23362499  0.76985699  1
  O  O11  1  0.27460499  0.25686599  0.25686600  1
  Li  Li12  1  0.23778200  0.76985696  0.23362502  1
  O  O13  1  0.22933200  0.76398196  0.76398200  1
  O  O14  1  0.76221798  0.76637496  0.23014303  1
  Li  Li15  1  0.76221798  0.23014299  0.76637500  1
