# generated using pymatgen
data_BaN4
_symmetry_space_group_name_H-M   'P 1'
_cell_length_a   5.53779221
_cell_length_b   5.57418251
_cell_length_c   5.53779221
_cell_angle_alpha   119.78427887
_cell_angle_beta   90.00000000
_cell_angle_gamma   119.78427887
_symmetry_Int_Tables_number   1
_chemical_formula_structural   BaN4
_chemical_formula_sum   'Ba2 N8'
_cell_volume   121.65983583
_cell_formula_units_Z   2
loop_
 _symmetry_equiv_pos_site_id
 _symmetry_equiv_pos_as_xyz
  1  'x, y, z'
loop_
 _atom_site_type_symbol
 _atom_site_label
 _atom_site_symmetry_multiplicity
 _atom_site_fract_x
 _atom_site_fract_y
 _atom_site_fract_z
 _atom_site_occupancy
  Ba  Ba0  1  0.74999999  0.50000000  0.25000001  1
  Ba  Ba1  1  0.25000001  0.50000000  0.74999999  1
  N  N2  1  0.49999998  0.00000000  0.49999998  1
  N  N3  1  0.00000000  0.00000000  0.00000000  1
  N  N4  1  0.74999999  0.50000000  0.74999999  1
  N  N5  1  0.25000001  0.50000000  0.25000001  1
  N  N6  1  0.28648299  0.00000000  0.21351699  1
  N  N7  1  0.71351697  0.00000000  0.78648297  1
  N  N8  1  0.78648297  0.00000000  0.28648299  1
  N  N9  1  0.21351699  0.00000000  0.71351697  1
