# generated using pymatgen
data_S
_symmetry_space_group_name_H-M   'P 1'
_cell_length_a   7.11791611
_cell_length_b   7.12068892
_cell_length_c   7.12068892
_cell_angle_alpha   60.00556564
_cell_angle_beta   60.01288223
_cell_angle_gamma   60.01288223
_symmetry_Int_Tables_number   1
_chemical_formula_structural   S
_chemical_formula_sum   S14
_cell_volume   255.26113768
_cell_formula_units_Z   14
loop_
 _symmetry_equiv_pos_site_id
 _symmetry_equiv_pos_as_xyz
  1  'x, y, z'
loop_
 _atom_site_type_symbol
 _atom_site_label
 _atom_site_symmetry_multiplicity
 _atom_site_fract_x
 _atom_site_fract_y
 _atom_site_fract_z
 _atom_site_occupancy
  S  S0  1  0.49999999  1.00000002  0.50000004  1
  S  S1  1  0.99999998  0.00000000  0.50000002  1
  S  S2  1  0.62554699  0.62445301  0.12445302  1
  S  S3  1  0.37445299  0.37554701  0.87554704  1
  S  S4  1  -0.00000000  0.50000001  0.50000003  1
  S  S5  1  0.00000000  0.00000000  0.00000000  1
  S  S6  1  0.21940699  0.76005701  0.26005703  1
  S  S7  1  0.76047898  0.76005701  0.26005703  1
  S  S8  1  0.76022999  0.22007700  0.25946302  1
  S  S9  1  0.76022998  0.75946301  0.72007704  1
  S  S10  1  0.78059298  0.23994300  0.73994303  1
  S  S11  1  0.23952099  0.23994300  0.73994303  1
  S  S12  1  0.23976999  0.77992301  0.74053704  1
  S  S13  1  0.23976999  0.24053700  0.27992302  1
