# generated using pymatgen
data_Ti3AlO4
_symmetry_space_group_name_H-M   'P 1'
_cell_length_a   2.90959001
_cell_length_b   2.90959024
_cell_length_c   13.09717178
_cell_angle_alpha   90.00000000
_cell_angle_beta   90.00000000
_cell_angle_gamma   120.00000000
_symmetry_Int_Tables_number   1
_chemical_formula_structural   Ti3AlO4
_chemical_formula_sum   'Ti3 Al1 O4'
_cell_volume   96.02222910
_cell_formula_units_Z   1
loop_
 _symmetry_equiv_pos_site_id
 _symmetry_equiv_pos_as_xyz
  1  'x, y, z'
loop_
 _atom_site_type_symbol
 _atom_site_label
 _atom_site_symmetry_multiplicity
 _atom_site_fract_x
 _atom_site_fract_y
 _atom_site_fract_z
 _atom_site_occupancy
  Ti  Ti0  1  0.66666668  0.33333333  0.25000000  1
  Al  Al1  1  0.33333335  0.66666665  0.75000001  1
  O  O2  1  0.66666668  0.33333333  0.58557101  1
  O  O3  1  0.33333335  0.66666665  0.41442901  1
  O  O4  1  0.33333335  0.66666665  0.08557100  1
  O  O5  1  0.66666668  0.33333333  0.91442902  1
  Ti  Ti6  1  0.00000000  0.00000000  0.50000001  1
  Ti  Ti7  1  0.00000000  0.00000000  0.00000000  1
