# generated using pymatgen
data_TiClO8
_symmetry_space_group_name_H-M   'P 1'
_cell_length_a   3.02918410
_cell_length_b   5.06220150
_cell_length_c   7.10696793
_cell_angle_alpha   90.00000000
_cell_angle_beta   90.00000000
_cell_angle_gamma   107.40933990
_symmetry_Int_Tables_number   1
_chemical_formula_structural   TiClO8
_chemical_formula_sum   'Ti1 Cl1 O8'
_cell_volume   103.98843144
_cell_formula_units_Z   1
loop_
 _symmetry_equiv_pos_site_id
 _symmetry_equiv_pos_as_xyz
  1  'x, y, z'
loop_
 _atom_site_type_symbol
 _atom_site_label
 _atom_site_symmetry_multiplicity
 _atom_site_fract_x
 _atom_site_fract_y
 _atom_site_fract_z
 _atom_site_occupancy
  Ti  Ti0  1  0.00000000  0.00000000  0.00000000  1
  O  O1  1  0.00000000  0.00000000  0.50000001  1
  O  O2  1  0.25465102  0.50930200  0.75000001  1
  O  O3  1  0.74534900  0.49069800  0.25000000  1
  Cl  Cl4  1  0.35635203  0.71270400  0.43309900  1
  O  O5  1  0.08717801  0.17435600  0.25000000  1
  O  O6  1  0.35635203  0.71270400  0.06690100  1
  O  O7  1  0.64364799  0.28729600  0.56690101  1
  O  O8  1  0.64364799  0.28729600  0.93309901  1
  O  O9  1  0.91282202  0.82564400  0.75000001  1
