# generated using pymatgen
data_La3Si
_symmetry_space_group_name_H-M   'P 1'
_cell_length_a   4.51121807
_cell_length_b   5.70682287
_cell_length_c   7.92414999
_cell_angle_alpha   90.00000000
_cell_angle_beta   90.00000000
_cell_angle_gamma   113.28142548
_symmetry_Int_Tables_number   1
_chemical_formula_structural   La3Si
_chemical_formula_sum   'La6 Si2'
_cell_volume   187.39384271
_cell_formula_units_Z   2
loop_
 _symmetry_equiv_pos_site_id
 _symmetry_equiv_pos_as_xyz
  1  'x, y, z'
loop_
 _atom_site_type_symbol
 _atom_site_label
 _atom_site_symmetry_multiplicity
 _atom_site_fract_x
 _atom_site_fract_y
 _atom_site_fract_z
 _atom_site_occupancy
  La  La0  1  0.06546799  0.13093599  0.25000000  1
  La  La1  1  0.93453192  0.86906395  0.75000000  1
  La  La2  1  0.35536994  0.71073996  0.05318500  1
  La  La3  1  0.64462997  0.28925998  0.94681500  1
  La  La4  1  0.64462997  0.28925998  0.55318500  1
  La  La5  1  0.35536994  0.71073996  0.44681500  1
  Si  Si6  1  0.78204295  0.56408596  0.25000000  1
  Si  Si7  1  0.21795696  0.43591397  0.75000000  1
