# generated using pymatgen
data_Ba2S3
_symmetry_space_group_name_H-M   'P 1'
_cell_length_a   6.09460211
_cell_length_b   6.09460211
_cell_length_c   9.15348244
_cell_angle_alpha   109.44559479
_cell_angle_beta   109.44559479
_cell_angle_gamma   90.00000000
_symmetry_Int_Tables_number   1
_chemical_formula_structural   Ba2S3
_chemical_formula_sum   'Ba4 S6'
_cell_volume   299.95883590
_cell_formula_units_Z   2
loop_
 _symmetry_equiv_pos_site_id
 _symmetry_equiv_pos_as_xyz
  1  'x, y, z'
loop_
 _atom_site_type_symbol
 _atom_site_label
 _atom_site_symmetry_multiplicity
 _atom_site_fract_x
 _atom_site_fract_y
 _atom_site_fract_z
 _atom_site_occupancy
  Ba  Ba0  1  0.95442094  0.95442097  0.90884193  1
  Ba  Ba1  1  0.70442097  0.20442099  0.40884197  1
  Ba  Ba2  1  0.54954497  0.54954498  0.09908997  1
  Ba  Ba3  1  0.29954497  0.79954497  0.59908996  1
  S  S4  1  0.14204299  0.31505999  0.28408698  1
  S  S5  1  0.71902697  0.39204399  0.78408696  1
  S  S6  1  0.06505999  0.39204299  0.78408598  1
  S  S7  1  0.14204297  0.96902597  0.28408596  1
  S  S8  1  0.49914695  0.99914697  0.99829394  1
  S  S9  1  0.74914695  0.74914697  0.49829395  1
