# generated using pymatgen
data_Ba2S3
_symmetry_space_group_name_H-M   'P 1'
_cell_length_a   4.20307589
_cell_length_b   4.20307589
_cell_length_c   15.39442348
_cell_angle_alpha   97.84611511
_cell_angle_beta   97.84611511
_cell_angle_gamma   90.00000000
_symmetry_Int_Tables_number   1
_chemical_formula_structural   Ba2S3
_chemical_formula_sum   'Ba4 S6'
_cell_volume   266.83929894
_cell_formula_units_Z   2
loop_
 _symmetry_equiv_pos_site_id
 _symmetry_equiv_pos_as_xyz
  1  'x, y, z'
loop_
 _atom_site_type_symbol
 _atom_site_label
 _atom_site_symmetry_multiplicity
 _atom_site_fract_x
 _atom_site_fract_y
 _atom_site_fract_z
 _atom_site_occupancy
  S  S0  1  0.80000402  0.80000402  0.60000799  1
  S  S1  1  0.19999601  0.19999601  0.39999200  1
  S  S2  1  0.59884502  0.59884502  0.19769000  1
  S  S3  1  0.00000000  0.00000000  0.00000000  1
  S  S4  1  0.40115501  0.40115501  0.80230999  1
  S  S5  1  0.90016102  0.90016102  0.80032199  1
  Ba  Ba6  1  0.30014601  0.30014601  0.60029199  1
  Ba  Ba7  1  0.69985402  0.69985402  0.39970800  1
  Ba  Ba8  1  0.09983900  0.09983900  0.19967800  1
  Ba  Ba9  1  0.50000001  0.50000001  0.00000000  1
