# generated using pymatgen
data_O2
_symmetry_space_group_name_H-M   'P 1'
_cell_length_a   6.32379198
_cell_length_b   6.54845524
_cell_length_c   6.64597940
_cell_angle_alpha   73.86830139
_cell_angle_beta   61.91677094
_cell_angle_gamma   61.51572800
_symmetry_Int_Tables_number   1
_chemical_formula_structural   O2
_chemical_formula_sum   O20
_cell_volume   212.91579910
_cell_formula_units_Z   10
loop_
 _symmetry_equiv_pos_site_id
 _symmetry_equiv_pos_as_xyz
  1  'x, y, z'
loop_
 _atom_site_type_symbol
 _atom_site_label
 _atom_site_symmetry_multiplicity
 _atom_site_fract_x
 _atom_site_fract_y
 _atom_site_fract_z
 _atom_site_occupancy
  O  O0  1  0.89840603  0.45188900  0.44263297  1
  O  O1  1  0.99613502  0.00526600  0.99940599  1
  O  O2  1  0.52755702  0.47540800  0.13073898  1
  O  O3  1  0.39837002  0.32902600  0.91099599  1
  O  O4  1  0.93145903  0.54985000  0.97248497  1
  O  O5  1  0.51855104  0.88068799  0.99540198  1
  O  O6  1  0.28775102  0.44921500  0.57969899  1
  O  O7  1  0.57953204  0.97052099  0.46299097  1
  O  O8  1  0.82311304  0.92898399  0.50948296  1
  O  O9  1  0.18424503  0.98847599  0.53090398  1
  O  O10  1  0.77260404  0.88690799  0.41286596  1
  O  O11  1  0.32619102  0.45005000  0.35930898  1
  O  O12  1  0.41330003  0.72293800  0.04012697  1
  O  O13  1  0.77561903  0.42087300  0.14418897  1
  O  O14  1  0.59254802  0.30910500  0.97909099  1
  O  O15  1  0.36592101  0.10573400  0.94876600  1
  O  O16  1  0.48093002  0.39524700  0.65344399  1
  O  O17  1  0.13999702  0.50579100  0.03433398  1
  O  O18  1  0.76614204  0.80740799  0.98527197  1
  O  O19  1  0.03043002  0.48742300  0.73496600  1
