# generated using pymatgen
data_In7S3
_symmetry_space_group_name_H-M   'P 1'
_cell_length_a   4.20307589
_cell_length_b   4.20307589
_cell_length_c   15.39442348
_cell_angle_alpha   97.84611511
_cell_angle_beta   97.84611511
_cell_angle_gamma   90.00000000
_symmetry_Int_Tables_number   1
_chemical_formula_structural   In7S3
_chemical_formula_sum   'In7 S3'
_cell_volume   266.83929894
_cell_formula_units_Z   1
loop_
 _symmetry_equiv_pos_site_id
 _symmetry_equiv_pos_as_xyz
  1  'x, y, z'
loop_
 _atom_site_type_symbol
 _atom_site_label
 _atom_site_symmetry_multiplicity
 _atom_site_fract_x
 _atom_site_fract_y
 _atom_site_fract_z
 _atom_site_occupancy
  S  S0  1  0.80000402  0.80000402  0.60000799  1
  In  In1  1  0.19999601  0.19999601  0.39999200  1
  In  In2  1  0.59884502  0.59884502  0.19769000  1
  S  S3  1  0.00000000  0.00000000  0.00000000  1
  S  S4  1  0.40115501  0.40115501  0.80230999  1
  In  In5  1  0.90016102  0.90016102  0.80032199  1
  In  In6  1  0.30014601  0.30014601  0.60029199  1
  In  In7  1  0.69985402  0.69985402  0.39970800  1
  In  In8  1  0.09983900  0.09983900  0.19967800  1
  In  In9  1  0.50000001  0.50000001  0.00000000  1
