# generated using pymatgen
data_Al
_symmetry_space_group_name_H-M   'P 1'
_cell_length_a   5.72026014
_cell_length_b   5.72025967
_cell_length_c   7.03265810
_cell_angle_alpha   90.00000000
_cell_angle_beta   90.00000000
_cell_angle_gamma   120.00000000
_symmetry_Int_Tables_number   1
_chemical_formula_structural   Al
_chemical_formula_sum   Al15
_cell_volume   199.28823439
_cell_formula_units_Z   15
loop_
 _symmetry_equiv_pos_site_id
 _symmetry_equiv_pos_as_xyz
  1  'x, y, z'
loop_
 _atom_site_type_symbol
 _atom_site_label
 _atom_site_symmetry_multiplicity
 _atom_site_fract_x
 _atom_site_fract_y
 _atom_site_fract_z
 _atom_site_occupancy
  Al  Al0  1  0.00000000  0.00000000  0.00000000  1
  Al  Al1  1  0.33333329  0.66666664  0.67371599  1
  Al  Al2  1  0.66666663  0.33333332  0.32628400  1
  Al  Al3  1  0.00000000  0.00000000  0.49999999  1
  Al  Al4  1  0.33333329  0.66666664  0.18106200  1
  Al  Al5  1  0.66666663  0.33333332  0.81893799  1
  Al  Al6  1  0.49999996  0.49999998  0.99999999  1
  Al  Al7  1  0.49999999  0.00000000  -0.00000000  1
  Al  Al8  1  0.99999995  0.49999998  -0.00000000  1
  Al  Al9  1  0.16850396  0.83149497  0.32705400  1
  Al  Al10  1  0.16850398  0.33700799  0.32705400  1
  Al  Al11  1  0.66299094  0.83149497  0.32705400  1
  Al  Al12  1  0.83149597  0.16850499  0.67294599  1
  Al  Al13  1  0.83149595  0.66299198  0.67294599  1
  Al  Al14  1  0.33700898  0.16850499  0.67294599  1
