# generated using pymatgen
data_O2
_symmetry_space_group_name_H-M   'P 1'
_cell_length_a   5.02213097
_cell_length_b   5.63130379
_cell_length_c   7.49394083
_cell_angle_alpha   97.41396332
_cell_angle_beta   106.14392853
_cell_angle_gamma   115.16119385
_symmetry_Int_Tables_number   1
_chemical_formula_structural   O2
_chemical_formula_sum   O16
_cell_volume   176.65465980
_cell_formula_units_Z   8
loop_
 _symmetry_equiv_pos_site_id
 _symmetry_equiv_pos_as_xyz
  1  'x, y, z'
loop_
 _atom_site_type_symbol
 _atom_site_label
 _atom_site_symmetry_multiplicity
 _atom_site_fract_x
 _atom_site_fract_y
 _atom_site_fract_z
 _atom_site_occupancy
  O  O0  1  0.57267201  0.95311203  0.21610999  1
  O  O1  1  0.13183100  0.48932002  0.76001799  1
  O  O2  1  0.86816901  0.51068002  0.23998200  1
  O  O3  1  0.42732801  0.04688800  0.78389000  1
  O  O4  1  0.00000000  0.00000000  0.00000000  1
  O  O5  1  0.50000001  0.50000002  0.49999999  1
  O  O6  1  0.69234301  0.30305201  0.45981500  1
  O  O7  1  0.87722201  0.20972301  0.84677601  1
  O  O8  1  0.68313401  0.71166603  0.36154299  1
  O  O9  1  0.98546002  0.77583403  0.77339400  1
  O  O10  1  0.55568501  0.77947003  0.95590699  1
  O  O11  1  0.44431501  0.22053001  0.04409300  1
  O  O12  1  0.01454000  0.22416601  0.22660599  1
  O  O13  1  0.31686601  0.28833401  0.63845699  1
  O  O14  1  0.12277800  0.79027703  0.15322398  1
  O  O15  1  0.30765701  0.69694803  0.54018499  1
