# generated using pymatgen
data_Li5O3
_symmetry_space_group_name_H-M   'P 1'
_cell_length_a   2.95341420
_cell_length_b   5.16268444
_cell_length_c   10.51042843
_cell_angle_alpha   75.81315613
_cell_angle_beta   81.93785858
_cell_angle_gamma   89.97684479
_symmetry_Int_Tables_number   1
_chemical_formula_structural   Li5O3
_chemical_formula_sum   'Li10 O6'
_cell_volume   153.73867863
_cell_formula_units_Z   2
loop_
 _symmetry_equiv_pos_site_id
 _symmetry_equiv_pos_as_xyz
  1  'x, y, z'
loop_
 _atom_site_type_symbol
 _atom_site_label
 _atom_site_symmetry_multiplicity
 _atom_site_fract_x
 _atom_site_fract_y
 _atom_site_fract_z
 _atom_site_occupancy
  Li  Li0  1  0.61970091  0.95198702  0.75978696  1
  Li  Li1  1  0.11962796  0.45302701  0.75995797  1
  Li  Li2  1  0.36909699  0.03631900  0.25983499  1
  Li  Li3  1  0.86908394  0.53618801  0.25987497  1
  Li  Li4  1  0.75037098  0.08339300  0.50034698  1
  Li  Li5  1  0.99976493  0.66678501  0.00037898  1
  Li  Li6  1  0.25036295  0.58337201  0.50035898  1
  Li  Li7  1  0.49974798  0.16670700  0.00031099  1
  Li  Li8  1  0.94337796  0.27254700  0.11283098  1
  Li  Li9  1  0.44324893  0.77243901  0.11299598  1
  O  O10  1  0.19438793  0.86533802  0.61302197  1
  O  O11  1  0.69446096  0.36535101  0.61286197  1
  O  O12  1  0.55717495  0.56145201  0.88583096  1
  O  O13  1  0.05712499  0.06133500  0.88581398  1
  O  O14  1  0.80722792  0.80294701  0.38582597  1
  O  O15  1  0.30725797  0.30283201  0.38572798  1
