# generated using pymatgen
data_LaAu6
_symmetry_space_group_name_H-M   'P 1'
_cell_length_a   5.05879402
_cell_length_b   5.05879402
_cell_length_c   8.93944740
_cell_angle_alpha   106.43621826
_cell_angle_beta   106.43621826
_cell_angle_gamma   90.00000000
_symmetry_Int_Tables_number   1
_chemical_formula_structural   LaAu6
_chemical_formula_sum   'La1 Au6'
_cell_volume   209.65902618
_cell_formula_units_Z   1
loop_
 _symmetry_equiv_pos_site_id
 _symmetry_equiv_pos_as_xyz
  1  'x, y, z'
loop_
 _atom_site_type_symbol
 _atom_site_label
 _atom_site_symmetry_multiplicity
 _atom_site_fract_x
 _atom_site_fract_y
 _atom_site_fract_z
 _atom_site_occupancy
  La  La0  1  0.35631700  0.35631700  0.71263401  1
  Au  Au1  1  0.64368300  0.64368300  0.28736601  1
  Au  Au2  1  0.00000000  0.00000000  0.00000000  1
  Au  Au3  1  0.15397100  0.15397100  0.30794200  1
  Au  Au4  1  0.84602900  0.84602900  0.69205802  1
  Au  Au5  1  0.50000001  1.00000000  1.00000002  1
  Au  Au6  1  0.00000000  0.50000000  1.00000001  1
