# generated using pymatgen
data_Ba2LiO4
_symmetry_space_group_name_H-M   'P 1'
_cell_length_a   5.38251209
_cell_length_b   5.39493322
_cell_length_c   6.89493132
_cell_angle_alpha   90.00000000
_cell_angle_beta   112.97464752
_cell_angle_gamma   90.00000000
_symmetry_Int_Tables_number   1
_chemical_formula_structural   Ba2LiO4
_chemical_formula_sum   'Ba4 Li2 O8'
_cell_volume   184.33535313
_cell_formula_units_Z   2
loop_
 _symmetry_equiv_pos_site_id
 _symmetry_equiv_pos_as_xyz
  1  'x, y, z'
loop_
 _atom_site_type_symbol
 _atom_site_label
 _atom_site_symmetry_multiplicity
 _atom_site_fract_x
 _atom_site_fract_y
 _atom_site_fract_z
 _atom_site_occupancy
  Li  Li0  1  0.00000000  0.00000000  0.00000000  1
  Li  Li1  1  0.36289598  0.99999996  0.72579198  1
  Ba  Ba2  1  0.86387096  0.49999998  0.72774195  1
  Ba  Ba3  1  0.13612899  0.49999998  0.27225799  1
  Ba  Ba4  1  0.63710397  0.00000000  0.27420797  1
  Ba  Ba5  1  0.49999998  0.49999998  -0.00000002  1
  O  O6  1  0.18036099  0.00000000  0.36072199  1
  O  O7  1  0.67040797  0.49999998  0.34081597  1
  O  O8  1  0.32959199  0.49999998  0.65918398  1
  O  O9  1  0.81963897  0.00000000  0.63927796  1
  O  O10  1  0.25739299  0.26083199  -0.00000001  1
  O  O11  1  0.74260697  0.73916797  0.99999996  1
  O  O12  1  0.25739299  0.73916797  -0.00000001  1
  O  O13  1  0.74260697  0.26083199  0.99999996  1
