# generated using pymatgen
data_Zn
_symmetry_space_group_name_H-M   'P 1'
_cell_length_a   3.51928782
_cell_length_b   3.51928782
_cell_length_c   5.92029381
_cell_angle_alpha   72.70915222
_cell_angle_beta   72.70915222
_cell_angle_gamma   60.00000000
_symmetry_Int_Tables_number   1
_chemical_formula_structural   Zn
_chemical_formula_sum   Zn4
_cell_volume   59.64443145
_cell_formula_units_Z   4
loop_
 _symmetry_equiv_pos_site_id
 _symmetry_equiv_pos_as_xyz
  1  'x, y, z'
loop_
 _atom_site_type_symbol
 _atom_site_label
 _atom_site_symmetry_multiplicity
 _atom_site_fract_x
 _atom_site_fract_y
 _atom_site_fract_z
 _atom_site_occupancy
  Zn  Zn0  1  0.00000000  0.00000000  0.00000000  1
  Zn  Zn1  1  0.50000001  0.50000002  0.49999999  1
  Zn  Zn2  1  0.75998701  0.75998703  0.72003899  1
  Zn  Zn3  1  0.24001300  0.24001301  0.27996100  1
