# generated using pymatgen
data_CaO
_symmetry_space_group_name_H-M   'P 1'
_cell_length_a   5.95252800
_cell_length_b   5.98276472
_cell_length_c   5.98276472
_cell_angle_alpha   60.20288086
_cell_angle_beta   80.19609833
_cell_angle_gamma   99.80390167
_symmetry_Int_Tables_number   1
_chemical_formula_structural   CaO
_chemical_formula_sum   'Ca6 O6'
_cell_volume   173.91050876
_cell_formula_units_Z   6
loop_
 _symmetry_equiv_pos_site_id
 _symmetry_equiv_pos_as_xyz
  1  'x, y, z'
loop_
 _atom_site_type_symbol
 _atom_site_label
 _atom_site_symmetry_multiplicity
 _atom_site_fract_x
 _atom_site_fract_y
 _atom_site_fract_z
 _atom_site_occupancy
  O  O0  1  0.50000005  0.84116804  0.84116796  1
  O  O1  1  0.50000002  0.15883201  0.15883198  1
  O  O2  1  0.50000004  0.50000003  0.49999997  1
  O  O3  1  0.00000000  0.00000000  0.00000000  1
  O  O4  1  0.00000002  0.33313102  0.33313099  1
  O  O5  1  0.00000003  0.66686903  0.66686898  1
  Ca  Ca6  1  0.77476603  0.28599101  0.71400898  1
  Ca  Ca7  1  0.21908703  0.43714402  0.92651599  1
  Ca  Ca8  1  0.21908701  0.07348400  0.56285600  1
  Ca  Ca9  1  0.78091305  0.56285603  0.07348395  1
  Ca  Ca10  1  0.78091306  0.92651605  0.43714394  1
  Ca  Ca11  1  0.22523404  0.71400904  0.28599096  1
