# generated using pymatgen
data_BaLiMn2O8
_symmetry_space_group_name_H-M   'P 1'
_cell_length_a   5.74802065
_cell_length_b   5.74799061
_cell_length_c   5.74802446
_cell_angle_alpha   107.84986877
_cell_angle_beta   105.33879852
_cell_angle_gamma   115.40087891
_symmetry_Int_Tables_number   1
_chemical_formula_structural   BaLiMn2O8
_chemical_formula_sum   'Ba1 Li1 Mn2 O8'
_cell_volume   144.94551921
_cell_formula_units_Z   1
loop_
 _symmetry_equiv_pos_site_id
 _symmetry_equiv_pos_as_xyz
  1  'x, y, z'
loop_
 _atom_site_type_symbol
 _atom_site_label
 _atom_site_symmetry_multiplicity
 _atom_site_fract_x
 _atom_site_fract_y
 _atom_site_fract_z
 _atom_site_occupancy
  Li  Li0  1  0.11365697  0.36365499  0.25000096  1
  Ba  Ba1  1  0.88635795  0.63635498  0.75000092  1
  Mn  Mn2  1  0.38324099  0.13325300  0.75000997  1
  Mn  Mn3  1  0.61669093  0.86669697  0.24998492  1
  O  O4  1  0.36257698  0.30451699  0.55807596  1
  O  O5  1  0.19143199  0.13051300  0.93907096  1
  O  O6  1  0.19144894  0.75236697  0.56093491  1
  O  O7  1  0.74644197  0.30449899  0.94192595  1
  O  O8  1  0.25355794  0.69550098  0.05806194  1
  O  O9  1  0.80857398  0.24764699  0.43906897  1
  O  O10  1  0.80858093  0.86950297  0.06092992  1
  O  O11  1  0.63743994  0.69549398  0.44193393  1
