# generated using pymatgen
data_La
_symmetry_space_group_name_H-M   'P 1'
_cell_length_a   3.99281693
_cell_length_b   7.80242634
_cell_length_c   8.29218769
_cell_angle_alpha   103.46717072
_cell_angle_beta   103.93127441
_cell_angle_gamma   90.00000000
_symmetry_Int_Tables_number   1
_chemical_formula_structural   La
_chemical_formula_sum   La10
_cell_volume   243.40834453
_cell_formula_units_Z   10
loop_
 _symmetry_equiv_pos_site_id
 _symmetry_equiv_pos_as_xyz
  1  'x, y, z'
loop_
 _atom_site_type_symbol
 _atom_site_label
 _atom_site_symmetry_multiplicity
 _atom_site_fract_x
 _atom_site_fract_y
 _atom_site_fract_z
 _atom_site_occupancy
  La  La0  1  0.93823005  0.50397501  0.99932505  1
  La  La1  1  0.06109400  0.00397500  0.99932502  1
  La  La2  1  0.12901501  0.12333500  0.31035501  1
  La  La3  1  0.18133903  0.62333501  0.31035502  1
  La  La4  1  0.81808806  0.96934602  0.68761905  1
  La  La5  1  0.86953104  0.46934601  0.68761905  1
  La  La6  1  0.49869902  0.02105200  0.99922803  1
  La  La7  1  0.50052903  0.52105201  0.99922804  1
  La  La8  1  0.98794904  0.27682201  0.99897205  1
  La  La9  1  0.01102203  0.77682202  0.99897203  1
