# generated using pymatgen
data_SmSi7
_symmetry_space_group_name_H-M   'P 1'
_cell_length_a   3.89232111
_cell_length_b   3.90200996
_cell_length_c   8.48185062
_cell_angle_alpha   103.29831696
_cell_angle_beta   90.00000000
_cell_angle_gamma   90.00000000
_symmetry_Int_Tables_number   1
_chemical_formula_structural   SmSi7
_chemical_formula_sum   'Sm1 Si7'
_cell_volume   125.36703161
_cell_formula_units_Z   1
loop_
 _symmetry_equiv_pos_site_id
 _symmetry_equiv_pos_as_xyz
  1  'x, y, z'
loop_
 _atom_site_type_symbol
 _atom_site_label
 _atom_site_symmetry_multiplicity
 _atom_site_fract_x
 _atom_site_fract_y
 _atom_site_fract_z
 _atom_site_occupancy
  Sm  Sm0  1  0.24999999  0.10482700  0.20965400  1
  Si  Si1  1  0.74999998  0.89517301  0.79034599  1
  Si  Si2  1  0.24999999  0.46043600  0.92087198  1
  Si  Si3  1  0.74999998  0.53956401  0.07912800  1
  Si  Si4  1  0.24999999  0.74975701  0.49951399  1
  Si  Si5  1  0.74999998  0.25024300  0.50048599  1
  Si  Si6  1  0.24999999  0.32539300  0.65078599  1
  Si  Si7  1  0.74999998  0.67460701  0.34921399  1
