# generated using pymatgen
data_SrBe3
_symmetry_space_group_name_H-M   'P 1'
_cell_length_a   3.10951805
_cell_length_b   3.10951757
_cell_length_c   5.05580378
_cell_angle_alpha   90.00000000
_cell_angle_beta   90.00000000
_cell_angle_gamma   120.00000763
_symmetry_Int_Tables_number   1
_chemical_formula_structural   SrBe3
_chemical_formula_sum   'Sr1 Be3'
_cell_volume   42.33571571
_cell_formula_units_Z   1
loop_
 _symmetry_equiv_pos_site_id
 _symmetry_equiv_pos_as_xyz
  1  'x, y, z'
loop_
 _atom_site_type_symbol
 _atom_site_label
 _atom_site_symmetry_multiplicity
 _atom_site_fract_x
 _atom_site_fract_y
 _atom_site_fract_z
 _atom_site_occupancy
  Be  Be0  1  0.66666667  0.33333333  0.49283902  1
  Sr  Sr1  1  0.33333336  0.66666667  0.00269000  1
  Be  Be2  1  0.66666667  0.33333333  0.89139504  1
  Be  Be3  1  0.33333336  0.66666667  0.36307602  1
