# generated using pymatgen
data_O2
_symmetry_space_group_name_H-M   'P 1'
_cell_length_a   5.09713984
_cell_length_b   5.29367208
_cell_length_c   7.58622694
_cell_angle_alpha   90.00000000
_cell_angle_beta   91.78614807
_cell_angle_gamma   90.00000000
_symmetry_Int_Tables_number   1
_chemical_formula_structural   O2
_chemical_formula_sum   O18
_cell_volume   204.59657068
_cell_formula_units_Z   9
loop_
 _symmetry_equiv_pos_site_id
 _symmetry_equiv_pos_as_xyz
  1  'x, y, z'
loop_
 _atom_site_type_symbol
 _atom_site_label
 _atom_site_symmetry_multiplicity
 _atom_site_fract_x
 _atom_site_fract_y
 _atom_site_fract_z
 _atom_site_occupancy
  O  O0  1  0.01083000  0.18652100  0.75283800  1
  O  O1  1  0.48955902  0.24554500  0.00215100  1
  O  O2  1  0.51083002  0.81347899  0.25283800  1
  O  O3  1  0.98955903  0.75445499  0.50215100  1
  O  O4  1  0.47605202  0.26402800  0.50269900  1
  O  O5  1  0.97605203  0.73597199  0.00269900  1
  O  O6  1  0.20906001  0.41680899  0.55385100  1
  O  O7  1  0.70906002  0.58319099  0.05385100  1
  O  O8  1  0.14481300  0.70412099  0.22547700  1
  O  O9  1  0.16007801  0.45321399  0.92097800  1
  O  O10  1  0.29406001  0.94483398  0.95128100  1
  O  O11  1  0.33420501  0.95175598  0.56197800  1
  O  O12  1  0.39338301  0.18556400  0.26741500  1
  O  O13  1  0.64481302  0.29587900  0.72547700  1
  O  O14  1  0.66007802  0.54678599  0.42097800  1
  O  O15  1  0.79406003  0.05516600  0.45128100  1
  O  O16  1  0.83420503  0.04824400  0.06197800  1
  O  O17  1  0.89338303  0.81443599  0.76741500  1
