# generated using pymatgen
data_K6Sb
_symmetry_space_group_name_H-M   'P 1'
_cell_length_a   6.62259150
_cell_length_b   6.62259150
_cell_length_c   7.13311005
_cell_angle_alpha   62.34057999
_cell_angle_beta   62.34057999
_cell_angle_gamma   60.00000381
_symmetry_Int_Tables_number   1
_chemical_formula_structural   K6Sb
_chemical_formula_sum   'K6 Sb1'
_cell_volume   228.72339358
_cell_formula_units_Z   1
loop_
 _symmetry_equiv_pos_site_id
 _symmetry_equiv_pos_as_xyz
  1  'x, y, z'
loop_
 _atom_site_type_symbol
 _atom_site_label
 _atom_site_symmetry_multiplicity
 _atom_site_fract_x
 _atom_site_fract_y
 _atom_site_fract_z
 _atom_site_occupancy
  Sb  Sb0  1  0.00000000  0.00000000  0.00000000  1
  K  K1  1  0.21336602  0.64397202  0.22189698  1
  K  K2  1  0.64397204  0.92076502  0.22189698  1
  K  K3  1  0.92076504  0.21336601  0.22189698  1
  K  K4  1  0.78663403  0.35602801  0.77810297  1
  K  K5  1  0.35602801  0.07923500  0.77810298  1
  K  K6  1  0.07923502  0.78663402  0.77810297  1
