# generated using pymatgen
data_Er4SiRh
_symmetry_space_group_name_H-M   'P 1'
_cell_length_a   3.95305896
_cell_length_b   5.00649023
_cell_length_c   5.00648975
_cell_angle_alpha   120.00000000
_cell_angle_beta   90.00000000
_cell_angle_gamma   90.00000000
_symmetry_Int_Tables_number   1
_chemical_formula_structural   Er4SiRh
_chemical_formula_sum   'Er4 Si1 Rh1'
_cell_volume   85.80856281
_cell_formula_units_Z   1
loop_
 _symmetry_equiv_pos_site_id
 _symmetry_equiv_pos_as_xyz
  1  'x, y, z'
loop_
 _atom_site_type_symbol
 _atom_site_label
 _atom_site_symmetry_multiplicity
 _atom_site_fract_x
 _atom_site_fract_y
 _atom_site_fract_z
 _atom_site_occupancy
  Er  Er0  1  0.00000000  0.00000000  0.00000000  1
  Er  Er1  1  0.50000001  0.49999996  -0.00000003  1
  Er  Er2  1  0.00000000  0.33333331  0.66666662  1
  Rh  Rh3  1  0.50000001  0.00000000  0.49999998  1
  Er  Er4  1  1.00000001  0.66666662  0.33333328  1
  Si  Si5  1  0.50000001  0.49999996  0.49999995  1
