# generated using pymatgen
data_Tm5Al3
_symmetry_space_group_name_H-M   'P 1'
_cell_length_a   5.59755993
_cell_length_b   5.64047194
_cell_length_c   5.59755993
_cell_angle_alpha   119.74864960
_cell_angle_beta   90.00000000
_cell_angle_gamma   119.74864960
_symmetry_Int_Tables_number   1
_chemical_formula_structural   Tm5Al3
_chemical_formula_sum   'Tm5 Al3'
_cell_volume   125.91131509
_cell_formula_units_Z   1
loop_
 _symmetry_equiv_pos_site_id
 _symmetry_equiv_pos_as_xyz
  1  'x, y, z'
loop_
 _atom_site_type_symbol
 _atom_site_label
 _atom_site_symmetry_multiplicity
 _atom_site_fract_x
 _atom_site_fract_y
 _atom_site_fract_z
 _atom_site_occupancy
  Tm  Tm0  1  0.74999997  0.49999995  0.24999997  1
  Tm  Tm1  1  0.24999997  0.49999995  0.74999997  1
  Al  Al2  1  0.24999997  0.49999995  0.24999997  1
  Al  Al3  1  0.74999997  0.49999995  0.74999997  1
  Tm  Tm4  1  0.69531901  0.00000000  0.80468101  1
  Al  Al5  1  0.30468100  0.00000000  0.19531900  1
  Tm  Tm6  1  0.19531893  0.99999991  0.69531893  1
  Tm  Tm7  1  0.80468101  0.00000000  0.30468100  1
