# generated using pymatgen
data_O2F
_symmetry_space_group_name_H-M   'P 1'
_cell_length_a   5.61614704
_cell_length_b   5.64496088
_cell_length_c   5.66487741
_cell_angle_alpha   117.73189545
_cell_angle_beta   119.26227570
_cell_angle_gamma   91.57069397
_symmetry_Int_Tables_number   1
_chemical_formula_structural   O2F
_chemical_formula_sum   'O6 F3'
_cell_volume   130.90722190
_cell_formula_units_Z   3
loop_
 _symmetry_equiv_pos_site_id
 _symmetry_equiv_pos_as_xyz
  1  'x, y, z'
loop_
 _atom_site_type_symbol
 _atom_site_label
 _atom_site_symmetry_multiplicity
 _atom_site_fract_x
 _atom_site_fract_y
 _atom_site_fract_z
 _atom_site_occupancy
  O  O0  1  0.34700016  0.89114410  0.61006215  1
  F  F1  1  0.83864108  0.39105904  0.60935409  1
  F  F2  1  0.09805102  0.08912801  0.07097002  1
  F  F3  1  0.62901013  0.68852807  0.16204914  1
  O  O4  1  0.34821808  0.41694004  0.24718708  1
  O  O5  1  0.83367717  0.89163110  0.61604217  1
  O  O6  1  0.69106408  0.37900004  0.95310706  1
  O  O7  1  0.30992615  0.80990309  0.00849316  1
  O  O8  1  0.92171119  0.99432711  0.23172221  1
