# generated using pymatgen
data_S
_symmetry_space_group_name_H-M   'P 1'
_cell_length_a   4.78414488
_cell_length_b   6.27459097
_cell_length_c   9.82300377
_cell_angle_alpha   108.62558746
_cell_angle_beta   104.09423065
_cell_angle_gamma   90.00000000
_symmetry_Int_Tables_number   1
_chemical_formula_structural   S
_chemical_formula_sum   S8
_cell_volume   270.04481709
_cell_formula_units_Z   8
loop_
 _symmetry_equiv_pos_site_id
 _symmetry_equiv_pos_as_xyz
  1  'x, y, z'
loop_
 _atom_site_type_symbol
 _atom_site_label
 _atom_site_symmetry_multiplicity
 _atom_site_fract_x
 _atom_site_fract_y
 _atom_site_fract_z
 _atom_site_occupancy
  S  S0  1  0.14163800  0.14163700  0.28327501  1
  S  S1  1  0.85836202  0.85836300  0.71672502  1
  S  S2  1  0.56713901  0.56713900  0.13427800  1
  S  S3  1  0.43286101  0.43286100  0.86572202  1
  S  S4  1  0.66381401  0.66381500  0.32762901  1
  S  S5  1  0.33618601  0.33618500  0.67237102  1
  S  S6  1  0.50000001  0.72697600  -0.00000000  1
  S  S7  1  0.50000001  0.27302400  1.00000003  1
