# generated using pymatgen
data_Sn7Te
_symmetry_space_group_name_H-M   'P 1'
_cell_length_a   4.31449795
_cell_length_b   4.32301712
_cell_length_c   12.99928570
_cell_angle_alpha   90.00000000
_cell_angle_beta   99.55250549
_cell_angle_gamma   90.00000000
_symmetry_Int_Tables_number   1
_chemical_formula_structural   Sn7Te
_chemical_formula_sum   'Sn7 Te1'
_cell_volume   239.09616856
_cell_formula_units_Z   1
loop_
 _symmetry_equiv_pos_site_id
 _symmetry_equiv_pos_as_xyz
  1  'x, y, z'
loop_
 _atom_site_type_symbol
 _atom_site_label
 _atom_site_symmetry_multiplicity
 _atom_site_fract_x
 _atom_site_fract_y
 _atom_site_fract_z
 _atom_site_occupancy
  Sn  Sn0  1  0.17028700  0.74999998  0.34057401  1
  Sn  Sn1  1  0.82971301  0.24999999  0.65942601  1
  Sn  Sn2  1  0.92451301  0.74999998  0.84902602  1
  Sn  Sn3  1  0.07548700  0.24999999  0.15097400  1
  Te  Te4  1  0.57559501  0.74999998  0.15119000  1
  Sn  Sn5  1  0.42440501  0.24999999  0.84881001  1
  Sn  Sn6  1  0.29303600  0.74999998  0.58607201  1
  Sn  Sn7  1  0.70696401  0.24999999  0.41392801  1
