# generated using pymatgen
data_O13F
_symmetry_space_group_name_H-M   'P 1'
_cell_length_a   5.03957891
_cell_length_b   5.09405088
_cell_length_c   5.35956717
_cell_angle_alpha   105.95954132
_cell_angle_beta   98.89443207
_cell_angle_gamma   119.00328064
_symmetry_Int_Tables_number   1
_chemical_formula_structural   O13F
_chemical_formula_sum   'O13 F1'
_cell_volume   108.70299119
_cell_formula_units_Z   1
loop_
 _symmetry_equiv_pos_site_id
 _symmetry_equiv_pos_as_xyz
  1  'x, y, z'
loop_
 _atom_site_type_symbol
 _atom_site_label
 _atom_site_symmetry_multiplicity
 _atom_site_fract_x
 _atom_site_fract_y
 _atom_site_fract_z
 _atom_site_occupancy
  O  O0  1  0.17151601  0.33399301  0.00215801  1
  F  F1  1  0.82848404  0.66600703  0.99784204  1
  O  O2  1  0.58598504  0.91391404  0.79779804  1
  O  O3  1  0.08907802  0.63090203  0.40684002  1
  O  O4  1  0.41401501  0.08608600  0.20220201  1
  O  O5  1  0.91092203  0.36909802  0.59316003  1
  O  O6  1  0.66271404  0.78195203  0.41409503  1
  O  O7  1  0.33728601  0.21804801  0.58590501  1
  O  O8  1  0.22614501  0.09650900  0.21017301  1
  O  O9  1  0.04183202  0.52434702  0.78408001  1
  O  O10  1  0.95816803  0.47565302  0.21592003  1
  O  O11  1  0.41506202  0.26664801  0.78444502  1
  O  O12  1  0.77385504  0.90349104  0.78982704  1
  O  O13  1  0.58493803  0.73335203  0.21555503  1
