# generated using pymatgen
data_Si
_symmetry_space_group_name_H-M   'P 1'
_cell_length_a   4.50801420
_cell_length_b   6.91319180
_cell_length_c   9.66717434
_cell_angle_alpha   90.00000000
_cell_angle_beta   103.48323822
_cell_angle_gamma   90.00000000
_symmetry_Int_Tables_number   1
_chemical_formula_structural   Si
_chemical_formula_sum   Si14
_cell_volume   292.97153793
_cell_formula_units_Z   14
loop_
 _symmetry_equiv_pos_site_id
 _symmetry_equiv_pos_as_xyz
  1  'x, y, z'
loop_
 _atom_site_type_symbol
 _atom_site_label
 _atom_site_symmetry_multiplicity
 _atom_site_fract_x
 _atom_site_fract_y
 _atom_site_fract_z
 _atom_site_occupancy
  Si  Si0  1  0.81269096  0.43907901  0.62538197  1
  Si  Si1  1  0.18730899  0.56092102  0.37461799  1
  Si  Si2  1  0.81269096  0.06092100  0.62538197  1
  Si  Si3  1  0.18730899  0.93907903  0.37461799  1
  Si  Si4  1  0.55240097  0.75000002  0.10480199  1
  Si  Si5  1  0.44759898  0.25000001  0.89519797  1
  Si  Si6  1  0.34036998  0.75000002  0.68073997  1
  Si  Si7  1  0.65962997  0.25000001  0.31925999  1
  Si  Si8  1  0.94306696  0.92362703  0.88613396  1
  Si  Si9  1  0.05693300  0.07637300  0.11386600  1
  Si  Si10  1  0.94306696  0.57637302  0.88613396  1
  Si  Si11  1  0.05693300  0.42362701  0.11386600  1
  Si  Si12  1  0.71976397  0.75000002  0.43952798  1
  Si  Si13  1  0.28023599  0.25000001  0.56047198  1
