# generated using pymatgen
data_O2
_symmetry_space_group_name_H-M   'P 1'
_cell_length_a   5.58378220
_cell_length_b   5.58378220
_cell_length_c   6.46217680
_cell_angle_alpha   90.00000000
_cell_angle_beta   90.00000000
_cell_angle_gamma   95.89578247
_symmetry_Int_Tables_number   1
_chemical_formula_structural   O2
_chemical_formula_sum   O18
_cell_volume   200.41601631
_cell_formula_units_Z   9
loop_
 _symmetry_equiv_pos_site_id
 _symmetry_equiv_pos_as_xyz
  1  'x, y, z'
loop_
 _atom_site_type_symbol
 _atom_site_label
 _atom_site_symmetry_multiplicity
 _atom_site_fract_x
 _atom_site_fract_y
 _atom_site_fract_z
 _atom_site_occupancy
  O  O0  1  0.15650404  0.84349600  -0.00000000  1
  O  O1  1  0.15650404  0.84349600  0.50000002  1
  O  O2  1  0.59855004  0.88186500  0.75000002  1
  O  O3  1  0.11813502  0.40145000  0.25000001  1
  O  O4  1  0.88186502  0.59855000  0.75000002  1
  O  O5  1  0.40145000  0.11813500  0.25000001  1
  O  O6  1  0.84349600  0.15650400  -0.00000000  1
  O  O7  1  0.84349600  0.15650400  0.50000002  1
  O  O8  1  0.65426703  0.65426700  0.25000001  1
  O  O9  1  0.34573301  0.34573300  0.75000002  1
  O  O10  1  0.27320403  0.69057500  0.75000002  1
  O  O11  1  0.30942503  0.72679600  0.25000001  1
  O  O12  1  0.20195201  0.20195200  0.48896402  1
  O  O13  1  0.20195201  0.20195200  0.01103600  1
  O  O14  1  0.79804803  0.79804800  0.98896403  1
  O  O15  1  0.79804803  0.79804800  0.51103602  1
  O  O16  1  0.69057501  0.27320400  0.75000002  1
  O  O17  1  0.72679601  0.30942500  0.25000001  1
