# generated using pymatgen
data_LaS14
_symmetry_space_group_name_H-M   'P 1'
_cell_length_a   5.34953022
_cell_length_b   5.70952988
_cell_length_c   9.47594261
_cell_angle_alpha   91.62097931
_cell_angle_beta   104.43422699
_cell_angle_gamma   117.55709839
_symmetry_Int_Tables_number   1
_chemical_formula_structural   LaS14
_chemical_formula_sum   'La1 S14'
_cell_volume   244.99103293
_cell_formula_units_Z   1
loop_
 _symmetry_equiv_pos_site_id
 _symmetry_equiv_pos_as_xyz
  1  'x, y, z'
loop_
 _atom_site_type_symbol
 _atom_site_label
 _atom_site_symmetry_multiplicity
 _atom_site_fract_x
 _atom_site_fract_y
 _atom_site_fract_z
 _atom_site_occupancy
  La  La0  1  0.03871905  0.97560800  0.89651402  1
  S  S1  1  0.12338902  0.50155900  0.57512601  1
  S  S2  1  0.46862902  0.68742100  0.15612503  1
  S  S3  1  0.12555702  0.52012500  0.97634200  1
  S  S4  1  0.43635803  0.70811300  0.76254802  1
  S  S5  1  0.90140899  0.25043700  0.69010902  1
  S  S6  1  0.95498601  0.71589700  0.62906204  1
  S  S7  1  0.30655101  0.28596700  0.57186801  1
  S  S8  1  0.36577903  0.76144600  0.47986403  1
  S  S9  1  0.81464399  0.32794700  0.39655703  1
  S  S10  1  0.80830102  0.84321300  0.32038005  1
  S  S11  1  0.26689701  0.37120300  0.23106902  1
  S  S12  1  0.27321704  0.87825700  0.19536103  1
  S  S13  1  0.64918303  0.97800500  0.04741505  1
  S  S14  1  0.61437501  0.50479700  0.04966103  1
