# generated using pymatgen
data_S
_symmetry_space_group_name_H-M   'P 1'
_cell_length_a   4.08559608
_cell_length_b   4.08559608
_cell_length_c   17.54585838
_cell_angle_alpha   90.00000000
_cell_angle_beta   90.00000000
_cell_angle_gamma   120.00000000
_symmetry_Int_Tables_number   1
_chemical_formula_structural   S
_chemical_formula_sum   S10
_cell_volume   253.63904466
_cell_formula_units_Z   10
loop_
 _symmetry_equiv_pos_site_id
 _symmetry_equiv_pos_as_xyz
  1  'x, y, z'
loop_
 _atom_site_type_symbol
 _atom_site_label
 _atom_site_symmetry_multiplicity
 _atom_site_fract_x
 _atom_site_fract_y
 _atom_site_fract_z
 _atom_site_occupancy
  S  S0  1  0.00000000  0.00000000  0.00000000  1
  S  S1  1  0.00000000  0.00000000  0.49999999  1
  S  S2  1  0.33333333  0.66666667  0.83017198  1
  S  S3  1  0.66666666  0.33333333  0.16982800  1
  S  S4  1  0.66666666  0.33333333  0.33017199  1
  S  S5  1  0.33333333  0.66666667  0.66982799  1
  S  S6  1  0.66666666  0.33333333  0.89708898  1
  S  S7  1  0.33333333  0.66666667  0.10291100  1
  S  S8  1  0.33333333  0.66666667  0.39708899  1
  S  S9  1  0.66666666  0.33333333  0.60291099  1
