# generated using pymatgen
data_Zn3S4
_symmetry_space_group_name_H-M   'P 1'
_cell_length_a   3.55108190
_cell_length_b   6.19943380
_cell_length_c   6.35250807
_cell_angle_alpha   118.51054382
_cell_angle_beta   106.23050690
_cell_angle_gamma   90.00000000
_symmetry_Int_Tables_number   1
_chemical_formula_structural   Zn3S4
_chemical_formula_sum   'Zn3 S4'
_cell_volume   116.50681064
_cell_formula_units_Z   1
loop_
 _symmetry_equiv_pos_site_id
 _symmetry_equiv_pos_as_xyz
  1  'x, y, z'
loop_
 _atom_site_type_symbol
 _atom_site_label
 _atom_site_symmetry_multiplicity
 _atom_site_fract_x
 _atom_site_fract_y
 _atom_site_fract_z
 _atom_site_occupancy
  Zn  Zn0  1  0.00000000  0.00000000  0.00000000  1
  Zn  Zn1  1  0.26095400  0.27937200  0.52190800  1
  Zn  Zn2  1  0.73904601  0.72062799  0.47809198  1
  S  S3  1  0.12590100  0.45460799  0.25180198  1
  S  S4  1  0.87409902  0.54539199  0.74819799  1
  S  S5  1  0.36239001  0.02430400  0.72478001  1
  S  S6  1  0.63761001  0.97569599  0.27521996  1
