# generated using pymatgen
data_HfO
_symmetry_space_group_name_H-M   'P 1'
_cell_length_a   3.47221208
_cell_length_b   5.99509811
_cell_length_c   5.99509811
_cell_angle_alpha   103.97212982
_cell_angle_beta   90.00000000
_cell_angle_gamma   90.00000000
_symmetry_Int_Tables_number   1
_chemical_formula_structural   HfO
_chemical_formula_sum   'Hf6 O6'
_cell_volume   121.10318587
_cell_formula_units_Z   6
loop_
 _symmetry_equiv_pos_site_id
 _symmetry_equiv_pos_as_xyz
  1  'x, y, z'
loop_
 _atom_site_type_symbol
 _atom_site_label
 _atom_site_symmetry_multiplicity
 _atom_site_fract_x
 _atom_site_fract_y
 _atom_site_fract_z
 _atom_site_occupancy
  Hf  Hf0  1  -0.00000000  0.69933302  0.30066703  1
  Hf  Hf1  1  -0.00000000  0.30066701  0.69933303  1
  Hf  Hf2  1  -0.00000000  0.18318601  0.18318601  1
  Hf  Hf3  1  -0.00000000  0.81681403  0.81681405  1
  O  O4  1  0.49999999  0.06331500  0.38111201  1
  Hf  Hf5  1  0.49999999  0.93668503  0.61888805  1
  O  O6  1  0.49999999  0.38111201  0.06331502  1
  O  O7  1  0.49999999  0.61888802  0.93668504  1
  O  O8  1  0.49999999  0.62153902  0.62153904  1
  O  O9  1  0.49999999  0.37846101  0.37846102  1
  Hf  Hf10  1  0.49999999  0.90808203  0.09191804  1
  O  O11  1  0.49999999  0.09191800  0.90808202  1
