# generated using pymatgen
data_Al
_symmetry_space_group_name_H-M   'P 1'
_cell_length_a   3.72916603
_cell_length_b   3.72916555
_cell_length_c   9.02041817
_cell_angle_alpha   90.00000000
_cell_angle_beta   90.00000000
_cell_angle_gamma   120.00000000
_symmetry_Int_Tables_number   1
_chemical_formula_structural   Al
_chemical_formula_sum   Al9
_cell_volume   108.63773097
_cell_formula_units_Z   9
loop_
 _symmetry_equiv_pos_site_id
 _symmetry_equiv_pos_as_xyz
  1  'x, y, z'
loop_
 _atom_site_type_symbol
 _atom_site_label
 _atom_site_symmetry_multiplicity
 _atom_site_fract_x
 _atom_site_fract_y
 _atom_site_fract_z
 _atom_site_occupancy
  Al  Al0  1  0.00000000  0.00000000  0.00000000  1
  Al  Al1  1  0.66666663  0.33333332  0.34077299  1
  Al  Al2  1  0.33333328  0.66666664  0.65922699  1
  Al  Al3  1  0.00000000  0.00000000  0.73553199  1
  Al  Al4  1  0.66666663  0.33333332  0.09432000  1
  Al  Al5  1  0.33333328  0.66666664  0.41827299  1
  Al  Al6  1  0.33333328  0.66666664  0.90567998  1
  Al  Al7  1  0.00000000  0.00000000  0.26446800  1
  Al  Al8  1  0.66666663  0.33333332  0.58172699  1
