# generated using pymatgen
data_Pb
_symmetry_space_group_name_H-M   'P 1'
_cell_length_a   4.95718002
_cell_length_b   4.95718002
_cell_length_c   7.09360790
_cell_angle_alpha   110.45133972
_cell_angle_beta   110.45133972
_cell_angle_gamma   90.00000000
_symmetry_Int_Tables_number   1
_chemical_formula_structural   Pb
_chemical_formula_sum   Pb5
_cell_volume   151.54672989
_cell_formula_units_Z   5
loop_
 _symmetry_equiv_pos_site_id
 _symmetry_equiv_pos_as_xyz
  1  'x, y, z'
loop_
 _atom_site_type_symbol
 _atom_site_label
 _atom_site_symmetry_multiplicity
 _atom_site_fract_x
 _atom_site_fract_y
 _atom_site_fract_z
 _atom_site_occupancy
  Pb  Pb0  1  0.00000000  0.00000000  0.00000000  1
  Pb  Pb1  1  0.25000000  0.75000000  0.50000000  1
  Pb  Pb2  1  0.75000000  0.25000000  0.50000000  1
  Pb  Pb3  1  0.38585200  0.38585200  0.77170400  1
  Pb  Pb4  1  0.61414800  0.61414800  0.22829600  1
