# generated using pymatgen
data_O2
_symmetry_space_group_name_H-M   'P 1'
_cell_length_a   5.81864023
_cell_length_b   5.87342978
_cell_length_c   5.90358305
_cell_angle_alpha   61.47876358
_cell_angle_beta   60.47557068
_cell_angle_gamma   90.00866699
_symmetry_Int_Tables_number   1
_chemical_formula_structural   O2
_chemical_formula_sum   O14
_cell_volume   146.75540008
_cell_formula_units_Z   7
loop_
 _symmetry_equiv_pos_site_id
 _symmetry_equiv_pos_as_xyz
  1  'x, y, z'
loop_
 _atom_site_type_symbol
 _atom_site_label
 _atom_site_symmetry_multiplicity
 _atom_site_fract_x
 _atom_site_fract_y
 _atom_site_fract_z
 _atom_site_occupancy
  O  O0  1  0.11297505  0.86765803  0.77427895  1
  O  O1  1  0.88731504  0.13234900  0.22550496  1
  O  O2  1  0.50011904  0.49985502  0.49977695  1
  O  O3  1  0.00002403  0.49990202  0.49995697  1
  O  O4  1  0.49984907  0.99987903  0.00044793  1
  O  O5  1  0.49986404  0.50016602  0.00003896  1
  O  O6  1  0.24256305  0.70920502  0.51503495  1
  O  O7  1  0.26268802  0.28890901  0.47451097  1
  O  O8  1  0.24955005  0.73208602  0.04710195  1
  O  O9  1  0.70328906  0.73199402  0.04708294  1
  O  O10  1  0.75035404  0.26814201  0.95302996  1
  O  O11  1  0.29658302  0.26801701  0.95295997  1
  O  O12  1  0.73724906  0.71108602  0.52535394  1
  O  O13  1  0.75757804  0.29075101  0.48491996  1
