# generated using pymatgen
data_BaS8
_symmetry_space_group_name_H-M   'P 1'
_cell_length_a   6.03513622
_cell_length_b   6.03513622
_cell_length_c   6.03513622
_cell_angle_alpha   90.00000000
_cell_angle_beta   90.00000000
_cell_angle_gamma   90.00000000
_symmetry_Int_Tables_number   1
_chemical_formula_structural   BaS8
_chemical_formula_sum   'Ba1 S8'
_cell_volume   219.81697742
_cell_formula_units_Z   1
loop_
 _symmetry_equiv_pos_site_id
 _symmetry_equiv_pos_as_xyz
  1  'x, y, z'
loop_
 _atom_site_type_symbol
 _atom_site_label
 _atom_site_symmetry_multiplicity
 _atom_site_fract_x
 _atom_site_fract_y
 _atom_site_fract_z
 _atom_site_occupancy
  S  S0  1  0.49999998  0.49999998  0.49999998  1
  Ba  Ba1  1  0.00000000  0.00000000  0.00000000  1
  S  S2  1  0.00000000  0.49999998  -0.00000000  1
  S  S3  1  0.00000000  0.00000000  0.49999998  1
  S  S4  1  0.49999998  0.00000000  0.00000000  1
  S  S5  1  0.23967499  0.23967499  0.23967499  1
  S  S6  1  0.76032497  0.76032497  0.23967499  1
  S  S7  1  0.23967499  0.76032497  0.76032497  1
  S  S8  1  0.76032497  0.23967499  0.76032497  1
