# generated using pymatgen
data_H11O
_symmetry_space_group_name_H-M   'P 1'
_cell_length_a   3.25001907
_cell_length_b   5.57748890
_cell_length_c   5.67980576
_cell_angle_alpha   96.07297516
_cell_angle_beta   104.52757263
_cell_angle_gamma   104.91867828
_symmetry_Int_Tables_number   1
_chemical_formula_structural   H11O
_chemical_formula_sum   'H11 O1'
_cell_volume   94.69517985
_cell_formula_units_Z   1
loop_
 _symmetry_equiv_pos_site_id
 _symmetry_equiv_pos_as_xyz
  1  'x, y, z'
loop_
 _atom_site_type_symbol
 _atom_site_label
 _atom_site_symmetry_multiplicity
 _atom_site_fract_x
 _atom_site_fract_y
 _atom_site_fract_z
 _atom_site_occupancy
  H  H0  1  0.00604508  0.65697500  0.85007002  1
  O  O1  1  0.99395501  0.34302500  0.14993000  1
  H  H2  1  0.35981009  0.74827900  0.52156803  1
  H  H3  1  0.64447711  0.98248501  0.74146204  1
  H  H4  1  0.35552299  0.01751500  0.25853798  1
  H  H5  1  0.64019001  0.25172100  0.47843199  1
  H  H6  1  0.82997307  0.72898400  0.23596803  1
  H  H7  1  0.17002703  0.27101600  0.76403199  1
  H  H8  1  0.50149109  0.79035501  0.70705502  1
  H  H9  1  0.49850901  0.20964500  0.29294500  1
  H  H10  1  0.11324709  0.71720200  0.21456905  1
  H  H11  1  0.88675301  0.28279800  0.78543097  1
