# generated using pymatgen
data_Au6F
_symmetry_space_group_name_H-M   'P 1'
_cell_length_a   3.68242407
_cell_length_b   3.68242407
_cell_length_c   6.48929119
_cell_angle_alpha   106.48300171
_cell_angle_beta   106.48300171
_cell_angle_gamma   90.00000000
_symmetry_Int_Tables_number   1
_chemical_formula_structural   Au6F
_chemical_formula_sum   'Au6 F1'
_cell_volume   80.60169652
_cell_formula_units_Z   1
loop_
 _symmetry_equiv_pos_site_id
 _symmetry_equiv_pos_as_xyz
  1  'x, y, z'
loop_
 _atom_site_type_symbol
 _atom_site_label
 _atom_site_symmetry_multiplicity
 _atom_site_fract_x
 _atom_site_fract_y
 _atom_site_fract_z
 _atom_site_occupancy
  Au  Au0  1  0.64375902  0.64375900  0.28751805  1
  Au  Au1  1  0.35860901  0.35860900  0.71721804  1
  Au  Au2  1  0.00533000  0.00533000  0.01066000  1
  F  F3  1  0.83269502  0.83269500  0.66539007  1
  Au  Au4  1  0.17018800  0.17018800  0.34037602  1
  Au  Au5  1  0.99470901  0.49470900  0.98941808  1
  Au  Au6  1  0.49470903  0.99470900  0.98941808  1
