# generated using pymatgen
data_La
_symmetry_space_group_name_H-M   'P 1'
_cell_length_a   4.31321621
_cell_length_b   5.13358784
_cell_length_c   10.58827782
_cell_angle_alpha   104.02932739
_cell_angle_beta   101.75216675
_cell_angle_gamma   90.00000000
_symmetry_Int_Tables_number   1
_chemical_formula_structural   La
_chemical_formula_sum   La7
_cell_volume   222.38631138
_cell_formula_units_Z   7
loop_
 _symmetry_equiv_pos_site_id
 _symmetry_equiv_pos_as_xyz
  1  'x, y, z'
loop_
 _atom_site_type_symbol
 _atom_site_label
 _atom_site_symmetry_multiplicity
 _atom_site_fract_x
 _atom_site_fract_y
 _atom_site_fract_z
 _atom_site_occupancy
  La  La0  1  0.00000000  0.00000000  0.00000000  1
  La  La1  1  0.68463896  0.18463901  0.36927798  1
  La  La2  1  0.31536098  0.81536104  0.63072200  1
  La  La3  1  0.43498697  0.43498702  0.86997399  1
  La  La4  1  0.56501296  0.56501303  0.13002600  1
  La  La5  1  0.86675395  0.36675402  0.73350798  1
  La  La6  1  0.13324599  0.63324603  0.26649201  1
