# generated using pymatgen
data_Ti
_symmetry_space_group_name_H-M   'P 1'
_cell_length_a   5.48433638
_cell_length_b   5.48433638
_cell_length_c   5.74827623
_cell_angle_alpha   61.50762939
_cell_angle_beta   61.50762939
_cell_angle_gamma   59.99999619
_symmetry_Int_Tables_number   1
_chemical_formula_structural   Ti
_chemical_formula_sum   Ti7
_cell_volume   124.96843489
_cell_formula_units_Z   7
loop_
 _symmetry_equiv_pos_site_id
 _symmetry_equiv_pos_as_xyz
  1  'x, y, z'
loop_
 _atom_site_type_symbol
 _atom_site_label
 _atom_site_symmetry_multiplicity
 _atom_site_fract_x
 _atom_site_fract_y
 _atom_site_fract_z
 _atom_site_occupancy
  Ti  Ti0  1  0.00000000  0.00000000  0.00000000  1
  Ti  Ti1  1  0.49999999  0.49999999  0.49999999  1
  Ti  Ti2  1  0.00000000  0.00000000  0.49999999  1
  Ti  Ti3  1  -0.00000000  0.49999999  0.49999999  1
  Ti  Ti4  1  0.49999999  0.00000000  0.49999999  1
  Ti  Ti5  1  0.71824899  0.71824899  0.84525298  1
  Ti  Ti6  1  0.28175100  0.28175100  0.15474700  1
