# generated using pymatgen
data_Zn
_symmetry_space_group_name_H-M   'P 1'
_cell_length_a   3.84935188
_cell_length_b   3.84935141
_cell_length_c   6.69504213
_cell_angle_alpha   90.00000000
_cell_angle_beta   90.00000000
_cell_angle_gamma   120.00000763
_symmetry_Int_Tables_number   1
_chemical_formula_structural   Zn
_chemical_formula_sum   Zn4
_cell_volume   85.91303979
_cell_formula_units_Z   4
loop_
 _symmetry_equiv_pos_site_id
 _symmetry_equiv_pos_as_xyz
  1  'x, y, z'
loop_
 _atom_site_type_symbol
 _atom_site_label
 _atom_site_symmetry_multiplicity
 _atom_site_fract_x
 _atom_site_fract_y
 _atom_site_fract_z
 _atom_site_occupancy
  Zn  Zn0  1  0.66666671  0.33333335  0.74999999  1
  Zn  Zn1  1  0.33333338  0.66666670  0.25000000  1
  Zn  Zn2  1  0.00000000  0.00000000  0.49999999  1
  Zn  Zn3  1  0.00000000  0.00000000  0.00000000  1
