# generated using pymatgen
data_F2
_symmetry_space_group_name_H-M   'P 1'
_cell_length_a   4.02714396
_cell_length_b   4.02714491
_cell_length_c   7.71611023
_cell_angle_alpha   90.00000000
_cell_angle_beta   90.00000000
_cell_angle_gamma   119.99999237
_symmetry_Int_Tables_number   1
_chemical_formula_structural   F2
_chemical_formula_sum   F8
_cell_volume   108.37359987
_cell_formula_units_Z   4
loop_
 _symmetry_equiv_pos_site_id
 _symmetry_equiv_pos_as_xyz
  1  'x, y, z'
loop_
 _atom_site_type_symbol
 _atom_site_label
 _atom_site_symmetry_multiplicity
 _atom_site_fract_x
 _atom_site_fract_y
 _atom_site_fract_z
 _atom_site_occupancy
  F  F0  1  0.33333333  0.66666665  0.08426000  1
  F  F1  1  0.66666667  0.33333333  0.58425998  1
  F  F2  1  0.33333333  0.66666665  0.41573999  1
  F  F3  1  0.66666667  0.33333333  0.91573997  1
  F  F4  1  0.00000000  0.00000000  0.24999999  1
  F  F5  1  0.00000000  0.00000000  0.74999998  1
  F  F6  1  0.33333333  0.66666665  0.74999998  1
  F  F7  1  0.66666667  0.33333333  0.24999999  1
