# generated using pymatgen
data_Zn2O3
_symmetry_space_group_name_H-M   'P 1'
_cell_length_a   3.71873808
_cell_length_b   3.71873808
_cell_length_c   5.10545301
_cell_angle_alpha   111.35791016
_cell_angle_beta   111.35791016
_cell_angle_gamma   90.00000000
_symmetry_Int_Tables_number   1
_chemical_formula_structural   Zn2O3
_chemical_formula_sum   'Zn2 O3'
_cell_volume   60.51855624
_cell_formula_units_Z   1
loop_
 _symmetry_equiv_pos_site_id
 _symmetry_equiv_pos_as_xyz
  1  'x, y, z'
loop_
 _atom_site_type_symbol
 _atom_site_label
 _atom_site_symmetry_multiplicity
 _atom_site_fract_x
 _atom_site_fract_y
 _atom_site_fract_z
 _atom_site_occupancy
  O  O0  1  0.24999997  0.74999997  0.49999996  1
  O  O1  1  0.74999997  0.24999999  0.49999997  1
  O  O2  1  0.00000000  0.00000000  0.00000000  1
  Zn  Zn3  1  0.14140499  0.14140499  0.28280999  1
  Zn  Zn4  1  0.85859494  0.85859497  0.71718994  1
