# generated using pymatgen
data_Zn
_symmetry_space_group_name_H-M   'P 1'
_cell_length_a   4.26867294
_cell_length_b   4.26867294
_cell_length_c   9.88423347
_cell_angle_alpha   90.00000000
_cell_angle_beta   90.00000000
_cell_angle_gamma   90.00000000
_symmetry_Int_Tables_number   1
_chemical_formula_structural   Zn
_chemical_formula_sum   Zn10
_cell_volume   180.10623926
_cell_formula_units_Z   10
loop_
 _symmetry_equiv_pos_site_id
 _symmetry_equiv_pos_as_xyz
  1  'x, y, z'
loop_
 _atom_site_type_symbol
 _atom_site_label
 _atom_site_symmetry_multiplicity
 _atom_site_fract_x
 _atom_site_fract_y
 _atom_site_fract_z
 _atom_site_occupancy
  Zn  Zn0  1  0.00000000  0.50000001  0.25506199  1
  Zn  Zn1  1  0.50000001  0.00000000  0.74493796  1
  Zn  Zn2  1  0.00000000  0.00000000  0.49999998  1
  Zn  Zn3  1  0.50000001  0.50000001  0.49999998  1
  Zn  Zn4  1  0.00000000  0.50000001  0.86702896  1
  Zn  Zn5  1  0.50000001  0.00000000  0.13297099  1
  Zn  Zn6  1  0.00000000  0.00000000  0.00000000  1
  Zn  Zn7  1  0.50000001  0.50000001  -0.00000000  1
  Zn  Zn8  1  0.00000000  0.50000001  0.62065797  1
  Zn  Zn9  1  0.50000001  0.00000000  0.37934198  1
