# generated using pymatgen
data_LaYb
_symmetry_space_group_name_H-M   'P 1'
_cell_length_a   3.29926991
_cell_length_b   5.87342596
_cell_length_c   7.36667585
_cell_angle_alpha   101.45547485
_cell_angle_beta   90.00000000
_cell_angle_gamma   106.31179047
_symmetry_Int_Tables_number   1
_chemical_formula_structural   LaYb
_chemical_formula_sum   'La3 Yb3'
_cell_volume   134.03991260
_cell_formula_units_Z   3
loop_
 _symmetry_equiv_pos_site_id
 _symmetry_equiv_pos_as_xyz
  1  'x, y, z'
loop_
 _atom_site_type_symbol
 _atom_site_label
 _atom_site_symmetry_multiplicity
 _atom_site_fract_x
 _atom_site_fract_y
 _atom_site_fract_z
 _atom_site_occupancy
  La  La0  1  0.38522205  0.77044400  0.27237297  1
  La  La1  1  0.05810901  0.11621800  0.61440798  1
  Yb  Yb2  1  0.99957308  0.99914600  0.00211898  1
  La  La3  1  0.66450903  0.32901800  0.33815198  1
  Yb  Yb4  1  0.33649004  0.67298000  0.66060097  1
  Yb  Yb5  1  0.72276404  0.44552800  0.94567996  1
