# generated using pymatgen
data_Hf5NO
_symmetry_space_group_name_H-M   'P 1'
_cell_length_a   3.99157906
_cell_length_b   3.99157906
_cell_length_c   6.98049784
_cell_angle_alpha   90.00000000
_cell_angle_beta   90.00000000
_cell_angle_gamma   90.00000000
_symmetry_Int_Tables_number   1
_chemical_formula_structural   Hf5NO
_chemical_formula_sum   'Hf5 N1 O1'
_cell_volume   111.21820133
_cell_formula_units_Z   1
loop_
 _symmetry_equiv_pos_site_id
 _symmetry_equiv_pos_as_xyz
  1  'x, y, z'
loop_
 _atom_site_type_symbol
 _atom_site_label
 _atom_site_symmetry_multiplicity
 _atom_site_fract_x
 _atom_site_fract_y
 _atom_site_fract_z
 _atom_site_occupancy
  Hf  Hf0  1  0.49999999  0.49999999  0.00000000  1
  O  O1  1  0.00000000  0.00000000  0.50000001  1
  Hf  Hf2  1  0.00000000  0.49999999  0.27970301  1
  Hf  Hf3  1  0.00000000  0.49999999  0.72029702  1
  Hf  Hf4  1  0.49999999  0.00000000  0.27970301  1
  Hf  Hf5  1  0.49999999  0.00000000  0.72029702  1
  N  N6  1  0.00000000  0.00000000  0.00000000  1
