# generated using pymatgen
data_Cs4As
_symmetry_space_group_name_H-M   'P 1'
_cell_length_a   6.41497898
_cell_length_b   6.80493593
_cell_length_c   8.12346172
_cell_angle_alpha   65.23833466
_cell_angle_beta   90.00000000
_cell_angle_gamma   90.00000000
_symmetry_Int_Tables_number   1
_chemical_formula_structural   Cs4As
_chemical_formula_sum   'Cs8 As2'
_cell_volume   322.01341588
_cell_formula_units_Z   2
loop_
 _symmetry_equiv_pos_site_id
 _symmetry_equiv_pos_as_xyz
  1  'x, y, z'
loop_
 _atom_site_type_symbol
 _atom_site_label
 _atom_site_symmetry_multiplicity
 _atom_site_fract_x
 _atom_site_fract_y
 _atom_site_fract_z
 _atom_site_occupancy
  Cs  Cs0  1  0.25000000  0.20580901  0.58838200  1
  Cs  Cs1  1  0.25000000  0.58245202  0.83509599  1
  Cs  Cs2  1  0.75000000  0.79419102  0.41161797  1
  Cs  Cs3  1  0.75000000  0.41754801  0.16490398  1
  Cs  Cs4  1  0.25000000  0.71554902  0.20807597  1
  Cs  Cs5  1  0.75000000  0.92362503  0.79192397  1
  Cs  Cs6  1  0.75000000  0.28445101  0.79192400  1
  Cs  Cs7  1  0.25000000  0.07637500  0.20807600  1
  As  As8  1  0.00000000  0.00000000  0.00000000  1
  As  As9  1  0.50000000  0.00000000  0.00000000  1
