# generated using pymatgen
data_BaLi(Si2O3)2
_symmetry_space_group_name_H-M   'P 1'
_cell_length_a   3.71560693
_cell_length_b   6.18210602
_cell_length_c   6.73061132
_cell_angle_alpha   110.02939606
_cell_angle_beta   90.00000000
_cell_angle_gamma   90.00000000
_symmetry_Int_Tables_number   1
_chemical_formula_structural   BaLi(Si2O3)2
_chemical_formula_sum   'Ba1 Li1 Si4 O6'
_cell_volume   145.25308897
_cell_formula_units_Z   1
loop_
 _symmetry_equiv_pos_site_id
 _symmetry_equiv_pos_as_xyz
  1  'x, y, z'
loop_
 _atom_site_type_symbol
 _atom_site_label
 _atom_site_symmetry_multiplicity
 _atom_site_fract_x
 _atom_site_fract_y
 _atom_site_fract_z
 _atom_site_occupancy
  Ba  Ba0  1  0.75000001  0.29765100  0.12151401  1
  Li  Li1  1  0.25000000  0.70234901  0.87848603  1
  Si  Si2  1  0.25000000  0.11760500  0.77591200  1
  Si  Si3  1  0.75000001  0.88239501  0.22408804  1
  Si  Si4  1  0.25000000  0.68068301  0.30253603  1
  Si  Si5  1  0.75000001  0.31931700  0.69746401  1
  O  O6  1  0.25000000  0.24242900  0.43245901  1
  O  O7  1  0.75000001  0.75757101  0.56754103  1
  O  O8  1  0.25000000  0.10203500  0.91502200  1
  O  O9  1  0.75000001  0.89796501  0.08497804  1
  O  O10  1  0.25000000  0.56279801  0.16195802  1
  O  O11  1  0.75000001  0.43720201  0.83804202  1
