# generated using pymatgen
data_H7O
_symmetry_space_group_name_H-M   'P 1'
_cell_length_a   4.31050920
_cell_length_b   5.81463385
_cell_length_c   6.61943197
_cell_angle_alpha   90.00000000
_cell_angle_beta   90.00000000
_cell_angle_gamma   105.54897308
_symmetry_Int_Tables_number   1
_chemical_formula_structural   H7O
_chemical_formula_sum   'H14 O2'
_cell_volume   159.83764496
_cell_formula_units_Z   2
loop_
 _symmetry_equiv_pos_site_id
 _symmetry_equiv_pos_as_xyz
  1  'x, y, z'
loop_
 _atom_site_type_symbol
 _atom_site_label
 _atom_site_symmetry_multiplicity
 _atom_site_fract_x
 _atom_site_fract_y
 _atom_site_fract_z
 _atom_site_occupancy
  O  O0  1  0.49717798  0.35762100  0.54244900  1
  H  H1  1  0.00282200  0.14237900  0.04244900  1
  H  H2  1  0.50282197  0.64237900  0.45755100  1
  H  H3  1  0.99717795  0.85762100  0.95755100  1
  O  O4  1  0.71813196  0.33222600  0.64140800  1
  H  H5  1  0.78186796  0.16777400  0.14140800  1
  H  H6  1  0.28186798  0.66777400  0.35859200  1
  H  H7  1  0.21813199  0.83222600  0.85859200  1
  H  H8  1  0.27419499  0.19228800  0.50130000  1
  H  H9  1  0.22580499  0.30771200  0.00130000  1
  H  H10  1  0.72580496  0.80771200  0.49870000  1
  H  H11  1  0.77419496  0.69228800  0.99870000  1
  H  H12  1  0.38602398  0.52723600  0.62464600  1
  H  H13  1  0.11397599  0.97276400  0.12464600  1
  H  H14  1  0.61397597  0.47276400  0.37535400  1
  H  H15  1  0.88602396  0.02723600  0.87535400  1
