# generated using pymatgen
data_S13O
_symmetry_space_group_name_H-M   'P 1'
_cell_length_a   6.22991991
_cell_length_b   7.00883579
_cell_length_c   7.67005968
_cell_angle_alpha   113.00157166
_cell_angle_beta   90.00000000
_cell_angle_gamma   116.38708496
_symmetry_Int_Tables_number   1
_chemical_formula_structural   S13O
_chemical_formula_sum   'S13 O1'
_cell_volume   269.96851079
_cell_formula_units_Z   1
loop_
 _symmetry_equiv_pos_site_id
 _symmetry_equiv_pos_as_xyz
  1  'x, y, z'
loop_
 _atom_site_type_symbol
 _atom_site_label
 _atom_site_symmetry_multiplicity
 _atom_site_fract_x
 _atom_site_fract_y
 _atom_site_fract_z
 _atom_site_occupancy
  S  S0  1  0.49039699  0.98079403  0.76519903  1
  S  S1  1  0.50960301  0.01920600  0.23480100  1
  S  S2  1  0.84328600  0.68657202  0.25091303  1
  S  S3  1  0.15671400  0.31342801  0.74908700  1
  O  O4  1  0.82385900  0.64771802  0.77238102  1
  S  S5  1  0.17614100  0.35228201  0.22761901  1
  S  S6  1  0.62100000  0.71431402  0.92221102  1
  S  S7  1  0.90668601  0.28568601  0.07778901  1
  S  S8  1  0.37900000  0.28568601  0.07778901  1
  S  S9  1  0.09331399  0.71431402  0.92221102  1
  S  S10  1  0.08907800  0.17815601  0.36232300  1
  S  S11  1  0.91092200  0.82184403  0.63767703  1
  S  S12  1  0.66705300  0.33410601  0.61631300  1
  S  S13  1  0.33294699  0.66589402  0.38368703  1
