# generated using pymatgen
data_BaAsF3
_symmetry_space_group_name_H-M   'P 1'
_cell_length_a   6.26571131
_cell_length_b   6.26571131
_cell_length_c   6.26571131
_cell_angle_alpha   60.00000000
_cell_angle_beta   60.00000000
_cell_angle_gamma   60.00000000
_symmetry_Int_Tables_number   1
_chemical_formula_structural   BaAsF3
_chemical_formula_sum   'Ba2 As2 F6'
_cell_volume   173.93866996
_cell_formula_units_Z   2
loop_
 _symmetry_equiv_pos_site_id
 _symmetry_equiv_pos_as_xyz
  1  'x, y, z'
loop_
 _atom_site_type_symbol
 _atom_site_label
 _atom_site_symmetry_multiplicity
 _atom_site_fract_x
 _atom_site_fract_y
 _atom_site_fract_z
 _atom_site_occupancy
  Ba  Ba0  1  0.25000000  0.25000000  0.25000000  1
  Ba  Ba1  1  0.75000001  0.75000001  0.75000001  1
  As  As2  1  0.50000000  0.50000000  0.50000000  1
  As  As3  1  0.00000000  0.00000000  0.00000000  1
  F  F4  1  0.24105500  0.75894501  0.24105500  1
  F  F5  1  0.24105500  0.24105500  0.75894501  1
  F  F6  1  0.75894501  0.24105500  0.75894501  1
  F  F7  1  0.24105500  0.75894501  0.75894501  1
  F  F8  1  0.75894501  0.24105500  0.24105500  1
  F  F9  1  0.75894501  0.75894501  0.24105500  1
