# generated using pymatgen
data_Ca8S
_symmetry_space_group_name_H-M   'P 1'
_cell_length_a   3.99534011
_cell_length_b   7.50343609
_cell_length_c   7.55380487
_cell_angle_alpha   109.19255829
_cell_angle_beta   90.00000000
_cell_angle_gamma   105.44029236
_symmetry_Int_Tables_number   1
_chemical_formula_structural   Ca8S
_chemical_formula_sum   'Ca8 S1'
_cell_volume   205.19353301
_cell_formula_units_Z   1
loop_
 _symmetry_equiv_pos_site_id
 _symmetry_equiv_pos_as_xyz
  1  'x, y, z'
loop_
 _atom_site_type_symbol
 _atom_site_label
 _atom_site_symmetry_multiplicity
 _atom_site_fract_x
 _atom_site_fract_y
 _atom_site_fract_z
 _atom_site_occupancy
  Ca  Ca0  1  0.13674500  0.27348999  0.56264399  1
  Ca  Ca1  1  0.86325498  0.72650997  0.43735598  1
  Ca  Ca2  1  0.00000000  0.00000000  0.00000000  1
  Ca  Ca3  1  0.32071199  0.64142398  0.01417798  1
  S  S4  1  0.67928798  0.35857599  0.98582199  1
  Ca  Ca5  1  0.20084099  0.40168198  0.17214699  1
  Ca  Ca6  1  0.79915898  0.59831798  0.82785298  1
  Ca  Ca7  1  0.47871899  0.95743796  0.23534697  1
  Ca  Ca8  1  0.52128099  0.04256200  0.76465300  1
