# generated using pymatgen
data_CsLu
_symmetry_space_group_name_H-M   'P 1'
_cell_length_a   3.10509372
_cell_length_b   3.10509372
_cell_length_c   6.19606066
_cell_angle_alpha   75.48876190
_cell_angle_beta   75.48876190
_cell_angle_gamma   60.00000763
_symmetry_Int_Tables_number   1
_chemical_formula_structural   CsLu
_chemical_formula_sum   'Cs1 Lu1'
_cell_volume   49.52350192
_cell_formula_units_Z   1
loop_
 _symmetry_equiv_pos_site_id
 _symmetry_equiv_pos_as_xyz
  1  'x, y, z'
loop_
 _atom_site_type_symbol
 _atom_site_label
 _atom_site_symmetry_multiplicity
 _atom_site_fract_x
 _atom_site_fract_y
 _atom_site_fract_z
 _atom_site_occupancy
  Lu  Lu0  1  0.00000000  0.00000000  0.00000000  1
  Cs  Cs1  1  0.49999996  0.49999998  0.50000002  1
