# generated using pymatgen
data_O2
_symmetry_space_group_name_H-M   'P 1'
_cell_length_a   4.12651777
_cell_length_b   5.19357491
_cell_length_c   8.85596848
_cell_angle_alpha   90.00000000
_cell_angle_beta   90.00000000
_cell_angle_gamma   90.00000000
_symmetry_Int_Tables_number   1
_chemical_formula_structural   O2
_chemical_formula_sum   O16
_cell_volume   189.79561814
_cell_formula_units_Z   8
loop_
 _symmetry_equiv_pos_site_id
 _symmetry_equiv_pos_as_xyz
  1  'x, y, z'
loop_
 _atom_site_type_symbol
 _atom_site_label
 _atom_site_symmetry_multiplicity
 _atom_site_fract_x
 _atom_site_fract_y
 _atom_site_fract_z
 _atom_site_occupancy
  O  O0  1  0.50000003  0.60827801  0.49995697  1
  O  O1  1  0.50000003  0.39172201  0.99995695  1
  O  O2  1  0.31013502  0.90081502  0.18006699  1
  O  O3  1  0.68986504  0.90081502  0.18006699  1
  O  O4  1  0.00000000  0.22592600  0.29184598  1
  O  O5  1  0.00000000  0.13925600  0.46273298  1
  O  O6  1  0.31013502  0.09918500  0.68006696  1
  O  O7  1  0.68986504  0.09918500  0.68006696  1
  O  O8  1  0.00000000  0.77407401  0.79184596  1
  O  O9  1  0.00000000  0.86074402  0.96273295  1
  O  O10  1  0.50000003  0.79714301  0.21147599  1
  O  O11  1  0.00000000  0.29209701  0.39630398  1
  O  O12  1  0.50000003  0.20285700  0.71147596  1
  O  O13  1  0.00000000  0.70790301  0.89630395  1
  O  O14  1  0.00000000  0.09241600  0.11094999  1
  O  O15  1  0.00000000  0.90758402  0.61094997  1
