# generated using pymatgen
data_BaZnO4
_symmetry_space_group_name_H-M   'P 1'
_cell_length_a   2.81745291
_cell_length_b   4.83089972
_cell_length_c   4.94106579
_cell_angle_alpha   90.12399292
_cell_angle_beta   89.99845886
_cell_angle_gamma   89.99976349
_symmetry_Int_Tables_number   1
_chemical_formula_structural   BaZnO4
_chemical_formula_sum   'Ba1 Zn1 O4'
_cell_volume   67.25186106
_cell_formula_units_Z   1
loop_
 _symmetry_equiv_pos_site_id
 _symmetry_equiv_pos_as_xyz
  1  'x, y, z'
loop_
 _atom_site_type_symbol
 _atom_site_label
 _atom_site_symmetry_multiplicity
 _atom_site_fract_x
 _atom_site_fract_y
 _atom_site_fract_z
 _atom_site_occupancy
  Zn  Zn0  1  0.50000002  0.00000400  0.49999799  1
  Ba  Ba1  1  0.00000000  0.00000300  -0.00000000  1
  O  O2  1  0.50000604  0.19434501  0.83258998  1
  O  O3  1  0.99999905  0.19436201  0.33260297  1
  O  O4  1  0.00000008  0.80563603  0.66739698  1
  O  O5  1  0.49999409  0.80564803  0.16741097  1
