# generated using pymatgen
data_BaSb4O
_symmetry_space_group_name_H-M   'P 1'
_cell_length_a   4.60600805
_cell_length_b   4.60600805
_cell_length_c   11.45171165
_cell_angle_alpha   78.39837646
_cell_angle_beta   78.39837646
_cell_angle_gamma   60.00000000
_symmetry_Int_Tables_number   1
_chemical_formula_structural   BaSb4O
_chemical_formula_sum   'Ba1 Sb4 O1'
_cell_volume   204.65072306
_cell_formula_units_Z   1
loop_
 _symmetry_equiv_pos_site_id
 _symmetry_equiv_pos_as_xyz
  1  'x, y, z'
loop_
 _atom_site_type_symbol
 _atom_site_label
 _atom_site_symmetry_multiplicity
 _atom_site_fract_x
 _atom_site_fract_y
 _atom_site_fract_z
 _atom_site_occupancy
  Sb  Sb0  1  0.38659102  0.38659100  0.84022696  1
  Sb  Sb1  1  0.61340904  0.61340900  0.15977297  1
  Sb  Sb2  1  0.30194002  0.30194000  0.09417998  1
  O  O3  1  0.69806004  0.69806000  0.90581995  1
  Ba  Ba4  1  0.11321801  0.11321800  0.66034598  1
  Sb  Sb5  1  0.88678205  0.88678200  0.33965395  1
