# generated using pymatgen
data_La2ZnSi3
_symmetry_space_group_name_H-M   'P 1'
_cell_length_a   4.34862614
_cell_length_b   5.56495810
_cell_length_c   5.70559740
_cell_angle_alpha   78.57038116
_cell_angle_beta   67.59914398
_cell_angle_gamma   67.00099945
_symmetry_Int_Tables_number   1
_chemical_formula_structural   La2ZnSi3
_chemical_formula_sum   'La2 Zn1 Si3'
_cell_volume   117.31168637
_cell_formula_units_Z   1
loop_
 _symmetry_equiv_pos_site_id
 _symmetry_equiv_pos_as_xyz
  1  'x, y, z'
loop_
 _atom_site_type_symbol
 _atom_site_label
 _atom_site_symmetry_multiplicity
 _atom_site_fract_x
 _atom_site_fract_y
 _atom_site_fract_z
 _atom_site_occupancy
  La  La0  1  0.45560196  0.78443602  0.30436003  1
  La  La1  1  0.54439797  0.21556401  0.69564001  1
  Zn  Zn2  1  0.15519097  0.79441902  0.89519903  1
  Si  Si3  1  0.84480896  0.20558100  0.10480101  1
  Si  Si4  1  0.81495395  0.62834702  0.74174503  1
  Si  Si5  1  0.18504598  0.37165301  0.25825502  1
