# generated using pymatgen
data_Zn3O
_symmetry_space_group_name_H-M   'P 1'
_cell_length_a   3.28798389
_cell_length_b   3.28798389
_cell_length_c   10.27069950
_cell_angle_alpha   80.78926086
_cell_angle_beta   80.78926086
_cell_angle_gamma   60.00000381
_symmetry_Int_Tables_number   1
_chemical_formula_structural   Zn3O
_chemical_formula_sum   'Zn6 O2'
_cell_volume   94.50227660
_cell_formula_units_Z   2
loop_
 _symmetry_equiv_pos_site_id
 _symmetry_equiv_pos_as_xyz
  1  'x, y, z'
loop_
 _atom_site_type_symbol
 _atom_site_label
 _atom_site_symmetry_multiplicity
 _atom_site_fract_x
 _atom_site_fract_y
 _atom_site_fract_z
 _atom_site_occupancy
  Zn  Zn0  1  0.00000000  0.00000000  0.00000000  1
  Zn  Zn1  1  0.50000001  0.49999999  0.49999997  1
  Zn  Zn2  1  0.73862102  0.73862099  0.78413696  1
  O  O3  1  0.26137901  0.26137900  0.21586299  1
  Zn  Zn4  1  0.61844102  0.61844099  0.14467697  1
  Zn  Zn5  1  0.38155901  0.38155899  0.85532297  1
  Zn  Zn6  1  0.20005701  0.20005700  0.39982899  1
  O  O7  1  0.79994302  0.79994299  0.60017096  1
