# generated using pymatgen
data_Sn
_symmetry_space_group_name_H-M   'P 1'
_cell_length_a   4.89712381
_cell_length_b   4.89712429
_cell_length_c   8.63886833
_cell_angle_alpha   90.00000000
_cell_angle_beta   90.00000000
_cell_angle_gamma   120.00000000
_symmetry_Int_Tables_number   1
_chemical_formula_structural   Sn
_chemical_formula_sum   Sn8
_cell_volume   179.41952294
_cell_formula_units_Z   8
loop_
 _symmetry_equiv_pos_site_id
 _symmetry_equiv_pos_as_xyz
  1  'x, y, z'
loop_
 _atom_site_type_symbol
 _atom_site_label
 _atom_site_symmetry_multiplicity
 _atom_site_fract_x
 _atom_site_fract_y
 _atom_site_fract_z
 _atom_site_occupancy
  Sn  Sn0  1  0.66666670  0.33333333  0.07878100  1
  Sn  Sn1  1  0.33333336  0.66666666  0.57878098  1
  Sn  Sn2  1  0.00000000  0.00000000  0.74999997  1
  Sn  Sn3  1  0.00000000  0.00000000  0.24999999  1
  Sn  Sn4  1  0.66666670  0.33333333  0.42121898  1
  Sn  Sn5  1  0.33333336  0.66666666  0.92121896  1
  Sn  Sn6  1  0.33333336  0.66666666  0.24999999  1
  Sn  Sn7  1  0.66666670  0.33333333  0.74999997  1
