# generated using pymatgen
data_Au3O5
_symmetry_space_group_name_H-M   'P 1'
_cell_length_a   3.26873994
_cell_length_b   3.26874018
_cell_length_c   12.30613708
_cell_angle_alpha   90.00000000
_cell_angle_beta   90.00000000
_cell_angle_gamma   120.00000000
_symmetry_Int_Tables_number   1
_chemical_formula_structural   Au3O5
_chemical_formula_sum   'Au3 O5'
_cell_volume   113.87100428
_cell_formula_units_Z   1
loop_
 _symmetry_equiv_pos_site_id
 _symmetry_equiv_pos_as_xyz
  1  'x, y, z'
loop_
 _atom_site_type_symbol
 _atom_site_label
 _atom_site_symmetry_multiplicity
 _atom_site_fract_x
 _atom_site_fract_y
 _atom_site_fract_z
 _atom_site_occupancy
  Au  Au0  1  0.00000000  0.00000000  0.00000000  1
  Au  Au1  1  0.00000000  0.00000000  0.50000000  1
  Au  Au2  1  0.33333335  0.66666666  0.25000000  1
  O  O3  1  0.66666669  0.33333333  0.74999999  1
  O  O4  1  0.66666669  0.33333333  0.58149000  1
  O  O5  1  0.33333335  0.66666666  0.08149000  1
  O  O6  1  0.66666669  0.33333333  0.91850999  1
  O  O7  1  0.33333335  0.66666666  0.41851000  1
