# generated using pymatgen
data_Ba5Te3
_symmetry_space_group_name_H-M   'P 1'
_cell_length_a   3.92330194
_cell_length_b   11.17712402
_cell_length_c   11.17712402
_cell_angle_alpha   120.00000000
_cell_angle_beta   90.00000000
_cell_angle_gamma   90.00000000
_symmetry_Int_Tables_number   1
_chemical_formula_structural   Ba5Te3
_chemical_formula_sum   'Ba5 Te3'
_cell_volume   424.46560457
_cell_formula_units_Z   1
loop_
 _symmetry_equiv_pos_site_id
 _symmetry_equiv_pos_as_xyz
  1  'x, y, z'
loop_
 _atom_site_type_symbol
 _atom_site_label
 _atom_site_symmetry_multiplicity
 _atom_site_fract_x
 _atom_site_fract_y
 _atom_site_fract_z
 _atom_site_occupancy
  Ba  Ba0  1  0.25000000  0.66666666  0.33333331  1
  Ba  Ba1  1  0.75000001  0.33333333  0.66666664  1
  Ba  Ba2  1  0.75000001  0.78464799  0.21535198  1
  Ba  Ba3  1  0.75000001  0.43070400  0.21535199  1
  Ba  Ba4  1  0.75000001  0.78464799  0.56929597  1
  Te  Te5  1  0.25000000  0.21535200  0.78464798  1
  Te  Te6  1  0.25000000  0.56929599  0.78464797  1
  Te  Te7  1  0.25000000  0.21535200  0.43070398  1
