# generated using pymatgen
data_Cs2As
_symmetry_space_group_name_H-M   'P 1'
_cell_length_a   7.15420151
_cell_length_b   7.15420151
_cell_length_c   10.21724892
_cell_angle_alpha   75.68281555
_cell_angle_beta   75.68281555
_cell_angle_gamma   89.06095886
_symmetry_Int_Tables_number   1
_chemical_formula_structural   Cs2As
_chemical_formula_sum   'Cs8 As4'
_cell_volume   490.40774042
_cell_formula_units_Z   4
loop_
 _symmetry_equiv_pos_site_id
 _symmetry_equiv_pos_as_xyz
  1  'x, y, z'
loop_
 _atom_site_type_symbol
 _atom_site_label
 _atom_site_symmetry_multiplicity
 _atom_site_fract_x
 _atom_site_fract_y
 _atom_site_fract_z
 _atom_site_occupancy
  Cs  Cs0  1  0.74219696  0.84819900  0.98037101  1
  Cs  Cs1  1  0.65512598  0.34487400  0.24999999  1
  Cs  Cs2  1  0.25780299  0.15180100  0.01962899  1
  Cs  Cs3  1  0.34487397  0.65512600  0.75000001  1
  Cs  Cs4  1  0.84819896  0.74219700  0.48037099  1
  Cs  Cs5  1  0.15180099  0.25780300  0.51962901  1
  As  As6  1  0.28642396  0.71357600  0.24999999  1
  As  As7  1  0.71357599  0.28642400  0.75000001  1
  Cs  Cs8  1  0.59511099  0.16270600  0.64552601  1
  As  As9  1  0.16270597  0.59511100  0.14552599  1
  As  As10  1  0.83729398  0.40488900  0.85447401  1
  Cs  Cs11  1  0.40488896  0.83729400  0.35447399  1
