# generated using pymatgen
data_Si7O
_symmetry_space_group_name_H-M   'P 1'
_cell_length_a   3.31501389
_cell_length_b   5.39728117
_cell_length_c   5.99785900
_cell_angle_alpha   90.00000000
_cell_angle_beta   90.00000000
_cell_angle_gamma   90.00000000
_symmetry_Int_Tables_number   1
_chemical_formula_structural   Si7O
_chemical_formula_sum   'Si7 O1'
_cell_volume   107.31406525
_cell_formula_units_Z   1
loop_
 _symmetry_equiv_pos_site_id
 _symmetry_equiv_pos_as_xyz
  1  'x, y, z'
loop_
 _atom_site_type_symbol
 _atom_site_label
 _atom_site_symmetry_multiplicity
 _atom_site_fract_x
 _atom_site_fract_y
 _atom_site_fract_z
 _atom_site_occupancy
  Si  Si0  1  0.75000003  0.99960597  0.20012700  1
  Si  Si1  1  0.25000001  0.00039400  0.79987300  1
  O  O2  1  0.75000003  0.49960598  0.29987300  1
  Si  Si3  1  0.25000001  0.50039398  0.70012700  1
  Si  Si4  1  0.75000003  0.80081997  0.57603200  1
  Si  Si5  1  0.25000001  0.19917999  0.42396800  1
  Si  Si6  1  0.75000003  0.30081999  0.92396800  1
  Si  Si7  1  0.25000001  0.69917998  0.07603200  1
