# generated using pymatgen
data_BaYb2
_symmetry_space_group_name_H-M   'P 1'
_cell_length_a   3.18551612
_cell_length_b   5.53760719
_cell_length_c   9.02773857
_cell_angle_alpha   90.00000000
_cell_angle_beta   100.16184998
_cell_angle_gamma   90.00000000
_symmetry_Int_Tables_number   1
_chemical_formula_structural   BaYb2
_chemical_formula_sum   'Ba2 Yb4'
_cell_volume   156.75242952
_cell_formula_units_Z   2
loop_
 _symmetry_equiv_pos_site_id
 _symmetry_equiv_pos_as_xyz
  1  'x, y, z'
loop_
 _atom_site_type_symbol
 _atom_site_label
 _atom_site_symmetry_multiplicity
 _atom_site_fract_x
 _atom_site_fract_y
 _atom_site_fract_z
 _atom_site_occupancy
  Ba  Ba0  1  0.11032200  0.24999999  0.22064400  1
  Yb  Yb1  1  0.88967797  0.74999997  0.77935599  1
  Yb  Yb2  1  0.44389899  0.24999999  0.88779799  1
  Yb  Yb3  1  0.78087598  0.24999999  0.56175200  1
  Ba  Ba4  1  0.21912399  0.74999997  0.43824799  1
  Yb  Yb5  1  0.55610098  0.74999997  0.11220200  1
