# generated using pymatgen
data_ZnS2
_symmetry_space_group_name_H-M   'P 1'
_cell_length_a   3.55515790
_cell_length_b   3.55515790
_cell_length_c   11.56271172
_cell_angle_alpha   90.00000000
_cell_angle_beta   90.00000000
_cell_angle_gamma   120.00000000
_symmetry_Int_Tables_number   1
_chemical_formula_structural   ZnS2
_chemical_formula_sum   'Zn2 S4'
_cell_volume   126.56339566
_cell_formula_units_Z   2
loop_
 _symmetry_equiv_pos_site_id
 _symmetry_equiv_pos_as_xyz
  1  'x, y, z'
loop_
 _atom_site_type_symbol
 _atom_site_label
 _atom_site_symmetry_multiplicity
 _atom_site_fract_x
 _atom_site_fract_y
 _atom_site_fract_z
 _atom_site_occupancy
  S  S0  1  0.66666668  0.33333333  0.60564301  1
  S  S1  1  0.33333333  0.66666666  0.10564300  1
  S  S2  1  0.33333333  0.66666666  0.38482601  1
  S  S3  1  0.66666668  0.33333333  0.88482602  1
  Zn  Zn4  1  0.00000000  0.00000000  0.50953101  1
  Zn  Zn5  1  0.00000000  0.00000000  0.00953100  1
