# generated using pymatgen
data_F2
_symmetry_space_group_name_H-M   'P 1'
_cell_length_a   5.84165621
_cell_length_b   5.84165621
_cell_length_c   5.84165668
_cell_angle_alpha   61.75978088
_cell_angle_beta   61.75978088
_cell_angle_gamma   61.75978088
_symmetry_Int_Tables_number   1
_chemical_formula_structural   F2
_chemical_formula_sum   F10
_cell_volume   146.51709535
_cell_formula_units_Z   5
loop_
 _symmetry_equiv_pos_site_id
 _symmetry_equiv_pos_as_xyz
  1  'x, y, z'
loop_
 _atom_site_type_symbol
 _atom_site_label
 _atom_site_symmetry_multiplicity
 _atom_site_fract_x
 _atom_site_fract_y
 _atom_site_fract_z
 _atom_site_occupancy
  F  F0  1  0.50000003  0.50000001  0.49999999  1
  F  F1  1  0.23426801  0.23426800  0.23426800  1
  F  F2  1  0.76573204  0.76573201  0.76573199  1
  F  F3  1  0.00000000  0.00000000  0.00000000  1
  F  F4  1  0.65600402  0.21516200  0.87240299  1
  F  F5  1  0.21516203  0.87240302  0.65600399  1
  F  F6  1  0.87240304  0.65600401  0.21516201  1
  F  F7  1  0.34399603  0.78483802  0.12759700  1
  F  F8  1  0.12759701  0.34399601  0.78483798  1
  F  F9  1  0.78483803  0.12759700  0.34399600  1
