# generated using pymatgen
data_BaAu4
_symmetry_space_group_name_H-M   'P 1'
_cell_length_a   5.62313128
_cell_length_b   5.62313128
_cell_length_c   6.16374588
_cell_angle_alpha   105.41203308
_cell_angle_beta   105.41203308
_cell_angle_gamma   114.66941833
_symmetry_Int_Tables_number   1
_chemical_formula_structural   BaAu4
_chemical_formula_sum   'Ba2 Au8'
_cell_volume   154.14960997
_cell_formula_units_Z   2
loop_
 _symmetry_equiv_pos_site_id
 _symmetry_equiv_pos_as_xyz
  1  'x, y, z'
loop_
 _atom_site_type_symbol
 _atom_site_label
 _atom_site_symmetry_multiplicity
 _atom_site_fract_x
 _atom_site_fract_y
 _atom_site_fract_z
 _atom_site_occupancy
  Ba  Ba0  1  0.00000000  0.00000000  0.00000000  1
  Ba  Ba1  1  0.24999998  0.74999998  0.50000003  1
  Au  Au2  1  0.32836298  0.67163698  0.00000001  1
  Au  Au3  1  0.57836298  0.42163699  0.50000003  1
  Au  Au4  1  0.67163698  0.32836299  0.00000001  1
  Au  Au5  1  0.92163699  0.07836300  0.50000003  1
  Au  Au6  1  0.63071897  0.63071898  0.26143802  1
  Au  Au7  1  0.88071898  0.38071899  0.76143804  1
  Au  Au8  1  0.61928099  0.11928100  0.23856202  1
  Au  Au9  1  0.36928099  0.36928099  0.73856203  1
