# generated using pymatgen
data_Zn
_symmetry_space_group_name_H-M   'P 1'
_cell_length_a   3.29554009
_cell_length_b   3.29554009
_cell_length_c   10.15224934
_cell_angle_alpha   99.34076691
_cell_angle_beta   99.34076691
_cell_angle_gamma   90.00000000
_symmetry_Int_Tables_number   1
_chemical_formula_structural   Zn
_chemical_formula_sum   Zn5
_cell_volume   107.31547495
_cell_formula_units_Z   5
loop_
 _symmetry_equiv_pos_site_id
 _symmetry_equiv_pos_as_xyz
  1  'x, y, z'
loop_
 _atom_site_type_symbol
 _atom_site_label
 _atom_site_symmetry_multiplicity
 _atom_site_fract_x
 _atom_site_fract_y
 _atom_site_fract_z
 _atom_site_occupancy
  Zn  Zn0  1  0.41220900  0.41220899  0.82441802  1
  Zn  Zn1  1  0.80479299  0.80479298  0.60958603  1
  Zn  Zn2  1  0.19520700  0.19520700  0.39041401  1
  Zn  Zn3  1  0.58779100  0.58779099  0.17558202  1
  Zn  Zn4  1  0.00000000  0.00000000  0.00000000  1
