# generated using pymatgen
data_TcAu3
_symmetry_space_group_name_H-M   'P 1'
_cell_length_a   3.46083808
_cell_length_b   3.46083808
_cell_length_c   4.15018463
_cell_angle_alpha   114.64216614
_cell_angle_beta   114.64216614
_cell_angle_gamma   90.00000000
_symmetry_Int_Tables_number   1
_chemical_formula_structural   TcAu3
_chemical_formula_sum   'Tc1 Au3'
_cell_volume   40.14722794
_cell_formula_units_Z   1
loop_
 _symmetry_equiv_pos_site_id
 _symmetry_equiv_pos_as_xyz
  1  'x, y, z'
loop_
 _atom_site_type_symbol
 _atom_site_label
 _atom_site_symmetry_multiplicity
 _atom_site_fract_x
 _atom_site_fract_y
 _atom_site_fract_z
 _atom_site_occupancy
  Au  Au0  1  0.00000000  0.00000000  0.00000000  1
  Au  Au1  1  0.74999995  0.24999999  0.49999997  1
  Au  Au2  1  0.24999995  0.74999996  0.49999996  1
  Tc  Tc3  1  0.49999995  0.49999997  -0.00000006  1
