# generated using pymatgen
data_Ba6I
_symmetry_space_group_name_H-M   'P 1'
_cell_length_a   4.61446381
_cell_length_b   8.69908619
_cell_length_c   15.22021294
_cell_angle_alpha   92.77647400
_cell_angle_beta   90.00000000
_cell_angle_gamma   90.00000000
_symmetry_Int_Tables_number   1
_chemical_formula_structural   Ba6I
_chemical_formula_sum   'Ba12 I2'
_cell_volume   610.24677536
_cell_formula_units_Z   2
loop_
 _symmetry_equiv_pos_site_id
 _symmetry_equiv_pos_as_xyz
  1  'x, y, z'
loop_
 _atom_site_type_symbol
 _atom_site_label
 _atom_site_symmetry_multiplicity
 _atom_site_fract_x
 _atom_site_fract_y
 _atom_site_fract_z
 _atom_site_occupancy
  Ba  Ba0  1  0.25000001  0.45270399  0.64591001  1
  Ba  Ba1  1  0.75000003  0.54729599  0.35409001  1
  Ba  Ba2  1  0.75000003  0.05307200  0.84094699  1
  I  I3  1  0.25000001  0.94692798  0.15905303  1
  Ba  Ba4  1  0.25000001  0.04827700  0.68552200  1
  Ba  Ba5  1  0.75000003  0.15064200  0.06480300  1
  Ba  Ba6  1  0.75000003  0.29877999  0.51780200  1
  Ba  Ba7  1  0.25000001  0.32809999  0.87918200  1
  Ba  Ba8  1  0.25000001  0.31938299  0.26275501  1
  Ba  Ba9  1  0.75000003  0.68061699  0.73724501  1
  Ba  Ba10  1  0.75000003  0.67189999  0.12081802  1
  Ba  Ba11  1  0.25000001  0.70121999  0.48219802  1
  I  I12  1  0.25000001  0.84935798  0.93519702  1
  Ba  Ba13  1  0.75000003  0.95172298  0.31447803  1
