# generated using pymatgen
data_KSe11
_symmetry_space_group_name_H-M   'P 1'
_cell_length_a   6.52226210
_cell_length_b   6.52226210
_cell_length_c   8.95878315
_cell_angle_alpha   75.12940979
_cell_angle_beta   75.12940979
_cell_angle_gamma   86.52832031
_symmetry_Int_Tables_number   1
_chemical_formula_structural   KSe11
_chemical_formula_sum   'K1 Se11'
_cell_volume   355.99947638
_cell_formula_units_Z   1
loop_
 _symmetry_equiv_pos_site_id
 _symmetry_equiv_pos_as_xyz
  1  'x, y, z'
loop_
 _atom_site_type_symbol
 _atom_site_label
 _atom_site_symmetry_multiplicity
 _atom_site_fract_x
 _atom_site_fract_y
 _atom_site_fract_z
 _atom_site_occupancy
  K  K0  1  0.34920306  0.65079702  0.24999997  1
  Se  Se1  1  0.65079705  0.34920301  0.74999997  1
  Se  Se2  1  0.15176402  0.25208801  0.01898299  1
  Se  Se3  1  0.74791208  0.84823603  0.48101695  1
  Se  Se4  1  0.84823608  0.74791203  0.98101695  1
  Se  Se5  1  0.25208802  0.15176401  0.51898298  1
  Se  Se6  1  0.71742204  0.28257801  0.24999997  1
  Se  Se7  1  0.28257806  0.71742203  0.74999996  1
  Se  Se8  1  0.85265706  0.40815701  0.35194996  1
  Se  Se9  1  0.59184303  0.14734301  0.14804998  1
  Se  Se10  1  0.40815707  0.85265703  0.85194995  1
  Se  Se11  1  0.14734304  0.59184302  0.64804997  1
