# generated using pymatgen
data_TiAuO10
_symmetry_space_group_name_H-M   'P 1'
_cell_length_a   4.92670822
_cell_length_b   4.92670774
_cell_length_c   8.83041954
_cell_angle_alpha   90.00000000
_cell_angle_beta   90.00000000
_cell_angle_gamma   120.00000000
_symmetry_Int_Tables_number   1
_chemical_formula_structural   TiAuO10
_chemical_formula_sum   'Ti1 Au1 O10'
_cell_volume   185.62036072
_cell_formula_units_Z   1
loop_
 _symmetry_equiv_pos_site_id
 _symmetry_equiv_pos_as_xyz
  1  'x, y, z'
loop_
 _atom_site_type_symbol
 _atom_site_label
 _atom_site_symmetry_multiplicity
 _atom_site_fract_x
 _atom_site_fract_y
 _atom_site_fract_z
 _atom_site_occupancy
  Au  Au0  1  0.00000000  0.00000000  0.50000003  1
  Ti  Ti1  1  0.00000000  0.00000000  0.00000000  1
  O  O2  1  0.66666663  0.33333333  0.80068804  1
  O  O3  1  0.33333330  0.66666666  0.19931201  1
  O  O4  1  0.91145095  0.26196500  0.85653604  1
  O  O5  1  0.35051398  0.08854900  0.85653604  1
  O  O6  1  0.64948595  0.73803499  0.14346401  1
  O  O7  1  0.73803494  0.64948599  0.85653604  1
  O  O8  1  0.26196496  0.91145099  0.14346401  1
  O  O9  1  0.08854898  0.35051399  0.14346401  1
  O  O10  1  0.66666663  0.33333333  0.63542503  1
  O  O11  1  0.33333330  0.66666666  0.36457502  1
