# generated using pymatgen
data_Ti9O
_symmetry_space_group_name_H-M   'P 1'
_cell_length_a   4.00758123
_cell_length_b   4.00758123
_cell_length_c   7.99487019
_cell_angle_alpha   90.00000000
_cell_angle_beta   90.00000000
_cell_angle_gamma   90.00000000
_symmetry_Int_Tables_number   1
_chemical_formula_structural   Ti9O
_chemical_formula_sum   'Ti9 O1'
_cell_volume   128.40327033
_cell_formula_units_Z   1
loop_
 _symmetry_equiv_pos_site_id
 _symmetry_equiv_pos_as_xyz
  1  'x, y, z'
loop_
 _atom_site_type_symbol
 _atom_site_label
 _atom_site_symmetry_multiplicity
 _atom_site_fract_x
 _atom_site_fract_y
 _atom_site_fract_z
 _atom_site_occupancy
  Ti  Ti0  1  0.49999997  0.49999997  0.49999999  1
  Ti  Ti1  1  0.49999997  0.49999997  -0.00000000  1
  O  O2  1  0.00000000  0.00000000  0.24663299  1
  Ti  Ti3  1  0.00000000  0.00000000  0.75336698  1
  Ti  Ti4  1  0.49999997  0.00000000  0.24351999  1
  Ti  Ti5  1  0.49999997  0.00000000  0.75647998  1
  Ti  Ti6  1  0.00000000  0.49999997  0.75647998  1
  Ti  Ti7  1  0.00000000  0.49999997  0.24351999  1
  Ti  Ti8  1  0.00000000  0.00000000  0.00000000  1
  Ti  Ti9  1  0.00000000  0.00000000  0.49999999  1
