# generated using pymatgen
data_Li2MnO7
_symmetry_space_group_name_H-M   'P 1'
_cell_length_a   2.97819209
_cell_length_b   3.03759003
_cell_length_c   9.32356644
_cell_angle_alpha   99.37517548
_cell_angle_beta   90.00000000
_cell_angle_gamma   90.00000000
_symmetry_Int_Tables_number   1
_chemical_formula_structural   Li2MnO7
_chemical_formula_sum   'Li2 Mn1 O7'
_cell_volume   83.21926957
_cell_formula_units_Z   1
loop_
 _symmetry_equiv_pos_site_id
 _symmetry_equiv_pos_as_xyz
  1  'x, y, z'
loop_
 _atom_site_type_symbol
 _atom_site_label
 _atom_site_symmetry_multiplicity
 _atom_site_fract_x
 _atom_site_fract_y
 _atom_site_fract_z
 _atom_site_occupancy
  Mn  Mn0  1  0.24999999  0.42935300  0.85870600  1
  Li  Li1  1  0.74999998  0.57064699  0.14129400  1
  O  O2  1  0.24999999  0.70502299  0.41004600  1
  Li  Li3  1  0.74999998  0.29497700  0.58995400  1
  O  O4  1  0.24999999  0.02363600  0.04727200  1
  O  O5  1  0.74999998  0.97636399  0.95272800  1
  O  O6  1  0.24999999  0.11788800  0.23577600  1
  O  O7  1  0.74999998  0.88211199  0.76422400  1
  O  O8  1  0.24999999  0.83101699  0.66203400  1
  O  O9  1  0.74999998  0.16898300  0.33796600  1
