# generated using pymatgen
data_Cs3Se2
_symmetry_space_group_name_H-M   'P 1'
_cell_length_a   8.45466423
_cell_length_b   8.65702152
_cell_length_c   8.45466423
_cell_angle_alpha   60.77027130
_cell_angle_beta   90.00000000
_cell_angle_gamma   119.22972870
_symmetry_Int_Tables_number   1
_chemical_formula_structural   Cs3Se2
_chemical_formula_sum   'Cs6 Se4'
_cell_volume   447.56314677
_cell_formula_units_Z   2
loop_
 _symmetry_equiv_pos_site_id
 _symmetry_equiv_pos_as_xyz
  1  'x, y, z'
loop_
 _atom_site_type_symbol
 _atom_site_label
 _atom_site_symmetry_multiplicity
 _atom_site_fract_x
 _atom_site_fract_y
 _atom_site_fract_z
 _atom_site_occupancy
  Cs  Cs0  1  0.74999999  0.50000001  0.74999997  1
  Cs  Cs1  1  0.25000000  0.50000001  0.24999999  1
  Cs  Cs2  1  0.50000000  1.00000002  0.49999997  1
  Cs  Cs3  1  0.00000000  0.00000000  0.00000000  1
  Cs  Cs4  1  0.77340398  0.00000000  0.77340398  1
  Cs  Cs5  1  0.70998299  0.41996601  0.29001699  1
  Se  Se6  1  0.22659599  0.00000000  0.22659599  1
  Se  Se7  1  0.29001700  0.58003401  0.70998297  1
  Se  Se8  1  0.77340398  0.00000000  0.22659599  1
  Se  Se9  1  0.22659599  0.00000000  0.77340398  1
