# generated using pymatgen
data_MoSe5
_symmetry_space_group_name_H-M   'P 1'
_cell_length_a   3.32653189
_cell_length_b   3.32653189
_cell_length_c   37.84093857
_cell_angle_alpha   90.00000000
_cell_angle_beta   90.00000000
_cell_angle_gamma   120.00000000
_symmetry_Int_Tables_number   1
_chemical_formula_structural   MoSe5
_chemical_formula_sum   'Mo2 Se10'
_cell_volume   362.64017278
_cell_formula_units_Z   2
loop_
 _symmetry_equiv_pos_site_id
 _symmetry_equiv_pos_as_xyz
  1  'x, y, z'
loop_
 _atom_site_type_symbol
 _atom_site_label
 _atom_site_symmetry_multiplicity
 _atom_site_fract_x
 _atom_site_fract_y
 _atom_site_fract_z
 _atom_site_occupancy
  Se  Se0  1  0.33333332  0.66666664  0.71822801  1
  Se  Se1  1  0.66666668  0.33333332  0.90608801  1
  Se  Se2  1  0.66666668  0.33333332  0.53036801  1
  Se  Se3  1  0.33333332  0.66666664  0.34245300  1
  Mo  Mo4  1  0.66666668  0.33333332  0.67397101  1
  Se  Se5  1  0.66666668  0.33333332  0.29803100  1
  Se  Se6  1  0.33333332  0.66666664  0.95051601  1
  Se  Se7  1  0.33333332  0.66666664  0.57475701  1
  Se  Se8  1  0.33333332  0.66666664  0.86163801  1
  Se  Se9  1  0.33333332  0.66666664  0.48591901  1
  Mo  Mo10  1  0.66666668  0.33333332  0.76238501  1
  Se  Se11  1  0.66666668  0.33333332  0.38689700  1
