# generated using pymatgen
data_BaS13
_symmetry_space_group_name_H-M   'P 1'
_cell_length_a   6.05579996
_cell_length_b   6.07905769
_cell_length_c   10.67913246
_cell_angle_alpha   90.00000000
_cell_angle_beta   90.00000000
_cell_angle_gamma   119.87351990
_symmetry_Int_Tables_number   1
_chemical_formula_structural   BaS13
_chemical_formula_sum   'Ba1 S13'
_cell_volume   340.89959758
_cell_formula_units_Z   1
loop_
 _symmetry_equiv_pos_site_id
 _symmetry_equiv_pos_as_xyz
  1  'x, y, z'
loop_
 _atom_site_type_symbol
 _atom_site_label
 _atom_site_symmetry_multiplicity
 _atom_site_fract_x
 _atom_site_fract_y
 _atom_site_fract_z
 _atom_site_occupancy
  S  S0  1  0.50000000  0.00000000  0.24999999  1
  Ba  Ba1  1  0.50000000  0.00000000  0.74999997  1
  S  S2  1  0.23732697  0.47663597  0.49999998  1
  S  S3  1  0.76267298  0.52336397  0.49999998  1
  S  S4  1  0.23930897  0.47663597  -0.00000000  1
  S  S5  1  0.76069098  0.52336397  0.99999996  1
  S  S6  1  0.64815796  0.82953995  0.49999998  1
  S  S7  1  0.35184199  0.17045999  0.49999998  1
  S  S8  1  0.18138195  0.82953995  -0.00000000  1
  S  S9  1  0.81861800  0.17045999  -0.00000000  1
  S  S10  1  0.49999998  0.49999997  0.16343999  1
  S  S11  1  -0.00000003  0.49999997  0.33655999  1
  S  S12  1  0.49999998  0.49999997  0.83655996  1
  S  S13  1  -0.00000003  0.49999997  0.66343997  1
