# generated using pymatgen
data_LiO6
_symmetry_space_group_name_H-M   'P 1'
_cell_length_a   3.86830401
_cell_length_b   4.03413010
_cell_length_c   12.91263866
_cell_angle_alpha   90.00000000
_cell_angle_beta   90.00000000
_cell_angle_gamma   90.00000000
_symmetry_Int_Tables_number   1
_chemical_formula_structural   LiO6
_chemical_formula_sum   'Li2 O12'
_cell_volume   201.50484664
_cell_formula_units_Z   2
loop_
 _symmetry_equiv_pos_site_id
 _symmetry_equiv_pos_as_xyz
  1  'x, y, z'
loop_
 _atom_site_type_symbol
 _atom_site_label
 _atom_site_symmetry_multiplicity
 _atom_site_fract_x
 _atom_site_fract_y
 _atom_site_fract_z
 _atom_site_occupancy
  Li  Li0  1  0.51736100  0.49999999  0.34888201  1
  Li  Li1  1  0.48263900  0.00000000  0.15111800  1
  O  O2  1  0.48263900  0.00000000  0.84888202  1
  O  O3  1  0.51736100  0.49999999  0.65111802  1
  O  O4  1  0.49373000  0.00000000  0.31694301  1
  O  O5  1  0.50627000  0.49999999  0.18305700  1
  O  O6  1  0.50627000  0.49999999  0.81694302  1
  O  O7  1  0.49373000  0.00000000  0.68305702  1
  O  O8  1  0.00905500  0.49999999  0.65398102  1
  O  O9  1  0.99094500  0.00000000  0.84601902  1
  O  O10  1  0.99094500  0.00000000  0.15398100  1
  O  O11  1  0.48481800  0.00000000  0.00000000  1
  O  O12  1  0.51518200  0.49999999  0.50000001  1
  O  O13  1  0.00905500  0.49999999  0.34601901  1
