# generated using pymatgen
data_MoSe8
_symmetry_space_group_name_H-M   'P 1'
_cell_length_a   3.47497797
_cell_length_b   3.47497773
_cell_length_c   32.09874344
_cell_angle_alpha   90.00000000
_cell_angle_beta   90.00000000
_cell_angle_gamma   120.00000000
_symmetry_Int_Tables_number   1
_chemical_formula_structural   MoSe8
_chemical_formula_sum   'Mo1 Se8'
_cell_volume   335.67789631
_cell_formula_units_Z   1
loop_
 _symmetry_equiv_pos_site_id
 _symmetry_equiv_pos_as_xyz
  1  'x, y, z'
loop_
 _atom_site_type_symbol
 _atom_site_label
 _atom_site_symmetry_multiplicity
 _atom_site_fract_x
 _atom_site_fract_y
 _atom_site_fract_z
 _atom_site_occupancy
  Se  Se0  1  0.00000000  0.00000000  0.59532197  1
  Se  Se1  1  0.66666666  0.33333333  0.94170796  1
  Mo  Mo2  1  0.66666666  0.33333333  0.82702896  1
  Se  Se3  1  0.00000000  0.00000000  0.71065097  1
  Se  Se4  1  0.00000000  0.00000000  0.88438296  1
  Se  Se5  1  0.00000000  0.00000000  0.42169198  1
  Se  Se6  1  0.66666666  0.33333333  0.65297697  1
  Se  Se7  1  0.66666666  0.33333333  0.47245798  1
  Se  Se8  1  0.66666666  0.33333333  0.37093798  1
