# generated using pymatgen
data_S
_symmetry_space_group_name_H-M   'P 1'
_cell_length_a   6.12412977
_cell_length_b   6.12412977
_cell_length_c   7.47136641
_cell_angle_alpha   114.19478607
_cell_angle_beta   114.19478607
_cell_angle_gamma   90.00000000
_symmetry_Int_Tables_number   1
_chemical_formula_structural   S
_chemical_formula_sum   S8
_cell_volume   228.34590004
_cell_formula_units_Z   8
loop_
 _symmetry_equiv_pos_site_id
 _symmetry_equiv_pos_as_xyz
  1  'x, y, z'
loop_
 _atom_site_type_symbol
 _atom_site_label
 _atom_site_symmetry_multiplicity
 _atom_site_fract_x
 _atom_site_fract_y
 _atom_site_fract_z
 _atom_site_occupancy
  S  S0  1  0.75000003  0.25000001  0.50000002  1
  S  S1  1  0.00000000  0.00000000  0.00000000  1
  S  S2  1  0.25000002  0.75000003  0.50000002  1
  S  S3  1  0.50000003  0.50000002  0.00000001  1
  S  S4  1  0.12291101  0.63417903  0.74737702  1
  S  S5  1  0.62446603  0.11319801  0.74737702  1
  S  S6  1  0.36582102  0.37553402  0.25262301  1
  S  S7  1  0.88680205  0.87708904  0.25262303  1
