# generated using pymatgen
data_Yb9I
_symmetry_space_group_name_H-M   'P 1'
_cell_length_a   7.67324114
_cell_length_b   7.67324114
_cell_length_c   7.67324114
_cell_angle_alpha   60.00000000
_cell_angle_beta   60.00000000
_cell_angle_gamma   60.00000000
_symmetry_Int_Tables_number   1
_chemical_formula_structural   Yb9I
_chemical_formula_sum   'Yb9 I1'
_cell_volume   319.46371793
_cell_formula_units_Z   1
loop_
 _symmetry_equiv_pos_site_id
 _symmetry_equiv_pos_as_xyz
  1  'x, y, z'
loop_
 _atom_site_type_symbol
 _atom_site_label
 _atom_site_symmetry_multiplicity
 _atom_site_fract_x
 _atom_site_fract_y
 _atom_site_fract_z
 _atom_site_occupancy
  Yb  Yb0  1  0.25000001  0.25000001  0.25000001  1
  Yb  Yb1  1  0.75000002  0.75000002  0.75000002  1
  I  I2  1  0.50000001  0.50000001  0.50000001  1
  Yb  Yb3  1  0.00000000  0.00000000  0.00000000  1
  Yb  Yb4  1  0.24639701  0.75360302  0.24639701  1
  Yb  Yb5  1  0.24639701  0.24639701  0.75360302  1
  Yb  Yb6  1  0.75360302  0.24639701  0.75360302  1
  Yb  Yb7  1  0.24639701  0.75360302  0.75360302  1
  Yb  Yb8  1  0.75360302  0.24639701  0.24639701  1
  Yb  Yb9  1  0.75360302  0.75360302  0.24639701  1
