# generated using pymatgen
data_TmO3
_symmetry_space_group_name_H-M   'P 1'
_cell_length_a   3.22547412
_cell_length_b   3.22547460
_cell_length_c   15.18863678
_cell_angle_alpha   90.00000000
_cell_angle_beta   90.00000000
_cell_angle_gamma   119.99999237
_symmetry_Int_Tables_number   1
_chemical_formula_structural   TmO3
_chemical_formula_sum   'Tm2 O6'
_cell_volume   136.84743098
_cell_formula_units_Z   2
loop_
 _symmetry_equiv_pos_site_id
 _symmetry_equiv_pos_as_xyz
  1  'x, y, z'
loop_
 _atom_site_type_symbol
 _atom_site_label
 _atom_site_symmetry_multiplicity
 _atom_site_fract_x
 _atom_site_fract_y
 _atom_site_fract_z
 _atom_site_occupancy
  Tm  Tm0  1  0.66666663  0.33333331  0.75000001  1
  Tm  Tm1  1  0.33333329  0.66666663  0.25000000  1
  O  O2  1  0.00000000  0.00000000  0.00000000  1
  O  O3  1  0.00000000  0.00000000  0.50000001  1
  O  O4  1  0.00000000  0.00000000  0.65580401  1
  O  O5  1  0.00000000  0.00000000  0.15580400  1
  O  O6  1  0.00000000  0.00000000  0.84419601  1
  O  O7  1  0.00000000  0.00000000  0.34419600  1
