# generated using pymatgen
data_F2
_symmetry_space_group_name_H-M   'P 1'
_cell_length_a   5.59250879
_cell_length_b   5.59321594
_cell_length_c   5.74248552
_cell_angle_alpha   90.00000000
_cell_angle_beta   89.00180817
_cell_angle_gamma   90.00000000
_symmetry_Int_Tables_number   1
_chemical_formula_structural   F2
_chemical_formula_sum   F12
_cell_volume   179.59831604
_cell_formula_units_Z   6
loop_
 _symmetry_equiv_pos_site_id
 _symmetry_equiv_pos_as_xyz
  1  'x, y, z'
loop_
 _atom_site_type_symbol
 _atom_site_label
 _atom_site_symmetry_multiplicity
 _atom_site_fract_x
 _atom_site_fract_y
 _atom_site_fract_z
 _atom_site_occupancy
  F  F0  1  0.50000002  0.00000000  0.49999999  1
  F  F1  1  0.00000000  0.50000001  0.49999999  1
  F  F2  1  0.00000000  0.00000000  0.00000000  1
  F  F3  1  0.50000002  0.50000001  0.99999999  1
  F  F4  1  0.89998503  0.40291200  0.88338499  1
  F  F5  1  0.60001502  0.90291201  0.11661500  1
  F  F6  1  0.38196101  0.61752601  0.59207399  1
  F  F7  1  0.11803900  0.11752600  0.40792599  1
  F  F8  1  0.10001500  0.59708801  0.11661500  1
  F  F9  1  0.39998501  0.09708800  0.88338499  1
  F  F10  1  0.61803902  0.38247400  0.40792600  1
  F  F11  1  0.88196103  0.88247401  0.59207399  1
