# generated using pymatgen
data_O2
_symmetry_space_group_name_H-M   'P 1'
_cell_length_a   3.87328792
_cell_length_b   6.52603197
_cell_length_c   6.52603245
_cell_angle_alpha   120.00000000
_cell_angle_beta   90.00000000
_cell_angle_gamma   90.00000000
_symmetry_Int_Tables_number   1
_chemical_formula_structural   O2
_chemical_formula_sum   O14
_cell_volume   142.85940550
_cell_formula_units_Z   7
loop_
 _symmetry_equiv_pos_site_id
 _symmetry_equiv_pos_as_xyz
  1  'x, y, z'
loop_
 _atom_site_type_symbol
 _atom_site_label
 _atom_site_symmetry_multiplicity
 _atom_site_fract_x
 _atom_site_fract_y
 _atom_site_fract_z
 _atom_site_occupancy
  O  O0  1  0.69091301  0.66666668  0.33333336  1
  O  O1  1  0.19091300  0.33333334  0.66666668  1
  O  O2  1  0.62875501  0.12748900  0.85225500  1
  O  O3  1  0.62875501  0.14774600  0.27523501  1
  O  O4  1  0.62875501  0.72476602  0.87251203  1
  O  O5  1  0.12875500  0.87251102  0.14774504  1
  O  O6  1  0.12875500  0.85225402  0.72476504  1
  O  O7  1  0.12875500  0.27523401  0.12748801  1
  O  O8  1  0.71309702  0.07788400  0.69279000  1
  O  O9  1  0.71309702  0.30721101  0.38509501  1
  O  O10  1  0.71309702  0.61490602  0.92211702  1
  O  O11  1  0.21309700  0.92211602  0.30721004  1
  O  O12  1  0.21309700  0.69278902  0.61490503  1
  O  O13  1  0.21309700  0.38509401  0.07788302  1
