# generated using pymatgen
data_Cs3As
_symmetry_space_group_name_H-M   'P 1'
_cell_length_a   7.29496622
_cell_length_b   7.29496622
_cell_length_c   7.47990990
_cell_angle_alpha   60.81459045
_cell_angle_beta   60.81459045
_cell_angle_gamma   60.00000000
_symmetry_Int_Tables_number   1
_chemical_formula_structural   Cs3As
_chemical_formula_sum   'Cs6 As2'
_cell_volume   284.88322947
_cell_formula_units_Z   2
loop_
 _symmetry_equiv_pos_site_id
 _symmetry_equiv_pos_as_xyz
  1  'x, y, z'
loop_
 _atom_site_type_symbol
 _atom_site_label
 _atom_site_symmetry_multiplicity
 _atom_site_fract_x
 _atom_site_fract_y
 _atom_site_fract_z
 _atom_site_occupancy
  As  As0  1  0.71278697  0.71278698  0.86163902  1
  As  As1  1  0.99813696  0.99813697  0.00558906  1
  Cs  Cs2  1  0.76981097  0.22891099  0.23146702  1
  Cs  Cs3  1  0.76981097  0.76981098  0.23146704  1
  Cs  Cs4  1  0.22891099  0.76981098  0.23146702  1
  Cs  Cs5  1  0.22593599  0.76289598  0.78523201  1
  Cs  Cs6  1  0.22593599  0.22593599  0.78523199  1
  Cs  Cs7  1  0.76289597  0.22593599  0.78523201  1
