# generated using pymatgen
data_Li5O2
_symmetry_space_group_name_H-M   'P 1'
_cell_length_a   6.39144897
_cell_length_b   6.39144897
_cell_length_c   6.98552656
_cell_angle_alpha   76.12740326
_cell_angle_beta   76.12740326
_cell_angle_gamma   71.00706482
_symmetry_Int_Tables_number   1
_chemical_formula_structural   Li5O2
_chemical_formula_sum   'Li10 O4'
_cell_volume   257.85934014
_cell_formula_units_Z   2
loop_
 _symmetry_equiv_pos_site_id
 _symmetry_equiv_pos_as_xyz
  1  'x, y, z'
loop_
 _atom_site_type_symbol
 _atom_site_label
 _atom_site_symmetry_multiplicity
 _atom_site_fract_x
 _atom_site_fract_y
 _atom_site_fract_z
 _atom_site_occupancy
  Li  Li0  1  0.22131000  0.22131000  0.88585901  1
  Li  Li1  1  0.77869001  0.77868999  0.11414105  1
  Li  Li2  1  0.63768901  0.63768899  0.73177404  1
  Li  Li3  1  0.36231100  0.36231099  0.26822602  1
  Li  Li4  1  0.01077700  0.01077700  0.23328000  1
  Li  Li5  1  0.98922301  0.98922298  0.76672006  1
  Li  Li6  1  0.29380700  0.29380699  0.53235801  1
  O  O7  1  0.88710500  0.50941599  0.84674204  1
  O  O8  1  0.70619301  0.70619299  0.46764204  1
  Li  Li9  1  0.11289501  0.49058399  0.15325802  1
  Li  Li10  1  0.49058400  0.11289500  0.15325802  1
  Li  Li11  1  0.54110701  0.54110699  0.20353003  1
  O  O12  1  0.50941601  0.88710498  0.84674204  1
  O  O13  1  0.45889300  0.45889299  0.79647002  1
