# generated using pymatgen
data_SmO
_symmetry_space_group_name_H-M   'P 1'
_cell_length_a   3.58088207
_cell_length_b   4.04934788
_cell_length_c   6.99773741
_cell_angle_alpha   106.81800842
_cell_angle_beta   104.82454681
_cell_angle_gamma   90.00000000
_symmetry_Int_Tables_number   1
_chemical_formula_structural   SmO
_chemical_formula_sum   'Sm3 O3'
_cell_volume   93.59489878
_cell_formula_units_Z   3
loop_
 _symmetry_equiv_pos_site_id
 _symmetry_equiv_pos_as_xyz
  1  'x, y, z'
loop_
 _atom_site_type_symbol
 _atom_site_label
 _atom_site_symmetry_multiplicity
 _atom_site_fract_x
 _atom_site_fract_y
 _atom_site_fract_z
 _atom_site_occupancy
  O  O0  1  0.35298199  0.35298201  0.70596400  1
  O  O1  1  0.64701797  0.64701802  0.29403599  1
  O  O2  1  0.00000000  0.00000000  0.00000000  1
  Sm  Sm3  1  0.16076199  0.16076201  0.32152400  1
  Sm  Sm4  1  0.83923796  0.83923803  0.67847599  1
  Sm  Sm5  1  -0.00000001  0.50000002  0.00000000  1
