# generated using pymatgen
data_BaAsAu5
_symmetry_space_group_name_H-M   'P 1'
_cell_length_a   5.43517399
_cell_length_b   5.43517399
_cell_length_c   9.55990696
_cell_angle_alpha   106.51516724
_cell_angle_beta   106.51516724
_cell_angle_gamma   90.00000000
_symmetry_Int_Tables_number   1
_chemical_formula_structural   BaAsAu5
_chemical_formula_sum   'Ba1 As1 Au5'
_cell_volume   258.58395048
_cell_formula_units_Z   1
loop_
 _symmetry_equiv_pos_site_id
 _symmetry_equiv_pos_as_xyz
  1  'x, y, z'
loop_
 _atom_site_type_symbol
 _atom_site_label
 _atom_site_symmetry_multiplicity
 _atom_site_fract_x
 _atom_site_fract_y
 _atom_site_fract_z
 _atom_site_occupancy
  Ba  Ba0  1  0.35575199  0.35575200  0.71150396  1
  Au  Au1  1  0.64424797  0.64424799  0.28849596  1
  Au  Au2  1  0.00000000  0.00000000  0.00000000  1
  As  As3  1  0.15645699  0.15645700  0.31291398  1
  Au  Au4  1  0.84354297  0.84354299  0.68708593  1
  Au  Au5  1  0.49999999  0.00000000  -0.00000001  1
  Au  Au6  1  -0.00000001  0.49999999  -0.00000002  1
