# generated using pymatgen
data_BaLa11
_symmetry_space_group_name_H-M   'P 1'
_cell_length_a   6.12420177
_cell_length_b   6.16256189
_cell_length_c   8.62913895
_cell_angle_alpha   110.92089081
_cell_angle_beta   110.78461456
_cell_angle_gamma   90.00000000
_symmetry_Int_Tables_number   1
_chemical_formula_structural   BaLa11
_chemical_formula_sum   'Ba1 La11'
_cell_volume   281.39355028
_cell_formula_units_Z   1
loop_
 _symmetry_equiv_pos_site_id
 _symmetry_equiv_pos_as_xyz
  1  'x, y, z'
loop_
 _atom_site_type_symbol
 _atom_site_label
 _atom_site_symmetry_multiplicity
 _atom_site_fract_x
 _atom_site_fract_y
 _atom_site_fract_z
 _atom_site_occupancy
  La  La0  1  0.17315299  0.90045700  0.34630597  1
  Ba  Ba1  1  0.82684703  0.09954300  0.65369398  1
  La  La2  1  0.32684700  0.55415100  0.65369397  1
  La  La3  1  0.67315302  0.44584900  0.34630598  1
  La  La4  1  0.25000000  0.50000000  -0.00000001  1
  La  La5  1  0.75000002  0.50000000  -0.00000001  1
  La  La6  1  0.25000001  0.00000000  -0.00000000  1
  La  La7  1  0.75000003  0.00000000  -0.00000000  1
  La  La8  1  0.08836300  0.30941700  0.17672699  1
  La  La9  1  0.58836401  0.86731000  0.17672797  1
  La  La10  1  0.41163601  0.13269000  0.82327197  1
  La  La11  1  0.91163702  0.69058300  0.82327296  1
