# generated using pymatgen
data_O2
_symmetry_space_group_name_H-M   'P 1'
_cell_length_a   4.61623287
_cell_length_b   5.91766977
_cell_length_c   5.91767025
_cell_angle_alpha   60.00000381
_cell_angle_beta   90.00000000
_cell_angle_gamma   90.00000000
_symmetry_Int_Tables_number   1
_chemical_formula_structural   O2
_chemical_formula_sum   O15
_cell_volume   139.99735976
_cell_formula_units_Z   7
loop_
 _symmetry_equiv_pos_site_id
 _symmetry_equiv_pos_as_xyz
  1  'x, y, z'
loop_
 _atom_site_type_symbol
 _atom_site_label
 _atom_site_symmetry_multiplicity
 _atom_site_fract_x
 _atom_site_fract_y
 _atom_site_fract_z
 _atom_site_occupancy
  O  O0  1  0.04586800  0.66666668  0.66666670  1
  O  O1  1  0.95413203  0.33333334  0.33333335  1
  O  O2  1  0.40666901  0.67538801  0.13965203  1
  O  O3  1  0.40666901  0.18496000  0.67538802  1
  O  O4  1  0.40666901  0.13965200  0.18496001  1
  O  O5  1  0.59333102  0.32461201  0.86034803  1
  O  O6  1  0.59333102  0.81504002  0.32461203  1
  O  O7  1  0.59333102  0.86034802  0.81504005  1
  O  O8  1  0.00000000  0.00000000  0.00000000  1
  O  O9  1  0.24821101  0.70528202  0.01536802  1
  O  O10  1  0.24821101  0.27935001  0.70528203  1
  O  O11  1  0.24821101  0.01536800  0.27935001  1
  O  O12  1  0.75178902  0.29471801  0.98463203  1
  O  O13  1  0.75178902  0.72065002  0.29471803  1
  O  O14  1  0.75178902  0.98463202  0.72065005  1
