# generated using pymatgen
data_BaZnO3
_symmetry_space_group_name_H-M   'P 1'
_cell_length_a   3.12143588
_cell_length_b   3.12143588
_cell_length_c   5.61508846
_cell_angle_alpha   106.13793945
_cell_angle_beta   106.13793945
_cell_angle_gamma   90.00000000
_symmetry_Int_Tables_number   1
_chemical_formula_structural   BaZnO3
_chemical_formula_sum   'Ba1 Zn1 O3'
_cell_volume   50.30588963
_cell_formula_units_Z   1
loop_
 _symmetry_equiv_pos_site_id
 _symmetry_equiv_pos_as_xyz
  1  'x, y, z'
loop_
 _atom_site_type_symbol
 _atom_site_label
 _atom_site_symmetry_multiplicity
 _atom_site_fract_x
 _atom_site_fract_y
 _atom_site_fract_z
 _atom_site_occupancy
  O  O0  1  0.64672006  0.64672004  0.29344006  1
  O  O1  1  0.35328003  0.35328002  0.70656006  1
  Ba  Ba2  1  0.83611608  0.83611605  0.67223209  1
  Zn  Zn3  1  0.16388402  0.16388401  0.32776803  1
  O  O4  1  0.00000000  0.00000000  0.00000000  1
