# generated using pymatgen
data_LiO2
_symmetry_space_group_name_H-M   'P 1'
_cell_length_a   4.79407692
_cell_length_b   5.55716181
_cell_length_c   5.55711842
_cell_angle_alpha   61.95514679
_cell_angle_beta   88.73455048
_cell_angle_gamma   88.73150635
_symmetry_Int_Tables_number   1
_chemical_formula_structural   LiO2
_chemical_formula_sum   'Li4 O8'
_cell_volume   130.62226329
_cell_formula_units_Z   4
loop_
 _symmetry_equiv_pos_site_id
 _symmetry_equiv_pos_as_xyz
  1  'x, y, z'
loop_
 _atom_site_type_symbol
 _atom_site_label
 _atom_site_symmetry_multiplicity
 _atom_site_fract_x
 _atom_site_fract_y
 _atom_site_fract_z
 _atom_site_occupancy
  Li  Li0  1  0.48880598  0.48577900  0.98585395  1
  Li  Li1  1  0.51138498  0.01415700  0.51417497  1
  Li  Li2  1  0.99998295  0.96904999  0.03093697  1
  Li  Li3  1  0.99996896  0.53099700  0.46899996  1
  O  O4  1  0.21889998  0.86653699  0.36643297  1
  O  O5  1  0.18785099  0.34294800  0.84304496  1
  O  O6  1  0.81205497  0.15705500  0.65710596  1
  O  O7  1  0.78107697  0.63354900  0.13341997  1
  O  O8  1  0.29034098  0.84793099  0.86732195  1
  O  O9  1  0.29037399  0.36722200  0.34791098  1
  O  O10  1  0.70962297  0.65206500  0.63278595  1
  O  O11  1  0.70963798  0.13270800  0.15201098  1
