# generated using pymatgen
data_BaS11
_symmetry_space_group_name_H-M   'P 1'
_cell_length_a   6.43190622
_cell_length_b   6.43190622
_cell_length_c   6.43190622
_cell_angle_alpha   90.00000000
_cell_angle_beta   90.00000000
_cell_angle_gamma   90.00000000
_symmetry_Int_Tables_number   1
_chemical_formula_structural   BaS11
_chemical_formula_sum   'Ba1 S11'
_cell_volume   266.08421494
_cell_formula_units_Z   1
loop_
 _symmetry_equiv_pos_site_id
 _symmetry_equiv_pos_as_xyz
  1  'x, y, z'
loop_
 _atom_site_type_symbol
 _atom_site_label
 _atom_site_symmetry_multiplicity
 _atom_site_fract_x
 _atom_site_fract_y
 _atom_site_fract_z
 _atom_site_occupancy
  S  S0  1  0.13475900  0.86524097  0.36524099  1
  Ba  Ba1  1  0.86524097  0.36524099  0.13475900  1
  S  S2  1  0.63475898  0.63475898  0.63475898  1
  S  S3  1  0.36524099  0.13475900  0.86524097  1
  S  S4  1  0.65961898  0.84038097  0.15961899  1
  S  S5  1  0.15961899  0.65961898  0.84038097  1
  S  S6  1  0.84038097  0.15961899  0.65961898  1
  S  S7  1  0.34038099  0.34038099  0.34038099  1
  S  S8  1  0.07336000  0.42663999  0.57335998  1
  S  S9  1  0.57335998  0.07336000  0.42663999  1
  S  S10  1  0.92663997  0.92663997  0.92663997  1
  S  S11  1  0.42663999  0.57335998  0.07336000  1
