# generated using pymatgen
data_Ca2O3
_symmetry_space_group_name_H-M   'P 1'
_cell_length_a   3.79720402
_cell_length_b   5.85338879
_cell_length_c   7.07003880
_cell_angle_alpha   90.00000000
_cell_angle_beta   90.00000000
_cell_angle_gamma   108.92677307
_symmetry_Int_Tables_number   1
_chemical_formula_structural   Ca2O3
_chemical_formula_sum   'Ca4 O6'
_cell_volume   148.64622617
_cell_formula_units_Z   2
loop_
 _symmetry_equiv_pos_site_id
 _symmetry_equiv_pos_as_xyz
  1  'x, y, z'
loop_
 _atom_site_type_symbol
 _atom_site_label
 _atom_site_symmetry_multiplicity
 _atom_site_fract_x
 _atom_site_fract_y
 _atom_site_fract_z
 _atom_site_occupancy
  O  O0  1  0.45562303  0.91124602  0.75000002  1
  O  O1  1  0.54437700  0.08875400  0.25000001  1
  Ca  Ca2  1  0.73195801  0.46391601  0.75000002  1
  Ca  Ca3  1  0.26804202  0.53608401  0.25000001  1
  O  O4  1  0.16528201  0.33056401  0.94689803  1
  O  O5  1  0.83471802  0.66943602  0.05310200  1
  O  O6  1  0.83471802  0.66943602  0.44689801  1
  O  O7  1  0.16528201  0.33056401  0.55310202  1
  Ca  Ca8  1  0.00000000  0.00000000  0.00000000  1
  Ca  Ca9  1  0.00000000  0.00000000  0.50000001  1
