# generated using pymatgen
data_BeF
_symmetry_space_group_name_H-M   'P 1'
_cell_length_a   2.46719193
_cell_length_b   2.46719193
_cell_length_c   3.83003211
_cell_angle_alpha   90.00000000
_cell_angle_beta   90.00000000
_cell_angle_gamma   120.00000000
_symmetry_Int_Tables_number   1
_chemical_formula_structural   BeF
_chemical_formula_sum   'Be1 F1'
_cell_volume   20.19012092
_cell_formula_units_Z   1
loop_
 _symmetry_equiv_pos_site_id
 _symmetry_equiv_pos_as_xyz
  1  'x, y, z'
loop_
 _atom_site_type_symbol
 _atom_site_label
 _atom_site_symmetry_multiplicity
 _atom_site_fract_x
 _atom_site_fract_y
 _atom_site_fract_z
 _atom_site_occupancy
  Be  Be0  1  0.66666669  0.33333335  0.99999997  1
  F  F1  1  0.33333335  0.66666670  0.99999997  1
