# generated using pymatgen
data_O2
_symmetry_space_group_name_H-M   'P 1'
_cell_length_a   4.99485588
_cell_length_b   4.99485588
_cell_length_c   11.23342514
_cell_angle_alpha   90.00000000
_cell_angle_beta   90.00000000
_cell_angle_gamma   120.00000000
_symmetry_Int_Tables_number   1
_chemical_formula_structural   O2
_chemical_formula_sum   O18
_cell_volume   242.71060389
_cell_formula_units_Z   9
loop_
 _symmetry_equiv_pos_site_id
 _symmetry_equiv_pos_as_xyz
  1  'x, y, z'
loop_
 _atom_site_type_symbol
 _atom_site_label
 _atom_site_symmetry_multiplicity
 _atom_site_fract_x
 _atom_site_fract_y
 _atom_site_fract_z
 _atom_site_occupancy
  O  O0  1  1.00000001  0.46284799  0.33333333  1
  O  O1  1  0.53715200  0.53715199  0.66666666  1
  O  O2  1  0.46284801  0.00000000  -0.00000000  1
  O  O3  1  0.46131101  0.00000000  0.49999999  1
  O  O4  1  1.00000001  0.46131099  0.83333299  1
  O  O5  1  0.53868900  0.53868899  0.16666700  1
  O  O6  1  0.42504400  0.32392599  0.07144900  1
  O  O7  1  0.89888201  0.57495599  0.73811599  1
  O  O8  1  0.67607401  0.10111800  0.40478299  1
  O  O9  1  0.32392600  0.42504399  0.26188400  1
  O  O10  1  0.57495599  0.89888198  0.59521699  1
  O  O11  1  0.10111799  0.67607399  0.92855099  1
  O  O12  1  0.75355401  0.17403100  0.87289799  1
  O  O13  1  0.42047700  0.24644600  0.53956499  1
  O  O14  1  0.82596901  0.57952299  0.20623200  1
  O  O15  1  0.17403099  0.75355399  0.46043499  1
  O  O16  1  0.24644600  0.42047699  0.79376799  1
  O  O17  1  0.57952300  0.82596898  0.12710200  1
