# generated using pymatgen
data_O2
_symmetry_space_group_name_H-M   'P 1'
_cell_length_a   3.58168030
_cell_length_b   5.45811892
_cell_length_c   6.87614346
_cell_angle_alpha   90.00000000
_cell_angle_beta   92.31318665
_cell_angle_gamma   90.00000000
_symmetry_Int_Tables_number   1
_chemical_formula_structural   O2
_chemical_formula_sum   O12
_cell_volume   134.31382069
_cell_formula_units_Z   6
loop_
 _symmetry_equiv_pos_site_id
 _symmetry_equiv_pos_as_xyz
  1  'x, y, z'
loop_
 _atom_site_type_symbol
 _atom_site_label
 _atom_site_symmetry_multiplicity
 _atom_site_fract_x
 _atom_site_fract_y
 _atom_site_fract_z
 _atom_site_occupancy
  O  O0  1  0.74830100  0.73929701  0.64206499  1
  O  O1  1  0.25169900  0.23929700  0.35793500  1
  O  O2  1  0.22589900  0.24396300  0.77224700  1
  O  O3  1  0.77410100  0.74396301  0.22775298  1
  O  O4  1  0.04223800  0.42081201  0.99766600  1
  O  O5  1  0.95776200  0.92081201  0.00233398  1
  O  O6  1  0.12897200  0.25348100  0.97166900  1
  O  O7  1  0.87102800  0.75348101  0.02833098  1
  O  O8  1  0.26149800  0.02071100  0.68641100  1
  O  O9  1  0.73850200  0.52071101  0.31358899  1
  O  O10  1  0.74528300  0.95873701  0.33000299  1
  O  O11  1  0.25471700  0.45873701  0.66999700  1
