# generated using pymatgen
data_Tm5O2F
_symmetry_space_group_name_H-M   'P 1'
_cell_length_a   2.90057802
_cell_length_b   2.90057874
_cell_length_c   10.25177479
_cell_angle_alpha   90.00000000
_cell_angle_beta   90.00000000
_cell_angle_gamma   119.99999237
_symmetry_Int_Tables_number   1
_chemical_formula_structural   Tm5O2F
_chemical_formula_sum   'Tm5 O2 F1'
_cell_volume   74.69627300
_cell_formula_units_Z   1
loop_
 _symmetry_equiv_pos_site_id
 _symmetry_equiv_pos_as_xyz
  1  'x, y, z'
loop_
 _atom_site_type_symbol
 _atom_site_label
 _atom_site_symmetry_multiplicity
 _atom_site_fract_x
 _atom_site_fract_y
 _atom_site_fract_z
 _atom_site_occupancy
  F  F0  1  0.66666666  0.33333332  0.75963702  1
  O  O1  1  0.33333333  0.66666665  0.25963701  1
  O  O2  1  0.66666666  0.33333332  0.50028801  1
  Tm  Tm3  1  0.33333333  0.66666665  0.00028800  1
  Tm  Tm4  1  0.66666666  0.33333332  0.11686100  1
  Tm  Tm5  1  0.00000000  0.00000000  0.88215402  1
  Tm  Tm6  1  0.00000000  0.00000000  0.38215401  1
  Tm  Tm7  1  0.33333333  0.66666665  0.61686101  1
