# generated using pymatgen
data_MoAs11
_symmetry_space_group_name_H-M   'P 1'
_cell_length_a   3.70076799
_cell_length_b   3.70076799
_cell_length_c   20.51449966
_cell_angle_alpha   90.00000000
_cell_angle_beta   90.00000000
_cell_angle_gamma   120.00000000
_symmetry_Int_Tables_number   1
_chemical_formula_structural   MoAs11
_chemical_formula_sum   'Mo1 As11'
_cell_volume   243.31858369
_cell_formula_units_Z   1
loop_
 _symmetry_equiv_pos_site_id
 _symmetry_equiv_pos_as_xyz
  1  'x, y, z'
loop_
 _atom_site_type_symbol
 _atom_site_label
 _atom_site_symmetry_multiplicity
 _atom_site_fract_x
 _atom_site_fract_y
 _atom_site_fract_z
 _atom_site_occupancy
  As  As0  1  0.33333332  0.66666665  0.89717797  1
  As  As1  1  0.66666666  0.33333332  0.55937798  1
  Mo  Mo2  1  0.00000000  0.00000000  0.22244099  1
  As  As3  1  0.00000000  0.00000000  0.77755897  1
  As  As4  1  0.33333332  0.66666665  0.44062199  1
  As  As5  1  0.66666666  0.33333332  0.10282200  1
  As  As6  1  0.33333332  0.66666665  0.66809198  1
  As  As7  1  0.66666666  0.33333332  0.33190799  1
  As  As8  1  0.66666666  0.33333332  0.83732097  1
  As  As9  1  0.00000000  0.00000000  0.49999998  1
  As  As10  1  0.33333332  0.66666665  0.16267899  1
  As  As11  1  0.00000000  0.00000000  0.00000000  1
