# generated using pymatgen
data_O2
_symmetry_space_group_name_H-M   'P 1'
_cell_length_a   3.53349400
_cell_length_b   5.97616673
_cell_length_c   10.37559319
_cell_angle_alpha   99.87126160
_cell_angle_beta   99.80404663
_cell_angle_gamma   90.00000000
_symmetry_Int_Tables_number   1
_chemical_formula_structural   O2
_chemical_formula_sum   O10
_cell_volume   212.60657974
_cell_formula_units_Z   5
loop_
 _symmetry_equiv_pos_site_id
 _symmetry_equiv_pos_as_xyz
  1  'x, y, z'
loop_
 _atom_site_type_symbol
 _atom_site_label
 _atom_site_symmetry_multiplicity
 _atom_site_fract_x
 _atom_site_fract_y
 _atom_site_fract_z
 _atom_site_occupancy
  O  O0  1  0.81321100  0.04896000  0.62642201  1
  O  O1  1  0.18678899  0.95104003  0.37357801  1
  O  O2  1  0.68439499  0.45031701  0.36879000  1
  O  O3  1  0.31560499  0.54968302  0.63121002  1
  O  O4  1  0.78189299  0.38224001  0.56378601  1
  O  O5  1  0.21810699  0.61776002  0.43621401  1
  O  O6  1  0.90719499  0.77305102  0.81439002  1
  O  O7  1  0.09280500  0.22694901  0.18561001  1
  O  O8  1  0.59062099  0.72581502  0.18124200  1
  O  O9  1  0.40937900  0.27418501  0.81875802  1
