# generated using pymatgen
data_La(ClO4)2
_symmetry_space_group_name_H-M   'P 1'
_cell_length_a   4.27151871
_cell_length_b   6.30157995
_cell_length_c   6.30157995
_cell_angle_alpha   112.93238831
_cell_angle_beta   94.94210815
_cell_angle_gamma   94.94210815
_symmetry_Int_Tables_number   1
_chemical_formula_structural   La(ClO4)2
_chemical_formula_sum   'La1 Cl2 O8'
_cell_volume   154.30441770
_cell_formula_units_Z   1
loop_
 _symmetry_equiv_pos_site_id
 _symmetry_equiv_pos_as_xyz
  1  'x, y, z'
loop_
 _atom_site_type_symbol
 _atom_site_label
 _atom_site_symmetry_multiplicity
 _atom_site_fract_x
 _atom_site_fract_y
 _atom_site_fract_z
 _atom_site_occupancy
  Cl  Cl0  1  0.00000000  0.00000000  0.00000000  1
  O  O1  1  0.49999995  0.67552401  0.32447602  1
  O  O2  1  0.49999997  0.32447600  0.67552400  1
  Cl  Cl3  1  -0.00000002  0.26345000  0.73655001  1
  La  La4  1  -0.00000005  0.73655001  0.26345003  1
  O  O5  1  0.76998795  0.60495600  0.60495600  1
  O  O6  1  0.56040597  0.32929700  0.04535400  1
  O  O7  1  0.43959393  0.95464601  0.67070303  1
  O  O8  1  0.43959395  0.67070301  0.95464601  1
  O  O9  1  0.56040599  0.04535400  0.32929699  1
  O  O10  1  0.23001197  0.39504400  0.39504401  1
