# generated using pymatgen
data_Zn
_symmetry_space_group_name_H-M   'P 1'
_cell_length_a   5.11462879
_cell_length_b   5.36476421
_cell_length_c   5.36476421
_cell_angle_alpha   118.25626373
_cell_angle_beta   90.00000000
_cell_angle_gamma   90.00000000
_symmetry_Int_Tables_number   1
_chemical_formula_structural   Zn
_chemical_formula_sum   Zn6
_cell_volume   129.66176428
_cell_formula_units_Z   6
loop_
 _symmetry_equiv_pos_site_id
 _symmetry_equiv_pos_as_xyz
  1  'x, y, z'
loop_
 _atom_site_type_symbol
 _atom_site_label
 _atom_site_symmetry_multiplicity
 _atom_site_fract_x
 _atom_site_fract_y
 _atom_site_fract_z
 _atom_site_occupancy
  Zn  Zn0  1  0.25000001  0.66549496  0.66549494  1
  Zn  Zn1  1  0.75000003  0.33450498  0.33450497  1
  Zn  Zn2  1  0.25000001  0.33333331  0.00201998  1
  Zn  Zn3  1  0.25000001  0.00202000  0.33333332  1
  Zn  Zn4  1  0.75000003  0.99797994  0.66666659  1
  Zn  Zn5  1  0.75000003  0.66666663  0.99797993  1
