# generated using pymatgen
data_O2
_symmetry_space_group_name_H-M   'P 1'
_cell_length_a   5.08633804
_cell_length_b   7.05919600
_cell_length_c   7.05919600
_cell_angle_alpha   72.09239960
_cell_angle_beta   68.88363647
_cell_angle_gamma   68.88363647
_symmetry_Int_Tables_number   1
_chemical_formula_structural   O2
_chemical_formula_sum   O12
_cell_volume   215.91938891
_cell_formula_units_Z   6
loop_
 _symmetry_equiv_pos_site_id
 _symmetry_equiv_pos_as_xyz
  1  'x, y, z'
loop_
 _atom_site_type_symbol
 _atom_site_label
 _atom_site_symmetry_multiplicity
 _atom_site_fract_x
 _atom_site_fract_y
 _atom_site_fract_z
 _atom_site_occupancy
  O  O0  1  0.60108900  0.54361601  0.25538202  1
  O  O1  1  0.40008800  0.45638301  0.74461803  1
  O  O2  1  0.90008699  0.24461800  0.95638404  1
  O  O3  1  0.10109001  0.75538101  0.04361602  1
  O  O4  1  0.77681300  0.71833401  0.12911903  1
  O  O5  1  0.06895601  1.00000002  1.00000005  1
  O  O6  1  0.27681300  0.62911901  0.21833402  1
  O  O7  1  0.62426599  0.28166600  0.87088103  1
  O  O8  1  0.28420800  0.67278501  0.82721504  1
  O  O9  1  0.78420899  0.32721401  0.17278502  1
  O  O10  1  0.56895600  0.50000001  0.50000003  1
  O  O11  1  0.12426600  0.37088101  0.78166603  1
