# generated using pymatgen
data_Ca3O4
_symmetry_space_group_name_H-M   'P 1'
_cell_length_a   3.88088799
_cell_length_b   5.55301428
_cell_length_c   5.56680965
_cell_angle_alpha   72.79846954
_cell_angle_beta   69.59989166
_cell_angle_gamma   69.54695129
_symmetry_Int_Tables_number   1
_chemical_formula_structural   Ca3O4
_chemical_formula_sum   'Ca3 O4'
_cell_volume   103.26845971
_cell_formula_units_Z   1
loop_
 _symmetry_equiv_pos_site_id
 _symmetry_equiv_pos_as_xyz
  1  'x, y, z'
loop_
 _atom_site_type_symbol
 _atom_site_label
 _atom_site_symmetry_multiplicity
 _atom_site_fract_x
 _atom_site_fract_y
 _atom_site_fract_z
 _atom_site_occupancy
  O  O0  1  0.55906708  0.70827002  0.17359597  1
  O  O1  1  0.44093304  0.29173001  0.82640401  1
  O  O2  1  0.20320409  0.90061902  0.69297299  1
  O  O3  1  0.79679602  0.09938100  0.30702699  1
  Ca  Ca4  1  0.15716303  0.29202701  0.39364700  1
  Ca  Ca5  1  0.84283708  0.70797302  0.60635298  1
  Ca  Ca6  1  0.00000000  0.00000000  0.00000000  1
