# generated using pymatgen
data_Li2O2
_symmetry_space_group_name_H-M   'P 1'
_cell_length_a   3.86294007
_cell_length_b   5.31976366
_cell_length_c   5.54883528
_cell_angle_alpha   89.79357910
_cell_angle_beta   86.53718567
_cell_angle_gamma   89.44491577
_symmetry_Int_Tables_number   1
_chemical_formula_structural   Li2O2
_chemical_formula_sum   'Li4 O4'
_cell_volume   113.81411357
_cell_formula_units_Z   2
loop_
 _symmetry_equiv_pos_site_id
 _symmetry_equiv_pos_as_xyz
  1  'x, y, z'
loop_
 _atom_site_type_symbol
 _atom_site_label
 _atom_site_symmetry_multiplicity
 _atom_site_fract_x
 _atom_site_fract_y
 _atom_site_fract_z
 _atom_site_occupancy
  Li  Li0  1  0.74191692  0.75026300  0.20801807  1
  Li  Li1  1  0.25808297  0.24973700  0.79198203  1
  Li  Li2  1  0.74450092  0.75615000  0.65964107  1
  Li  Li3  1  0.25549897  0.24385000  0.34035903  1
  O  O4  1  0.23979899  0.05736800  0.19848901  1
  O  O5  1  0.24686195  0.45775700  0.23826703  1
  O  O6  1  0.76020090  0.94263200  0.80151108  1
  O  O7  1  0.75313794  0.54224300  0.76173306  1
