# generated using pymatgen
data_BeF4
_symmetry_space_group_name_H-M   'P 1'
_cell_length_a   4.19998312
_cell_length_b   4.19998312
_cell_length_c   4.19998360
_cell_angle_alpha   70.49398804
_cell_angle_beta   70.49398804
_cell_angle_gamma   70.49398804
_symmetry_Int_Tables_number   1
_chemical_formula_structural   BeF4
_chemical_formula_sum   'Be1 F4'
_cell_volume   63.73116303
_cell_formula_units_Z   1
loop_
 _symmetry_equiv_pos_site_id
 _symmetry_equiv_pos_as_xyz
  1  'x, y, z'
loop_
 _atom_site_type_symbol
 _atom_site_label
 _atom_site_symmetry_multiplicity
 _atom_site_fract_x
 _atom_site_fract_y
 _atom_site_fract_z
 _atom_site_occupancy
  F  F0  1  0.35456406  0.70371699  0.70371698  1
  F  F1  1  0.70371706  0.70371699  0.35456397  1
  F  F2  1  0.70371704  0.35456400  0.70371699  1
  Be  Be3  1  0.98155209  0.98155199  0.98155196  1
  F  F4  1  0.55244905  0.55244899  0.55244898  1
