# generated using pymatgen
data_BaAu9
_symmetry_space_group_name_H-M   'P 1'
_cell_length_a   6.52166128
_cell_length_b   6.52166128
_cell_length_c   6.52166128
_cell_angle_alpha   60.00000000
_cell_angle_beta   60.00000000
_cell_angle_gamma   60.00000000
_symmetry_Int_Tables_number   1
_chemical_formula_structural   BaAu9
_chemical_formula_sum   'Ba1 Au9'
_cell_volume   196.13708608
_cell_formula_units_Z   1
loop_
 _symmetry_equiv_pos_site_id
 _symmetry_equiv_pos_as_xyz
  1  'x, y, z'
loop_
 _atom_site_type_symbol
 _atom_site_label
 _atom_site_symmetry_multiplicity
 _atom_site_fract_x
 _atom_site_fract_y
 _atom_site_fract_z
 _atom_site_occupancy
  Au  Au0  1  0.50000001  0.50000001  0.50000001  1
  Au  Au1  1  0.25000000  0.25000000  0.25000000  1
  Ba  Ba2  1  0.75000001  0.75000001  0.75000001  1
  Au  Au3  1  0.00000000  0.00000000  0.00000000  1
  Au  Au4  1  0.19920300  0.80079701  0.19920300  1
  Au  Au5  1  0.19920300  0.19920300  0.80079701  1
  Au  Au6  1  0.80079701  0.19920300  0.80079701  1
  Au  Au7  1  0.19920300  0.80079701  0.80079701  1
  Au  Au8  1  0.80079701  0.19920300  0.19920300  1
  Au  Au9  1  0.80079701  0.80079701  0.19920300  1
