# generated using pymatgen
data_Cs7As2
_symmetry_space_group_name_H-M   'P 1'
_cell_length_a   5.25572300
_cell_length_b   9.27887440
_cell_length_c   9.27887440
_cell_angle_alpha   120.00000000
_cell_angle_beta   90.00000000
_cell_angle_gamma   90.00000000
_symmetry_Int_Tables_number   1
_chemical_formula_structural   Cs7As2
_chemical_formula_sum   'Cs7 As2'
_cell_volume   391.88053430
_cell_formula_units_Z   1
loop_
 _symmetry_equiv_pos_site_id
 _symmetry_equiv_pos_as_xyz
  1  'x, y, z'
loop_
 _atom_site_type_symbol
 _atom_site_label
 _atom_site_symmetry_multiplicity
 _atom_site_fract_x
 _atom_site_fract_y
 _atom_site_fract_z
 _atom_site_occupancy
  Cs  Cs0  1  0.50000000  0.00000000  -0.00000000  1
  Cs  Cs1  1  0.00000000  0.33333332  0.66666667  1
  Cs  Cs2  1  -0.00000000  0.66666665  0.33333335  1
  Cs  Cs3  1  0.50000000  0.40805499  0.40805501  1
  Cs  Cs4  1  1.00000000  0.00000000  0.25656900  1
  As  As5  1  -0.00000000  0.74343098  0.74343101  1
  Cs  Cs6  1  0.50000000  0.00000000  0.59194500  1
  As  As7  1  0.50000000  0.59194498  1.00000001  1
  Cs  Cs8  1  -0.00000000  0.25656899  1.00000000  1
