# generated using pymatgen
data_W
_symmetry_space_group_name_H-M   'P 1'
_cell_length_a   3.29129410
_cell_length_b   3.29129386
_cell_length_c   37.07434464
_cell_angle_alpha   90.00000000
_cell_angle_beta   90.00000000
_cell_angle_gamma   120.00000000
_symmetry_Int_Tables_number   1
_chemical_formula_structural   W
_chemical_formula_sum   W12
_cell_volume   347.80631648
_cell_formula_units_Z   12
loop_
 _symmetry_equiv_pos_site_id
 _symmetry_equiv_pos_as_xyz
  1  'x, y, z'
loop_
 _atom_site_type_symbol
 _atom_site_label
 _atom_site_symmetry_multiplicity
 _atom_site_fract_x
 _atom_site_fract_y
 _atom_site_fract_z
 _atom_site_occupancy
  W  W0  1  0.00000000  0.00000000  0.90608803  1
  W  W1  1  0.66666663  0.33333332  0.71822103  1
  W  W2  1  0.66666663  0.33333332  0.34245201  1
  W  W3  1  0.00000000  0.00000000  0.53033702  1
  W  W4  1  0.00000000  0.00000000  0.67274602  1
  W  W5  1  0.00000000  0.00000000  0.29699101  1
  W  W6  1  0.66666663  0.33333332  0.57603202  1
  W  W7  1  0.66666663  0.33333332  0.48463802  1
  W  W8  1  0.00000000  0.00000000  0.76365803  1
  W  W9  1  0.00000000  0.00000000  0.38792401  1
  W  W10  1  0.66666663  0.33333332  0.94747803  1
  W  W11  1  0.66666663  0.33333332  0.86468703  1
