# generated using pymatgen
data_Tm3RhF2
_symmetry_space_group_name_H-M   'P 1'
_cell_length_a   4.04785013
_cell_length_b   4.97751713
_cell_length_c   4.97751713
_cell_angle_alpha   117.45383453
_cell_angle_beta   90.00000000
_cell_angle_gamma   90.00000000
_symmetry_Int_Tables_number   1
_chemical_formula_structural   Tm3RhF2
_chemical_formula_sum   'Tm3 Rh1 F2'
_cell_volume   88.99402655
_cell_formula_units_Z   1
loop_
 _symmetry_equiv_pos_site_id
 _symmetry_equiv_pos_as_xyz
  1  'x, y, z'
loop_
 _atom_site_type_symbol
 _atom_site_label
 _atom_site_symmetry_multiplicity
 _atom_site_fract_x
 _atom_site_fract_y
 _atom_site_fract_z
 _atom_site_occupancy
  Tm  Tm0  1  -0.00000000  0.50000002  0.50000002  1
  Rh  Rh1  1  0.49999998  0.00000000  -0.00000000  1
  Tm  Tm2  1  -0.00000000  0.83263003  0.16737000  1
  Tm  Tm3  1  -0.00000000  0.16737001  0.83263003  1
  F  F4  1  0.49999998  0.50000002  -0.00000000  1
  F  F5  1  0.49999998  0.00000000  0.50000002  1
