# generated using pymatgen
data_ZnO4
_symmetry_space_group_name_H-M   'P 1'
_cell_length_a   4.05011177
_cell_length_b   4.64417982
_cell_length_c   6.21304131
_cell_angle_alpha   92.53356934
_cell_angle_beta   90.00000000
_cell_angle_gamma   90.00000000
_symmetry_Int_Tables_number   1
_chemical_formula_structural   ZnO4
_chemical_formula_sum   'Zn2 O8'
_cell_volume   116.74963820
_cell_formula_units_Z   2
loop_
 _symmetry_equiv_pos_site_id
 _symmetry_equiv_pos_as_xyz
  1  'x, y, z'
loop_
 _atom_site_type_symbol
 _atom_site_label
 _atom_site_symmetry_multiplicity
 _atom_site_fract_x
 _atom_site_fract_y
 _atom_site_fract_z
 _atom_site_occupancy
  Zn  Zn0  1  0.75000004  0.76042903  0.57224798  1
  Zn  Zn1  1  0.25000001  0.23957101  0.42775199  1
  O  O2  1  0.75000004  0.62951802  0.00966598  1
  O  O3  1  0.75000004  0.63670802  0.13092398  1
  O  O4  1  0.25000001  0.86528503  0.93254697  1
  O  O5  1  0.25000001  0.87584203  0.05461997  1
  O  O6  1  0.75000004  0.12415800  0.94538000  1
  O  O7  1  0.75000004  0.13471500  0.06745300  1
  O  O8  1  0.25000001  0.36329201  0.86907599  1
  O  O9  1  0.25000001  0.37048201  0.99033399  1
