# generated using pymatgen
data_Yb5Zn
_symmetry_space_group_name_H-M   'P 1'
_cell_length_a   4.04785013
_cell_length_b   4.97751713
_cell_length_c   4.97751713
_cell_angle_alpha   117.45383453
_cell_angle_beta   90.00000000
_cell_angle_gamma   90.00000000
_symmetry_Int_Tables_number   1
_chemical_formula_structural   Yb5Zn
_chemical_formula_sum   'Yb5 Zn1'
_cell_volume   88.99402655
_cell_formula_units_Z   1
loop_
 _symmetry_equiv_pos_site_id
 _symmetry_equiv_pos_as_xyz
  1  'x, y, z'
loop_
 _atom_site_type_symbol
 _atom_site_label
 _atom_site_symmetry_multiplicity
 _atom_site_fract_x
 _atom_site_fract_y
 _atom_site_fract_z
 _atom_site_occupancy
  Yb  Yb0  1  -0.00000000  0.50000002  0.50000002  1
  Yb  Yb1  1  0.49999998  0.00000000  -0.00000000  1
  Zn  Zn2  1  -0.00000000  0.83263003  0.16737000  1
  Yb  Yb3  1  -0.00000000  0.16737001  0.83263003  1
  Yb  Yb4  1  0.49999998  0.50000002  -0.00000000  1
  Yb  Yb5  1  0.49999998  0.00000000  0.50000002  1
