# generated using pymatgen
data_Ba2(TeO)3
_symmetry_space_group_name_H-M   'P 1'
_cell_length_a   3.36349511
_cell_length_b   9.94268417
_cell_length_c   9.94268322
_cell_angle_alpha   120.00000000
_cell_angle_beta   90.00000000
_cell_angle_gamma   90.00000000
_symmetry_Int_Tables_number   1
_chemical_formula_structural   Ba2(TeO)3
_chemical_formula_sum   'Ba2 Te3 O3'
_cell_volume   287.95768911
_cell_formula_units_Z   1
loop_
 _symmetry_equiv_pos_site_id
 _symmetry_equiv_pos_as_xyz
  1  'x, y, z'
loop_
 _atom_site_type_symbol
 _atom_site_label
 _atom_site_symmetry_multiplicity
 _atom_site_fract_x
 _atom_site_fract_y
 _atom_site_fract_z
 _atom_site_occupancy
  O  O0  1  0.24999999  0.66666664  0.33333330  1
  Te  Te1  1  0.74999998  0.33333332  0.66666665  1
  Ba  Ba2  1  0.74999998  0.77902397  0.22097496  1
  Ba  Ba3  1  0.74999998  0.44195098  0.22097498  1
  Te  Te4  1  0.74999998  0.77902397  0.55804796  1
  O  O5  1  0.24999999  0.22097599  0.77902499  1
  Te  Te6  1  0.24999999  0.55804898  0.77902497  1
  O  O7  1  0.24999999  0.22097599  0.44195199  1
