# generated using pymatgen
data_O2
_symmetry_space_group_name_H-M   'P 1'
_cell_length_a   4.71527147
_cell_length_b   7.19990349
_cell_length_c   7.19990349
_cell_angle_alpha   115.37342072
_cell_angle_beta   102.60935211
_cell_angle_gamma   102.60935211
_symmetry_Int_Tables_number   1
_chemical_formula_structural   O2
_chemical_formula_sum   O11
_cell_volume   201.59721430
_cell_formula_units_Z   5
loop_
 _symmetry_equiv_pos_site_id
 _symmetry_equiv_pos_as_xyz
  1  'x, y, z'
loop_
 _atom_site_type_symbol
 _atom_site_label
 _atom_site_symmetry_multiplicity
 _atom_site_fract_x
 _atom_site_fract_y
 _atom_site_fract_z
 _atom_site_occupancy
  O  O0  1  0.62747397  0.99906402  0.35079204  1
  O  O1  1  0.27668198  0.64920801  0.64827203  1
  O  O2  1  0.62840999  0.35172801  0.00093601  1
  O  O3  1  0.00859300  0.00000000  -0.00000000  1
  O  O4  1  0.67461900  0.00000000  -0.00000001  1
  O  O5  1  0.17517097  0.99976702  0.21081805  1
  O  O6  1  0.17540399  0.21105100  0.00023301  1
  O  O7  1  0.96435298  0.78918201  0.78894903  1
  O  O8  1  0.48464200  0.12349900  0.66013500  1
  O  O9  1  0.82450699  0.33986501  0.46336400  1
  O  O10  1  0.36114299  0.53663601  0.87650102  1
