# generated using pymatgen
data_KO6
_symmetry_space_group_name_H-M   'P 1'
_cell_length_a   7.19649601
_cell_length_b   7.29966831
_cell_length_c   7.29959679
_cell_angle_alpha   60.79275894
_cell_angle_beta   60.50251770
_cell_angle_gamma   60.50492477
_symmetry_Int_Tables_number   1
_chemical_formula_structural   KO6
_chemical_formula_sum   'K2 O12'
_cell_volume   274.81922650
_cell_formula_units_Z   2
loop_
 _symmetry_equiv_pos_site_id
 _symmetry_equiv_pos_as_xyz
  1  'x, y, z'
loop_
 _atom_site_type_symbol
 _atom_site_label
 _atom_site_symmetry_multiplicity
 _atom_site_fract_x
 _atom_site_fract_y
 _atom_site_fract_z
 _atom_site_occupancy
  O  O0  1  0.87415798  0.87566800  0.87561801  1
  O  O1  1  0.12584000  0.12435900  0.12440200  1
  O  O2  1  0.50004899  0.50001800  0.49994801  1
  K  K3  1  0.00002499  0.50003600  0.49996402  1
  K  K4  1  0.49993899  0.49997700  0.00002100  1
  O  O5  1  0.49999098  0.99998700  0.49988501  1
  O  O6  1  0.73404799  0.73913100  0.73921301  1
  O  O7  1  0.26346000  0.25551900  0.71753701  1
  O  O8  1  0.26348898  0.71749200  0.25550301  1
  O  O9  1  0.71219200  0.26090500  0.26088000  1
  O  O10  1  0.73655500  0.28246000  0.74448601  1
  O  O11  1  0.28776498  0.73912600  0.73914502  1
  O  O12  1  0.26593500  0.26080900  0.26088700  1
  O  O13  1  0.73655799  0.74450800  0.28251100  1
