# generated using pymatgen
data_BaZnN5
_symmetry_space_group_name_H-M   'P 1'
_cell_length_a   3.38574433
_cell_length_b   3.38574314
_cell_length_c   8.73528767
_cell_angle_alpha   78.82554626
_cell_angle_beta   78.82555389
_cell_angle_gamma   60.00000381
_symmetry_Int_Tables_number   1
_chemical_formula_structural   BaZnN5
_chemical_formula_sum   'Ba1 Zn1 N5'
_cell_volume   84.52017461
_cell_formula_units_Z   1
loop_
 _symmetry_equiv_pos_site_id
 _symmetry_equiv_pos_as_xyz
  1  'x, y, z'
loop_
 _atom_site_type_symbol
 _atom_site_label
 _atom_site_symmetry_multiplicity
 _atom_site_fract_x
 _atom_site_fract_y
 _atom_site_fract_z
 _atom_site_occupancy
  Zn  Zn0  1  0.78498494  0.78498504  0.64504500  1
  Ba  Ba1  1  0.99836992  0.99837005  0.00489002  1
  N  N2  1  0.21225998  0.21226101  0.36321900  1
  N  N3  1  0.87530993  0.87531004  0.37407001  1
  N  N4  1  0.13480999  0.13480901  0.59557099  1
  N  N5  1  0.70581394  0.70581503  0.88255700  1
  N  N6  1  0.28845098  0.28845101  0.13464700  1
