# generated using pymatgen
data_Pb
_symmetry_space_group_name_H-M   'P 1'
_cell_length_a   4.69575977
_cell_length_b   7.63070583
_cell_length_c   7.63070583
_cell_angle_alpha   90.00000000
_cell_angle_beta   90.00000000
_cell_angle_gamma   90.00000000
_symmetry_Int_Tables_number   1
_chemical_formula_structural   Pb
_chemical_formula_sum   Pb6
_cell_volume   273.42315760
_cell_formula_units_Z   6
loop_
 _symmetry_equiv_pos_site_id
 _symmetry_equiv_pos_as_xyz
  1  'x, y, z'
loop_
 _atom_site_type_symbol
 _atom_site_label
 _atom_site_symmetry_multiplicity
 _atom_site_fract_x
 _atom_site_fract_y
 _atom_site_fract_z
 _atom_site_occupancy
  Pb  Pb0  1  0.00000000  0.00000000  0.00000000  1
  Pb  Pb1  1  0.50000002  0.50000001  0.50000001  1
  Pb  Pb2  1  0.00000000  0.29852101  0.29852101  1
  Pb  Pb3  1  0.00000000  0.70147902  0.70147902  1
  Pb  Pb4  1  0.50000002  0.20147900  0.79852102  1
  Pb  Pb5  1  0.50000002  0.79852102  0.20147900  1
