# generated using pymatgen
data_As
_symmetry_space_group_name_H-M   'P 1'
_cell_length_a   4.27783203
_cell_length_b   4.27783203
_cell_length_c   16.87452316
_cell_angle_alpha   90.00000000
_cell_angle_beta   90.00000000
_cell_angle_gamma   120.00000000
_symmetry_Int_Tables_number   1
_chemical_formula_structural   As
_chemical_formula_sum   As9
_cell_volume   267.42967542
_cell_formula_units_Z   9
loop_
 _symmetry_equiv_pos_site_id
 _symmetry_equiv_pos_as_xyz
  1  'x, y, z'
loop_
 _atom_site_type_symbol
 _atom_site_label
 _atom_site_symmetry_multiplicity
 _atom_site_fract_x
 _atom_site_fract_y
 _atom_site_fract_z
 _atom_site_occupancy
  As  As0  1  0.00000000  0.00000000  0.33417802  1
  As  As1  1  0.00000000  0.00000000  0.66582203  1
  As  As2  1  0.66666665  0.33333331  0.88897304  1
  As  As3  1  0.33333331  0.66666663  0.11102701  1
  As  As4  1  0.33333331  0.66666663  0.42332402  1
  As  As5  1  0.66666665  0.33333331  0.22100501  1
  As  As6  1  0.33333331  0.66666663  0.77899504  1
  As  As7  1  0.00000000  0.00000000  0.00000000  1
  As  As8  1  0.66666665  0.33333331  0.57667603  1
