# generated using pymatgen
data_S
_symmetry_space_group_name_H-M   'P 1'
_cell_length_a   7.90955067
_cell_length_b   7.90955067
_cell_length_c   7.90955067
_cell_angle_alpha   60.00000000
_cell_angle_beta   60.00000000
_cell_angle_gamma   60.00000000
_symmetry_Int_Tables_number   1
_chemical_formula_structural   S
_chemical_formula_sum   S14
_cell_volume   349.89717761
_cell_formula_units_Z   14
loop_
 _symmetry_equiv_pos_site_id
 _symmetry_equiv_pos_as_xyz
  1  'x, y, z'
loop_
 _atom_site_type_symbol
 _atom_site_label
 _atom_site_symmetry_multiplicity
 _atom_site_fract_x
 _atom_site_fract_y
 _atom_site_fract_z
 _atom_site_occupancy
  S  S0  1  0.37500001  0.37500001  0.37500001  1
  S  S1  1  0.37500001  0.87500001  0.37500001  1
  S  S2  1  0.37500001  0.37500001  0.87500001  1
  S  S3  1  0.87500001  0.37500001  0.37500001  1
  S  S4  1  0.00000000  0.00000000  0.00000000  1
  S  S5  1  0.75000001  0.75000001  0.75000001  1
  S  S6  1  0.13875500  0.62041501  0.62041501  1
  S  S7  1  0.62041401  0.62041501  0.13875600  1
  S  S8  1  0.62041401  0.62041501  0.62041501  1
  S  S9  1  0.62041401  0.13875600  0.62041501  1
  S  S10  1  0.12958600  0.61124401  0.12958500  1
  S  S11  1  0.12958600  0.12958500  0.12958500  1
  S  S12  1  0.12958600  0.12958500  0.61124401  1
  S  S13  1  0.61124501  0.12958500  0.12958500  1
