# generated using pymatgen
data_Zn
_symmetry_space_group_name_H-M   'P 1'
_cell_length_a   3.89368796
_cell_length_b   5.44358206
_cell_length_c   6.68403530
_cell_angle_alpha   114.02954865
_cell_angle_beta   106.93386841
_cell_angle_gamma   90.00000000
_symmetry_Int_Tables_number   1
_chemical_formula_structural   Zn
_chemical_formula_sum   Zn6
_cell_volume   122.63813980
_cell_formula_units_Z   6
loop_
 _symmetry_equiv_pos_site_id
 _symmetry_equiv_pos_as_xyz
  1  'x, y, z'
loop_
 _atom_site_type_symbol
 _atom_site_label
 _atom_site_symmetry_multiplicity
 _atom_site_fract_x
 _atom_site_fract_y
 _atom_site_fract_z
 _atom_site_occupancy
  Zn  Zn0  1  0.83031597  0.83718298  0.66063197  1
  Zn  Zn1  1  0.16968399  0.17655100  0.33936800  1
  Zn  Zn2  1  0.49999998  0.48072899  -0.00000002  1
  Zn  Zn3  1  0.32324900  0.06003800  0.64649800  1
  Zn  Zn4  1  0.67675199  0.41354099  0.35350298  1
  Zn  Zn5  1  -0.00000003  0.78196198  -0.00000002  1
