# generated using pymatgen
data_BaZnSiAs6F
_symmetry_space_group_name_H-M   'P 1'
_cell_length_a   5.91686249
_cell_length_b   5.91686249
_cell_length_c   5.91686249
_cell_angle_alpha   60.00000000
_cell_angle_beta   60.00000000
_cell_angle_gamma   60.00000000
_symmetry_Int_Tables_number   1
_chemical_formula_structural   BaZnSiAs6F
_chemical_formula_sum   'Ba1 Zn1 Si1 As6 F1'
_cell_volume   146.47362519
_cell_formula_units_Z   1
loop_
 _symmetry_equiv_pos_site_id
 _symmetry_equiv_pos_as_xyz
  1  'x, y, z'
loop_
 _atom_site_type_symbol
 _atom_site_label
 _atom_site_symmetry_multiplicity
 _atom_site_fract_x
 _atom_site_fract_y
 _atom_site_fract_z
 _atom_site_occupancy
  Ba  Ba0  1  0.74999998  0.74999998  0.74999998  1
  Zn  Zn1  1  0.24999999  0.24999999  0.24999999  1
  Si  Si2  1  0.49999999  0.49999999  0.49999999  1
  As  As3  1  0.00000000  0.00000000  0.00000000  1
  F  F4  1  0.25286672  0.74713325  0.25286672  1
  As  As5  1  0.74713325  0.25286672  0.74713325  1
  As  As6  1  0.74713325  0.25286672  0.25286672  1
  As  As7  1  0.25286672  0.74713325  0.74713325  1
  As  As8  1  0.74713325  0.74713325  0.25286672  1
  As  As9  1  0.25286672  0.25286672  0.74713325  1
