# generated using pymatgen
data_Au
_symmetry_space_group_name_H-M   'P 1'
_cell_length_a   5.18723583
_cell_length_b   5.18723583
_cell_length_c   5.18723583
_cell_angle_alpha   109.47122192
_cell_angle_beta   109.47122192
_cell_angle_gamma   109.47122192
_symmetry_Int_Tables_number   1
_chemical_formula_structural   Au
_chemical_formula_sum   Au7
_cell_volume   107.44496483
_cell_formula_units_Z   7
loop_
 _symmetry_equiv_pos_site_id
 _symmetry_equiv_pos_as_xyz
  1  'x, y, z'
loop_
 _atom_site_type_symbol
 _atom_site_label
 _atom_site_symmetry_multiplicity
 _atom_site_fract_x
 _atom_site_fract_y
 _atom_site_fract_z
 _atom_site_occupancy
  Au  Au0  1  0.00000000  0.00000000  0.00000000  1
  Au  Au1  1  0.26663002  0.26663001  1.00000002  1
  Au  Au2  1  0.73337005  0.73337003  1.00000006  1
  Au  Au3  1  0.73337001  0.00000000  0.73337002  1
  Au  Au4  1  0.26663000  0.00000000  0.26663001  1
  Au  Au5  1  0.00000002  0.26663001  0.26663001  1
  Au  Au6  1  0.00000005  0.73337003  0.73337004  1
