# generated using pymatgen
data_BaS8O
_symmetry_space_group_name_H-M   'P 1'
_cell_length_a   6.59845972
_cell_length_b   6.59845972
_cell_length_c   7.31550312
_cell_angle_alpha   98.99811554
_cell_angle_beta   113.20523834
_cell_angle_gamma   112.93945313
_symmetry_Int_Tables_number   1
_chemical_formula_structural   BaS8O
_chemical_formula_sum   'Ba1 S8 O1'
_cell_volume   250.86572978
_cell_formula_units_Z   1
loop_
 _symmetry_equiv_pos_site_id
 _symmetry_equiv_pos_as_xyz
  1  'x, y, z'
loop_
 _atom_site_type_symbol
 _atom_site_label
 _atom_site_symmetry_multiplicity
 _atom_site_fract_x
 _atom_site_fract_y
 _atom_site_fract_z
 _atom_site_occupancy
  Ba  Ba0  1  0.74619313  0.74619307  0.00000010  1
  S  S1  1  0.25380704  0.25380702  0.00000003  1
  S  S2  1  0.06287009  0.64453806  0.70740805  1
  S  S3  1  0.93713009  0.35546203  0.29259207  1
  O  O4  1  0.68060107  0.32888803  0.00948906  1
  S  S5  1  0.31939910  0.67111206  0.99051106  1
  S  S6  1  0.78584107  0.28584103  0.50000005  1
  S  S7  1  0.21415910  0.71415907  0.50000006  1
  S  S8  1  0.11292903  0.16807302  0.28100201  1
  S  S9  1  0.88707115  0.83192708  0.71899810  1
