# generated using pymatgen
data_S
_symmetry_space_group_name_H-M   'P 1'
_cell_length_a   5.74666309
_cell_length_b   5.74848080
_cell_length_c   5.74974966
_cell_angle_alpha   90.00000000
_cell_angle_beta   89.20557404
_cell_angle_gamma   90.00000000
_symmetry_Int_Tables_number   1
_chemical_formula_structural   S
_chemical_formula_sum   S12
_cell_volume   189.92232162
_cell_formula_units_Z   12
loop_
 _symmetry_equiv_pos_site_id
 _symmetry_equiv_pos_as_xyz
  1  'x, y, z'
loop_
 _atom_site_type_symbol
 _atom_site_label
 _atom_site_symmetry_multiplicity
 _atom_site_fract_x
 _atom_site_fract_y
 _atom_site_fract_z
 _atom_site_occupancy
  S  S0  1  0.00764200  0.49686502  0.75185200  1
  S  S1  1  0.99235798  0.99686504  0.24814805  1
  S  S2  1  0.49990199  0.00493200  0.75965603  1
  S  S3  1  0.50009799  0.50493202  0.24034402  1
  S  S4  1  0.61727799  0.61634202  0.63311603  1
  S  S5  1  0.38272199  0.11634200  0.36688402  1
  S  S6  1  0.38272999  0.38278701  0.86935602  1
  S  S7  1  0.61726999  0.88278703  0.13064403  1
  S  S8  1  0.88668898  0.11339300  0.63896404  1
  S  S9  1  0.11331100  0.61339302  0.36103601  1
  S  S10  1  0.11388300  0.88568203  0.86454901  1
  S  S11  1  0.88611698  0.38568201  0.13545104  1
