# generated using pymatgen
data_YbAu2
_symmetry_space_group_name_H-M   'P 1'
_cell_length_a   4.72586393
_cell_length_b   4.72586393
_cell_length_c   7.35693884
_cell_angle_alpha   90.00000000
_cell_angle_beta   90.00000000
_cell_angle_gamma   120.00000000
_symmetry_Int_Tables_number   1
_chemical_formula_structural   YbAu2
_chemical_formula_sum   'Yb2 Au4'
_cell_volume   142.29518478
_cell_formula_units_Z   2
loop_
 _symmetry_equiv_pos_site_id
 _symmetry_equiv_pos_as_xyz
  1  'x, y, z'
loop_
 _atom_site_type_symbol
 _atom_site_label
 _atom_site_symmetry_multiplicity
 _atom_site_fract_x
 _atom_site_fract_y
 _atom_site_fract_z
 _atom_site_occupancy
  Yb  Yb0  1  0.00000000  0.00000000  0.75210402  1
  Yb  Yb1  1  0.00000000  0.00000000  0.25210401  1
  Au  Au2  1  0.66666666  0.33333332  0.94088902  1
  Au  Au3  1  0.33333332  0.66666663  0.44088901  1
  Au  Au4  1  0.66666666  0.33333332  0.53400701  1
  Au  Au5  1  0.33333332  0.66666663  0.03400700  1
