# generated using pymatgen
data_La2F
_symmetry_space_group_name_H-M   'P 1'
_cell_length_a   4.39859581
_cell_length_b   5.92054987
_cell_length_c   7.77619696
_cell_angle_alpha   112.37606812
_cell_angle_beta   106.42884827
_cell_angle_gamma   90.00000000
_symmetry_Int_Tables_number   1
_chemical_formula_structural   La2F
_chemical_formula_sum   'La4 F2'
_cell_volume   178.28688270
_cell_formula_units_Z   2
loop_
 _symmetry_equiv_pos_site_id
 _symmetry_equiv_pos_as_xyz
  1  'x, y, z'
loop_
 _atom_site_type_symbol
 _atom_site_label
 _atom_site_symmetry_multiplicity
 _atom_site_fract_x
 _atom_site_fract_y
 _atom_site_fract_z
 _atom_site_occupancy
  F  F0  1  0.63634507  0.63634502  0.27269003  1
  F  F1  1  0.00000000  0.00000000  0.00000000  1
  La  La2  1  0.36365504  0.36365501  0.72731002  1
  La  La3  1  0.00000002  0.50000002  0.00000001  1
  La  La4  1  0.67734105  0.17734101  0.35468203  1
  La  La5  1  0.32265906  0.82265902  0.64531802  1
