# generated using pymatgen
data_Tm5O2F
_symmetry_space_group_name_H-M   'P 1'
_cell_length_a   3.07827592
_cell_length_b   3.07827592
_cell_length_c   10.62959290
_cell_angle_alpha   90.00000000
_cell_angle_beta   90.00000000
_cell_angle_gamma   120.00000000
_symmetry_Int_Tables_number   1
_chemical_formula_structural   Tm5O2F
_chemical_formula_sum   'Tm5 O2 F1'
_cell_volume   87.22929315
_cell_formula_units_Z   1
loop_
 _symmetry_equiv_pos_site_id
 _symmetry_equiv_pos_as_xyz
  1  'x, y, z'
loop_
 _atom_site_type_symbol
 _atom_site_label
 _atom_site_symmetry_multiplicity
 _atom_site_fract_x
 _atom_site_fract_y
 _atom_site_fract_z
 _atom_site_occupancy
  Tm  Tm0  1  0.00000000  0.00000000  0.00000000  1
  O  O1  1  0.00000000  0.00000000  0.50000000  1
  F  F2  1  0.66666667  0.33333331  0.75000001  1
  O  O3  1  0.33333331  0.66666663  0.25000000  1
  Tm  Tm4  1  0.66666667  0.33333331  0.37540000  1
  Tm  Tm5  1  0.33333331  0.66666663  0.62460001  1
  Tm  Tm6  1  0.33333331  0.66666663  0.87540001  1
  Tm  Tm7  1  0.66666667  0.33333331  0.12460000  1
