# generated using pymatgen
data_LaAs3
_symmetry_space_group_name_H-M   'P 1'
_cell_length_a   4.56682920
_cell_length_b   4.56682920
_cell_length_c   10.04595375
_cell_angle_alpha   90.00000000
_cell_angle_beta   90.00000000
_cell_angle_gamma   90.00000000
_symmetry_Int_Tables_number   1
_chemical_formula_structural   LaAs3
_chemical_formula_sum   'La2 As6'
_cell_volume   209.51769800
_cell_formula_units_Z   2
loop_
 _symmetry_equiv_pos_site_id
 _symmetry_equiv_pos_as_xyz
  1  'x, y, z'
loop_
 _atom_site_type_symbol
 _atom_site_label
 _atom_site_symmetry_multiplicity
 _atom_site_fract_x
 _atom_site_fract_y
 _atom_site_fract_z
 _atom_site_occupancy
  As  As0  1  0.00000000  0.49999998  0.74763402  1
  La  La1  1  0.49999998  0.00000000  0.25236601  1
  As  As2  1  0.49999998  0.49999998  -0.00000000  1
  La  La3  1  0.00000000  0.00000000  0.00000000  1
  As  As4  1  0.00000000  0.49999998  0.35401301  1
  As  As5  1  0.49999998  0.00000000  0.64598702  1
  As  As6  1  0.49999998  0.49999998  0.50000001  1
  As  As7  1  0.00000000  0.00000000  0.50000001  1
