# generated using pymatgen
data_Se
_symmetry_space_group_name_H-M   'P 1'
_cell_length_a   3.55659389
_cell_length_b   3.55659413
_cell_length_c   25.05413055
_cell_angle_alpha   90.00000000
_cell_angle_beta   90.00000000
_cell_angle_gamma   120.00000000
_symmetry_Int_Tables_number   1
_chemical_formula_structural   Se
_chemical_formula_sum   Se6
_cell_volume   274.45968104
_cell_formula_units_Z   6
loop_
 _symmetry_equiv_pos_site_id
 _symmetry_equiv_pos_as_xyz
  1  'x, y, z'
loop_
 _atom_site_type_symbol
 _atom_site_label
 _atom_site_symmetry_multiplicity
 _atom_site_fract_x
 _atom_site_fract_y
 _atom_site_fract_z
 _atom_site_occupancy
  Se  Se0  1  0.66666670  0.33333335  0.77703898  1
  Se  Se1  1  0.33333337  0.66666669  0.22296100  1
  Se  Se2  1  0.33333337  0.66666669  0.07795800  1
  Se  Se3  1  0.66666670  0.33333335  0.92204198  1
  Se  Se4  1  0.66666670  0.33333335  0.15049800  1
  Se  Se5  1  0.33333337  0.66666669  0.84950198  1
