# generated using pymatgen
data_BaLa3O2
_symmetry_space_group_name_H-M   'P 1'
_cell_length_a   3.15407395
_cell_length_b   5.02660179
_cell_length_c   8.21946144
_cell_angle_alpha   90.00000000
_cell_angle_beta   101.06171417
_cell_angle_gamma   90.00000000
_symmetry_Int_Tables_number   1
_chemical_formula_structural   BaLa3O2
_chemical_formula_sum   'Ba1 La3 O2'
_cell_volume   127.89250765
_cell_formula_units_Z   1
loop_
 _symmetry_equiv_pos_site_id
 _symmetry_equiv_pos_as_xyz
  1  'x, y, z'
loop_
 _atom_site_type_symbol
 _atom_site_label
 _atom_site_symmetry_multiplicity
 _atom_site_fract_x
 _atom_site_fract_y
 _atom_site_fract_z
 _atom_site_occupancy
  Ba  Ba0  1  0.00052300  0.50000002  0.00104600  1
  O  O1  1  0.32942200  0.50000002  0.65884402  1
  La  La2  1  0.66961001  0.50000002  0.33922001  1
  La  La3  1  0.43886901  0.00000000  0.87773802  1
  O  O4  1  0.11750900  1.00000004  0.23501801  1
  La  La5  1  0.77739901  0.00000000  0.55479801  1
