# generated using pymatgen
data_Li5O6
_symmetry_space_group_name_H-M   'P 1'
_cell_length_a   4.06788397
_cell_length_b   5.31822348
_cell_length_c   5.87935686
_cell_angle_alpha   107.40028381
_cell_angle_beta   90.00000000
_cell_angle_gamma   112.48537445
_symmetry_Int_Tables_number   1
_chemical_formula_structural   Li5O6
_chemical_formula_sum   'Li5 O6'
_cell_volume   111.19838704
_cell_formula_units_Z   1
loop_
 _symmetry_equiv_pos_site_id
 _symmetry_equiv_pos_as_xyz
  1  'x, y, z'
loop_
 _atom_site_type_symbol
 _atom_site_label
 _atom_site_symmetry_multiplicity
 _atom_site_fract_x
 _atom_site_fract_y
 _atom_site_fract_z
 _atom_site_occupancy
  O  O0  1  0.28865595  0.57731197  0.65830001  1
  O  O1  1  0.00000000  0.00000000  0.50000002  1
  O  O2  1  0.68859397  0.37718798  0.86075702  1
  O  O3  1  0.31140595  0.62281197  0.13924299  1
  O  O4  1  0.71134397  0.42268798  0.34170000  1
  O  O5  1  0.00000000  0.00000000  0.00000000  1
  Li  Li6  1  0.14390098  0.28780199  0.82624303  1
  Li  Li7  1  0.50000000  0.00000000  0.00000000  1
  Li  Li8  1  0.84314595  0.68629197  0.68292501  1
  Li  Li9  1  0.15685397  0.31370799  0.31707500  1
  Li  Li10  1  0.85609894  0.71219797  0.17375699  1
