# generated using pymatgen
data_Te
_symmetry_space_group_name_H-M   'P 1'
_cell_length_a   4.33537579
_cell_length_b   4.34126377
_cell_length_c   13.09236526
_cell_angle_alpha   90.00000000
_cell_angle_beta   99.53028107
_cell_angle_gamma   90.00000000
_symmetry_Int_Tables_number   1
_chemical_formula_structural   Te
_chemical_formula_sum   Te8
_cell_volume   243.01062139
_cell_formula_units_Z   8
loop_
 _symmetry_equiv_pos_site_id
 _symmetry_equiv_pos_as_xyz
  1  'x, y, z'
loop_
 _atom_site_type_symbol
 _atom_site_label
 _atom_site_symmetry_multiplicity
 _atom_site_fract_x
 _atom_site_fract_y
 _atom_site_fract_z
 _atom_site_occupancy
  Te  Te0  1  0.17033301  0.75000004  0.34066599  1
  Te  Te1  1  0.82966704  0.25000001  0.65933397  1
  Te  Te2  1  0.92458604  0.75000004  0.84917196  1
  Te  Te3  1  0.07541400  0.25000001  0.15082799  1
  Te  Te4  1  0.57544003  0.75000004  0.15087999  1
  Te  Te5  1  0.42456002  0.25000001  0.84911997  1
  Te  Te6  1  0.29322801  0.75000004  0.58645598  1
  Te  Te7  1  0.70677203  0.25000001  0.41354398  1
