# generated using pymatgen
data_Cs4ClF5
_symmetry_space_group_name_H-M   'P 1'
_cell_length_a   7.39106750
_cell_length_b   7.39106750
_cell_length_c   7.39106750
_cell_angle_alpha   60.00000000
_cell_angle_beta   60.00000000
_cell_angle_gamma   60.00000000
_symmetry_Int_Tables_number   1
_chemical_formula_structural   Cs4ClF5
_chemical_formula_sum   'Cs4 Cl1 F5'
_cell_volume   285.50026040
_cell_formula_units_Z   1
loop_
 _symmetry_equiv_pos_site_id
 _symmetry_equiv_pos_as_xyz
  1  'x, y, z'
loop_
 _atom_site_type_symbol
 _atom_site_label
 _atom_site_symmetry_multiplicity
 _atom_site_fract_x
 _atom_site_fract_y
 _atom_site_fract_z
 _atom_site_occupancy
  Cs  Cs0  1  0.75000001  0.75000001  0.75000001  1
  Cs  Cs1  1  0.25000000  0.25000000  0.25000000  1
  Cs  Cs2  1  0.00000000  0.00000000  0.00000000  1
  Cl  Cl3  1  0.76286101  0.23713900  0.76286101  1
  F  F4  1  0.23713900  0.76286101  0.76286101  1
  F  F5  1  0.76286101  0.23713900  0.23713900  1
  F  F6  1  0.76286101  0.76286101  0.23713900  1
  F  F7  1  0.23713900  0.23713900  0.76286101  1
  F  F8  1  0.23713900  0.76286101  0.23713900  1
  Cs  Cs9  1  0.50000000  0.50000000  0.50000000  1
