# generated using pymatgen
data_O2
_symmetry_space_group_name_H-M   'P 1'
_cell_length_a   5.44126511
_cell_length_b   5.44815350
_cell_length_c   7.55912828
_cell_angle_alpha   107.89253998
_cell_angle_beta   107.79537964
_cell_angle_gamma   94.46916199
_symmetry_Int_Tables_number   1
_chemical_formula_structural   O2
_chemical_formula_sum   O18
_cell_volume   199.36387173
_cell_formula_units_Z   9
loop_
 _symmetry_equiv_pos_site_id
 _symmetry_equiv_pos_as_xyz
  1  'x, y, z'
loop_
 _atom_site_type_symbol
 _atom_site_label
 _atom_site_symmetry_multiplicity
 _atom_site_fract_x
 _atom_site_fract_y
 _atom_site_fract_z
 _atom_site_occupancy
  O  O0  1  0.18494596  0.55049300  0.13168799  1
  O  O1  1  0.51106697  0.15422100  0.85750898  1
  O  O2  1  0.48567393  0.96315400  0.47799697  1
  O  O3  1  0.77708095  0.45269900  0.71241596  1
  O  O4  1  0.00904395  0.99784300  0.01567399  1
  O  O5  1  0.98612891  0.99555500  0.50033695  1
  O  O6  1  0.65967096  0.37814200  0.25932897  1
  O  O7  1  0.34431396  0.62550400  0.76813498  1
  O  O8  1  0.71424196  0.24815000  0.42103597  1
  O  O9  1  0.27597795  0.79650300  0.63475698  1
  O  O10  1  0.32602897  0.32787500  0.65519198  1
  O  O11  1  0.14763596  0.64673600  0.88345999  1
  O  O12  1  0.86546195  0.33771400  0.15312896  1
  O  O13  1  0.63631994  0.72877400  0.90285297  1
  O  O14  1  0.65656894  0.67296300  0.35647097  1
  O  O15  1  0.38319297  0.25246000  0.09273298  1
  O  O16  1  0.81025597  0.10908900  0.74447897  1
  O  O17  1  0.15426995  0.89375800  0.27421398  1
