# generated using pymatgen
data_Au
_symmetry_space_group_name_H-M   'P 1'
_cell_length_a   4.21513605
_cell_length_b   4.21513605
_cell_length_c   6.55666208
_cell_angle_alpha   90.00000000
_cell_angle_beta   90.00000000
_cell_angle_gamma   120.00000000
_symmetry_Int_Tables_number   1
_chemical_formula_structural   Au
_chemical_formula_sum   Au5
_cell_volume   100.88732963
_cell_formula_units_Z   5
loop_
 _symmetry_equiv_pos_site_id
 _symmetry_equiv_pos_as_xyz
  1  'x, y, z'
loop_
 _atom_site_type_symbol
 _atom_site_label
 _atom_site_symmetry_multiplicity
 _atom_site_fract_x
 _atom_site_fract_y
 _atom_site_fract_z
 _atom_site_occupancy
  Au  Au0  1  0.00000000  0.00000000  0.00000000  1
  Au  Au1  1  0.33333334  0.66666668  0.64522099  1
  Au  Au2  1  0.66666666  0.33333334  0.35477900  1
  Au  Au3  1  0.33333334  0.66666668  0.25930400  1
  Au  Au4  1  0.66666666  0.33333334  0.74069599  1
