# generated using pymatgen
data_BaAuS6
_symmetry_space_group_name_H-M   'P 1'
_cell_length_a   5.33309078
_cell_length_b   5.33309078
_cell_length_c   5.33309126
_cell_angle_alpha   96.40016174
_cell_angle_beta   96.40016174
_cell_angle_gamma   96.40015411
_symmetry_Int_Tables_number   1
_chemical_formula_structural   BaAuS6
_chemical_formula_sum   'Ba1 Au1 S6'
_cell_volume   148.61467821
_cell_formula_units_Z   1
loop_
 _symmetry_equiv_pos_site_id
 _symmetry_equiv_pos_as_xyz
  1  'x, y, z'
loop_
 _atom_site_type_symbol
 _atom_site_label
 _atom_site_symmetry_multiplicity
 _atom_site_fract_x
 _atom_site_fract_y
 _atom_site_fract_z
 _atom_site_occupancy
  Ba  Ba0  1  0.50000004  0.50000002  0.50000006  1
  Au  Au1  1  0.00000000  0.00000000  0.00000000  1
  S  S2  1  0.80490606  0.73522103  0.07887507  1
  S  S3  1  0.73522103  0.07887500  0.80490606  1
  S  S4  1  0.92112504  0.19509401  0.26477905  1
  S  S5  1  0.26477905  0.92112504  0.19509406  1
  S  S6  1  0.19509402  0.26477901  0.92112505  1
  S  S7  1  0.07887504  0.80490603  0.73522107  1
