# generated using pymatgen
data_Mg
_symmetry_space_group_name_H-M   'P 1'
_cell_length_a   6.30772257
_cell_length_b   6.30772257
_cell_length_c   11.17692375
_cell_angle_alpha   73.60987091
_cell_angle_beta   73.60987091
_cell_angle_gamma   59.99999619
_symmetry_Int_Tables_number   1
_chemical_formula_structural   Mg
_chemical_formula_sum   Mg16
_cell_volume   364.10518512
_cell_formula_units_Z   16
loop_
 _symmetry_equiv_pos_site_id
 _symmetry_equiv_pos_as_xyz
  1  'x, y, z'
loop_
 _atom_site_type_symbol
 _atom_site_label
 _atom_site_symmetry_multiplicity
 _atom_site_fract_x
 _atom_site_fract_y
 _atom_site_fract_z
 _atom_site_occupancy
  Mg  Mg0  1  0.37495198  0.87491197  0.87522401  1
  Mg  Mg1  1  0.87491196  0.87491197  0.87522402  1
  Mg  Mg2  1  0.87491197  0.37495199  0.87522401  1
  Mg  Mg3  1  0.79157097  0.29145899  0.62551101  1
  Mg  Mg4  1  0.29145899  0.29145899  0.62551100  1
  Mg  Mg5  1  0.29145898  0.79157097  0.62551101  1
  Mg  Mg6  1  0.20842899  0.70854098  0.37448901  1
  Mg  Mg7  1  0.70854097  0.70854098  0.37448903  1
  Mg  Mg8  1  0.70854097  0.20842899  0.37448901  1
  Mg  Mg9  1  0.62504798  0.12508800  0.12477602  1
  Mg  Mg10  1  0.12508799  0.12508800  0.12477600  1
  Mg  Mg11  1  0.12508799  0.62504798  0.12477602  1
  Mg  Mg12  1  0.37481998  0.37481999  0.87553999  1
  Mg  Mg13  1  0.62517997  0.62517998  0.12446003  1
  Mg  Mg14  1  0.79156597  0.79156597  0.62530202  1
  Mg  Mg15  1  0.20843399  0.20843399  0.37469800  1
