# generated using pymatgen
data_S
_symmetry_space_group_name_H-M   'P 1'
_cell_length_a   3.45668459
_cell_length_b   3.45668459
_cell_length_c   14.30259895
_cell_angle_alpha   83.05935669
_cell_angle_beta   83.05935669
_cell_angle_gamma   59.99998856
_symmetry_Int_Tables_number   1
_chemical_formula_structural   S
_chemical_formula_sum   S11
_cell_volume   146.55325777
_cell_formula_units_Z   11
loop_
 _symmetry_equiv_pos_site_id
 _symmetry_equiv_pos_as_xyz
  1  'x, y, z'
loop_
 _atom_site_type_symbol
 _atom_site_label
 _atom_site_symmetry_multiplicity
 _atom_site_fract_x
 _atom_site_fract_y
 _atom_site_fract_z
 _atom_site_occupancy
  S  S0  1  0.26263999  0.26264000  0.21208001  1
  S  S1  1  0.73843598  0.73843600  0.78469202  1
  S  S2  1  0.13122600  0.13122600  0.60632201  1
  S  S3  1  0.00069700  0.00069700  0.99790901  1
  S  S4  1  0.86316197  0.86316200  0.41051401  1
  S  S5  1  0.91505297  0.91505300  0.25484101  1
  S  S6  1  0.08397100  0.08397100  0.74808701  1
  S  S7  1  0.19414199  0.19414200  0.41757401  1
  S  S8  1  0.81041998  0.81042000  0.56874002  1
  S  S9  1  0.30897699  0.30897700  0.07306900  1
  S  S10  1  0.69132198  0.69132200  0.92603402  1
