# generated using pymatgen
data_K2S7O
_symmetry_space_group_name_H-M   'P 1'
_cell_length_a   4.87201309
_cell_length_b   6.05753994
_cell_length_c   7.53740263
_cell_angle_alpha   90.00000000
_cell_angle_beta   107.37981415
_cell_angle_gamma   90.00000000
_symmetry_Int_Tables_number   1
_chemical_formula_structural   K2S7O
_chemical_formula_sum   'K2 S7 O1'
_cell_volume   212.29126962
_cell_formula_units_Z   1
loop_
 _symmetry_equiv_pos_site_id
 _symmetry_equiv_pos_as_xyz
  1  'x, y, z'
loop_
 _atom_site_type_symbol
 _atom_site_label
 _atom_site_symmetry_multiplicity
 _atom_site_fract_x
 _atom_site_fract_y
 _atom_site_fract_z
 _atom_site_occupancy
  K  K0  1  0.65291098  0.75000001  0.80870097  1
  K  K1  1  0.34708899  0.25000000  0.19129899  1
  O  O2  1  0.95070397  0.75000001  0.34688297  1
  S  S3  1  0.04929600  0.25000000  0.65311699  1
  S  S4  1  0.82822597  0.97076901  0.16412297  1
  S  S5  1  0.17177399  0.47076900  0.83587698  1
  S  S6  1  0.67640898  0.25000000  0.67650797  1
  S  S7  1  0.32359099  0.75000001  0.32349199  1
  S  S8  1  0.17177399  0.02923100  0.83587698  1
  S  S9  1  0.82822597  0.52923101  0.16412297  1
