# generated using pymatgen
data_Li7O5
_symmetry_space_group_name_H-M   'P 1'
_cell_length_a   4.21822596
_cell_length_b   4.23370600
_cell_length_c   7.59844828
_cell_angle_alpha   82.05176544
_cell_angle_beta   73.88468170
_cell_angle_gamma   60.12088013
_symmetry_Int_Tables_number   1
_chemical_formula_structural   Li7O5
_chemical_formula_sum   'Li7 O5'
_cell_volume   113.03783547
_cell_formula_units_Z   1
loop_
 _symmetry_equiv_pos_site_id
 _symmetry_equiv_pos_as_xyz
  1  'x, y, z'
loop_
 _atom_site_type_symbol
 _atom_site_label
 _atom_site_symmetry_multiplicity
 _atom_site_fract_x
 _atom_site_fract_y
 _atom_site_fract_z
 _atom_site_occupancy
  O  O0  1  0.83304901  0.50000002  0.33390200  1
  O  O1  1  0.91695102  1.00000005  0.16609799  1
  Li  Li2  1  0.41553800  0.16892401  0.50000000  1
  O  O3  1  0.08304902  1.00000005  0.83390197  1
  Li  Li4  1  0.33446201  0.33107602  -0.00000000  1
  Li  Li5  1  0.08446202  0.83107604  0.49999998  1
  Li  Li6  1  0.66695101  0.50000002  0.66609800  1
  Li  Li7  1  0.66553801  0.66892403  -0.00000001  1
  O  O8  1  0.37462302  1.00000005  0.25075398  1
  Li  Li9  1  0.12462301  0.50000002  0.75075399  1
  Li  Li10  1  0.62537702  1.00000005  0.74924598  1
  O  O11  1  0.37537701  0.50000002  0.24924599  1
