# generated using pymatgen
data_AuO11
_symmetry_space_group_name_H-M   'P 1'
_cell_length_a   5.44837379
_cell_length_b   5.44837379
_cell_length_c   6.22656584
_cell_angle_alpha   102.95429230
_cell_angle_beta   102.95429230
_cell_angle_gamma   119.18395996
_symmetry_Int_Tables_number   1
_chemical_formula_structural   AuO11
_chemical_formula_sum   'Au1 O11'
_cell_volume   144.68099599
_cell_formula_units_Z   1
loop_
 _symmetry_equiv_pos_site_id
 _symmetry_equiv_pos_as_xyz
  1  'x, y, z'
loop_
 _atom_site_type_symbol
 _atom_site_label
 _atom_site_symmetry_multiplicity
 _atom_site_fract_x
 _atom_site_fract_y
 _atom_site_fract_z
 _atom_site_occupancy
  O  O0  1  0.28850408  0.71149607  0.50000008  1
  Au  Au1  1  0.03850409  0.96149609  0.00000008  1
  O  O2  1  0.63551306  0.36448703  0.50000007  1
  O  O3  1  0.38551307  0.61448706  0.00000007  1
  O  O4  1  0.25386407  0.69621907  0.18227407  1
  O  O5  1  0.59614204  0.14077501  0.62475906  1
  O  O6  1  0.32159004  0.26394402  0.31772604  1
  O  O7  1  0.30378108  0.74613607  0.81772509  1
  O  O8  1  0.22138303  0.26601602  0.87524105  1
  O  O9  1  0.85922507  0.40385804  0.37524108  1
  O  O10  1  0.73605609  0.67841006  0.68227511  1
  O  O11  1  0.73398410  0.77861707  0.12475910  1
