# generated using pymatgen
data_BaAs3
_symmetry_space_group_name_H-M   'P 1'
_cell_length_a   7.16035795
_cell_length_b   7.16035795
_cell_length_c   7.16035795
_cell_angle_alpha   105.19503021
_cell_angle_beta   105.19503021
_cell_angle_gamma   118.41073608
_symmetry_Int_Tables_number   1
_chemical_formula_structural   BaAs3
_chemical_formula_sum   'Ba2 As6'
_cell_volume   277.37450527
_cell_formula_units_Z   2
loop_
 _symmetry_equiv_pos_site_id
 _symmetry_equiv_pos_as_xyz
  1  'x, y, z'
loop_
 _atom_site_type_symbol
 _atom_site_label
 _atom_site_symmetry_multiplicity
 _atom_site_fract_x
 _atom_site_fract_y
 _atom_site_fract_z
 _atom_site_occupancy
  Ba  Ba0  1  0.25000000  0.25000000  -0.00000001  1
  Ba  Ba1  1  0.74999999  0.74999999  -0.00000004  1
  As  As2  1  0.74999999  0.25000000  0.49999997  1
  As  As3  1  0.25000000  0.74999999  0.49999997  1
  As  As4  1  0.32086500  0.17913500  0.49999998  1
  As  As5  1  0.67913499  0.82086499  0.49999996  1
  As  As6  1  0.17913500  0.67913499  0.85826997  1
  As  As7  1  0.82086499  0.32086500  0.14172997  1
