# generated using pymatgen
data_S
_symmetry_space_group_name_H-M   'P 1'
_cell_length_a   3.77441597
_cell_length_b   3.77441597
_cell_length_c   10.28788376
_cell_angle_alpha   100.57019043
_cell_angle_beta   100.57019043
_cell_angle_gamma   90.00000000
_symmetry_Int_Tables_number   1
_chemical_formula_structural   S
_chemical_formula_sum   S8
_cell_volume   141.54562894
_cell_formula_units_Z   8
loop_
 _symmetry_equiv_pos_site_id
 _symmetry_equiv_pos_as_xyz
  1  'x, y, z'
loop_
 _atom_site_type_symbol
 _atom_site_label
 _atom_site_symmetry_multiplicity
 _atom_site_fract_x
 _atom_site_fract_y
 _atom_site_fract_z
 _atom_site_occupancy
  S  S0  1  0.88344604  0.88344602  0.76689202  1
  S  S1  1  0.11655401  0.11655400  0.23310800  1
  S  S2  1  0.25000002  0.75000002  0.50000001  1
  S  S3  1  0.75000002  0.25000001  0.50000001  1
  S  S4  1  0.67537403  0.67537401  0.35074802  1
  S  S5  1  0.32462601  0.32462601  0.64925200  1
  S  S6  1  0.00000001  0.50000001  0.00000001  1
  S  S7  1  0.50000001  0.00000000  0.00000001  1
