# generated using pymatgen
data_F2
_symmetry_space_group_name_H-M   'P 1'
_cell_length_a   5.44195414
_cell_length_b   5.46326494
_cell_length_c   5.46211815
_cell_angle_alpha   90.00000000
_cell_angle_beta   89.79804230
_cell_angle_gamma   90.00000000
_symmetry_Int_Tables_number   1
_chemical_formula_structural   F2
_chemical_formula_sum   F12
_cell_volume   162.39233689
_cell_formula_units_Z   6
loop_
 _symmetry_equiv_pos_site_id
 _symmetry_equiv_pos_as_xyz
  1  'x, y, z'
loop_
 _atom_site_type_symbol
 _atom_site_label
 _atom_site_symmetry_multiplicity
 _atom_site_fract_x
 _atom_site_fract_y
 _atom_site_fract_z
 _atom_site_occupancy
  F  F0  1  0.00000000  0.00000000  0.00000000  1
  F  F1  1  0.00000000  0.50000001  0.49999998  1
  F  F2  1  0.49999999  1.00000001  0.49999998  1
  F  F3  1  0.49999999  0.50000001  0.00000000  1
  F  F4  1  0.11258000  0.38173000  0.11865000  1
  F  F5  1  0.88741998  0.88173001  0.38134999  1
  F  F6  1  0.38138699  0.61298601  0.61169998  1
  F  F7  1  0.61861298  0.11298600  0.88829997  1
  F  F8  1  0.88741998  0.61827001  0.88134997  1
  F  F9  1  0.11258000  0.11827000  0.61864998  1
  F  F10  1  0.61861298  0.38701400  0.38829999  1
  F  F11  1  0.38138699  0.88701401  0.11170000  1
