# generated using pymatgen
data_Zn
_symmetry_space_group_name_H-M   'P 1'
_cell_length_a   3.29887652
_cell_length_b   3.29887652
_cell_length_c   5.64565229
_cell_angle_alpha   86.68112183
_cell_angle_beta   86.68112183
_cell_angle_gamma   80.73061371
_symmetry_Int_Tables_number   1
_chemical_formula_structural   Zn
_chemical_formula_sum   Zn4
_cell_volume   60.46172943
_cell_formula_units_Z   4
loop_
 _symmetry_equiv_pos_site_id
 _symmetry_equiv_pos_as_xyz
  1  'x, y, z'
loop_
 _atom_site_type_symbol
 _atom_site_label
 _atom_site_symmetry_multiplicity
 _atom_site_fract_x
 _atom_site_fract_y
 _atom_site_fract_z
 _atom_site_occupancy
  Zn  Zn0  1  -0.00000001  0.50000000  0.50000003  1
  Zn  Zn1  1  0.49999998  1.00000001  1.00000008  1
  Zn  Zn2  1  0.97515900  0.02484100  0.25000004  1
  Zn  Zn3  1  0.02484098  0.97515901  0.75000006  1
