# generated using pymatgen
data_La4F3
_symmetry_space_group_name_H-M   'P 1'
_cell_length_a   4.28299522
_cell_length_b   4.33194923
_cell_length_c   8.43957615
_cell_angle_alpha   104.87107849
_cell_angle_beta   90.00000000
_cell_angle_gamma   90.00000000
_symmetry_Int_Tables_number   1
_chemical_formula_structural   La4F3
_chemical_formula_sum   'La4 F3'
_cell_volume   151.34080060
_cell_formula_units_Z   1
loop_
 _symmetry_equiv_pos_site_id
 _symmetry_equiv_pos_as_xyz
  1  'x, y, z'
loop_
 _atom_site_type_symbol
 _atom_site_label
 _atom_site_symmetry_multiplicity
 _atom_site_fract_x
 _atom_site_fract_y
 _atom_site_fract_z
 _atom_site_occupancy
  La  La0  1  0.24999999  0.10461099  0.20922200  1
  La  La1  1  0.74999996  0.89794594  0.79589200  1
  F  F2  1  0.24999999  0.30514498  0.61028901  1
  La  La3  1  0.24999999  0.45019197  0.90038401  1
  La  La4  1  0.74999996  0.54994097  0.09988099  1
  F  F5  1  0.24999999  0.74733295  0.49466600  1
  F  F6  1  0.74999996  0.24983298  0.49966601  1
