# generated using pymatgen
data_KF4
_symmetry_space_group_name_H-M   'P 1'
_cell_length_a   5.82415104
_cell_length_b   5.82415104
_cell_length_c   6.81685305
_cell_angle_alpha   66.21533966
_cell_angle_beta   66.21533966
_cell_angle_gamma   87.88700104
_symmetry_Int_Tables_number   1
_chemical_formula_structural   KF4
_chemical_formula_sum   'K2 F8'
_cell_volume   191.42550122
_cell_formula_units_Z   2
loop_
 _symmetry_equiv_pos_site_id
 _symmetry_equiv_pos_as_xyz
  1  'x, y, z'
loop_
 _atom_site_type_symbol
 _atom_site_label
 _atom_site_symmetry_multiplicity
 _atom_site_fract_x
 _atom_site_fract_y
 _atom_site_fract_z
 _atom_site_occupancy
  K  K0  1  0.85483994  0.85483998  0.85532803  1
  F  F1  1  0.32230594  0.96900797  0.77442203  1
  F  F2  1  0.03099196  0.67769398  0.22557802  1
  F  F3  1  0.96900796  0.32230599  0.77442202  1
  F  F4  1  0.67769399  0.03099200  0.22557800  1
  K  K5  1  0.14515999  0.14516000  0.14467201  1
  F  F6  1  0.23259796  0.76740198  0.50000002  1
  F  F7  1  0.49999996  0.49999999  0.00000001  1
  F  F8  1  0.76740197  0.23259799  0.50000001  1
  F  F9  1  0.00000000  0.00000000  0.00000000  1
