# generated using pymatgen
data_Zn
_symmetry_space_group_name_H-M   'P 1'
_cell_length_a   3.98168397
_cell_length_b   3.98168397
_cell_length_c   6.94207191
_cell_angle_alpha   106.66522980
_cell_angle_beta   106.66522980
_cell_angle_gamma   90.00000000
_symmetry_Int_Tables_number   1
_chemical_formula_structural   Zn
_chemical_formula_sum   Zn5
_cell_volume   100.60044546
_cell_formula_units_Z   5
loop_
 _symmetry_equiv_pos_site_id
 _symmetry_equiv_pos_as_xyz
  1  'x, y, z'
loop_
 _atom_site_type_symbol
 _atom_site_label
 _atom_site_symmetry_multiplicity
 _atom_site_fract_x
 _atom_site_fract_y
 _atom_site_fract_z
 _atom_site_occupancy
  Zn  Zn0  1  0.66105499  0.66105500  0.32210999  1
  Zn  Zn1  1  0.33894500  0.33894500  0.67789000  1
  Zn  Zn2  1  0.00000000  0.00000000  0.00000000  1
  Zn  Zn3  1  0.75000000  0.25000000  0.49999999  1
  Zn  Zn4  1  0.24999999  0.75000000  0.49999999  1
