# generated using pymatgen
data_Pr3SnOF2
_symmetry_space_group_name_H-M   'P 1'
_cell_length_a   3.93510795
_cell_length_b   3.93510795
_cell_length_c   6.87648821
_cell_angle_alpha   90.00000000
_cell_angle_beta   90.00000000
_cell_angle_gamma   90.00000000
_symmetry_Int_Tables_number   1
_chemical_formula_structural   Pr3SnOF2
_chemical_formula_sum   'Pr3 Sn1 O1 F2'
_cell_volume   106.48293255
_cell_formula_units_Z   1
loop_
 _symmetry_equiv_pos_site_id
 _symmetry_equiv_pos_as_xyz
  1  'x, y, z'
loop_
 _atom_site_type_symbol
 _atom_site_label
 _atom_site_symmetry_multiplicity
 _atom_site_fract_x
 _atom_site_fract_y
 _atom_site_fract_z
 _atom_site_occupancy
  F  F0  1  0.50000001  0.50000001  -0.00000000  1
  O  O1  1  0.00000000  0.00000000  0.49999998  1
  Pr  Pr2  1  0.00000000  0.50000001  0.29169699  1
  Pr  Pr3  1  0.00000000  0.50000001  0.70830298  1
  Sn  Sn4  1  0.50000001  0.00000000  0.29169699  1
  Pr  Pr5  1  0.50000001  0.00000000  0.70830298  1
  F  F6  1  0.00000000  0.00000000  0.00000000  1
