# generated using pymatgen
data_Pb
_symmetry_space_group_name_H-M   'P 1'
_cell_length_a   5.23730183
_cell_length_b   5.23730183
_cell_length_c   6.45144796
_cell_angle_alpha   113.94761658
_cell_angle_beta   113.94761658
_cell_angle_gamma   90.00000000
_symmetry_Int_Tables_number   1
_chemical_formula_structural   Pb
_chemical_formula_sum   Pb4
_cell_volume   144.89987871
_cell_formula_units_Z   4
loop_
 _symmetry_equiv_pos_site_id
 _symmetry_equiv_pos_as_xyz
  1  'x, y, z'
loop_
 _atom_site_type_symbol
 _atom_site_label
 _atom_site_symmetry_multiplicity
 _atom_site_fract_x
 _atom_site_fract_y
 _atom_site_fract_z
 _atom_site_occupancy
  Pb  Pb0  1  0.75000001  0.25000001  0.50000000  1
  Pb  Pb1  1  0.24999999  0.75000002  0.50000000  1
  Pb  Pb2  1  0.50000000  0.50000001  -0.00000002  1
  Pb  Pb3  1  0.00000000  0.00000000  0.00000000  1
