# generated using pymatgen
data_Zn
_symmetry_space_group_name_H-M   'P 1'
_cell_length_a   4.32390785
_cell_length_b   4.32390785
_cell_length_c   8.08599758
_cell_angle_alpha   105.50783539
_cell_angle_beta   105.50783539
_cell_angle_gamma   90.00000000
_symmetry_Int_Tables_number   1
_chemical_formula_structural   Zn
_chemical_formula_sum   Zn7
_cell_volume   139.95343682
_cell_formula_units_Z   7
loop_
 _symmetry_equiv_pos_site_id
 _symmetry_equiv_pos_as_xyz
  1  'x, y, z'
loop_
 _atom_site_type_symbol
 _atom_site_label
 _atom_site_symmetry_multiplicity
 _atom_site_fract_x
 _atom_site_fract_y
 _atom_site_fract_z
 _atom_site_occupancy
  Zn  Zn0  1  0.64480906  0.64480904  0.28961806  1
  Zn  Zn1  1  0.35519103  0.35519102  0.71038205  1
  Zn  Zn2  1  0.00000000  0.00000000  0.00000000  1
  Zn  Zn3  1  0.50000003  0.00000000  0.00000002  1
  Zn  Zn4  1  0.00000002  0.50000003  0.00000002  1
  Zn  Zn5  1  0.86920908  0.86920905  0.73841808  1
  Zn  Zn6  1  0.13079101  0.13079101  0.26158202  1
