# generated using pymatgen
data_Sm2Si3
_symmetry_space_group_name_H-M   'P 1'
_cell_length_a   4.30339813
_cell_length_b   4.30339813
_cell_length_c   5.93541145
_cell_angle_alpha   111.25497437
_cell_angle_beta   111.25497437
_cell_angle_gamma   90.00000000
_symmetry_Int_Tables_number   1
_chemical_formula_structural   Sm2Si3
_chemical_formula_sum   'Sm2 Si3'
_cell_volume   94.37452316
_cell_formula_units_Z   1
loop_
 _symmetry_equiv_pos_site_id
 _symmetry_equiv_pos_as_xyz
  1  'x, y, z'
loop_
 _atom_site_type_symbol
 _atom_site_label
 _atom_site_symmetry_multiplicity
 _atom_site_fract_x
 _atom_site_fract_y
 _atom_site_fract_z
 _atom_site_occupancy
  Sm  Sm0  1  0.00000000  0.00000000  0.00000000  1
  Si  Si1  1  0.37313100  0.37313099  0.74626201  1
  Si  Si2  1  0.62686900  0.62686899  0.25373802  1
  Sm  Sm3  1  0.74999999  0.25000000  0.50000001  1
  Si  Si4  1  0.25000001  0.74999999  0.50000002  1
