# generated using pymatgen
data_La5Si
_symmetry_space_group_name_H-M   'P 1'
_cell_length_a   4.18117619
_cell_length_b   4.18117619
_cell_length_c   7.01969004
_cell_angle_alpha   90.00000000
_cell_angle_beta   90.00000000
_cell_angle_gamma   90.00000000
_symmetry_Int_Tables_number   1
_chemical_formula_structural   La5Si
_chemical_formula_sum   'La5 Si1'
_cell_volume   122.71986590
_cell_formula_units_Z   1
loop_
 _symmetry_equiv_pos_site_id
 _symmetry_equiv_pos_as_xyz
  1  'x, y, z'
loop_
 _atom_site_type_symbol
 _atom_site_label
 _atom_site_symmetry_multiplicity
 _atom_site_fract_x
 _atom_site_fract_y
 _atom_site_fract_z
 _atom_site_occupancy
  La  La0  1  0.00000000  0.49999998  0.79882600  1
  Si  Si1  1  0.49999998  0.00000000  0.20117400  1
  La  La2  1  0.49999998  0.00000000  0.64300700  1
  La  La3  1  0.00000000  0.49999998  0.35699300  1
  La  La4  1  0.49999998  0.49999998  -0.00000000  1
  La  La5  1  0.00000000  0.00000000  0.00000000  1
