# generated using pymatgen
data_Cs3SnF6
_symmetry_space_group_name_H-M   'P 1'
_cell_length_a   5.83449221
_cell_length_b   5.90471983
_cell_length_c   5.83449221
_cell_angle_alpha   60.39265823
_cell_angle_beta   90.00000000
_cell_angle_gamma   119.60733795
_symmetry_Int_Tables_number   1
_chemical_formula_structural   Cs3SnF6
_chemical_formula_sum   'Cs3 Sn1 F6'
_cell_volume   143.80209967
_cell_formula_units_Z   1
loop_
 _symmetry_equiv_pos_site_id
 _symmetry_equiv_pos_as_xyz
  1  'x, y, z'
loop_
 _atom_site_type_symbol
 _atom_site_label
 _atom_site_symmetry_multiplicity
 _atom_site_fract_x
 _atom_site_fract_y
 _atom_site_fract_z
 _atom_site_occupancy
  Cs  Cs0  1  0.24999996  0.49999997  0.24999999  1
  Cs  Cs1  1  0.74999994  0.49999997  0.74999997  1
  Cs  Cs2  1  0.49999998  0.00000000  0.49999998  1
  Sn  Sn3  1  0.00000000  0.00000000  0.00000000  1
  F  F4  1  0.83793791  0.99999994  0.70646298  1
  F  F5  1  0.16206199  0.00000000  0.29353699  1
  F  F6  1  0.70646292  0.99999994  0.16206199  1
  F  F7  1  0.29353693  0.99999994  0.83793797  1
  F  F8  1  0.23140496  0.46280997  0.76859497  1
  F  F9  1  0.76859494  0.53718997  0.23140499  1
