# generated using pymatgen
data_Au
_symmetry_space_group_name_H-M   'P 1'
_cell_length_a   6.05944395
_cell_length_b   6.05944347
_cell_length_c   9.83989620
_cell_angle_alpha   90.00000000
_cell_angle_beta   90.00000000
_cell_angle_gamma   120.00000000
_symmetry_Int_Tables_number   1
_chemical_formula_structural   Au
_chemical_formula_sum   Au12
_cell_volume   312.88638100
_cell_formula_units_Z   12
loop_
 _symmetry_equiv_pos_site_id
 _symmetry_equiv_pos_as_xyz
  1  'x, y, z'
loop_
 _atom_site_type_symbol
 _atom_site_label
 _atom_site_symmetry_multiplicity
 _atom_site_fract_x
 _atom_site_fract_y
 _atom_site_fract_z
 _atom_site_occupancy
  Au  Au0  1  0.66666666  0.33333333  0.93525898  1
  Au  Au1  1  0.33333331  0.66666667  0.43525899  1
  Au  Au2  1  0.33333331  0.66666667  0.06474100  1
  Au  Au3  1  0.66666666  0.33333333  0.56474099  1
  Au  Au4  1  0.00000000  0.00000000  0.00000000  1
  Au  Au5  1  0.00000000  0.00000000  0.49999999  1
  Au  Au6  1  0.17105097  0.82894900  0.74999998  1
  Au  Au7  1  0.82894898  0.65789800  0.24999999  1
  Au  Au8  1  0.34210200  0.17105100  0.24999999  1
  Au  Au9  1  0.65789797  0.82894900  0.74999998  1
  Au  Au10  1  0.17105099  0.34210200  0.74999998  1
  Au  Au11  1  0.82894900  0.17105100  0.24999999  1
