# generated using pymatgen
data_LiF17
_symmetry_space_group_name_H-M   'P 1'
_cell_length_a   7.23085594
_cell_length_b   7.23085499
_cell_length_c   7.23088264
_cell_angle_alpha   60.40599060
_cell_angle_beta   60.40599442
_cell_angle_gamma   60.40581131
_symmetry_Int_Tables_number   1
_chemical_formula_structural   LiF17
_chemical_formula_sum   'Li1 F17'
_cell_volume   269.78894951
_cell_formula_units_Z   1
loop_
 _symmetry_equiv_pos_site_id
 _symmetry_equiv_pos_as_xyz
  1  'x, y, z'
loop_
 _atom_site_type_symbol
 _atom_site_label
 _atom_site_symmetry_multiplicity
 _atom_site_fract_x
 _atom_site_fract_y
 _atom_site_fract_z
 _atom_site_occupancy
  Li  Li0  1  0.87180800  0.86643902  0.36912097  1
  F  F1  1  0.13356100  0.12819200  0.63087900  1
  F  F2  1  0.50266400  0.49733601  0.99999999  1
  F  F3  1  0.50266801  0.99733402  0.00000296  1
  F  F4  1  0.00266601  0.49733201  0.99999699  1
  F  F5  1  0.50266600  0.49733401  0.49999998  1
  F  F6  1  0.17674500  0.17141400  0.07063299  1
  F  F7  1  0.56825200  0.56293701  0.68067998  1
  F  F8  1  0.56824699  0.17802000  0.06560899  1
  F  F9  1  0.17674401  0.56798501  0.67408099  1
  F  F10  1  0.18335201  0.56291701  0.06559098  1
  F  F11  1  0.57330999  0.17141400  0.67408399  1
  F  F12  1  0.82858700  0.82325402  0.92936697  1
  F  F13  1  0.43706300  0.43174801  0.31931998  1
  F  F14  1  0.43708401  0.81664702  0.93440898  1
  F  F15  1  0.82858599  0.42669001  0.32591598  1
  F  F16  1  0.82197999  0.43175301  0.93439098  1
  F  F17  1  0.43201501  0.82325602  0.32591897  1
