# generated using pymatgen
data_O2
_symmetry_space_group_name_H-M   'P 1'
_cell_length_a   3.77740598
_cell_length_b   3.77740598
_cell_length_c   13.10646534
_cell_angle_alpha   90.00000000
_cell_angle_beta   90.00000000
_cell_angle_gamma   90.00000000
_symmetry_Int_Tables_number   1
_chemical_formula_structural   O2
_chemical_formula_sum   O14
_cell_volume   187.01347912
_cell_formula_units_Z   7
loop_
 _symmetry_equiv_pos_site_id
 _symmetry_equiv_pos_as_xyz
  1  'x, y, z'
loop_
 _atom_site_type_symbol
 _atom_site_label
 _atom_site_symmetry_multiplicity
 _atom_site_fract_x
 _atom_site_fract_y
 _atom_site_fract_z
 _atom_site_occupancy
  O  O0  1  0.00000000  0.50000000  0.41513199  1
  O  O1  1  0.50000000  0.00000000  0.58486798  1
  O  O2  1  0.00000000  0.50000000  0.10878000  1
  O  O3  1  0.50000000  0.00000000  0.89121998  1
  O  O4  1  0.00000000  0.50000000  0.72848598  1
  O  O5  1  0.50000000  0.00000000  0.27151399  1
  O  O6  1  0.00000000  0.00000000  0.76475898  1
  O  O7  1  0.50000000  0.50000000  0.76475898  1
  O  O8  1  0.50000000  0.50000000  0.23524099  1
  O  O9  1  0.00000000  0.00000000  0.23524099  1
  O  O10  1  0.00000000  0.50000000  0.92939298  1
  O  O11  1  0.50000000  0.00000000  0.07060700  1
  O  O12  1  0.00000000  0.50000000  0.59376298  1
  O  O13  1  0.50000000  0.00000000  0.40623699  1
