# generated using pymatgen
data_K2SI
_symmetry_space_group_name_H-M   'P 1'
_cell_length_a   4.25427866
_cell_length_b   4.25427866
_cell_length_c   22.43860245
_cell_angle_alpha   93.84783936
_cell_angle_beta   93.84783936
_cell_angle_gamma   90.17183685
_symmetry_Int_Tables_number   1
_chemical_formula_structural   K2SI
_chemical_formula_sum   'K2 S1 I1'
_cell_volume   404.27337511
_cell_formula_units_Z   1
loop_
 _symmetry_equiv_pos_site_id
 _symmetry_equiv_pos_as_xyz
  1  'x, y, z'
loop_
 _atom_site_type_symbol
 _atom_site_label
 _atom_site_symmetry_multiplicity
 _atom_site_fract_x
 _atom_site_fract_y
 _atom_site_fract_z
 _atom_site_occupancy
  S  S0  1  0.72999903  0.72628102  0.93744101  1
  I  I1  1  0.27371901  0.27000101  0.06255900  1
  K  K2  1  0.24821001  0.21132801  0.94203301  1
  K  K3  1  0.78867203  0.75179002  0.05796699  1
