# generated using pymatgen
data_CsF
_symmetry_space_group_name_H-M   'P 1'
_cell_length_a   7.88463259
_cell_length_b   7.88463259
_cell_length_c   7.88463259
_cell_angle_alpha   60.00000000
_cell_angle_beta   60.00000000
_cell_angle_gamma   60.00000000
_symmetry_Int_Tables_number   1
_chemical_formula_structural   CsF
_chemical_formula_sum   'Cs5 F5'
_cell_volume   346.60065897
_cell_formula_units_Z   5
loop_
 _symmetry_equiv_pos_site_id
 _symmetry_equiv_pos_as_xyz
  1  'x, y, z'
loop_
 _atom_site_type_symbol
 _atom_site_label
 _atom_site_symmetry_multiplicity
 _atom_site_fract_x
 _atom_site_fract_y
 _atom_site_fract_z
 _atom_site_occupancy
  Cs  Cs0  1  0.24999999  0.24999999  0.24999999  1
  Cs  Cs1  1  0.74999998  0.74999998  0.74999998  1
  Cs  Cs2  1  0.49999998  0.49999998  0.49999998  1
  Cs  Cs3  1  0.00000000  0.00000000  0.00000000  1
  Cs  Cs4  1  0.23195899  0.76804098  0.23195899  1
  F  F5  1  0.23195899  0.23195899  0.76804098  1
  F  F6  1  0.76804098  0.23195899  0.76804098  1
  F  F7  1  0.23195899  0.76804098  0.76804098  1
  F  F8  1  0.76804098  0.23195899  0.23195899  1
  F  F9  1  0.76804098  0.76804098  0.23195899  1
