# generated using pymatgen
data_Ba3ZnO6
_symmetry_space_group_name_H-M   'P 1'
_cell_length_a   6.03303385
_cell_length_b   6.03303385
_cell_length_c   6.15131426
_cell_angle_alpha   60.63405991
_cell_angle_beta   60.63405991
_cell_angle_gamma   60.00000381
_symmetry_Int_Tables_number   1
_chemical_formula_structural   Ba3ZnO6
_chemical_formula_sum   'Ba3 Zn1 O6'
_cell_volume   159.81621325
_cell_formula_units_Z   1
loop_
 _symmetry_equiv_pos_site_id
 _symmetry_equiv_pos_as_xyz
  1  'x, y, z'
loop_
 _atom_site_type_symbol
 _atom_site_label
 _atom_site_symmetry_multiplicity
 _atom_site_fract_x
 _atom_site_fract_y
 _atom_site_fract_z
 _atom_site_occupancy
  Ba  Ba0  1  0.14079500  0.14079500  0.57761500  1
  Zn  Zn1  1  0.85920503  0.85920498  0.42238499  1
  Ba  Ba2  1  0.35629201  0.35629199  0.93112400  1
  Ba  Ba3  1  0.64370802  0.64370799  0.06887599  1
  O  O4  1  0.01076503  0.77979398  0.75285599  1
  O  O5  1  0.54341504  0.98923498  0.24714399  1
  O  O6  1  0.22020602  0.54341499  0.24714399  1
  O  O7  1  0.77979401  0.45658499  0.75285600  1
  O  O8  1  0.45658500  0.01076500  0.75285600  1
  O  O9  1  0.98923500  0.22020600  0.24714400  1
