# generated using pymatgen
data_LaSi2
_symmetry_space_group_name_H-M   'P 1'
_cell_length_a   4.50746393
_cell_length_b   5.57862902
_cell_length_c   5.70131493
_cell_angle_alpha   78.61849213
_cell_angle_beta   66.71528625
_cell_angle_gamma   66.17190552
_symmetry_Int_Tables_number   1
_chemical_formula_structural   LaSi2
_chemical_formula_sum   'La2 Si4'
_cell_volume   120.34005359
_cell_formula_units_Z   2
loop_
 _symmetry_equiv_pos_site_id
 _symmetry_equiv_pos_as_xyz
  1  'x, y, z'
loop_
 _atom_site_type_symbol
 _atom_site_label
 _atom_site_symmetry_multiplicity
 _atom_site_fract_x
 _atom_site_fract_y
 _atom_site_fract_z
 _atom_site_occupancy
  La  La0  1  0.45157603  0.29144100  0.80540694  1
  La  La1  1  0.54842405  0.70855899  0.19459292  1
  Si  Si2  1  0.83669006  0.71700099  0.60961889  1
  Si  Si3  1  0.16331002  0.28299900  0.39038097  1
  Si  Si4  1  0.18223204  0.88530599  0.75022992  1
  Si  Si5  1  0.81776804  0.11469400  0.24976994  1
