# generated using pymatgen
data_F2
_symmetry_space_group_name_H-M   'P 1'
_cell_length_a   5.77310181
_cell_length_b   5.81773520
_cell_length_c   6.03810549
_cell_angle_alpha   98.19814301
_cell_angle_beta   90.00000000
_cell_angle_gamma   90.00000000
_symmetry_Int_Tables_number   1
_chemical_formula_structural   F2
_chemical_formula_sum   F12
_cell_volume   200.72566721
_cell_formula_units_Z   6
loop_
 _symmetry_equiv_pos_site_id
 _symmetry_equiv_pos_as_xyz
  1  'x, y, z'
loop_
 _atom_site_type_symbol
 _atom_site_label
 _atom_site_symmetry_multiplicity
 _atom_site_fract_x
 _atom_site_fract_y
 _atom_site_fract_z
 _atom_site_occupancy
  F  F0  1  0.48055702  0.71060197  0.30024297  1
  F  F1  1  0.01944300  0.21060199  0.30024299  1
  F  F2  1  0.98055703  0.78939797  0.69975696  1
  F  F3  1  0.51944302  0.28939799  0.69975697  1
  F  F4  1  0.75250903  0.98959296  0.46935996  1
  F  F5  1  0.74749103  0.48959298  0.46935997  1
  F  F6  1  0.25250901  0.51040698  0.53063997  1
  F  F7  1  0.24749101  0.01040700  0.53063998  1
  F  F8  1  0.18387601  0.86479397  0.06076297  1
  F  F9  1  0.31612401  0.36479399  0.06076299  1
  F  F10  1  0.68387602  0.63520598  0.93923695  1
  F  F11  1  0.81612403  0.13520599  0.93923697  1
