# generated using pymatgen
data_As
_symmetry_space_group_name_H-M   'P 1'
_cell_length_a   4.33424997
_cell_length_b   4.33424950
_cell_length_c   17.36731529
_cell_angle_alpha   90.00000000
_cell_angle_beta   90.00000000
_cell_angle_gamma   120.00000763
_symmetry_Int_Tables_number   1
_chemical_formula_structural   As
_chemical_formula_sum   As9
_cell_volume   282.54729220
_cell_formula_units_Z   9
loop_
 _symmetry_equiv_pos_site_id
 _symmetry_equiv_pos_as_xyz
  1  'x, y, z'
loop_
 _atom_site_type_symbol
 _atom_site_label
 _atom_site_symmetry_multiplicity
 _atom_site_fract_x
 _atom_site_fract_y
 _atom_site_fract_z
 _atom_site_occupancy
  As  As0  1  0.00000000  0.00000000  0.00000000  1
  As  As1  1  0.66666669  0.33333334  0.45548002  1
  As  As2  1  0.33333338  0.66666669  0.54452002  1
  As  As3  1  0.33333338  0.66666669  0.21421001  1
  As  As4  1  0.66666669  0.33333334  0.78579003  1
  As  As5  1  0.66666669  0.33333334  0.09820000  1
  As  As6  1  0.33333338  0.66666669  0.90180004  1
  As  As7  1  0.00000000  0.00000000  0.31277901  1
  As  As8  1  0.00000000  0.00000000  0.68722103  1
