# generated using pymatgen
data_Na2BeAs6F
_symmetry_space_group_name_H-M   'P 1'
_cell_length_a   5.77295399
_cell_length_b   5.77295399
_cell_length_c   5.77295399
_cell_angle_alpha   60.00000000
_cell_angle_beta   60.00000000
_cell_angle_gamma   60.00000000
_symmetry_Int_Tables_number   1
_chemical_formula_structural   Na2BeAs6F
_chemical_formula_sum   'Na2 Be1 As6 F1'
_cell_volume   136.04396789
_cell_formula_units_Z   1
loop_
 _symmetry_equiv_pos_site_id
 _symmetry_equiv_pos_as_xyz
  1  'x, y, z'
loop_
 _atom_site_type_symbol
 _atom_site_label
 _atom_site_symmetry_multiplicity
 _atom_site_fract_x
 _atom_site_fract_y
 _atom_site_fract_z
 _atom_site_occupancy
  Na  Na0  1  0.25000001  0.25000001  0.25000001  1
  Na  Na1  1  0.75000002  0.75000002  0.75000002  1
  As  As2  1  0.50000001  0.50000001  0.50000001  1
  As  As3  1  0.00000000  0.00000000  0.00000000  1
  F  F4  1  0.23956901  0.76043102  0.23956901  1
  Be  Be5  1  0.76043102  0.76043102  0.23956901  1
  As  As6  1  0.23956901  0.76043102  0.76043102  1
  As  As7  1  0.23956901  0.23956901  0.76043102  1
  As  As8  1  0.76043102  0.23956901  0.23956901  1
  As  As9  1  0.76043102  0.23956901  0.76043102  1
