# generated using pymatgen
data_F2
_symmetry_space_group_name_H-M   'P 1'
_cell_length_a   6.10508585
_cell_length_b   6.10508585
_cell_length_c   6.10508585
_cell_angle_alpha   90.00000000
_cell_angle_beta   90.00000000
_cell_angle_gamma   90.00000000
_symmetry_Int_Tables_number   1
_chemical_formula_structural   F2
_chemical_formula_sum   F8
_cell_volume   227.54920689
_cell_formula_units_Z   4
loop_
 _symmetry_equiv_pos_site_id
 _symmetry_equiv_pos_as_xyz
  1  'x, y, z'
loop_
 _atom_site_type_symbol
 _atom_site_label
 _atom_site_symmetry_multiplicity
 _atom_site_fract_x
 _atom_site_fract_y
 _atom_site_fract_z
 _atom_site_occupancy
  F  F0  1  0.00000000  0.00000000  0.50000001  1
  F  F1  1  0.00000000  0.50000001  -0.00000000  1
  F  F2  1  0.50000001  0.00000000  0.00000000  1
  F  F3  1  0.00000000  0.00000000  0.00000000  1
  F  F4  1  0.21637501  0.21637501  0.21637501  1
  F  F5  1  0.21637501  0.78362502  0.78362502  1
  F  F6  1  0.78362502  0.21637501  0.78362502  1
  F  F7  1  0.78362502  0.78362502  0.21637501  1
