# generated using pymatgen
data_CsBa3Cl8
_symmetry_space_group_name_H-M   'P 1'
_cell_length_a   6.85935402
_cell_length_b   6.85935402
_cell_length_c   8.94798374
_cell_angle_alpha   90.00000000
_cell_angle_beta   90.00000000
_cell_angle_gamma   90.00000000
_symmetry_Int_Tables_number   1
_chemical_formula_structural   CsBa3Cl8
_chemical_formula_sum   'Cs1 Ba3 Cl8'
_cell_volume   421.00923473
_cell_formula_units_Z   1
loop_
 _symmetry_equiv_pos_site_id
 _symmetry_equiv_pos_as_xyz
  1  'x, y, z'
loop_
 _atom_site_type_symbol
 _atom_site_label
 _atom_site_symmetry_multiplicity
 _atom_site_fract_x
 _atom_site_fract_y
 _atom_site_fract_z
 _atom_site_occupancy
  Ba  Ba0  1  0.00000000  0.00000000  0.00000000  1
  Ba  Ba1  1  0.50000000  0.50000000  -0.00000000  1
  Ba  Ba2  1  0.00000000  0.00000000  0.50000001  1
  Cs  Cs3  1  0.50000000  0.50000000  0.50000001  1
  Cl  Cl4  1  0.35349500  0.85349500  0.28929901  1
  Cl  Cl5  1  0.14650500  0.35349500  0.28929901  1
  Cl  Cl6  1  0.85349500  0.64650500  0.28929901  1
  Cl  Cl7  1  0.35349500  0.14650500  0.71070102  1
  Cl  Cl8  1  0.64650500  0.85349500  0.71070102  1
  Cl  Cl9  1  0.64650500  0.14650500  0.28929901  1
  Cl  Cl10  1  0.85349500  0.35349500  0.71070102  1
  Cl  Cl11  1  0.14650500  0.64650500  0.71070102  1
