# generated using pymatgen
data_BaS11
_symmetry_space_group_name_H-M   'P 1'
_cell_length_a   6.85935402
_cell_length_b   6.85935402
_cell_length_c   8.94798374
_cell_angle_alpha   90.00000000
_cell_angle_beta   90.00000000
_cell_angle_gamma   90.00000000
_symmetry_Int_Tables_number   1
_chemical_formula_structural   BaS11
_chemical_formula_sum   'Ba1 S11'
_cell_volume   421.00923473
_cell_formula_units_Z   1
loop_
 _symmetry_equiv_pos_site_id
 _symmetry_equiv_pos_as_xyz
  1  'x, y, z'
loop_
 _atom_site_type_symbol
 _atom_site_label
 _atom_site_symmetry_multiplicity
 _atom_site_fract_x
 _atom_site_fract_y
 _atom_site_fract_z
 _atom_site_occupancy
  Ba  Ba0  1  0.00000000  0.00000000  0.00000000  1
  S  S1  1  0.50000000  0.50000000  -0.00000000  1
  S  S2  1  0.00000000  0.00000000  0.50000001  1
  S  S3  1  0.50000000  0.50000000  0.50000001  1
  S  S4  1  0.35349500  0.85349500  0.28929901  1
  S  S5  1  0.14650500  0.35349500  0.28929901  1
  S  S6  1  0.85349500  0.64650500  0.28929901  1
  S  S7  1  0.35349500  0.14650500  0.71070102  1
  S  S8  1  0.64650500  0.85349500  0.71070102  1
  S  S9  1  0.64650500  0.14650500  0.28929901  1
  S  S10  1  0.85349500  0.35349500  0.71070102  1
  S  S11  1  0.14650500  0.64650500  0.71070102  1
