# generated using pymatgen
data_W
_symmetry_space_group_name_H-M   'P 1'
_cell_length_a   3.32132792
_cell_length_b   3.32132769
_cell_length_c   37.87051010
_cell_angle_alpha   90.00000000
_cell_angle_beta   90.00000000
_cell_angle_gamma   120.00000000
_symmetry_Int_Tables_number   1
_chemical_formula_structural   W
_chemical_formula_sum   W12
_cell_volume   361.78892591
_cell_formula_units_Z   12
loop_
 _symmetry_equiv_pos_site_id
 _symmetry_equiv_pos_as_xyz
  1  'x, y, z'
loop_
 _atom_site_type_symbol
 _atom_site_label
 _atom_site_symmetry_multiplicity
 _atom_site_fract_x
 _atom_site_fract_y
 _atom_site_fract_z
 _atom_site_occupancy
  W  W0  1  0.00000000  0.00000000  0.90608005  1
  W  W1  1  0.00000000  0.00000000  0.53034403  1
  W  W2  1  0.66666666  0.33333332  0.71820104  1
  W  W3  1  0.66666666  0.33333332  0.34245902  1
  W  W4  1  0.00000000  0.00000000  0.67374303  1
  W  W5  1  0.00000000  0.00000000  0.29800001  1
  W  W6  1  0.66666666  0.33333332  0.95031905  1
  W  W7  1  0.66666666  0.33333332  0.57478503  1
  W  W8  1  0.66666666  0.33333332  0.86183204  1
  W  W9  1  0.66666666  0.33333332  0.48590202  1
  W  W10  1  0.00000000  0.00000000  0.76266304  1
  W  W11  1  0.00000000  0.00000000  0.38692402  1
