# generated using pymatgen
data_Ba(InS2)3
_symmetry_space_group_name_H-M   'P 1'
_cell_length_a   6.89093924
_cell_length_b   6.89093924
_cell_length_c   6.89093924
_cell_angle_alpha   60.00000000
_cell_angle_beta   60.00000000
_cell_angle_gamma   60.00000000
_symmetry_Int_Tables_number   1
_chemical_formula_structural   Ba(InS2)3
_chemical_formula_sum   'Ba1 In3 S6'
_cell_volume   231.37704121
_cell_formula_units_Z   1
loop_
 _symmetry_equiv_pos_site_id
 _symmetry_equiv_pos_as_xyz
  1  'x, y, z'
loop_
 _atom_site_type_symbol
 _atom_site_label
 _atom_site_symmetry_multiplicity
 _atom_site_fract_x
 _atom_site_fract_y
 _atom_site_fract_z
 _atom_site_occupancy
  In  In0  1  0.50000001  0.50000001  0.50000001  1
  In  In1  1  0.25000001  0.25000001  0.25000001  1
  Ba  Ba2  1  0.75000002  0.75000002  0.75000002  1
  In  In3  1  0.00000000  0.00000000  0.00000000  1
  S  S4  1  0.21266601  0.78733402  0.21266601  1
  S  S5  1  0.21266601  0.21266601  0.78733402  1
  S  S6  1  0.78733402  0.21266601  0.78733402  1
  S  S7  1  0.21266601  0.78733402  0.78733402  1
  S  S8  1  0.78733402  0.21266601  0.21266601  1
  S  S9  1  0.78733402  0.78733402  0.21266601  1
