# generated using pymatgen
data_Au
_symmetry_space_group_name_H-M   'P 1'
_cell_length_a   6.89093924
_cell_length_b   6.89093924
_cell_length_c   6.89093924
_cell_angle_alpha   60.00000000
_cell_angle_beta   60.00000000
_cell_angle_gamma   60.00000000
_symmetry_Int_Tables_number   1
_chemical_formula_structural   Au
_chemical_formula_sum   Au10
_cell_volume   231.37704121
_cell_formula_units_Z   10
loop_
 _symmetry_equiv_pos_site_id
 _symmetry_equiv_pos_as_xyz
  1  'x, y, z'
loop_
 _atom_site_type_symbol
 _atom_site_label
 _atom_site_symmetry_multiplicity
 _atom_site_fract_x
 _atom_site_fract_y
 _atom_site_fract_z
 _atom_site_occupancy
  Au  Au0  1  0.50000001  0.50000001  0.50000001  1
  Au  Au1  1  0.25000001  0.25000001  0.25000001  1
  Au  Au2  1  0.75000002  0.75000002  0.75000002  1
  Au  Au3  1  0.00000000  0.00000000  0.00000000  1
  Au  Au4  1  0.21266601  0.78733402  0.21266601  1
  Au  Au5  1  0.21266601  0.21266601  0.78733402  1
  Au  Au6  1  0.78733402  0.21266601  0.78733402  1
  Au  Au7  1  0.21266601  0.78733402  0.78733402  1
  Au  Au8  1  0.78733402  0.21266601  0.21266601  1
  Au  Au9  1  0.78733402  0.78733402  0.21266601  1
