# generated using pymatgen
data_Au3O
_symmetry_space_group_name_H-M   'P 1'
_cell_length_a   6.38356686
_cell_length_b   6.38356686
_cell_length_c   6.38356686
_cell_angle_alpha   90.00000000
_cell_angle_beta   90.00000000
_cell_angle_gamma   90.00000000
_symmetry_Int_Tables_number   1
_chemical_formula_structural   Au3O
_chemical_formula_sum   'Au9 O3'
_cell_volume   260.12987580
_cell_formula_units_Z   3
loop_
 _symmetry_equiv_pos_site_id
 _symmetry_equiv_pos_as_xyz
  1  'x, y, z'
loop_
 _atom_site_type_symbol
 _atom_site_label
 _atom_site_symmetry_multiplicity
 _atom_site_fract_x
 _atom_site_fract_y
 _atom_site_fract_z
 _atom_site_occupancy
  Au  Au0  1  0.61895901  0.38104101  0.88104102  1
  Au  Au1  1  0.38104101  0.88104102  0.61895901  1
  Au  Au2  1  0.11895900  0.11895900  0.11895900  1
  Au  Au3  1  0.88104102  0.61895901  0.38104101  1
  O  O4  1  0.16139900  0.33860101  0.66139901  1
  O  O5  1  0.66139901  0.16139900  0.33860101  1
  O  O6  1  0.33860101  0.66139901  0.16139900  1
  Au  Au7  1  0.83860102  0.83860102  0.83860102  1
  Au  Au8  1  0.59169401  0.90830602  0.09169400  1
  Au  Au9  1  0.09169400  0.59169401  0.90830602  1
  Au  Au10  1  0.40830601  0.40830601  0.40830601  1
  Au  Au11  1  0.90830602  0.09169400  0.59169401  1
