# generated using pymatgen
data_Ba3O7
_symmetry_space_group_name_H-M   'P 1'
_cell_length_a   4.65475321
_cell_length_b   6.07456589
_cell_length_c   7.25689077
_cell_angle_alpha   90.00000000
_cell_angle_beta   106.88681030
_cell_angle_gamma   90.00000000
_symmetry_Int_Tables_number   1
_chemical_formula_structural   Ba3O7
_chemical_formula_sum   'Ba3 O7'
_cell_volume   196.34515462
_cell_formula_units_Z   1
loop_
 _symmetry_equiv_pos_site_id
 _symmetry_equiv_pos_as_xyz
  1  'x, y, z'
loop_
 _atom_site_type_symbol
 _atom_site_label
 _atom_site_symmetry_multiplicity
 _atom_site_fract_x
 _atom_site_fract_y
 _atom_site_fract_z
 _atom_site_occupancy
  Ba  Ba0  1  0.33986898  0.25000000  0.68640199  1
  Ba  Ba1  1  0.66013096  0.75000001  0.31359797  1
  Ba  Ba2  1  0.06948800  0.25000000  0.14776700  1
  O  O3  1  0.93051194  0.75000001  0.85223296  1
  O  O4  1  0.82645495  0.51414101  0.67390597  1
  O  O5  1  0.17354499  0.01414100  0.32609399  1
  O  O6  1  0.17354499  0.48585901  0.32609399  1
  O  O7  1  0.82645495  0.98585902  0.67390597  1
  O  O8  1  0.35295898  0.75000001  0.89793899  1
  O  O9  1  0.64704096  0.25000000  0.10206097  1
