# generated using pymatgen
data_La
_symmetry_space_group_name_H-M   'P 1'
_cell_length_a   4.28538799
_cell_length_b   7.27762222
_cell_length_c   8.12447739
_cell_angle_alpha   90.00000000
_cell_angle_beta   90.00000000
_cell_angle_gamma   90.00000000
_symmetry_Int_Tables_number   1
_chemical_formula_structural   La
_chemical_formula_sum   La12
_cell_volume   253.38160951
_cell_formula_units_Z   12
loop_
 _symmetry_equiv_pos_site_id
 _symmetry_equiv_pos_as_xyz
  1  'x, y, z'
loop_
 _atom_site_type_symbol
 _atom_site_label
 _atom_site_symmetry_multiplicity
 _atom_site_fract_x
 _atom_site_fract_y
 _atom_site_fract_z
 _atom_site_occupancy
  La  La0  1  0.25000000  0.63948798  0.55932097  1
  La  La1  1  0.75000000  0.36051199  0.44067898  1
  La  La2  1  0.75000000  0.86051197  0.05932100  1
  La  La3  1  0.25000000  0.13948800  0.94067896  1
  La  La4  1  0.25000000  0.52400898  0.18986099  1
  La  La5  1  0.75000000  0.47599099  0.81013896  1
  La  La6  1  0.75000000  0.97599097  0.68986097  1
  La  La7  1  0.25000000  0.02400900  0.31013899  1
  La  La8  1  0.25000000  0.77182998  0.89186696  1
  La  La9  1  0.75000000  0.22816999  0.10813299  1
  La  La10  1  0.75000000  0.72816998  0.39186698  1
  La  La11  1  0.25000000  0.27182999  0.60813297  1
