# generated using pymatgen
data_SnPbS
_symmetry_space_group_name_H-M   'P 1'
_cell_length_a   4.31285620
_cell_length_b   4.37819242
_cell_length_c   6.00456238
_cell_angle_alpha   90.68596649
_cell_angle_beta   90.00000000
_cell_angle_gamma   119.50756073
_symmetry_Int_Tables_number   1
_chemical_formula_structural   SnPbS
_chemical_formula_sum   'Sn1 Pb1 S1'
_cell_volume   98.66529846
_cell_formula_units_Z   1
loop_
 _symmetry_equiv_pos_site_id
 _symmetry_equiv_pos_as_xyz
  1  'x, y, z'
loop_
 _atom_site_type_symbol
 _atom_site_label
 _atom_site_symmetry_multiplicity
 _atom_site_fract_x
 _atom_site_fract_y
 _atom_site_fract_z
 _atom_site_occupancy
  S  S0  1  0.68677095  0.37354198  0.66232499  1
  Pb  Pb1  1  0.31322896  0.62645797  0.33767501  1
  Sn  Sn2  1  0.00000000  0.00000000  0.00000000  1
