# generated using pymatgen
data_Be
_symmetry_space_group_name_H-M   'P 1'
_cell_length_a   3.39064598
_cell_length_b   3.39064646
_cell_length_c   5.82371616
_cell_angle_alpha   90.00000000
_cell_angle_beta   90.00000000
_cell_angle_gamma   120.00000000
_symmetry_Int_Tables_number   1
_chemical_formula_structural   Be
_chemical_formula_sum   Be5
_cell_volume   57.98234656
_cell_formula_units_Z   5
loop_
 _symmetry_equiv_pos_site_id
 _symmetry_equiv_pos_as_xyz
  1  'x, y, z'
loop_
 _atom_site_type_symbol
 _atom_site_label
 _atom_site_symmetry_multiplicity
 _atom_site_fract_x
 _atom_site_fract_y
 _atom_site_fract_z
 _atom_site_occupancy
  Be  Be0  1  0.00000000  0.00000000  0.00000000  1
  Be  Be1  1  0.66666669  0.33333334  0.64999098  1
  Be  Be2  1  0.33333338  0.66666667  0.35000899  1
  Be  Be3  1  0.33333338  0.66666667  0.72991998  1
  Be  Be4  1  0.66666669  0.33333334  0.27007999  1
