# generated using pymatgen
data_La5Si7
_symmetry_space_group_name_H-M   'P 1'
_cell_length_a   4.12011623
_cell_length_b   6.59465218
_cell_length_c   8.06557369
_cell_angle_alpha   90.00000000
_cell_angle_beta   104.79809570
_cell_angle_gamma   90.00000000
_symmetry_Int_Tables_number   1
_chemical_formula_structural   La5Si7
_chemical_formula_sum   'La5 Si7'
_cell_volume   211.87884046
_cell_formula_units_Z   1
loop_
 _symmetry_equiv_pos_site_id
 _symmetry_equiv_pos_as_xyz
  1  'x, y, z'
loop_
 _atom_site_type_symbol
 _atom_site_label
 _atom_site_symmetry_multiplicity
 _atom_site_fract_x
 _atom_site_fract_y
 _atom_site_fract_z
 _atom_site_occupancy
  La  La0  1  0.88551793  0.24999999  0.77103601  1
  La  La1  1  0.11448199  0.74999998  0.22896401  1
  La  La2  1  0.49999996  0.00000000  -0.00000002  1
  Si  Si3  1  0.49999996  0.49999999  -0.00000002  1
  Si  Si4  1  0.92261693  0.74999998  0.84523401  1
  La  La5  1  0.07738299  0.24999999  0.15476600  1
  La  La6  1  0.31080698  0.94753597  0.62161402  1
  Si  Si7  1  0.68919295  0.05246400  0.37838599  1
  Si  Si8  1  0.68919295  0.44753599  0.37838599  1
  Si  Si9  1  0.31080698  0.55246399  0.62161402  1
  Si  Si10  1  0.22600698  0.24999999  0.45201401  1
  Si  Si11  1  0.77399294  0.74999998  0.54798600  1
