# generated using pymatgen
data_Mg3H16O
_symmetry_space_group_name_H-M   'P 1'
_cell_length_a   4.14410591
_cell_length_b   7.27020884
_cell_length_c   7.27020884
_cell_angle_alpha   90.00000000
_cell_angle_beta   90.00000000
_cell_angle_gamma   90.00000000
_symmetry_Int_Tables_number   1
_chemical_formula_structural   Mg3H16O
_chemical_formula_sum   'Mg3 H16 O1'
_cell_volume   219.04059895
_cell_formula_units_Z   1
loop_
 _symmetry_equiv_pos_site_id
 _symmetry_equiv_pos_as_xyz
  1  'x, y, z'
loop_
 _atom_site_type_symbol
 _atom_site_label
 _atom_site_symmetry_multiplicity
 _atom_site_fract_x
 _atom_site_fract_y
 _atom_site_fract_z
 _atom_site_occupancy
  Mg  Mg0  1  0.00000000  0.18287200  0.68287202  1
  H  H1  1  0.00000000  0.68287202  0.81712802  1
  Mg  Mg2  1  0.00000000  0.31712801  0.18287200  1
  H  H3  1  0.00000000  0.81712802  0.31712801  1
  O  O4  1  0.50000001  0.32623601  0.46109501  1
  H  H5  1  0.50000001  0.67376402  0.53890501  1
  H  H6  1  0.50000001  0.53890501  0.32623601  1
  H  H7  1  0.50000001  0.46109501  0.67376402  1
  H  H8  1  0.20526000  0.00000000  0.00000000  1
  H  H9  1  0.79474002  0.50000001  0.50000001  1
  H  H10  1  0.79474002  0.00000000  -0.00000000  1
  H  H11  1  0.20526000  0.50000001  0.50000001  1
  H  H12  1  0.50000001  0.58824201  0.08824200  1
  Mg  Mg13  1  0.50000001  0.08824200  0.41175801  1
  H  H14  1  0.50000001  0.91175802  0.58824201  1
  H  H15  1  0.50000001  0.41175801  0.91175802  1
  H  H16  1  0.50000001  0.03890500  0.17376400  1
  H  H17  1  0.50000001  0.17376400  0.96109502  1
  H  H18  1  0.50000001  0.82623602  0.03890500  1
  H  H19  1  0.50000001  0.96109502  0.82623602  1
