# generated using pymatgen
data_AuO12
_symmetry_space_group_name_H-M   'P 1'
_cell_length_a   3.98342633
_cell_length_b   6.19638062
_cell_length_c   6.19638062
_cell_angle_alpha   115.53873444
_cell_angle_beta   102.37374115
_cell_angle_gamma   102.37374115
_symmetry_Int_Tables_number   1
_chemical_formula_structural   AuO12
_chemical_formula_sum   'Au1 O12'
_cell_volume   126.37138398
_cell_formula_units_Z   1
loop_
 _symmetry_equiv_pos_site_id
 _symmetry_equiv_pos_as_xyz
  1  'x, y, z'
loop_
 _atom_site_type_symbol
 _atom_site_label
 _atom_site_symmetry_multiplicity
 _atom_site_fract_x
 _atom_site_fract_y
 _atom_site_fract_z
 _atom_site_occupancy
  Au  Au0  1  0.00047700  0.00000000  -0.00000000  1
  O  O1  1  0.63998995  0.48546998  0.99999997  1
  O  O2  1  0.15451995  0.51452998  0.51452997  1
  O  O3  1  0.63998990  0.99999997  0.48546992  1
  O  O4  1  0.39392894  0.54015098  -0.00000005  1
  O  O5  1  0.85377795  0.45984899  0.45984896  1
  O  O6  1  0.39392900  0.00000000  0.54015100  1
  O  O7  1  0.11433796  0.39688399  -0.00000003  1
  O  O8  1  0.71745394  0.60311598  0.60311595  1
  O  O9  1  0.11433800  0.00000000  0.39688400  1
  O  O10  1  0.41314192  0.74916798  -0.00000006  1
  O  O11  1  0.66397397  0.25083199  0.25083197  1
  O  O12  1  0.41314200  0.00000000  0.74916800  1
