# generated using pymatgen
data_PrAl4Re
_symmetry_space_group_name_H-M   'P 1'
_cell_length_a   3.95233202
_cell_length_b   4.99529600
_cell_length_c   4.99529648
_cell_angle_alpha   60.00000381
_cell_angle_beta   90.00000000
_cell_angle_gamma   90.00000000
_symmetry_Int_Tables_number   1
_chemical_formula_structural   PrAl4Re
_chemical_formula_sum   'Pr1 Al4 Re1'
_cell_volume   85.40957611
_cell_formula_units_Z   1
loop_
 _symmetry_equiv_pos_site_id
 _symmetry_equiv_pos_as_xyz
  1  'x, y, z'
loop_
 _atom_site_type_symbol
 _atom_site_label
 _atom_site_symmetry_multiplicity
 _atom_site_fract_x
 _atom_site_fract_y
 _atom_site_fract_z
 _atom_site_occupancy
  Pr  Pr0  1  0.99999999  0.33333334  0.33333334  1
  Al  Al1  1  0.00000000  0.66666667  0.66666668  1
  Al  Al2  1  0.00000000  0.00000000  0.00000000  1
  Re  Re3  1  0.50000000  0.33289800  0.83355103  1
  Al  Al4  1  0.50000000  0.83355100  0.83355102  1
  Al  Al5  1  0.50000000  0.83355100  0.33289800  1
