# generated using pymatgen
data_Tm5Zn
_symmetry_space_group_name_H-M   'P 1'
_cell_length_a   3.11090207
_cell_length_b   3.11090183
_cell_length_c   15.36045265
_cell_angle_alpha   90.00000000
_cell_angle_beta   90.00000000
_cell_angle_gamma   120.00000000
_symmetry_Int_Tables_number   1
_chemical_formula_structural   Tm5Zn
_chemical_formula_sum   'Tm5 Zn1'
_cell_volume   128.73815846
_cell_formula_units_Z   1
loop_
 _symmetry_equiv_pos_site_id
 _symmetry_equiv_pos_as_xyz
  1  'x, y, z'
loop_
 _atom_site_type_symbol
 _atom_site_label
 _atom_site_symmetry_multiplicity
 _atom_site_fract_x
 _atom_site_fract_y
 _atom_site_fract_z
 _atom_site_occupancy
  Tm  Tm0  1  0.00000000  0.00000000  0.14970600  1
  Zn  Zn1  1  0.33333331  0.66666666  0.32658201  1
  Tm  Tm2  1  0.00000000  0.00000000  0.50000001  1
  Tm  Tm3  1  0.33333331  0.66666666  0.67341802  1
  Tm  Tm4  1  0.00000000  0.00000000  0.85029402  1
  Tm  Tm5  1  0.33333331  0.66666666  1.00000002  1
