# generated using pymatgen
data_Ca3N2
_symmetry_space_group_name_H-M   'P 1'
_cell_length_a   3.64204192
_cell_length_b   3.64204121
_cell_length_c   6.42102814
_cell_angle_alpha   90.00000000
_cell_angle_beta   90.00000000
_cell_angle_gamma   120.00000763
_symmetry_Int_Tables_number   1
_chemical_formula_structural   Ca3N2
_chemical_formula_sum   'Ca3 N2'
_cell_volume   73.76068935
_cell_formula_units_Z   1
loop_
 _symmetry_equiv_pos_site_id
 _symmetry_equiv_pos_as_xyz
  1  'x, y, z'
loop_
 _atom_site_type_symbol
 _atom_site_label
 _atom_site_symmetry_multiplicity
 _atom_site_fract_x
 _atom_site_fract_y
 _atom_site_fract_z
 _atom_site_occupancy
  Ca  Ca0  1  0.66666669  0.33333334  0.79009198  1
  Ca  Ca1  1  0.33333335  0.66666668  0.20990800  1
  N  N2  1  0.00000000  0.00000000  0.00000000  1
  N  N3  1  0.33333335  0.66666668  0.61732699  1
  Ca  Ca4  1  0.66666669  0.33333334  0.38267299  1
