# generated using pymatgen
data_Ca2N3
_symmetry_space_group_name_H-M   'P 1'
_cell_length_a   3.55959392
_cell_length_b   3.55959320
_cell_length_c   6.12020016
_cell_angle_alpha   90.00000000
_cell_angle_beta   90.00000000
_cell_angle_gamma   120.00000763
_symmetry_Int_Tables_number   1
_chemical_formula_structural   Ca2N3
_chemical_formula_sum   'Ca2 N3'
_cell_volume   67.15789086
_cell_formula_units_Z   1
loop_
 _symmetry_equiv_pos_site_id
 _symmetry_equiv_pos_as_xyz
  1  'x, y, z'
loop_
 _atom_site_type_symbol
 _atom_site_label
 _atom_site_symmetry_multiplicity
 _atom_site_fract_x
 _atom_site_fract_y
 _atom_site_fract_z
 _atom_site_occupancy
  N  N0  1  0.00000000  0.00000000  0.49999999  1
  N  N1  1  0.66666669  0.33333334  0.14081500  1
  N  N2  1  0.33333335  0.66666669  0.85918498  1
  Ca  Ca3  1  0.66666669  0.33333334  0.76605898  1
  Ca  Ca4  1  0.33333335  0.66666669  0.23394099  1
