# generated using pymatgen
data_LiF2
_symmetry_space_group_name_H-M   'P 1'
_cell_length_a   5.51347113
_cell_length_b   5.67314005
_cell_length_c   6.70077181
_cell_angle_alpha   90.00000000
_cell_angle_beta   95.96447754
_cell_angle_gamma   90.00000000
_symmetry_Int_Tables_number   1
_chemical_formula_structural   LiF2
_chemical_formula_sum   'Li4 F8'
_cell_volume   208.45676915
_cell_formula_units_Z   4
loop_
 _symmetry_equiv_pos_site_id
 _symmetry_equiv_pos_as_xyz
  1  'x, y, z'
loop_
 _atom_site_type_symbol
 _atom_site_label
 _atom_site_symmetry_multiplicity
 _atom_site_fract_x
 _atom_site_fract_y
 _atom_site_fract_z
 _atom_site_occupancy
  Li  Li0  1  0.70740998  0.24771000  0.44956595  1
  Li  Li1  1  0.79258998  0.74770999  0.05043396  1
  Li  Li2  1  0.29258999  0.75228999  0.55043397  1
  Li  Li3  1  0.20740999  0.25229000  0.94956596  1
  F  F4  1  0.78757198  0.74623599  0.45197795  1
  F  F5  1  0.71242798  0.24623600  0.04802196  1
  F  F6  1  0.21242799  0.25376400  0.54802197  1
  F  F7  1  0.28757199  0.75376399  0.95197796  1
  F  F8  1  0.18438899  0.30949300  0.34986898  1
  F  F9  1  0.31561099  0.80949299  0.15013098  1
  F  F10  1  0.81561098  0.69050699  0.65013094  1
  F  F11  1  0.68438898  0.19050700  0.84986894  1
