# generated using pymatgen
data_Li2O3
_symmetry_space_group_name_H-M   'P 1'
_cell_length_a   5.18106604
_cell_length_b   5.40736294
_cell_length_c   5.21453142
_cell_angle_alpha   82.64105988
_cell_angle_beta   74.49283600
_cell_angle_gamma   61.37498474
_symmetry_Int_Tables_number   1
_chemical_formula_structural   Li2O3
_chemical_formula_sum   'Li4 O6'
_cell_volume   123.56573334
_cell_formula_units_Z   2
loop_
 _symmetry_equiv_pos_site_id
 _symmetry_equiv_pos_as_xyz
  1  'x, y, z'
loop_
 _atom_site_type_symbol
 _atom_site_label
 _atom_site_symmetry_multiplicity
 _atom_site_fract_x
 _atom_site_fract_y
 _atom_site_fract_z
 _atom_site_occupancy
  Li  Li0  1  0.65248697  0.69502600  0.00000003  1
  Li  Li1  1  0.34751299  0.30497400  0.00000001  1
  Li  Li2  1  0.83806399  0.32387200  0.49999999  1
  Li  Li3  1  0.16193597  0.67612800  0.50000004  1
  O  O4  1  0.20480500  0.00000000  0.28642199  1
  O  O5  1  0.79519500  0.00000000  0.71357796  1
  O  O6  1  0.95868998  0.60050000  0.26644401  1
  O  O7  1  0.44080997  0.60050000  0.73355602  1
  O  O8  1  0.04130998  0.39950000  0.73355602  1
  O  O9  1  0.55918998  0.39950000  0.26644401  1
