# generated using pymatgen
data_Mn
_symmetry_space_group_name_H-M   'P 1'
_cell_length_a   2.89188409
_cell_length_b   2.95807695
_cell_length_c   4.02247524
_cell_angle_alpha   90.00000000
_cell_angle_beta   111.06739044
_cell_angle_gamma   90.00000000
_symmetry_Int_Tables_number   1
_chemical_formula_structural   Mn
_chemical_formula_sum   Mn4
_cell_volume   32.10990647
_cell_formula_units_Z   4
loop_
 _symmetry_equiv_pos_site_id
 _symmetry_equiv_pos_as_xyz
  1  'x, y, z'
loop_
 _atom_site_type_symbol
 _atom_site_label
 _atom_site_symmetry_multiplicity
 _atom_site_fract_x
 _atom_site_fract_y
 _atom_site_fract_z
 _atom_site_occupancy
  Mn  Mn0  1  0.85848598  0.75000001  0.71697200  1
  Mn  Mn1  1  0.14151400  0.25000000  0.28302800  1
  Mn  Mn2  1  0.56979499  0.75000001  0.13959001  1
  Mn  Mn3  1  0.43020499  0.25000000  0.86040999  1
