# generated using pymatgen
data_Pb
_symmetry_space_group_name_H-M   'P 1'
_cell_length_a   4.85879993
_cell_length_b   4.95236921
_cell_length_c   6.93873501
_cell_angle_alpha   90.00000000
_cell_angle_beta   110.49474335
_cell_angle_gamma   90.00000000
_symmetry_Int_Tables_number   1
_chemical_formula_structural   Pb
_chemical_formula_sum   Pb4
_cell_volume   156.39571687
_cell_formula_units_Z   4
loop_
 _symmetry_equiv_pos_site_id
 _symmetry_equiv_pos_as_xyz
  1  'x, y, z'
loop_
 _atom_site_type_symbol
 _atom_site_label
 _atom_site_symmetry_multiplicity
 _atom_site_fract_x
 _atom_site_fract_y
 _atom_site_fract_z
 _atom_site_occupancy
  Pb  Pb0  1  0.39541000  0.74999997  0.79082000  1
  Pb  Pb1  1  0.60459001  0.24999999  0.20917999  1
  Pb  Pb2  1  0.14279100  0.74999997  0.28558200  1
  Pb  Pb3  1  0.85720901  0.24999999  0.71441799  1
