# generated using pymatgen
data_Ti4NF3
_symmetry_space_group_name_H-M   'P 1'
_cell_length_a   5.10973883
_cell_length_b   5.10973883
_cell_length_c   5.10973883
_cell_angle_alpha   90.00000000
_cell_angle_beta   90.00000000
_cell_angle_gamma   90.00000000
_symmetry_Int_Tables_number   1
_chemical_formula_structural   Ti4NF3
_chemical_formula_sum   'Ti4 N1 F3'
_cell_volume   133.41237270
_cell_formula_units_Z   1
loop_
 _symmetry_equiv_pos_site_id
 _symmetry_equiv_pos_as_xyz
  1  'x, y, z'
loop_
 _atom_site_type_symbol
 _atom_site_label
 _atom_site_symmetry_multiplicity
 _atom_site_fract_x
 _atom_site_fract_y
 _atom_site_fract_z
 _atom_site_occupancy
  N  N0  1  0.50000002  0.00000000  0.50000002  1
  F  F1  1  0.50000002  0.50000002  -0.00000000  1
  F  F2  1  0.00000000  0.50000002  0.50000002  1
  F  F3  1  0.00000000  0.00000000  0.00000000  1
  Ti  Ti4  1  0.50000002  0.50000002  0.50000002  1
  Ti  Ti5  1  0.50000002  0.00000000  -0.00000000  1
  Ti  Ti6  1  0.00000000  0.50000002  -0.00000000  1
  Ti  Ti7  1  0.00000000  0.00000000  0.50000002  1
