# generated using pymatgen
data_Zn
_symmetry_space_group_name_H-M   'P 1'
_cell_length_a   3.19064403
_cell_length_b   3.19064403
_cell_length_c   7.34095240
_cell_angle_alpha   77.44844055
_cell_angle_beta   77.44844055
_cell_angle_gamma   60.00000000
_symmetry_Int_Tables_number   1
_chemical_formula_structural   Zn
_chemical_formula_sum   Zn3
_cell_volume   62.64935489
_cell_formula_units_Z   3
loop_
 _symmetry_equiv_pos_site_id
 _symmetry_equiv_pos_as_xyz
  1  'x, y, z'
loop_
 _atom_site_type_symbol
 _atom_site_label
 _atom_site_symmetry_multiplicity
 _atom_site_fract_x
 _atom_site_fract_y
 _atom_site_fract_z
 _atom_site_occupancy
  Zn  Zn0  1  0.99977695  0.99977699  0.00066900  1
  Zn  Zn1  1  0.40653498  0.40653499  0.78039501  1
  Zn  Zn2  1  0.25968799  0.25968800  0.22093600  1
