# generated using pymatgen
data_S
_symmetry_space_group_name_H-M   'P 1'
_cell_length_a   4.21420145
_cell_length_b   4.21420145
_cell_length_c   11.43481541
_cell_angle_alpha   90.00000000
_cell_angle_beta   90.00000000
_cell_angle_gamma   101.03033447
_symmetry_Int_Tables_number   1
_chemical_formula_structural   S
_chemical_formula_sum   S10
_cell_volume   199.32490317
_cell_formula_units_Z   10
loop_
 _symmetry_equiv_pos_site_id
 _symmetry_equiv_pos_as_xyz
  1  'x, y, z'
loop_
 _atom_site_type_symbol
 _atom_site_label
 _atom_site_symmetry_multiplicity
 _atom_site_fract_x
 _atom_site_fract_y
 _atom_site_fract_z
 _atom_site_occupancy
  S  S0  1  0.79616705  0.79616703  0.24999999  1
  S  S1  1  0.20383301  0.20383301  0.74999997  1
  S  S2  1  0.68869904  0.68869903  0.56680798  1
  S  S3  1  0.31130102  0.31130101  0.06680800  1
  S  S4  1  0.68869904  0.68869903  0.93319197  1
  S  S5  1  0.31130102  0.31130101  0.43319198  1
  S  S6  1  0.79554703  0.20445301  0.99999996  1
  S  S7  1  0.20445303  0.79554703  0.49999998  1
  S  S8  1  0.79554703  0.20445301  0.49999998  1
  S  S9  1  0.20445303  0.79554703  0.99999996  1
