# generated using pymatgen
data_Mo
_symmetry_space_group_name_H-M   'P 1'
_cell_length_a   3.69040704
_cell_length_b   3.69040704
_cell_length_c   12.39078999
_cell_angle_alpha   90.00000000
_cell_angle_beta   90.00000000
_cell_angle_gamma   90.00000000
_symmetry_Int_Tables_number   1
_chemical_formula_structural   Mo
_chemical_formula_sum   Mo12
_cell_volume   168.75145875
_cell_formula_units_Z   12
loop_
 _symmetry_equiv_pos_site_id
 _symmetry_equiv_pos_as_xyz
  1  'x, y, z'
loop_
 _atom_site_type_symbol
 _atom_site_label
 _atom_site_symmetry_multiplicity
 _atom_site_fract_x
 _atom_site_fract_y
 _atom_site_fract_z
 _atom_site_occupancy
  Mo  Mo0  1  0.49999999  0.49999999  0.25000200  1
  Mo  Mo1  1  0.00000000  0.00000000  0.50000000  1
  Mo  Mo2  1  0.49999999  0.49999999  0.74999800  1
  Mo  Mo3  1  0.00000000  0.00000000  0.00000000  1
  Mo  Mo4  1  0.00000000  0.00000000  0.19686900  1
  Mo  Mo5  1  0.49999999  0.49999999  0.44737800  1
  Mo  Mo6  1  0.00000000  0.00000000  0.69773900  1
  Mo  Mo7  1  0.49999999  0.49999999  0.94729700  1
  Mo  Mo8  1  0.49999999  0.49999999  0.05270300  1
  Mo  Mo9  1  0.00000000  0.00000000  0.30226100  1
  Mo  Mo10  1  0.49999999  0.49999999  0.55262200  1
  Mo  Mo11  1  0.00000000  0.00000000  0.80313100  1
