# generated using pymatgen
data_BaYb5
_symmetry_space_group_name_H-M   'P 1'
_cell_length_a   3.68122697
_cell_length_b   5.51536512
_cell_length_c   7.63298845
_cell_angle_alpha   78.23164368
_cell_angle_beta   76.04620361
_cell_angle_gamma   70.50499725
_symmetry_Int_Tables_number   1
_chemical_formula_structural   BaYb5
_chemical_formula_sum   'Ba1 Yb5'
_cell_volume   140.48186457
_cell_formula_units_Z   1
loop_
 _symmetry_equiv_pos_site_id
 _symmetry_equiv_pos_as_xyz
  1  'x, y, z'
loop_
 _atom_site_type_symbol
 _atom_site_label
 _atom_site_symmetry_multiplicity
 _atom_site_fract_x
 _atom_site_fract_y
 _atom_site_fract_z
 _atom_site_occupancy
  Yb  Yb0  1  0.15122792  0.88635703  0.81118702  1
  Yb  Yb1  1  0.85785094  0.76157202  0.52272602  1
  Yb  Yb2  1  0.15593898  0.23512901  0.45299301  1
  Yb  Yb3  1  0.39712498  0.30361201  0.90213801  1
  Ba  Ba4  1  0.59014894  0.69956102  0.12014101  1
  Yb  Yb5  1  0.84770900  0.11376800  0.19081400  1
