# generated using pymatgen
data_Ba2LaYbF6
_symmetry_space_group_name_H-M   'P 1'
_cell_length_a   5.83612967
_cell_length_b   5.83612967
_cell_length_c   5.83612967
_cell_angle_alpha   60.00000000
_cell_angle_beta   60.00000000
_cell_angle_gamma   60.00000000
_symmetry_Int_Tables_number   1
_chemical_formula_structural   Ba2LaYbF6
_chemical_formula_sum   'Ba2 La1 Yb1 F6'
_cell_volume   140.55936912
_cell_formula_units_Z   1
loop_
 _symmetry_equiv_pos_site_id
 _symmetry_equiv_pos_as_xyz
  1  'x, y, z'
loop_
 _atom_site_type_symbol
 _atom_site_label
 _atom_site_symmetry_multiplicity
 _atom_site_fract_x
 _atom_site_fract_y
 _atom_site_fract_z
 _atom_site_occupancy
  Ba  Ba0  1  0.25000001  0.25000001  0.25000001  1
  Ba  Ba1  1  0.75000003  0.75000003  0.75000003  1
  La  La2  1  0.50000002  0.50000002  0.50000002  1
  Yb  Yb3  1  0.00000000  0.00000000  0.00000000  1
  F  F4  1  0.22269101  0.77730903  0.22269101  1
  F  F5  1  0.22269101  0.22269101  0.77730903  1
  F  F6  1  0.77730903  0.22269101  0.77730903  1
  F  F7  1  0.22269101  0.77730903  0.77730903  1
  F  F8  1  0.77730903  0.22269101  0.22269101  1
  F  F9  1  0.77730903  0.77730903  0.22269101  1
