# generated using pymatgen
data_LiF9
_symmetry_space_group_name_H-M   'P 1'
_cell_length_a   5.58496284
_cell_length_b   5.58496284
_cell_length_c   5.64157248
_cell_angle_alpha   60.33137894
_cell_angle_beta   60.33137894
_cell_angle_gamma   59.99998856
_symmetry_Int_Tables_number   1
_chemical_formula_structural   LiF9
_chemical_formula_sum   'Li1 F9'
_cell_volume   125.04978218
_cell_formula_units_Z   1
loop_
 _symmetry_equiv_pos_site_id
 _symmetry_equiv_pos_as_xyz
  1  'x, y, z'
loop_
 _atom_site_type_symbol
 _atom_site_label
 _atom_site_symmetry_multiplicity
 _atom_site_fract_x
 _atom_site_fract_y
 _atom_site_fract_z
 _atom_site_occupancy
  F  F0  1  0.48905602  0.48905601  0.53283199  1
  F  F1  1  0.98905603  0.98905602  0.03283196  1
  Li  Li2  1  0.21356901  0.21356901  0.35929300  1
  F  F3  1  0.71356902  0.71356902  0.85929299  1
  F  F4  1  0.81761402  0.27389101  0.22972798  1
  F  F5  1  0.67876702  0.81761402  0.22972797  1
  F  F6  1  0.27389101  0.67876702  0.22972799  1
  F  F7  1  0.77389102  0.31761401  0.72972800  1
  F  F8  1  0.31761401  0.17876700  0.72972801  1
  F  F9  1  0.17876701  0.77389102  0.72972800  1
