# generated using pymatgen
data_CsCaAsF3
_symmetry_space_group_name_H-M   'P 1'
_cell_length_a   4.43749189
_cell_length_b   4.43749237
_cell_length_c   9.75769997
_cell_angle_alpha   90.00000000
_cell_angle_beta   90.00000000
_cell_angle_gamma   120.00000000
_symmetry_Int_Tables_number   1
_chemical_formula_structural   CsCaAsF3
_chemical_formula_sum   'Cs1 Ca1 As1 F3'
_cell_volume   166.39998542
_cell_formula_units_Z   1
loop_
 _symmetry_equiv_pos_site_id
 _symmetry_equiv_pos_as_xyz
  1  'x, y, z'
loop_
 _atom_site_type_symbol
 _atom_site_label
 _atom_site_symmetry_multiplicity
 _atom_site_fract_x
 _atom_site_fract_y
 _atom_site_fract_z
 _atom_site_occupancy
  F  F0  1  0.23929003  0.99999997  1.00000000  1
  F  F1  1  0.00000001  0.23928999  0.33333333  1
  F  F2  1  0.76071004  0.76070998  0.66666667  1
  Cs  Cs3  1  0.54510504  0.99999997  0.50000000  1
  Ca  Ca4  1  0.00000001  0.54510498  0.83333300  1
  As  As5  1  0.45489502  0.45489499  0.16666700  1
