# generated using pymatgen
data_TiO4
_symmetry_space_group_name_H-M   'P 1'
_cell_length_a   4.72076416
_cell_length_b   4.72076416
_cell_length_c   5.48768044
_cell_angle_alpha   64.52458191
_cell_angle_beta   64.52458191
_cell_angle_gamma   59.99999619
_symmetry_Int_Tables_number   1
_chemical_formula_structural   TiO4
_chemical_formula_sum   'Ti2 O8'
_cell_volume   91.92531673
_cell_formula_units_Z   2
loop_
 _symmetry_equiv_pos_site_id
 _symmetry_equiv_pos_as_xyz
  1  'x, y, z'
loop_
 _atom_site_type_symbol
 _atom_site_label
 _atom_site_symmetry_multiplicity
 _atom_site_fract_x
 _atom_site_fract_y
 _atom_site_fract_z
 _atom_site_occupancy
  O  O0  1  0.42467003  0.75000002  0.74999998  1
  O  O1  1  0.75000003  0.07533000  0.74999999  1
  O  O2  1  0.07533001  0.42467001  0.75000000  1
  O  O3  1  0.92467005  0.57533002  0.24999997  1
  O  O4  1  0.57533003  0.25000001  0.24999999  1
  O  O5  1  0.25000003  0.92467003  0.24999998  1
  Ti  Ti6  1  0.34064402  0.34064401  0.97806800  1
  O  O7  1  0.84064405  0.84064403  0.47806797  1
  O  O8  1  0.65935604  0.65935602  0.02193197  1
  Ti  Ti9  1  0.15935601  0.15935600  0.52193200  1
