# generated using pymatgen
data_Au11O
_symmetry_space_group_name_H-M   'P 1'
_cell_length_a   6.20376110
_cell_length_b   6.20376110
_cell_length_c   6.20376110
_cell_angle_alpha   90.00000000
_cell_angle_beta   90.00000000
_cell_angle_gamma   90.00000000
_symmetry_Int_Tables_number   1
_chemical_formula_structural   Au11O
_chemical_formula_sum   'Au11 O1'
_cell_volume   238.76199331
_cell_formula_units_Z   1
loop_
 _symmetry_equiv_pos_site_id
 _symmetry_equiv_pos_as_xyz
  1  'x, y, z'
loop_
 _atom_site_type_symbol
 _atom_site_label
 _atom_site_symmetry_multiplicity
 _atom_site_fract_x
 _atom_site_fract_y
 _atom_site_fract_z
 _atom_site_occupancy
  Au  Au0  1  0.00000000  0.49999999  0.49999999  1
  Au  Au1  1  0.49999999  0.49999999  -0.00000000  1
  Au  Au2  1  0.49999999  0.00000000  0.49999999  1
  Au  Au3  1  0.00000000  0.00000000  0.00000000  1
  O  O4  1  0.43699299  0.06300700  0.93699298  1
  Au  Au5  1  0.06300700  0.93699298  0.43699299  1
  Au  Au6  1  0.93699298  0.43699299  0.06300700  1
  Au  Au7  1  0.56300699  0.56300699  0.56300699  1
  Au  Au8  1  0.43699299  0.43699299  0.43699299  1
  Au  Au9  1  0.06300700  0.56300699  0.93699298  1
  Au  Au10  1  0.93699298  0.06300700  0.56300699  1
  Au  Au11  1  0.56300699  0.93699298  0.06300700  1
