# generated using pymatgen
data_O2
_symmetry_space_group_name_H-M   'P 1'
_cell_length_a   5.81207609
_cell_length_b   5.81576538
_cell_length_c   5.86145782
_cell_angle_alpha   60.76871490
_cell_angle_beta   60.47382736
_cell_angle_gamma   89.89959717
_symmetry_Int_Tables_number   1
_chemical_formula_structural   O2
_chemical_formula_sum   O14
_cell_volume   142.80213640
_cell_formula_units_Z   7
loop_
 _symmetry_equiv_pos_site_id
 _symmetry_equiv_pos_as_xyz
  1  'x, y, z'
loop_
 _atom_site_type_symbol
 _atom_site_label
 _atom_site_symmetry_multiplicity
 _atom_site_fract_x
 _atom_site_fract_y
 _atom_site_fract_z
 _atom_site_occupancy
  O  O0  1  0.13643703  0.86864099  0.24552696  1
  O  O1  1  0.86351998  0.13131000  0.75454301  1
  O  O2  1  0.00002402  0.49998900  0.00000497  1
  O  O3  1  0.49999198  0.00000900  0.49995701  1
  O  O4  1  0.49998301  0.49996700  0.50003699  1
  O  O5  1  0.49998901  0.50004100  0.99999000  1
  O  O6  1  0.73679999  0.27622100  0.47187500  1
  O  O7  1  0.72024899  0.26828600  0.02667198  1
  O  O8  1  0.27975502  0.73177899  0.97326599  1
  O  O9  1  0.26320402  0.72372599  0.52810298  1
  O  O10  1  0.71643001  0.70625699  0.04214896  1
  O  O11  1  0.27888800  0.26465400  0.49779900  1
  O  O12  1  0.72106801  0.73542299  0.50220997  1
  O  O13  1  0.28366000  0.29369500  0.95786901  1
