# generated using pymatgen
data_Ba3LaO10
_symmetry_space_group_name_H-M   'P 1'
_cell_length_a   5.49807215
_cell_length_b   5.49807215
_cell_length_c   6.85576677
_cell_angle_alpha   90.00000000
_cell_angle_beta   90.00000000
_cell_angle_gamma   120.00000000
_symmetry_Int_Tables_number   1
_chemical_formula_structural   Ba3LaO10
_chemical_formula_sum   'Ba3 La1 O10'
_cell_volume   179.47647680
_cell_formula_units_Z   1
loop_
 _symmetry_equiv_pos_site_id
 _symmetry_equiv_pos_as_xyz
  1  'x, y, z'
loop_
 _atom_site_type_symbol
 _atom_site_label
 _atom_site_symmetry_multiplicity
 _atom_site_fract_x
 _atom_site_fract_y
 _atom_site_fract_z
 _atom_site_occupancy
  Ba  Ba0  1  0.00000000  0.00000000  0.00000000  1
  Ba  Ba1  1  0.66666665  0.33333332  0.34089701  1
  Ba  Ba2  1  0.33333332  0.66666665  0.65910302  1
  La  La3  1  0.00000000  0.00000000  0.50000002  1
  O  O4  1  0.66666665  0.33333332  0.77614103  1
  O  O5  1  0.33333332  0.66666665  0.22385901  1
  O  O6  1  0.82468898  0.64937798  0.67675002  1
  O  O7  1  0.17531099  0.35062199  0.32325001  1
  O  O8  1  0.82468898  0.17531099  0.67675002  1
  O  O9  1  0.17531099  0.82468897  0.32325001  1
  O  O10  1  0.35062199  0.17531099  0.67675002  1
  O  O11  1  0.64937798  0.82468897  0.32325001  1
  O  O12  1  0.66666665  0.33333332  0.01280600  1
  O  O13  1  0.33333332  0.66666665  0.98719403  1
