# generated using pymatgen
data_LiCa5O8
_symmetry_space_group_name_H-M   'P 1'
_cell_length_a   3.81620002
_cell_length_b   7.03221083
_cell_length_c   7.56149578
_cell_angle_alpha   105.56752014
_cell_angle_beta   90.00000000
_cell_angle_gamma   105.74385071
_symmetry_Int_Tables_number   1
_chemical_formula_structural   LiCa5O8
_chemical_formula_sum   'Li1 Ca5 O8'
_cell_volume   187.56381637
_cell_formula_units_Z   1
loop_
 _symmetry_equiv_pos_site_id
 _symmetry_equiv_pos_as_xyz
  1  'x, y, z'
loop_
 _atom_site_type_symbol
 _atom_site_label
 _atom_site_symmetry_multiplicity
 _atom_site_fract_x
 _atom_site_fract_y
 _atom_site_fract_z
 _atom_site_occupancy
  Ca  Ca0  1  0.00000000  0.00000000  0.00000000  1
  Li  Li1  1  0.63849300  0.27698601  0.30979702  1
  Ca  Ca2  1  0.63571000  0.27142001  0.82681503  1
  Ca  Ca3  1  0.36150702  0.72301402  0.69020305  1
  Ca  Ca4  1  0.36429002  0.72858002  0.17318504  1
  Ca  Ca5  1  0.00000000  0.00000000  0.50000001  1
  O  O6  1  0.00106700  0.00213400  0.25932401  1
  O  O7  1  0.99893302  0.99786602  0.74067607  1
  O  O8  1  0.50000000  0.00000000  1.00000002  1
  O  O9  1  0.50000000  0.00000000  0.50000001  1
  O  O10  1  0.81936701  0.63873401  0.40845304  1
  O  O11  1  0.81837301  0.63674601  0.91010205  1
  O  O12  1  0.18063301  0.36126601  0.59154703  1
  O  O13  1  0.18162701  0.36325401  0.08989802  1
