# generated using pymatgen
data_BaAu9
_symmetry_space_group_name_H-M   'P 1'
_cell_length_a   6.23479605
_cell_length_b   7.03741598
_cell_length_c   8.13370609
_cell_angle_alpha   115.63320160
_cell_angle_beta   112.53632355
_cell_angle_gamma   90.00000000
_symmetry_Int_Tables_number   1
_chemical_formula_structural   BaAu9
_chemical_formula_sum   'Ba1 Au9'
_cell_volume   291.23687537
_cell_formula_units_Z   1
loop_
 _symmetry_equiv_pos_site_id
 _symmetry_equiv_pos_as_xyz
  1  'x, y, z'
loop_
 _atom_site_type_symbol
 _atom_site_label
 _atom_site_symmetry_multiplicity
 _atom_site_fract_x
 _atom_site_fract_y
 _atom_site_fract_z
 _atom_site_occupancy
  Ba  Ba0  1  0.85584399  0.18321201  0.71168697  1
  Au  Au1  1  0.14415601  0.81678802  0.28831303  1
  Au  Au2  1  0.64415699  0.47152501  0.28831400  1
  Au  Au3  1  0.35584300  0.52847502  0.71168600  1
  Au  Au4  1  0.74999999  0.00000000  -0.00000002  1
  Au  Au5  1  0.25000000  0.00000000  -0.00000001  1
  Au  Au6  1  0.10150500  0.28579601  0.20301001  1
  Au  Au7  1  0.89849499  0.71420402  0.79698999  1
  Au  Au8  1  0.39849399  0.08278500  0.79698897  1
  Au  Au9  1  0.60150600  0.91721503  0.20301103  1
