# generated using pymatgen
data_Ti3O5
_symmetry_space_group_name_H-M   'P 1'
_cell_length_a   3.51714396
_cell_length_b   4.86454296
_cell_length_c   5.50978899
_cell_angle_alpha   90.00000000
_cell_angle_beta   90.00000000
_cell_angle_gamma   90.00000000
_symmetry_Int_Tables_number   1
_chemical_formula_structural   Ti3O5
_chemical_formula_sum   'Ti3 O5'
_cell_volume   94.26862129
_cell_formula_units_Z   1
loop_
 _symmetry_equiv_pos_site_id
 _symmetry_equiv_pos_as_xyz
  1  'x, y, z'
loop_
 _atom_site_type_symbol
 _atom_site_label
 _atom_site_symmetry_multiplicity
 _atom_site_fract_x
 _atom_site_fract_y
 _atom_site_fract_z
 _atom_site_occupancy
  Ti  Ti0  1  0.00000000  0.72346601  0.98303100  1
  Ti  Ti1  1  0.50000001  0.27653400  0.48303100  1
  O  O2  1  0.50000001  0.19527300  0.96321200  1
  Ti  Ti3  1  0.00000000  0.80472701  0.46321200  1
  O  O4  1  0.50000001  0.02298100  0.85740600  1
  O  O5  1  0.00000000  0.52042000  0.61912800  1
  O  O6  1  0.00000000  0.97701901  0.35740600  1
  O  O7  1  0.50000001  0.47958000  0.11912800  1
