# generated using pymatgen
data_BaO11
_symmetry_space_group_name_H-M   'P 1'
_cell_length_a   5.91898823
_cell_length_b   5.91898823
_cell_length_c   5.91898823
_cell_angle_alpha   106.11408234
_cell_angle_beta   106.11408234
_cell_angle_gamma   116.41683197
_symmetry_Int_Tables_number   1
_chemical_formula_structural   BaO11
_chemical_formula_sum   'Ba1 O11'
_cell_volume   157.85234144
_cell_formula_units_Z   1
loop_
 _symmetry_equiv_pos_site_id
 _symmetry_equiv_pos_as_xyz
  1  'x, y, z'
loop_
 _atom_site_type_symbol
 _atom_site_label
 _atom_site_symmetry_multiplicity
 _atom_site_fract_x
 _atom_site_fract_y
 _atom_site_fract_z
 _atom_site_occupancy
  Ba  Ba0  1  0.00000000  0.00000000  0.00000000  1
  O  O1  1  0.74999994  0.24999997  0.49999993  1
  O  O2  1  0.24999989  0.74999992  0.49999990  1
  O  O3  1  0.49999992  0.49999995  -0.00000007  1
  O  O4  1  0.05921890  0.73733492  0.67811591  1
  O  O5  1  0.53048394  0.33364096  0.19684294  1
  O  O6  1  0.13679795  0.33364096  0.80315695  1
  O  O7  1  0.05921895  0.38110296  0.32188395  1
  O  O8  1  0.66635892  0.46951595  0.80315691  1
  O  O9  1  0.26266487  0.94078090  0.32188389  1
  O  O10  1  0.61889686  0.94078090  0.67811587  1
  O  O11  1  0.66635886  0.86320191  0.19684288  1
