# generated using pymatgen
data_Al2SF
_symmetry_space_group_name_H-M   'P 1'
_cell_length_a   3.67258883
_cell_length_b   3.67258883
_cell_length_c   5.49080276
_cell_angle_alpha   70.46206665
_cell_angle_beta   70.46206665
_cell_angle_gamma   59.99998474
_symmetry_Int_Tables_number   1
_chemical_formula_structural   Al2SF
_chemical_formula_sum   'Al2 S1 F1'
_cell_volume   59.16213322
_cell_formula_units_Z   1
loop_
 _symmetry_equiv_pos_site_id
 _symmetry_equiv_pos_as_xyz
  1  'x, y, z'
loop_
 _atom_site_type_symbol
 _atom_site_label
 _atom_site_symmetry_multiplicity
 _atom_site_fract_x
 _atom_site_fract_y
 _atom_site_fract_z
 _atom_site_occupancy
  S  S0  1  0.50523996  0.50524000  0.48428004  1
  F  F1  1  0.00078200  0.00078200  0.99765400  1
  Al  Al2  1  0.92220192  0.92220199  0.23339407  1
  Al  Al3  1  0.08177499  0.08177500  0.75467500  1
