# generated using pymatgen
data_K
_symmetry_space_group_name_H-M   'P 1'
_cell_length_a   5.65825939
_cell_length_b   5.65825939
_cell_length_c   5.65825939
_cell_angle_alpha   72.47271729
_cell_angle_beta   69.54815674
_cell_angle_gamma   110.45184326
_symmetry_Int_Tables_number   1
_chemical_formula_structural   K
_chemical_formula_sum   K4
_cell_volume   139.33274067
_cell_formula_units_Z   4
loop_
 _symmetry_equiv_pos_site_id
 _symmetry_equiv_pos_as_xyz
  1  'x, y, z'
loop_
 _atom_site_type_symbol
 _atom_site_label
 _atom_site_symmetry_multiplicity
 _atom_site_fract_x
 _atom_site_fract_y
 _atom_site_fract_z
 _atom_site_occupancy
  K  K0  1  0.95426693  0.62499998  0.92073314  1
  K  K1  1  0.04573298  0.12500000  0.32926702  1
  K  K2  1  0.54573289  0.92073297  0.12500011  1
  K  K3  1  0.45426696  0.32926699  0.62500008  1
