# generated using pymatgen
data_LiO15
_symmetry_space_group_name_H-M   'P 1'
_cell_length_a   4.06249952
_cell_length_b   5.29500246
_cell_length_c   7.85160542
_cell_angle_alpha   74.44972992
_cell_angle_beta   75.01056671
_cell_angle_gamma   67.44673920
_symmetry_Int_Tables_number   1
_chemical_formula_structural   LiO15
_chemical_formula_sum   'Li1 O15'
_cell_volume   147.94693057
_cell_formula_units_Z   1
loop_
 _symmetry_equiv_pos_site_id
 _symmetry_equiv_pos_as_xyz
  1  'x, y, z'
loop_
 _atom_site_type_symbol
 _atom_site_label
 _atom_site_symmetry_multiplicity
 _atom_site_fract_x
 _atom_site_fract_y
 _atom_site_fract_z
 _atom_site_occupancy
  O  O0  1  0.75369301  0.61842301  0.87411200  1
  O  O1  1  0.75773304  0.11444300  0.37019300  1
  O  O2  1  0.49136501  0.26236800  0.75486701  1
  O  O3  1  0.50695099  0.74024201  0.24578098  1
  O  O4  1  0.00252497  0.49624701  0.49864000  1
  O  O5  1  0.99949106  0.00047100  0.99985102  1
  O  O6  1  0.24663199  0.38079801  0.12573199  1
  O  O7  1  0.24914596  0.87504602  0.62662199  1
  Li  Li8  1  0.01804096  0.72872501  0.23558699  1
  O  O9  1  0.02166099  0.21249200  0.74470802  1
  O  O10  1  0.47583803  0.03528500  0.01304699  1
  O  O11  1  0.47923600  0.53223101  0.50943399  1
  O  O12  1  0.23697398  0.64468801  0.88109000  1
  O  O13  1  0.22790800  0.15762500  0.38671700  1
  O  O14  1  0.76212502  0.35631401  0.11943499  1
  O  O15  1  0.77068000  0.84460002  0.61418499  1
