# generated using pymatgen
data_KTiO12
_symmetry_space_group_name_H-M   'P 1'
_cell_length_a   3.83223200
_cell_length_b   6.61684418
_cell_length_c   6.66465235
_cell_angle_alpha   119.33258057
_cell_angle_beta   90.00000000
_cell_angle_gamma   90.00000000
_symmetry_Int_Tables_number   1
_chemical_formula_structural   KTiO12
_chemical_formula_sum   'K1 Ti1 O12'
_cell_volume   147.33044705
_cell_formula_units_Z   1
loop_
 _symmetry_equiv_pos_site_id
 _symmetry_equiv_pos_as_xyz
  1  'x, y, z'
loop_
 _atom_site_type_symbol
 _atom_site_label
 _atom_site_symmetry_multiplicity
 _atom_site_fract_x
 _atom_site_fract_y
 _atom_site_fract_z
 _atom_site_occupancy
  Ti  Ti0  1  0.25000000  0.83641100  0.16998904  1
  K  K1  1  0.75000000  0.16358900  0.83001100  1
  O  O2  1  0.25000000  0.36453300  0.64864501  1
  O  O3  1  0.25000000  0.36009400  0.19854902  1
  O  O4  1  0.25000000  0.78394500  0.64389103  1
  O  O5  1  0.75000000  0.63546700  0.35135503  1
  O  O6  1  0.75000000  0.63990600  0.80145102  1
  O  O7  1  0.75000000  0.21605500  0.35610901  1
  O  O8  1  0.25000000  0.41417200  0.81252301  1
  O  O9  1  0.25000000  0.19326900  0.09847201  1
  O  O10  1  0.25000000  0.89479900  0.58727904  1
  O  O11  1  0.75000000  0.58582800  0.18747703  1
  O  O12  1  0.75000000  0.80673100  0.90152803  1
  O  O13  1  0.75000000  0.10520100  0.41272100  1
