# generated using pymatgen
data_BaAuO4
_symmetry_space_group_name_H-M   'P 1'
_cell_length_a   5.63789606
_cell_length_b   5.63789606
_cell_length_c   7.31833410
_cell_angle_alpha   90.00000000
_cell_angle_beta   90.00000000
_cell_angle_gamma   120.00000000
_symmetry_Int_Tables_number   1
_chemical_formula_structural   BaAuO4
_chemical_formula_sum   'Ba2 Au2 O8'
_cell_volume   201.45450986
_cell_formula_units_Z   2
loop_
 _symmetry_equiv_pos_site_id
 _symmetry_equiv_pos_as_xyz
  1  'x, y, z'
loop_
 _atom_site_type_symbol
 _atom_site_label
 _atom_site_symmetry_multiplicity
 _atom_site_fract_x
 _atom_site_fract_y
 _atom_site_fract_z
 _atom_site_occupancy
  Ba  Ba0  1  0.00000000  0.00000000  0.49999999  1
  Ba  Ba1  1  0.00000000  0.00000000  0.00000000  1
  Au  Au2  1  0.66666665  0.33333332  0.77029799  1
  Au  Au3  1  0.33333332  0.66666664  0.22970200  1
  O  O4  1  0.68585198  0.84292596  0.15432200  1
  O  O5  1  0.15707399  0.31414799  0.15432200  1
  O  O6  1  0.15707398  0.84292596  0.15432200  1
  O  O7  1  0.84292598  0.68585197  0.84567799  1
  O  O8  1  0.66666665  0.33333332  0.53106199  1
  O  O9  1  0.33333332  0.66666664  0.46893799  1
  O  O10  1  0.84292599  0.15707399  0.84567799  1
  O  O11  1  0.31414799  0.15707399  0.84567799  1
