# generated using pymatgen
data_As
_symmetry_space_group_name_H-M   'P 1'
_cell_length_a   5.88284397
_cell_length_b   5.88284397
_cell_length_c   6.90859222
_cell_angle_alpha   112.95905304
_cell_angle_beta   112.95905304
_cell_angle_gamma   91.06123352
_symmetry_Int_Tables_number   1
_chemical_formula_structural   As
_chemical_formula_sum   As8
_cell_volume   198.56212557
_cell_formula_units_Z   8
loop_
 _symmetry_equiv_pos_site_id
 _symmetry_equiv_pos_as_xyz
  1  'x, y, z'
loop_
 _atom_site_type_symbol
 _atom_site_label
 _atom_site_symmetry_multiplicity
 _atom_site_fract_x
 _atom_site_fract_y
 _atom_site_fract_z
 _atom_site_occupancy
  As  As0  1  0.36621799  0.63378201  0.75000003  1
  As  As1  1  0.63378200  0.36621801  0.25000003  1
  As  As2  1  0.09957998  0.90042002  0.25000003  1
  As  As3  1  0.90042002  0.09958000  0.75000004  1
  As  As4  1  0.86953300  0.68547601  0.76381105  1
  As  As5  1  0.31452400  0.13046700  0.73618902  1
  As  As6  1  0.13046700  0.31452401  0.23618901  1
  As  As7  1  0.68547599  0.86953301  0.26381105  1
