# generated using pymatgen
data_Ca3SiO8
_symmetry_space_group_name_H-M   'P 1'
_cell_length_a   4.36862993
_cell_length_b   5.76112318
_cell_length_c   7.56305742
_cell_angle_alpha   90.00000000
_cell_angle_beta   106.78694916
_cell_angle_gamma   90.00000000
_symmetry_Int_Tables_number   1
_chemical_formula_structural   Ca3SiO8
_chemical_formula_sum   'Ca3 Si1 O8'
_cell_volume   182.23700726
_cell_formula_units_Z   1
loop_
 _symmetry_equiv_pos_site_id
 _symmetry_equiv_pos_as_xyz
  1  'x, y, z'
loop_
 _atom_site_type_symbol
 _atom_site_label
 _atom_site_symmetry_multiplicity
 _atom_site_fract_x
 _atom_site_fract_y
 _atom_site_fract_z
 _atom_site_occupancy
  Ca  Ca0  1  0.14184300  0.49742998  0.28368600  1
  Ca  Ca1  1  0.85815701  0.99742997  0.71631399  1
  Ca  Ca2  1  0.41015500  0.53072398  0.82030999  1
  Si  Si3  1  0.58984500  0.03072400  0.17968999  1
  O  O4  1  0.92140901  0.53404498  0.84281799  1
  O  O5  1  0.07859100  0.03404500  0.15718200  1
  O  O6  1  0.32972000  0.25553199  0.65943999  1
  O  O7  1  0.67028001  0.75553198  0.34055999  1
  O  O8  1  0.52263200  0.33839999  0.04526399  1
  O  O9  1  0.47736800  0.83839997  0.95473599  1
  O  O10  1  0.69819201  0.23696899  0.39638399  1
  O  O11  1  0.30180800  0.73696898  0.60361599  1
