# generated using pymatgen
data_BaAuO4
_symmetry_space_group_name_H-M   'P 1'
_cell_length_a   6.12030983
_cell_length_b   6.12030983
_cell_length_c   6.12030983
_cell_angle_alpha   106.48310089
_cell_angle_beta   106.48310089
_cell_angle_gamma   115.62854004
_symmetry_Int_Tables_number   1
_chemical_formula_structural   BaAuO4
_chemical_formula_sum   'Ba2 Au2 O8'
_cell_volume   174.93633394
_cell_formula_units_Z   2
loop_
 _symmetry_equiv_pos_site_id
 _symmetry_equiv_pos_as_xyz
  1  'x, y, z'
loop_
 _atom_site_type_symbol
 _atom_site_label
 _atom_site_symmetry_multiplicity
 _atom_site_fract_x
 _atom_site_fract_y
 _atom_site_fract_z
 _atom_site_occupancy
  Ba  Ba0  1  0.00000000  0.00000000  0.00000000  1
  Ba  Ba1  1  0.74999999  0.25000000  0.49999997  1
  Au  Au2  1  0.25000000  0.74999999  0.49999997  1
  Au  Au3  1  0.50000000  0.50000000  -0.00000002  1
  O  O4  1  0.67042300  0.49094900  0.82052597  1
  O  O5  1  0.24094801  0.92042199  0.32052497  1
  O  O6  1  0.59989700  0.92042299  0.67947396  1
  O  O7  1  0.67042300  0.84989699  0.17947496  1
  O  O8  1  0.50905200  0.32957800  0.17947498  1
  O  O9  1  0.07957701  0.75905099  0.67947398  1
  O  O10  1  0.07957700  0.40010300  0.32052499  1
  O  O11  1  0.15010300  0.32957700  0.82052598  1
