# generated using pymatgen
data_Au
_symmetry_space_group_name_H-M   'P 1'
_cell_length_a   5.39490223
_cell_length_b   5.39490223
_cell_length_c   5.39490223
_cell_angle_alpha   104.87546539
_cell_angle_beta   104.87546539
_cell_angle_gamma   119.11486816
_symmetry_Int_Tables_number   1
_chemical_formula_structural   Au
_chemical_formula_sum   Au7
_cell_volume   118.26677332
_cell_formula_units_Z   7
loop_
 _symmetry_equiv_pos_site_id
 _symmetry_equiv_pos_as_xyz
  1  'x, y, z'
loop_
 _atom_site_type_symbol
 _atom_site_label
 _atom_site_symmetry_multiplicity
 _atom_site_fract_x
 _atom_site_fract_y
 _atom_site_fract_z
 _atom_site_occupancy
  Au  Au0  1  0.00000000  0.00000000  0.00000000  1
  Au  Au1  1  0.75000003  0.25000001  0.50000002  1
  Au  Au2  1  0.25000004  0.75000004  0.50000003  1
  Au  Au3  1  0.69649203  0.30350702  1.00000004  1
  Au  Au4  1  0.30350804  0.69649304  1.00000004  1
  Au  Au5  1  0.30350802  0.30350802  0.60701602  1
  Au  Au6  1  0.69649205  0.69649204  0.39298402  1
