# generated using pymatgen
data_Ba3InO6
_symmetry_space_group_name_H-M   'P 1'
_cell_length_a   5.98575878
_cell_length_b   5.98575878
_cell_length_c   6.11548138
_cell_angle_alpha   60.69924927
_cell_angle_beta   60.69924927
_cell_angle_gamma   60.00001144
_symmetry_Int_Tables_number   1
_chemical_formula_structural   Ba3InO6
_chemical_formula_sum   'Ba3 In1 O6'
_cell_volume   156.55403785
_cell_formula_units_Z   1
loop_
 _symmetry_equiv_pos_site_id
 _symmetry_equiv_pos_as_xyz
  1  'x, y, z'
loop_
 _atom_site_type_symbol
 _atom_site_label
 _atom_site_symmetry_multiplicity
 _atom_site_fract_x
 _atom_site_fract_y
 _atom_site_fract_z
 _atom_site_occupancy
  Ba  Ba0  1  0.14232200  0.14232200  0.57303403  1
  Ba  Ba1  1  0.85767800  0.85767802  0.42696608  1
  In  In2  1  0.35695300  0.35695301  0.92914105  1
  Ba  Ba3  1  0.64304700  0.64304702  0.07085905  1
  O  O4  1  0.78269200  0.45533701  0.75029307  1
  O  O5  1  0.01167798  0.78269102  0.75029405  1
  O  O6  1  0.45533701  0.01167800  0.75029404  1
  O  O7  1  0.54466299  0.98832202  0.24970607  1
  O  O8  1  0.98832201  0.21730901  0.24970605  1
  O  O9  1  0.21730899  0.54466301  0.24970604  1
