# generated using pymatgen
data_BaH4
_symmetry_space_group_name_H-M   'P 1'
_cell_length_a   3.96250010
_cell_length_b   3.96250010
_cell_length_c   6.41378832
_cell_angle_alpha   107.99324036
_cell_angle_beta   107.99324036
_cell_angle_gamma   90.00000000
_symmetry_Int_Tables_number   1
_chemical_formula_structural   BaH4
_chemical_formula_sum   'Ba1 H4'
_cell_volume   90.58769991
_cell_formula_units_Z   1
loop_
 _symmetry_equiv_pos_site_id
 _symmetry_equiv_pos_as_xyz
  1  'x, y, z'
loop_
 _atom_site_type_symbol
 _atom_site_label
 _atom_site_symmetry_multiplicity
 _atom_site_fract_x
 _atom_site_fract_y
 _atom_site_fract_z
 _atom_site_occupancy
  Ba  Ba0  1  0.00000000  0.00000000  0.00000000  1
  H  H1  1  0.68230497  0.68230498  0.36460998  1
  H  H2  1  0.31769499  0.31769499  0.63538998  1
  H  H3  1  0.24999998  0.74999998  0.49999998  1
  H  H4  1  0.74999997  0.24999999  0.49999998  1
