# generated using pymatgen
data_BaAuO8
_symmetry_space_group_name_H-M   'P 1'
_cell_length_a   3.95612478
_cell_length_b   3.95612478
_cell_length_c   8.67106724
_cell_angle_alpha   90.00000000
_cell_angle_beta   90.00000000
_cell_angle_gamma   117.35275269
_symmetry_Int_Tables_number   1
_chemical_formula_structural   BaAuO8
_chemical_formula_sum   'Ba1 Au1 O8'
_cell_volume   120.53707055
_cell_formula_units_Z   1
loop_
 _symmetry_equiv_pos_site_id
 _symmetry_equiv_pos_as_xyz
  1  'x, y, z'
loop_
 _atom_site_type_symbol
 _atom_site_label
 _atom_site_symmetry_multiplicity
 _atom_site_fract_x
 _atom_site_fract_y
 _atom_site_fract_z
 _atom_site_occupancy
  Ba  Ba0  1  0.05246200  0.05246200  -0.00000000  1
  Au  Au1  1  0.05246200  0.05246200  0.49999999  1
  O  O2  1  0.75845499  0.50186900  0.74999998  1
  O  O3  1  0.50186900  0.75845499  0.24999999  1
  O  O4  1  0.67486199  0.33356800  0.89642698  1
  O  O5  1  0.67486199  0.33356800  0.60357298  1
  O  O6  1  0.95757400  0.89241099  0.74999998  1
  O  O7  1  0.33356800  0.67486199  0.39642699  1
  O  O8  1  0.33356800  0.67486199  0.10357300  1
  O  O9  1  0.89241100  0.95757399  0.24999999  1
