# generated using pymatgen
data_TcF5
_symmetry_space_group_name_H-M   'P 1'
_cell_length_a   4.10066891
_cell_length_b   4.10066891
_cell_length_c   4.17056894
_cell_angle_alpha   104.84387970
_cell_angle_beta   104.84387970
_cell_angle_gamma   118.61317444
_symmetry_Int_Tables_number   1
_chemical_formula_structural   TcF5
_chemical_formula_sum   'Tc1 F5'
_cell_volume   53.24985295
_cell_formula_units_Z   1
loop_
 _symmetry_equiv_pos_site_id
 _symmetry_equiv_pos_as_xyz
  1  'x, y, z'
loop_
 _atom_site_type_symbol
 _atom_site_label
 _atom_site_symmetry_multiplicity
 _atom_site_fract_x
 _atom_site_fract_y
 _atom_site_fract_z
 _atom_site_occupancy
  Tc  Tc0  1  0.33816293  0.66183693  -0.00000008  1
  F  F1  1  0.66183694  0.33816297  -0.00000007  1
  F  F2  1  0.16665898  0.16665898  0.33331797  1
  F  F3  1  0.83334089  0.83334092  0.66668186  1
  F  F4  1  0.74999994  0.24999997  0.49999992  1
  F  F5  1  0.24999993  0.74999992  0.49999990  1
