# generated using pymatgen
data_KF6
_symmetry_space_group_name_H-M   'P 1'
_cell_length_a   4.14531183
_cell_length_b   4.14531183
_cell_length_c   7.45443583
_cell_angle_alpha   106.14345551
_cell_angle_beta   106.14345551
_cell_angle_gamma   90.00000000
_symmetry_Int_Tables_number   1
_chemical_formula_structural   KF6
_chemical_formula_sum   'K1 F6'
_cell_volume   117.77583014
_cell_formula_units_Z   1
loop_
 _symmetry_equiv_pos_site_id
 _symmetry_equiv_pos_as_xyz
  1  'x, y, z'
loop_
 _atom_site_type_symbol
 _atom_site_label
 _atom_site_symmetry_multiplicity
 _atom_site_fract_x
 _atom_site_fract_y
 _atom_site_fract_z
 _atom_site_occupancy
  K  K0  1  0.63710200  0.63710202  0.27420397  1
  F  F1  1  0.36427400  0.36427401  0.72854799  1
  F  F2  1  0.00587500  0.00587500  0.01175000  1
  F  F3  1  0.98738502  0.48738501  0.97476997  1
  F  F4  1  0.48738499  0.98738503  0.97476997  1
  F  F5  1  0.75899002  0.25899001  0.51797998  1
  F  F6  1  0.25898999  0.75899002  0.51797998  1
