# generated using pymatgen
data_Zn
_symmetry_space_group_name_H-M   'P 1'
_cell_length_a   4.73680687
_cell_length_b   4.73680687
_cell_length_c   10.15014172
_cell_angle_alpha   90.00000000
_cell_angle_beta   90.00000000
_cell_angle_gamma   90.00000000
_symmetry_Int_Tables_number   1
_chemical_formula_structural   Zn
_chemical_formula_sum   Zn8
_cell_volume   227.74217382
_cell_formula_units_Z   8
loop_
 _symmetry_equiv_pos_site_id
 _symmetry_equiv_pos_as_xyz
  1  'x, y, z'
loop_
 _atom_site_type_symbol
 _atom_site_label
 _atom_site_symmetry_multiplicity
 _atom_site_fract_x
 _atom_site_fract_y
 _atom_site_fract_z
 _atom_site_occupancy
  Zn  Zn0  1  0.50000001  0.00000000  0.23342801  1
  Zn  Zn1  1  0.00000000  0.50000001  0.76657202  1
  Zn  Zn2  1  0.00000000  0.50000001  0.18615701  1
  Zn  Zn3  1  0.50000001  0.00000000  0.81384302  1
  Zn  Zn4  1  0.00000000  0.00000000  0.50000001  1
  Zn  Zn5  1  0.50000001  0.50000001  0.50000001  1
  Zn  Zn6  1  0.00000000  0.00000000  0.00000000  1
  Zn  Zn7  1  0.50000001  0.50000001  0.00000000  1
