# generated using pymatgen
data_Te
_symmetry_space_group_name_H-M   'P 1'
_cell_length_a   6.29042196
_cell_length_b   6.29042196
_cell_length_c   7.45145941
_cell_angle_alpha   114.96681213
_cell_angle_beta   114.96681213
_cell_angle_gamma   90.00000000
_symmetry_Int_Tables_number   1
_chemical_formula_structural   Te
_chemical_formula_sum   Te7
_cell_volume   236.55606707
_cell_formula_units_Z   7
loop_
 _symmetry_equiv_pos_site_id
 _symmetry_equiv_pos_as_xyz
  1  'x, y, z'
loop_
 _atom_site_type_symbol
 _atom_site_label
 _atom_site_symmetry_multiplicity
 _atom_site_fract_x
 _atom_site_fract_y
 _atom_site_fract_z
 _atom_site_occupancy
  Te  Te0  1  0.24999994  0.74999997  0.49999993  1
  Te  Te1  1  0.49999995  0.49999998  -0.00000007  1
  Te  Te2  1  0.00000000  0.00000000  0.00000000  1
  Te  Te3  1  0.41013396  0.39467998  0.27484295  1
  Te  Te4  1  0.11983695  0.58986598  0.72515695  1
  Te  Te5  1  0.60531998  0.13529099  0.72515697  1
  Te  Te6  1  0.86470891  0.88016297  0.27484287  1
