# generated using pymatgen
data_O2
_symmetry_space_group_name_H-M   'P 1'
_cell_length_a   5.87931728
_cell_length_b   5.87931728
_cell_length_c   5.88099146
_cell_angle_alpha   100.87163544
_cell_angle_beta   100.87163544
_cell_angle_gamma   117.92028809
_symmetry_Int_Tables_number   1
_chemical_formula_structural   O2
_chemical_formula_sum   O12
_cell_volume   167.17453239
_cell_formula_units_Z   6
loop_
 _symmetry_equiv_pos_site_id
 _symmetry_equiv_pos_as_xyz
  1  'x, y, z'
loop_
 _atom_site_type_symbol
 _atom_site_label
 _atom_site_symmetry_multiplicity
 _atom_site_fract_x
 _atom_site_fract_y
 _atom_site_fract_z
 _atom_site_occupancy
  O  O0  1  0.08213195  0.91786798  0.25000001  1
  O  O1  1  0.75547099  0.24452899  0.25000002  1
  O  O2  1  0.24452896  0.75547098  0.75000001  1
  O  O3  1  0.91786800  0.08213200  0.75000002  1
  O  O4  1  0.40906797  0.59093199  0.25000001  1
  O  O5  1  0.59093198  0.40906799  0.75000002  1
  O  O6  1  0.78116797  0.64477298  0.50153702  1
  O  O7  1  0.64477296  0.78116798  0.00153701  1
  O  O8  1  0.50000000  0.00000000  0.50000001  1
  O  O9  1  0.21883198  0.35522699  0.49846301  1
  O  O10  1  -0.00000003  0.49999999  0.00000000  1
  O  O11  1  0.35522699  0.21883199  0.99846302  1
