# generated using pymatgen
data_Ba3I2
_symmetry_space_group_name_H-M   'P 1'
_cell_length_a   8.04110622
_cell_length_b   8.04110622
_cell_length_c   8.04110622
_cell_angle_alpha   60.00000000
_cell_angle_beta   60.00000000
_cell_angle_gamma   60.00000000
_symmetry_Int_Tables_number   1
_chemical_formula_structural   Ba3I2
_chemical_formula_sum   'Ba6 I4'
_cell_volume   367.64816265
_cell_formula_units_Z   2
loop_
 _symmetry_equiv_pos_site_id
 _symmetry_equiv_pos_as_xyz
  1  'x, y, z'
loop_
 _atom_site_type_symbol
 _atom_site_label
 _atom_site_symmetry_multiplicity
 _atom_site_fract_x
 _atom_site_fract_y
 _atom_site_fract_z
 _atom_site_occupancy
  Ba  Ba0  1  0.75000003  0.75000003  0.75000003  1
  Ba  Ba1  1  0.25000001  0.25000001  0.25000001  1
  Ba  Ba2  1  0.00000000  0.00000000  0.00000000  1
  I  I3  1  0.50000002  0.50000002  0.50000002  1
  I  I4  1  0.77184004  0.22816001  0.77184004  1
  I  I5  1  0.22816001  0.77184004  0.77184004  1
  I  I6  1  0.77184004  0.22816001  0.22816001  1
  Ba  Ba7  1  0.77184004  0.77184004  0.22816001  1
  Ba  Ba8  1  0.22816001  0.22816001  0.77184004  1
  Ba  Ba9  1  0.22816001  0.77184004  0.22816001  1
