# generated using pymatgen
data_OF4
_symmetry_space_group_name_H-M   'P 1'
_cell_length_a   4.39002180
_cell_length_b   5.67330694
_cell_length_c   6.34950686
_cell_angle_alpha   89.81351471
_cell_angle_beta   90.00000000
_cell_angle_gamma   90.00000000
_symmetry_Int_Tables_number   1
_chemical_formula_structural   OF4
_chemical_formula_sum   'O2 F8'
_cell_volume   158.13960648
_cell_formula_units_Z   2
loop_
 _symmetry_equiv_pos_site_id
 _symmetry_equiv_pos_as_xyz
  1  'x, y, z'
loop_
 _atom_site_type_symbol
 _atom_site_label
 _atom_site_symmetry_multiplicity
 _atom_site_fract_x
 _atom_site_fract_y
 _atom_site_fract_z
 _atom_site_occupancy
  F  F0  1  0.50000002  0.74887401  0.74954395  1
  F  F1  1  0.50000002  0.74673501  0.24811297  1
  F  F2  1  0.67637103  0.39125100  0.99981995  1
  O  O3  1  0.32362901  0.39125100  0.99981995  1
  F  F4  1  0.67690503  0.09982800  0.48946998  1
  F  F5  1  0.32309501  0.09982800  0.48946998  1
  F  F6  1  0.00000000  0.99959401  0.99879293  1
  F  F7  1  0.00000000  0.49806601  0.49993197  1
  O  O8  1  0.50000002  0.50027101  0.99994795  1
  F  F9  1  0.50000002  0.99130201  0.49209095  1
