# generated using pymatgen
data_O2
_symmetry_space_group_name_H-M   'P 1'
_cell_length_a   7.78693676
_cell_length_b   7.78693676
_cell_length_c   7.78693676
_cell_angle_alpha   109.47122192
_cell_angle_beta   109.47122192
_cell_angle_gamma   109.47122192
_symmetry_Int_Tables_number   1
_chemical_formula_structural   O2
_chemical_formula_sum   O18
_cell_volume   363.47791782
_cell_formula_units_Z   9
loop_
 _symmetry_equiv_pos_site_id
 _symmetry_equiv_pos_as_xyz
  1  'x, y, z'
loop_
 _atom_site_type_symbol
 _atom_site_label
 _atom_site_symmetry_multiplicity
 _atom_site_fract_x
 _atom_site_fract_y
 _atom_site_fract_z
 _atom_site_occupancy
  O  O0  1  0.75000003  0.50000002  0.25000004  1
  O  O1  1  0.75000002  0.25000001  0.50000003  1
  O  O2  1  0.50000002  0.25000001  0.75000002  1
  O  O3  1  0.25000005  0.75000002  0.50000004  1
  O  O4  1  0.25000003  0.50000002  0.75000003  1
  O  O5  1  0.50000005  0.75000002  0.25000005  1
  O  O6  1  1.00000002  0.36651301  0.66257504  1
  O  O7  1  0.36651300  0.00000000  0.66257500  1
  O  O8  1  0.63348704  0.63348702  0.29606205  1
  O  O9  1  1.00000004  0.66257502  0.36651306  1
  O  O10  1  0.63348702  0.29606201  0.63348703  1
  O  O11  1  0.36651304  0.66257502  0.00000005  1
  O  O12  1  0.70393802  0.33742501  0.33742503  1
  O  O13  1  0.33742504  0.70393802  0.33742504  1
  O  O14  1  0.33742502  0.33742501  0.70393802  1
  O  O15  1  0.29606204  0.63348702  0.63348704  1
  O  O16  1  0.66257500  0.00000000  0.36651301  1
  O  O17  1  0.66257502  0.36651301  0.00000004  1
