# generated using pymatgen
data_Zn9As
_symmetry_space_group_name_H-M   'P 1'
_cell_length_a   6.51009035
_cell_length_b   6.51009035
_cell_length_c   6.51009035
_cell_angle_alpha   60.00000000
_cell_angle_beta   60.00000000
_cell_angle_gamma   60.00000000
_symmetry_Int_Tables_number   1
_chemical_formula_structural   Zn9As
_chemical_formula_sum   'Zn9 As1'
_cell_volume   195.09496003
_cell_formula_units_Z   1
loop_
 _symmetry_equiv_pos_site_id
 _symmetry_equiv_pos_as_xyz
  1  'x, y, z'
loop_
 _atom_site_type_symbol
 _atom_site_label
 _atom_site_symmetry_multiplicity
 _atom_site_fract_x
 _atom_site_fract_y
 _atom_site_fract_z
 _atom_site_occupancy
  Zn  Zn0  1  0.25000000  0.25000000  0.25000000  1
  Zn  Zn1  1  0.74999999  0.74999999  0.74999999  1
  Zn  Zn2  1  0.00000000  0.00000000  0.00000000  1
  As  As3  1  0.50000000  0.50000000  0.50000000  1
  Zn  Zn4  1  0.20096300  0.79903699  0.20096300  1
  Zn  Zn5  1  0.20096300  0.20096300  0.79903699  1
  Zn  Zn6  1  0.79903699  0.20096300  0.79903699  1
  Zn  Zn7  1  0.20096300  0.79903699  0.79903699  1
  Zn  Zn8  1  0.79903699  0.20096300  0.20096300  1
  Zn  Zn9  1  0.79903699  0.79903699  0.20096300  1
