# generated using pymatgen
data_CsO15
_symmetry_space_group_name_H-M   'P 1'
_cell_length_a   6.76429415
_cell_length_b   6.93253946
_cell_length_c   6.87757587
_cell_angle_alpha   61.22645950
_cell_angle_beta   88.27488708
_cell_angle_gamma   118.22483063
_symmetry_Int_Tables_number   1
_chemical_formula_structural   CsO15
_chemical_formula_sum   'Cs1 O15'
_cell_volume   234.80025208
_cell_formula_units_Z   1
loop_
 _symmetry_equiv_pos_site_id
 _symmetry_equiv_pos_as_xyz
  1  'x, y, z'
loop_
 _atom_site_type_symbol
 _atom_site_label
 _atom_site_symmetry_multiplicity
 _atom_site_fract_x
 _atom_site_fract_y
 _atom_site_fract_z
 _atom_site_occupancy
  Cs  Cs0  1  0.49318393  0.98636794  0.50681606  1
  O  O1  1  0.25413796  0.50827597  0.24586203  1
  O  O2  1  0.74336697  0.48673397  0.75663305  1
  O  O3  1  0.91331199  0.16553899  0.97299204  1
  O  O4  1  0.25222699  0.16553899  0.86146903  1
  O  O5  1  0.01527693  0.88335694  0.28134905  1
  O  O6  1  0.86807994  0.88335694  0.83529407  1
  O  O7  1  0.50097698  0.31917998  0.71703404  1
  O  O8  1  0.81820298  0.31917998  0.96378605  1
  O  O9  1  0.71100095  0.67502196  0.81939706  1
  O  O10  1  0.96402095  0.67502196  0.50558106  1
  O  O11  1  0.76773193  0.98748994  0.89572407  1
  O  O12  1  0.21975792  0.98748994  0.11678605  1
  O  O13  1  0.87273493  0.97849894  0.23237306  1
  O  O14  1  0.10576392  0.97849894  0.78912806  1
  O  O15  1  0.16412498  0.32824998  0.83587503  1
