# generated using pymatgen
data_KAuO10
_symmetry_space_group_name_H-M   'P 1'
_cell_length_a   5.12810183
_cell_length_b   5.12810230
_cell_length_c   9.08883286
_cell_angle_alpha   90.00000000
_cell_angle_beta   90.00000000
_cell_angle_gamma   120.00000000
_symmetry_Int_Tables_number   1
_chemical_formula_structural   KAuO10
_chemical_formula_sum   'K1 Au1 O10'
_cell_volume   206.99128903
_cell_formula_units_Z   1
loop_
 _symmetry_equiv_pos_site_id
 _symmetry_equiv_pos_as_xyz
  1  'x, y, z'
loop_
 _atom_site_type_symbol
 _atom_site_label
 _atom_site_symmetry_multiplicity
 _atom_site_fract_x
 _atom_site_fract_y
 _atom_site_fract_z
 _atom_site_occupancy
  K  K0  1  0.00000000  0.00000000  0.50000001  1
  Au  Au1  1  0.00000000  0.00000000  0.00000000  1
  O  O2  1  0.33333337  0.66666669  0.20120200  1
  O  O3  1  0.66666670  0.33333334  0.79879801  1
  O  O4  1  0.06597102  0.32481401  0.14354200  1
  O  O5  1  0.67518606  0.74115702  0.14354200  1
  O  O6  1  0.32481401  0.06597100  0.85645801  1
  O  O7  1  0.25884305  0.93402903  0.14354200  1
  O  O8  1  0.74115705  0.67518602  0.85645801  1
  O  O9  1  0.93402904  0.25884301  0.85645801  1
  O  O10  1  0.33333337  0.66666669  0.38297801  1
  O  O11  1  0.66666670  0.33333334  0.61702201  1
