# generated using pymatgen
data_BaAuF3
_symmetry_space_group_name_H-M   'P 1'
_cell_length_a   3.05727601
_cell_length_b   4.59611416
_cell_length_c   5.80390453
_cell_angle_alpha   113.32524872
_cell_angle_beta   105.27077484
_cell_angle_gamma   90.00000000
_symmetry_Int_Tables_number   1
_chemical_formula_structural   BaAuF3
_chemical_formula_sum   'Ba1 Au1 F3'
_cell_volume   71.74228385
_cell_formula_units_Z   1
loop_
 _symmetry_equiv_pos_site_id
 _symmetry_equiv_pos_as_xyz
  1  'x, y, z'
loop_
 _atom_site_type_symbol
 _atom_site_label
 _atom_site_symmetry_multiplicity
 _atom_site_fract_x
 _atom_site_fract_y
 _atom_site_fract_z
 _atom_site_occupancy
  F  F0  1  0.64058804  0.64058799  0.28117605  1
  F  F1  1  0.35941202  0.35941199  0.71882404  1
  F  F2  1  0.00000000  0.00000000  0.00000000  1
  Ba  Ba3  1  0.36287305  0.86287299  0.72574606  1
  Au  Au4  1  0.63712701  0.13712700  0.27425403  1
