# generated using pymatgen
data_Au
_symmetry_space_group_name_H-M   'P 1'
_cell_length_a   5.00595999
_cell_length_b   5.00596046
_cell_length_c   8.30871201
_cell_angle_alpha   90.00000000
_cell_angle_beta   90.00000000
_cell_angle_gamma   120.00000000
_symmetry_Int_Tables_number   1
_chemical_formula_structural   Au
_chemical_formula_sum   Au6
_cell_volume   180.31801874
_cell_formula_units_Z   6
loop_
 _symmetry_equiv_pos_site_id
 _symmetry_equiv_pos_as_xyz
  1  'x, y, z'
loop_
 _atom_site_type_symbol
 _atom_site_label
 _atom_site_symmetry_multiplicity
 _atom_site_fract_x
 _atom_site_fract_y
 _atom_site_fract_z
 _atom_site_occupancy
  Au  Au0  1  0.00000000  0.00000000  0.24912200  1
  Au  Au1  1  0.00000000  0.00000000  0.74912200  1
  Au  Au2  1  0.33333337  0.66666668  0.03115600  1
  Au  Au3  1  0.66666669  0.33333334  0.53115600  1
  Au  Au4  1  0.33333337  0.66666668  0.44972200  1
  Au  Au5  1  0.66666669  0.33333334  0.94972200  1
