# generated using pymatgen
data_Se
_symmetry_space_group_name_H-M   'P 1'
_cell_length_a   4.12640524
_cell_length_b   4.12640524
_cell_length_c   12.41739845
_cell_angle_alpha   80.43570709
_cell_angle_beta   80.43570709
_cell_angle_gamma   60.00000763
_symmetry_Int_Tables_number   1
_chemical_formula_structural   Se
_chemical_formula_sum   Se6
_cell_volume   179.70538764
_cell_formula_units_Z   6
loop_
 _symmetry_equiv_pos_site_id
 _symmetry_equiv_pos_as_xyz
  1  'x, y, z'
loop_
 _atom_site_type_symbol
 _atom_site_label
 _atom_site_symmetry_multiplicity
 _atom_site_fract_x
 _atom_site_fract_y
 _atom_site_fract_z
 _atom_site_occupancy
  Se  Se0  1  0.25471901  0.25471902  0.23584299  1
  Se  Se1  1  0.74528102  0.74528105  0.76415697  1
  Se  Se2  1  0.32234501  0.32234502  0.03296499  1
  Se  Se3  1  0.67765502  0.67765504  0.96703498  1
  Se  Se4  1  0.11336300  0.11336301  0.65991100  1
  Se  Se5  1  0.88663703  0.88663706  0.34008896  1
