# generated using pymatgen
data_Zn
_symmetry_space_group_name_H-M   'P 1'
_cell_length_a   4.15433407
_cell_length_b   5.96641397
_cell_length_c   7.58872318
_cell_angle_alpha   113.14818573
_cell_angle_beta   105.88560486
_cell_angle_gamma   90.00000000
_symmetry_Int_Tables_number   1
_chemical_formula_structural   Zn
_chemical_formula_sum   Zn6
_cell_volume   165.11323652
_cell_formula_units_Z   6
loop_
 _symmetry_equiv_pos_site_id
 _symmetry_equiv_pos_as_xyz
  1  'x, y, z'
loop_
 _atom_site_type_symbol
 _atom_site_label
 _atom_site_symmetry_multiplicity
 _atom_site_fract_x
 _atom_site_fract_y
 _atom_site_fract_z
 _atom_site_occupancy
  Zn  Zn0  1  0.99507397  0.99507401  0.99014797  1
  Zn  Zn1  1  0.66247298  0.66247300  0.32494599  1
  Zn  Zn2  1  0.33099299  0.33099300  0.66198598  1
  Zn  Zn3  1  0.01935800  0.51935800  0.03871600  1
  Zn  Zn4  1  0.30865199  0.80865201  0.61730398  1
  Zn  Zn5  1  0.68344998  0.18345000  0.36689998  1
