# generated using pymatgen
data_Ni2O3
_symmetry_space_group_name_H-M   'P 1'
_cell_length_a   3.01833391
_cell_length_b   3.32731199
_cell_length_c   5.52398825
_cell_angle_alpha   107.52784729
_cell_angle_beta   105.85491943
_cell_angle_gamma   90.00000000
_symmetry_Int_Tables_number   1
_chemical_formula_structural   Ni2O3
_chemical_formula_sum   'Ni2 O3'
_cell_volume   50.68362873
_cell_formula_units_Z   1
loop_
 _symmetry_equiv_pos_site_id
 _symmetry_equiv_pos_as_xyz
  1  'x, y, z'
loop_
 _atom_site_type_symbol
 _atom_site_label
 _atom_site_symmetry_multiplicity
 _atom_site_fract_x
 _atom_site_fract_y
 _atom_site_fract_z
 _atom_site_occupancy
  O  O0  1  0.36067500  0.36067499  0.72134999  1
  O  O1  1  0.63932501  0.63932499  0.27864998  1
  Ni  Ni2  1  0.16534000  0.16534000  0.33068000  1
  Ni  Ni3  1  0.83466001  0.83465998  0.66931997  1
  O  O4  1  0.00000000  0.00000000  0.00000000  1
