# generated using pymatgen
data_In9Te
_symmetry_space_group_name_H-M   'P 1'
_cell_length_a   4.39274359
_cell_length_b   4.39274359
_cell_length_c   17.81538773
_cell_angle_alpha   82.91827393
_cell_angle_beta   82.91827393
_cell_angle_gamma   60.00000763
_symmetry_Int_Tables_number   1
_chemical_formula_structural   In9Te
_chemical_formula_sum   'In9 Te1'
_cell_volume   294.68079516
_cell_formula_units_Z   1
loop_
 _symmetry_equiv_pos_site_id
 _symmetry_equiv_pos_as_xyz
  1  'x, y, z'
loop_
 _atom_site_type_symbol
 _atom_site_label
 _atom_site_symmetry_multiplicity
 _atom_site_fract_x
 _atom_site_fract_y
 _atom_site_fract_z
 _atom_site_occupancy
  In  In0  1  0.00000000  0.00000000  0.00000000  1
  In  In1  1  0.60023198  0.60023199  0.19930399  1
  Te  Te2  1  0.20001599  0.20001600  0.39995200  1
  In  In3  1  0.79998397  0.79998398  0.60004799  1
  In  In4  1  0.39976799  0.39976799  0.80069600  1
  In  In5  1  0.69871797  0.69871798  0.90384600  1
  In  In6  1  0.49999998  0.49999999  0.50000000  1
  In  In7  1  0.09982200  0.09982200  0.70053400  1
  In  In8  1  0.30128199  0.30128199  0.09615400  1
  In  In9  1  0.90017797  0.90017798  0.29946599  1
