# generated using pymatgen
data_Ba4LiLaO8
_symmetry_space_group_name_H-M   'P 1'
_cell_length_a   5.57143402
_cell_length_b   5.67019606
_cell_length_c   6.83200312
_cell_angle_alpha   90.00000000
_cell_angle_beta   114.06327057
_cell_angle_gamma   90.00000000
_symmetry_Int_Tables_number   1
_chemical_formula_structural   Ba4LiLaO8
_chemical_formula_sum   'Ba4 Li1 La1 O8'
_cell_volume   197.07405123
_cell_formula_units_Z   1
loop_
 _symmetry_equiv_pos_site_id
 _symmetry_equiv_pos_as_xyz
  1  'x, y, z'
loop_
 _atom_site_type_symbol
 _atom_site_label
 _atom_site_symmetry_multiplicity
 _atom_site_fract_x
 _atom_site_fract_y
 _atom_site_fract_z
 _atom_site_occupancy
  Ba  Ba0  1  0.13767700  0.48703700  0.27535400  1
  Ba  Ba1  1  0.36232299  0.98703699  0.72464600  1
  Ba  Ba2  1  0.63767698  0.01296300  0.27535397  1
  Li  Li3  1  0.86232297  0.51296299  0.72464597  1
  Ba  Ba4  1  0.49999998  0.50000000  -0.00000003  1
  La  La5  1  0.00000000  0.00000000  0.00000000  1
  O  O6  1  0.73502598  0.25000000  0.97005198  1
  O  O7  1  0.17903399  0.06330400  0.35806800  1
  O  O8  1  0.32096599  0.56330399  0.64193200  1
  O  O9  1  0.23502599  0.25000000  0.97005201  1
  O  O10  1  0.76497397  0.74999999  0.02994796  1
  O  O11  1  0.82096597  0.93669599  0.64193197  1
  O  O12  1  0.67903398  0.43669600  0.35806797  1
  O  O13  1  0.26497399  0.74999999  0.02994799  1
