# generated using pymatgen
data_O7F3
_symmetry_space_group_name_H-M   'P 1'
_cell_length_a   5.04052973
_cell_length_b   5.05120564
_cell_length_c   5.43685246
_cell_angle_alpha   90.42314911
_cell_angle_beta   116.82631683
_cell_angle_gamma   119.57519531
_symmetry_Int_Tables_number   1
_chemical_formula_structural   O7F3
_chemical_formula_sum   'O7 F3'
_cell_volume   102.60262541
_cell_formula_units_Z   1
loop_
 _symmetry_equiv_pos_site_id
 _symmetry_equiv_pos_as_xyz
  1  'x, y, z'
loop_
 _atom_site_type_symbol
 _atom_site_label
 _atom_site_symmetry_multiplicity
 _atom_site_fract_x
 _atom_site_fract_y
 _atom_site_fract_z
 _atom_site_occupancy
  F  F0  1  0.70900499  0.35032700  0.05300702  1
  F  F1  1  0.29427602  0.65069100  0.94152707  1
  O  O2  1  0.30096099  0.15165000  0.44983302  1
  F  F3  1  0.71126701  0.85351899  0.56542307  1
  O  O4  1  0.15855903  0.71688000  0.23734506  1
  O  O5  1  0.79929498  0.25074200  0.75848103  1
  O  O6  1  0.50624401  0.55109500  0.76079805  1
  O  O7  1  0.51556700  0.44156400  0.23233803  1
  O  O8  1  0.79911697  0.08157300  0.23854600  1
  O  O9  1  0.20570804  0.95195999  0.76270209  1
