# generated using pymatgen
data_Au
_symmetry_space_group_name_H-M   'P 1'
_cell_length_a   6.41318607
_cell_length_b   6.41318703
_cell_length_c   10.17579842
_cell_angle_alpha   90.00000000
_cell_angle_beta   90.00000000
_cell_angle_gamma   119.99999237
_symmetry_Int_Tables_number   1
_chemical_formula_structural   Au
_chemical_formula_sum   Au16
_cell_volume   362.44900029
_cell_formula_units_Z   16
loop_
 _symmetry_equiv_pos_site_id
 _symmetry_equiv_pos_as_xyz
  1  'x, y, z'
loop_
 _atom_site_type_symbol
 _atom_site_label
 _atom_site_symmetry_multiplicity
 _atom_site_fract_x
 _atom_site_fract_y
 _atom_site_fract_z
 _atom_site_occupancy
  Au  Au0  1  0.33333329  0.66666663  -0.00000000  1
  Au  Au1  1  0.33333329  0.66666663  0.49999998  1
  Au  Au2  1  0.83164298  0.16835599  -0.00000000  1
  Au  Au3  1  0.83349098  0.16650899  0.49999998  1
  Au  Au4  1  0.83164295  0.66328596  0.99999996  1
  Au  Au5  1  0.83349095  0.66698196  0.49999998  1
  Au  Au6  1  0.33671299  0.16835599  -0.00000000  1
  Au  Au7  1  0.33301799  0.16650899  0.49999998  1
  Au  Au8  1  0.00415497  0.50207797  0.75176697  1
  Au  Au9  1  0.00415497  0.50207797  0.24823299  1
  Au  Au10  1  0.49792293  0.99584594  0.75176697  1
  Au  Au11  1  0.49792293  0.99584594  0.24823299  1
  Au  Au12  1  0.49792296  0.50207797  0.75176697  1
  Au  Au13  1  0.49792296  0.50207797  0.24823299  1
  Au  Au14  1  0.00000000  0.00000000  0.75126197  1
  Au  Au15  1  0.00000000  0.00000000  0.24873799  1
