# generated using pymatgen
data_AuO3
_symmetry_space_group_name_H-M   'P 1'
_cell_length_a   5.78472185
_cell_length_b   5.78472090
_cell_length_c   7.15109921
_cell_angle_alpha   90.00000000
_cell_angle_beta   90.00000000
_cell_angle_gamma   120.00000763
_symmetry_Int_Tables_number   1
_chemical_formula_structural   AuO3
_chemical_formula_sum   'Au3 O9'
_cell_volume   207.23747519
_cell_formula_units_Z   3
loop_
 _symmetry_equiv_pos_site_id
 _symmetry_equiv_pos_as_xyz
  1  'x, y, z'
loop_
 _atom_site_type_symbol
 _atom_site_label
 _atom_site_symmetry_multiplicity
 _atom_site_fract_x
 _atom_site_fract_y
 _atom_site_fract_z
 _atom_site_occupancy
  Au  Au0  1  0.33333336  0.66666668  0.24999999  1
  Au  Au1  1  0.66666670  0.33333334  0.74999998  1
  Au  Au2  1  0.00000000  0.00000000  0.49999999  1
  O  O3  1  0.00000000  0.00000000  0.00000000  1
  O  O4  1  0.66666670  0.33333334  0.24999999  1
  O  O5  1  0.33333336  0.66666668  0.74999998  1
  O  O6  1  0.40618602  0.20309301  0.24999999  1
  O  O7  1  0.59381404  0.79690702  0.74999998  1
  O  O8  1  0.20309303  0.79690702  0.74999998  1
  O  O9  1  0.79690704  0.59381402  0.24999999  1
  O  O10  1  0.79690703  0.20309301  0.24999999  1
  O  O11  1  0.20309302  0.40618601  0.74999998  1
