# generated using pymatgen
data_Cs4AsCl7
_symmetry_space_group_name_H-M   'P 1'
_cell_length_a   4.53904676
_cell_length_b   8.44836521
_cell_length_c   10.34183884
_cell_angle_alpha   90.00000000
_cell_angle_beta   90.00000000
_cell_angle_gamma   90.00000000
_symmetry_Int_Tables_number   1
_chemical_formula_structural   Cs4AsCl7
_chemical_formula_sum   'Cs4 As1 Cl7'
_cell_volume   396.58392103
_cell_formula_units_Z   1
loop_
 _symmetry_equiv_pos_site_id
 _symmetry_equiv_pos_as_xyz
  1  'x, y, z'
loop_
 _atom_site_type_symbol
 _atom_site_label
 _atom_site_symmetry_multiplicity
 _atom_site_fract_x
 _atom_site_fract_y
 _atom_site_fract_z
 _atom_site_occupancy
  Cs  Cs0  1  0.25000001  0.68644498  0.62957501  1
  Cs  Cs1  1  0.75000004  0.31355499  0.37042501  1
  Cs  Cs2  1  0.75000004  0.81355498  0.12957500  1
  Cs  Cs3  1  0.25000001  0.18644500  0.87042501  1
  As  As4  1  0.25000001  0.50166299  0.17575400  1
  Cl  Cl5  1  0.75000004  0.49833699  0.82424601  1
  Cl  Cl6  1  0.75000004  0.99833698  0.67575401  1
  Cl  Cl7  1  0.25000001  0.00166300  0.32424601  1
  Cl  Cl8  1  0.25000001  0.84708798  0.95008602  1
  Cl  Cl9  1  0.75000004  0.15291200  0.04991400  1
  Cl  Cl10  1  0.75000004  0.65291198  0.45008601  1
  Cl  Cl11  1  0.25000001  0.34708799  0.54991401  1
