# generated using pymatgen
data_K2F3
_symmetry_space_group_name_H-M   'P 1'
_cell_length_a   5.42425585
_cell_length_b   5.42594814
_cell_length_c   5.42594814
_cell_angle_alpha   89.94798279
_cell_angle_beta   90.06845856
_cell_angle_gamma   89.93154144
_symmetry_Int_Tables_number   1
_chemical_formula_structural   K2F3
_chemical_formula_sum   'K2 F3'
_cell_volume   159.69475187
_cell_formula_units_Z   1
loop_
 _symmetry_equiv_pos_site_id
 _symmetry_equiv_pos_as_xyz
  1  'x, y, z'
loop_
 _atom_site_type_symbol
 _atom_site_label
 _atom_site_symmetry_multiplicity
 _atom_site_fract_x
 _atom_site_fract_y
 _atom_site_fract_z
 _atom_site_occupancy
  K  K0  1  0.00342803  0.99698704  0.00301293  1
  K  K1  1  0.51470101  0.49669802  0.50330197  1
  F  F2  1  0.51550101  0.49463702  0.00169295  1
  F  F3  1  0.01449702  0.50546402  0.49453499  1
  F  F4  1  0.51550102  0.99830704  0.50536294  1
