# generated using pymatgen
data_TbSe3
_symmetry_space_group_name_H-M   'P 1'
_cell_length_a   4.72184992
_cell_length_b   7.09801388
_cell_length_c   7.09801388
_cell_angle_alpha   90.00000000
_cell_angle_beta   90.00000000
_cell_angle_gamma   90.00000000
_symmetry_Int_Tables_number   1
_chemical_formula_structural   TbSe3
_chemical_formula_sum   'Tb2 Se6'
_cell_volume   237.89530299
_cell_formula_units_Z   2
loop_
 _symmetry_equiv_pos_site_id
 _symmetry_equiv_pos_as_xyz
  1  'x, y, z'
loop_
 _atom_site_type_symbol
 _atom_site_label
 _atom_site_symmetry_multiplicity
 _atom_site_fract_x
 _atom_site_fract_y
 _atom_site_fract_z
 _atom_site_occupancy
  Tb  Tb0  1  0.19137600  0.50000001  -0.00000000  1
  Tb  Tb1  1  0.80862401  0.00000000  0.50000001  1
  Se  Se2  1  0.00000000  0.00000000  0.00000000  1
  Se  Se3  1  0.00000000  0.50000001  0.50000001  1
  Se  Se4  1  0.29086501  0.20158900  0.29841101  1
  Se  Se5  1  0.70913501  0.70158901  0.20158900  1
  Se  Se6  1  0.29086501  0.79841101  0.70158901  1
  Se  Se7  1  0.70913501  0.29841101  0.79841101  1
