# generated using pymatgen
data_TiO
_symmetry_space_group_name_H-M   'P 1'
_cell_length_a   3.09466910
_cell_length_b   3.09466910
_cell_length_c   7.86599207
_cell_angle_alpha   90.00000000
_cell_angle_beta   90.00000000
_cell_angle_gamma   90.00000000
_symmetry_Int_Tables_number   1
_chemical_formula_structural   TiO
_chemical_formula_sum   'Ti3 O3'
_cell_volume   75.33242404
_cell_formula_units_Z   3
loop_
 _symmetry_equiv_pos_site_id
 _symmetry_equiv_pos_as_xyz
  1  'x, y, z'
loop_
 _atom_site_type_symbol
 _atom_site_label
 _atom_site_symmetry_multiplicity
 _atom_site_fract_x
 _atom_site_fract_y
 _atom_site_fract_z
 _atom_site_occupancy
  Ti  Ti0  1  0.00000000  0.49999998  0.66477099  1
  Ti  Ti1  1  0.49999998  0.00000000  0.33522900  1
  O  O2  1  0.49999998  0.00000000  0.90262899  1
  Ti  Ti3  1  0.00000000  0.49999998  0.09737100  1
  O  O4  1  0.00000000  0.49999998  0.37641000  1
  O  O5  1  0.49999998  0.00000000  0.62358999  1
