# generated using pymatgen
data_F2
_symmetry_space_group_name_H-M   'P 1'
_cell_length_a   5.67771101
_cell_length_b   5.67771101
_cell_length_c   8.16627979
_cell_angle_alpha   90.00000000
_cell_angle_beta   90.00000000
_cell_angle_gamma   90.00000000
_symmetry_Int_Tables_number   1
_chemical_formula_structural   F2
_chemical_formula_sum   F16
_cell_volume   263.25148080
_cell_formula_units_Z   8
loop_
 _symmetry_equiv_pos_site_id
 _symmetry_equiv_pos_as_xyz
  1  'x, y, z'
loop_
 _atom_site_type_symbol
 _atom_site_label
 _atom_site_symmetry_multiplicity
 _atom_site_fract_x
 _atom_site_fract_y
 _atom_site_fract_z
 _atom_site_occupancy
  F  F0  1  0.50000000  0.50000000  -0.00000000  1
  F  F1  1  0.00000000  0.00000000  0.00000000  1
  F  F2  1  0.00000000  0.50000000  0.50000001  1
  F  F3  1  0.50000000  0.00000000  0.50000001  1
  F  F4  1  0.00000000  0.00000000  0.50000001  1
  F  F5  1  0.00000000  0.50000000  -0.00000000  1
  F  F6  1  0.50000000  0.00000000  -0.00000000  1
  F  F7  1  0.50000000  0.50000000  0.50000001  1
  F  F8  1  0.24940600  0.24940600  0.24995201  1
  F  F9  1  0.75059400  0.75059400  0.75004802  1
  F  F10  1  0.75059400  0.75059400  0.24995201  1
  F  F11  1  0.75059400  0.24940600  0.24995201  1
  F  F12  1  0.75059400  0.24940600  0.75004802  1
  F  F13  1  0.24940600  0.24940600  0.75004802  1
  F  F14  1  0.24940600  0.75059400  0.75004802  1
  F  F15  1  0.24940600  0.75059400  0.24995201  1
