# generated using pymatgen
data_BaS5
_symmetry_space_group_name_H-M   'P 1'
_cell_length_a   4.30828381
_cell_length_b   8.48437214
_cell_length_c   11.18974590
_cell_angle_alpha   90.00000000
_cell_angle_beta   90.00000000
_cell_angle_gamma   104.70813751
_symmetry_Int_Tables_number   1
_chemical_formula_structural   BaS5
_chemical_formula_sum   'Ba2 S10'
_cell_volume   395.61683222
_cell_formula_units_Z   2
loop_
 _symmetry_equiv_pos_site_id
 _symmetry_equiv_pos_as_xyz
  1  'x, y, z'
loop_
 _atom_site_type_symbol
 _atom_site_label
 _atom_site_symmetry_multiplicity
 _atom_site_fract_x
 _atom_site_fract_y
 _atom_site_fract_z
 _atom_site_occupancy
  Ba  Ba0  1  0.25534306  0.51068602  0.75000001  1
  S  S1  1  0.74465708  0.48931402  0.25000000  1
  S  S2  1  0.00000000  0.00000000  0.00000000  1
  S  S3  1  0.00000000  0.00000000  0.50000000  1
  S  S4  1  0.54511503  0.09023000  0.75000001  1
  S  S5  1  0.45488512  0.90977003  0.25000000  1
  Ba  Ba6  1  0.93942613  0.87885203  0.75000001  1
  S  S7  1  0.06057402  0.12114800  0.25000000  1
  S  S8  1  0.38212410  0.76424803  0.45931600  1
  S  S9  1  0.38212410  0.76424803  0.04068400  1
  S  S10  1  0.61787605  0.23575201  0.95931601  1
  S  S11  1  0.61787605  0.23575201  0.54068400  1
