# generated using pymatgen
data_Zn2S
_symmetry_space_group_name_H-M   'P 1'
_cell_length_a   4.09281206
_cell_length_b   5.70518017
_cell_length_c   7.57296371
_cell_angle_alpha   112.12823486
_cell_angle_beta   105.67767334
_cell_angle_gamma   90.00000000
_symmetry_Int_Tables_number   1
_chemical_formula_structural   Zn2S
_chemical_formula_sum   'Zn4 S2'
_cell_volume   156.68114192
_cell_formula_units_Z   2
loop_
 _symmetry_equiv_pos_site_id
 _symmetry_equiv_pos_as_xyz
  1  'x, y, z'
loop_
 _atom_site_type_symbol
 _atom_site_label
 _atom_site_symmetry_multiplicity
 _atom_site_fract_x
 _atom_site_fract_y
 _atom_site_fract_z
 _atom_site_occupancy
  Zn  Zn0  1  0.15030100  0.15030100  0.30060200  1
  Zn  Zn1  1  0.84969902  0.84969898  0.69939802  1
  S  S2  1  0.79300200  0.29300199  0.58600401  1
  S  S3  1  0.20699802  0.70699798  0.41399600  1
  Zn  Zn4  1  0.50000000  0.21189599  0.00000001  1
  Zn  Zn5  1  0.50000002  0.78810398  0.00000002  1
