# generated using pymatgen
data_S
_symmetry_space_group_name_H-M   'P 1'
_cell_length_a   3.82130551
_cell_length_b   3.82130527
_cell_length_c   15.70079231
_cell_angle_alpha   90.00000000
_cell_angle_beta   90.00000000
_cell_angle_gamma   118.89901733
_symmetry_Int_Tables_number   1
_chemical_formula_structural   S
_chemical_formula_sum   S16
_cell_volume   200.71865072
_cell_formula_units_Z   16
loop_
 _symmetry_equiv_pos_site_id
 _symmetry_equiv_pos_as_xyz
  1  'x, y, z'
loop_
 _atom_site_type_symbol
 _atom_site_label
 _atom_site_symmetry_multiplicity
 _atom_site_fract_x
 _atom_site_fract_y
 _atom_site_fract_z
 _atom_site_occupancy
  S  S0  1  0.64487100  0.35512901  0.59802499  1
  S  S1  1  0.64487100  0.35512901  0.90197498  1
  S  S2  1  0.35512901  0.64487103  0.09802500  1
  S  S3  1  0.35512901  0.64487103  0.40197499  1
  S  S4  1  0.90394899  0.09605100  0.74999999  1
  S  S5  1  0.09605103  0.90394904  0.25000000  1
  S  S6  1  0.99974398  0.00025600  0.32158099  1
  S  S7  1  0.70932100  0.29067901  0.74999999  1
  S  S8  1  0.00025603  0.99974404  0.67841899  1
  S  S9  1  0.99974398  0.00025600  0.17841900  1
  S  S10  1  0.68480600  0.31519401  0.06949400  1
  S  S11  1  0.68480600  0.31519401  0.43050599  1
  S  S12  1  0.31519402  0.68480603  0.56949399  1
  S  S13  1  0.31519402  0.68480603  0.93050598  1
  S  S14  1  0.00025603  0.99974404  0.82158098  1
  S  S15  1  0.29067902  0.70932103  0.25000000  1
