# generated using pymatgen
data_Dy2C3O
_symmetry_space_group_name_H-M   'P 1'
_cell_length_a   3.27536011
_cell_length_b   3.96668792
_cell_length_c   8.40248680
_cell_angle_alpha   90.00000000
_cell_angle_beta   90.00000000
_cell_angle_gamma   90.00000000
_symmetry_Int_Tables_number   1
_chemical_formula_structural   Dy2C3O
_chemical_formula_sum   'Dy2 C3 O1'
_cell_volume   109.16789280
_cell_formula_units_Z   1
loop_
 _symmetry_equiv_pos_site_id
 _symmetry_equiv_pos_as_xyz
  1  'x, y, z'
loop_
 _atom_site_type_symbol
 _atom_site_label
 _atom_site_symmetry_multiplicity
 _atom_site_fract_x
 _atom_site_fract_y
 _atom_site_fract_z
 _atom_site_occupancy
  Dy  Dy0  1  0.49999998  0.00000000  0.09174700  1
  Dy  Dy1  1  0.00000000  0.50000001  0.90825302  1
  C  C2  1  0.00000000  0.00000000  0.95461102  1
  C  C3  1  0.49999998  0.50000001  0.04538900  1
  O  O4  1  0.49999998  0.50000001  0.68910002  1
  C  C5  1  0.00000000  0.00000000  0.31090001  1
