# generated using pymatgen
data_BaAuO3
_symmetry_space_group_name_H-M   'P 1'
_cell_length_a   5.97632980
_cell_length_b   5.97633028
_cell_length_c   7.37927580
_cell_angle_alpha   90.00000000
_cell_angle_beta   90.00000000
_cell_angle_gamma   120.00000000
_symmetry_Int_Tables_number   1
_chemical_formula_structural   BaAuO3
_chemical_formula_sum   'Ba3 Au3 O9'
_cell_volume   228.25143712
_cell_formula_units_Z   3
loop_
 _symmetry_equiv_pos_site_id
 _symmetry_equiv_pos_as_xyz
  1  'x, y, z'
loop_
 _atom_site_type_symbol
 _atom_site_label
 _atom_site_symmetry_multiplicity
 _atom_site_fract_x
 _atom_site_fract_y
 _atom_site_fract_z
 _atom_site_occupancy
  Ba  Ba0  1  0.00000000  0.00000000  0.00000000  1
  Ba  Ba1  1  0.66666670  0.33333334  0.33157801  1
  Ba  Ba2  1  0.33333337  0.66666669  0.66842202  1
  Au  Au3  1  0.66666670  0.33333334  0.83010402  1
  Au  Au4  1  0.33333337  0.66666669  0.16989600  1
  Au  Au5  1  0.00000000  0.00000000  0.50000001  1
  O  O6  1  0.82386505  0.64773002  0.68601502  1
  O  O7  1  0.17613502  0.35227001  0.31398501  1
  O  O8  1  0.82386503  0.17613501  0.68601502  1
  O  O9  1  0.17613504  0.82386503  0.31398501  1
  O  O10  1  0.35227002  0.17613501  0.68601502  1
  O  O11  1  0.64773005  0.82386503  0.31398501  1
  O  O12  1  0.50000004  0.50000002  -0.00000000  1
  O  O13  1  0.00000002  0.50000002  -0.00000000  1
  O  O14  1  0.50000002  0.00000000  -0.00000000  1
