# generated using pymatgen
data_OF9
_symmetry_space_group_name_H-M   'P 1'
_cell_length_a   5.52254200
_cell_length_b   6.28748989
_cell_length_c   5.52254200
_cell_angle_alpha   63.94912338
_cell_angle_beta   90.00000000
_cell_angle_gamma   116.05087280
_symmetry_Int_Tables_number   1
_chemical_formula_structural   OF9
_chemical_formula_sum   'O1 F9'
_cell_volume   150.29061568
_cell_formula_units_Z   1
loop_
 _symmetry_equiv_pos_site_id
 _symmetry_equiv_pos_as_xyz
  1  'x, y, z'
loop_
 _atom_site_type_symbol
 _atom_site_label
 _atom_site_symmetry_multiplicity
 _atom_site_fract_x
 _atom_site_fract_y
 _atom_site_fract_z
 _atom_site_occupancy
  F  F0  1  0.24999996  0.49999996  0.25000001  1
  F  F1  1  0.49999991  0.99999993  0.50000002  1
  O  O2  1  0.87499994  0.74999995  0.87500001  1
  F  F3  1  0.87499998  0.24999998  0.87500000  1
  F  F4  1  0.87499994  0.74999995  0.37500001  1
  F  F5  1  0.37499998  0.24999998  0.87500000  1
  F  F6  1  0.25058596  0.50117196  0.74941401  1
  F  F7  1  0.00058600  0.00117200  0.49941400  1
  F  F8  1  0.49941391  0.99882793  0.00058602  1
  F  F9  1  0.74941396  0.49882796  0.25058601  1
