# generated using pymatgen
data_BaTeO6
_symmetry_space_group_name_H-M   'P 1'
_cell_length_a   5.72147608
_cell_length_b   6.73716021
_cell_length_c   6.73715925
_cell_angle_alpha   120.00000000
_cell_angle_beta   90.00000000
_cell_angle_gamma   90.00000000
_symmetry_Int_Tables_number   1
_chemical_formula_structural   BaTeO6
_chemical_formula_sum   'Ba1 Te1 O6'
_cell_volume   224.90152805
_cell_formula_units_Z   1
loop_
 _symmetry_equiv_pos_site_id
 _symmetry_equiv_pos_as_xyz
  1  'x, y, z'
loop_
 _atom_site_type_symbol
 _atom_site_label
 _atom_site_symmetry_multiplicity
 _atom_site_fract_x
 _atom_site_fract_y
 _atom_site_fract_z
 _atom_site_occupancy
  Ba  Ba0  1  0.00000000  0.00000000  0.00000000  1
  Te  Te1  1  0.49999999  0.00000000  -0.00000000  1
  O  O2  1  0.25000000  0.28864898  0.28864899  1
  O  O3  1  0.74999999  0.00000000  0.28864901  1
  O  O4  1  0.74999999  0.71135096  0.71135097  1
  O  O5  1  0.25000000  0.99999994  0.71135095  1
  O  O6  1  0.74999999  0.28864898  1.00000000  1
  O  O7  1  0.25000000  0.71135096  -0.00000004  1
