# generated using pymatgen
data_F2
_symmetry_space_group_name_H-M   'P 1'
_cell_length_a   3.49466300
_cell_length_b   4.59551477
_cell_length_c   5.57301283
_cell_angle_alpha   90.00000000
_cell_angle_beta   90.00000000
_cell_angle_gamma   90.00000000
_symmetry_Int_Tables_number   1
_chemical_formula_structural   F2
_chemical_formula_sum   F6
_cell_volume   89.50133460
_cell_formula_units_Z   3
loop_
 _symmetry_equiv_pos_site_id
 _symmetry_equiv_pos_as_xyz
  1  'x, y, z'
loop_
 _atom_site_type_symbol
 _atom_site_label
 _atom_site_symmetry_multiplicity
 _atom_site_fract_x
 _atom_site_fract_y
 _atom_site_fract_z
 _atom_site_occupancy
  F  F0  1  0.50000000  0.73646804  0.49712202  1
  F  F1  1  0.00000000  0.26353201  0.99712203  1
  F  F2  1  0.00000000  0.03927000  0.37179801  1
  F  F3  1  0.50000000  0.96073005  0.87179803  1
  F  F4  1  0.50000000  0.54825903  0.12493000  1
  F  F5  1  0.00000000  0.45174102  0.62493002  1
