# generated using pymatgen
data_Mo15O
_symmetry_space_group_name_H-M   'P 1'
_cell_length_a   3.93937397
_cell_length_b   3.93937397
_cell_length_c   14.18312836
_cell_angle_alpha   97.98277283
_cell_angle_beta   97.98277283
_cell_angle_gamma   90.00000000
_symmetry_Int_Tables_number   1
_chemical_formula_structural   Mo15O
_chemical_formula_sum   'Mo15 O1'
_cell_volume   215.81651449
_cell_formula_units_Z   1
loop_
 _symmetry_equiv_pos_site_id
 _symmetry_equiv_pos_as_xyz
  1  'x, y, z'
loop_
 _atom_site_type_symbol
 _atom_site_label
 _atom_site_symmetry_multiplicity
 _atom_site_fract_x
 _atom_site_fract_y
 _atom_site_fract_z
 _atom_site_occupancy
  Mo  Mo0  1  0.25000000  0.75000000  0.49999998  1
  Mo  Mo1  1  0.41733500  0.41733500  0.83466997  1
  Mo  Mo2  1  0.58266500  0.58266500  0.16532999  1
  O  O3  1  0.00000000  0.00000000  0.00000000  1
  Mo  Mo4  1  0.15384200  0.15384200  0.30768399  1
  Mo  Mo5  1  0.84615800  0.84615800  0.69231597  1
  Mo  Mo6  1  0.07090900  0.07090900  0.14181800  1
  Mo  Mo7  1  0.49988600  0.99988601  0.99977197  1
  Mo  Mo8  1  0.63800400  0.13800400  0.27600799  1
  Mo  Mo9  1  0.21848000  0.21848000  0.43695999  1
  Mo  Mo10  1  0.86199600  0.36199600  0.72399197  1
  Mo  Mo11  1  0.78152000  0.78152000  0.56303998  1
  Mo  Mo12  1  0.92909100  0.92909101  0.85818197  1
  Mo  Mo13  1  0.00011400  0.50011400  0.00022800  1
  Mo  Mo14  1  0.13934100  0.63934100  0.27868199  1
  Mo  Mo15  1  0.36065900  0.86065900  0.72131797  1
