# generated using pymatgen
data_O2
_symmetry_space_group_name_H-M   'P 1'
_cell_length_a   3.74180388
_cell_length_b   4.80804777
_cell_length_c   4.82040310
_cell_angle_alpha   90.00000000
_cell_angle_beta   90.00000000
_cell_angle_gamma   90.00000000
_symmetry_Int_Tables_number   1
_chemical_formula_structural   O2
_chemical_formula_sum   O12
_cell_volume   86.72277227
_cell_formula_units_Z   6
loop_
 _symmetry_equiv_pos_site_id
 _symmetry_equiv_pos_as_xyz
  1  'x, y, z'
loop_
 _atom_site_type_symbol
 _atom_site_label
 _atom_site_symmetry_multiplicity
 _atom_site_fract_x
 _atom_site_fract_y
 _atom_site_fract_z
 _atom_site_occupancy
  O  O0  1  0.12404800  0.75000004  0.01956700  1
  O  O1  1  0.37595201  0.75000004  0.51956699  1
  O  O2  1  0.87595203  0.25000001  0.98043298  1
  O  O3  1  0.62404802  0.25000001  0.48043299  1
  O  O4  1  0.39339801  0.43071602  0.83909198  1
  O  O5  1  0.10660200  0.06928400  0.33909199  1
  O  O6  1  0.60660202  0.93071604  0.16090800  1
  O  O7  1  0.89339803  0.56928403  0.66090799  1
  O  O8  1  0.60660202  0.56928403  0.16090800  1
  O  O9  1  0.89339803  0.93071604  0.66090799  1
  O  O10  1  0.39339801  0.06928400  0.83909198  1
  O  O11  1  0.10660200  0.43071602  0.33909199  1
