# generated using pymatgen
data_BaAs3
_symmetry_space_group_name_H-M   'P 1'
_cell_length_a   4.95780993
_cell_length_b   4.98560905
_cell_length_c   9.71972561
_cell_angle_alpha   90.00000000
_cell_angle_beta   104.77587128
_cell_angle_gamma   90.00000000
_symmetry_Int_Tables_number   1
_chemical_formula_structural   BaAs3
_chemical_formula_sum   'Ba2 As6'
_cell_volume   232.30444875
_cell_formula_units_Z   2
loop_
 _symmetry_equiv_pos_site_id
 _symmetry_equiv_pos_as_xyz
  1  'x, y, z'
loop_
 _atom_site_type_symbol
 _atom_site_label
 _atom_site_symmetry_multiplicity
 _atom_site_fract_x
 _atom_site_fract_y
 _atom_site_fract_z
 _atom_site_occupancy
  Ba  Ba0  1  0.39340001  0.74999999  0.78680002  1
  Ba  Ba1  1  0.60660001  0.25000000  0.21320001  1
  As  As2  1  0.04247200  0.74999999  0.08494400  1
  As  As3  1  0.95752802  0.25000000  0.91505602  1
  As  As4  1  0.24969900  0.25000000  0.49939801  1
  As  As5  1  0.75030101  0.74999999  0.50060201  1
  As  As6  1  0.81386401  0.25000000  0.62772801  1
  As  As7  1  0.18613600  0.74999999  0.37227201  1
