# generated using pymatgen
data_BaAuO4
_symmetry_space_group_name_H-M   'P 1'
_cell_length_a   5.77213001
_cell_length_b   6.17524958
_cell_length_c   5.77213001
_cell_angle_alpha   117.86306763
_cell_angle_beta   90.00000000
_cell_angle_gamma   117.86306763
_symmetry_Int_Tables_number   1
_chemical_formula_structural   BaAuO4
_chemical_formula_sum   'Ba1 Au1 O4'
_cell_volume   154.39685425
_cell_formula_units_Z   1
loop_
 _symmetry_equiv_pos_site_id
 _symmetry_equiv_pos_as_xyz
  1  'x, y, z'
loop_
 _atom_site_type_symbol
 _atom_site_label
 _atom_site_symmetry_multiplicity
 _atom_site_fract_x
 _atom_site_fract_y
 _atom_site_fract_z
 _atom_site_occupancy
  Ba  Ba0  1  0.00000000  0.00000000  0.00000000  1
  Au  Au1  1  0.25000000  0.50000001  0.75000000  1
  O  O2  1  0.36323200  0.26360100  0.43710100  1
  O  O3  1  0.90036800  0.26360000  0.82649900  1
  O  O4  1  0.56289900  0.73640001  0.09963200  1
  O  O5  1  0.17350000  0.73639901  0.63676700  1
