# generated using pymatgen
data_Zn3O4
_symmetry_space_group_name_H-M   'P 1'
_cell_length_a   3.35400653
_cell_length_b   3.35400653
_cell_length_c   8.59324265
_cell_angle_alpha   78.74629211
_cell_angle_beta   78.74629211
_cell_angle_gamma   59.99999237
_symmetry_Int_Tables_number   1
_chemical_formula_structural   Zn3O4
_chemical_formula_sum   'Zn3 O4'
_cell_volume   81.56407602
_cell_formula_units_Z   1
loop_
 _symmetry_equiv_pos_site_id
 _symmetry_equiv_pos_as_xyz
  1  'x, y, z'
loop_
 _atom_site_type_symbol
 _atom_site_label
 _atom_site_symmetry_multiplicity
 _atom_site_fract_x
 _atom_site_fract_y
 _atom_site_fract_z
 _atom_site_occupancy
  O  O0  1  0.87009696  0.87009696  0.38970904  1
  O  O1  1  0.12990299  0.12990299  0.61029100  1
  O  O2  1  0.70651097  0.70651097  0.88046702  1
  O  O3  1  0.29348899  0.29348899  0.11953301  1
  Zn  Zn4  1  0.78326196  0.78326197  0.65021403  1
  Zn  Zn5  1  0.21673799  0.21673799  0.34978601  1
  Zn  Zn6  1  0.00000000  0.00000000  0.00000000  1
