# generated using pymatgen
data_Re
_symmetry_space_group_name_H-M   'P 1'
_cell_length_a   4.37106705
_cell_length_b   5.44585800
_cell_length_c   5.44585848
_cell_angle_alpha   60.00000381
_cell_angle_beta   90.00000000
_cell_angle_gamma   90.00000000
_symmetry_Int_Tables_number   1
_chemical_formula_structural   Re
_chemical_formula_sum   Re8
_cell_volume   112.26665443
_cell_formula_units_Z   8
loop_
 _symmetry_equiv_pos_site_id
 _symmetry_equiv_pos_as_xyz
  1  'x, y, z'
loop_
 _atom_site_type_symbol
 _atom_site_label
 _atom_site_symmetry_multiplicity
 _atom_site_fract_x
 _atom_site_fract_y
 _atom_site_fract_z
 _atom_site_occupancy
  Re  Re0  1  0.25000000  0.33333333  0.33333334  1
  Re  Re1  1  0.74999999  0.66666666  0.66666668  1
  Re  Re2  1  0.74999999  0.66465400  0.16767301  1
  Re  Re3  1  0.74999999  0.16767300  0.16767300  1
  Re  Re4  1  0.74999999  0.16767300  0.66465401  1
  Re  Re5  1  0.25000000  0.33534600  0.83232701  1
  Re  Re6  1  0.25000000  0.83232700  0.83232702  1
  Re  Re7  1  0.25000000  0.83232700  0.33534601  1
