# generated using pymatgen
data_O2
_symmetry_space_group_name_H-M   'P 1'
_cell_length_a   5.27070999
_cell_length_b   5.51547480
_cell_length_c   7.48716927
_cell_angle_alpha   100.45425415
_cell_angle_beta   110.23157501
_cell_angle_gamma   103.21475220
_symmetry_Int_Tables_number   1
_chemical_formula_structural   O2
_chemical_formula_sum   O18
_cell_volume   190.56235738
_cell_formula_units_Z   9
loop_
 _symmetry_equiv_pos_site_id
 _symmetry_equiv_pos_as_xyz
  1  'x, y, z'
loop_
 _atom_site_type_symbol
 _atom_site_label
 _atom_site_symmetry_multiplicity
 _atom_site_fract_x
 _atom_site_fract_y
 _atom_site_fract_z
 _atom_site_occupancy
  O  O0  1  0.40824198  0.72048003  0.77072301  1
  O  O1  1  0.90847098  0.72074903  0.27082901  1
  O  O2  1  0.13936399  0.33518601  0.39864300  1
  O  O3  1  0.63919899  0.33527701  0.89863600  1
  O  O4  1  0.80929798  0.58951002  0.59336501  1
  O  O5  1  0.30915299  0.58957902  0.09343601  1
  O  O6  1  0.01473100  0.01518200  0.00018500  1
  O  O7  1  0.51489500  0.01519600  0.50001300  1
  O  O8  1  0.72280700  0.00941900  0.76216500  1
  O  O9  1  0.22310600  0.00955900  0.26210100  1
  O  O10  1  0.47580299  0.39253502  0.63894700  1
  O  O11  1  0.97574999  0.39241402  0.13903000  1
  O  O12  1  0.82915399  0.25406601  0.47531200  1
  O  O13  1  0.32872599  0.25406301  0.97513600  1
  O  O14  1  0.18744098  0.74751803  0.52013001  1
  O  O15  1  0.68718698  0.74741303  0.01984601  1
  O  O16  1  0.60211498  0.69192403  0.36329301  1
  O  O17  1  0.10196398  0.69193903  0.86326701  1
