# generated using pymatgen
data_InO3
_symmetry_space_group_name_H-M   'P 1'
_cell_length_a   6.49323416
_cell_length_b   6.49323416
_cell_length_c   7.45305586
_cell_angle_alpha   64.17595673
_cell_angle_beta   64.17595673
_cell_angle_gamma   59.99999619
_symmetry_Int_Tables_number   1
_chemical_formula_structural   InO3
_chemical_formula_sum   'In2 O6'
_cell_volume   235.20440635
_cell_formula_units_Z   2
loop_
 _symmetry_equiv_pos_site_id
 _symmetry_equiv_pos_as_xyz
  1  'x, y, z'
loop_
 _atom_site_type_symbol
 _atom_site_label
 _atom_site_symmetry_multiplicity
 _atom_site_fract_x
 _atom_site_fract_y
 _atom_site_fract_z
 _atom_site_occupancy
  In  In0  1  0.33393598  0.33393600  0.99819201  1
  In  In1  1  0.66606396  0.66606401  0.00180806  1
  O  O2  1  0.70526397  0.44393401  0.77706704  1
  O  O3  1  0.07373496  0.70526401  0.77706703  1
  O  O4  1  0.55606594  0.92626501  0.22293306  1
  O  O5  1  0.92626498  0.29473600  0.22293304  1
  O  O6  1  0.29473597  0.55606601  0.22293303  1
  O  O7  1  0.44393399  0.07373500  0.77706701  1
