# generated using pymatgen
data_La2O
_symmetry_space_group_name_H-M   'P 1'
_cell_length_a   3.10677600
_cell_length_b   4.50421190
_cell_length_c   6.49439859
_cell_angle_alpha   79.15457916
_cell_angle_beta   76.16132355
_cell_angle_gamma   69.82585907
_symmetry_Int_Tables_number   1
_chemical_formula_structural   La2O
_chemical_formula_sum   'La4 O2'
_cell_volume   82.26956058
_cell_formula_units_Z   2
loop_
 _symmetry_equiv_pos_site_id
 _symmetry_equiv_pos_as_xyz
  1  'x, y, z'
loop_
 _atom_site_type_symbol
 _atom_site_label
 _atom_site_symmetry_multiplicity
 _atom_site_fract_x
 _atom_site_fract_y
 _atom_site_fract_z
 _atom_site_occupancy
  O  O0  1  0.15635296  0.38532300  0.30197101  1
  O  O1  1  0.84364695  0.61467700  0.69802900  1
  La  La2  1  0.85760699  0.25493100  0.02985499  1
  La  La3  1  0.14239293  0.74506900  0.97014502  1
  La  La4  1  0.60033699  0.20043900  0.59888699  1
  La  La5  1  0.39966293  0.79956100  0.40111302  1
