# generated using pymatgen
data_Ba2TeCl2O3
_symmetry_space_group_name_H-M   'P 1'
_cell_length_a   3.72673798
_cell_length_b   9.61275196
_cell_length_c   9.61275196
_cell_angle_alpha   120.00000000
_cell_angle_beta   90.00000000
_cell_angle_gamma   90.00000000
_symmetry_Int_Tables_number   1
_chemical_formula_structural   Ba2TeCl2O3
_chemical_formula_sum   'Ba2 Te1 Cl2 O3'
_cell_volume   298.23249596
_cell_formula_units_Z   1
loop_
 _symmetry_equiv_pos_site_id
 _symmetry_equiv_pos_as_xyz
  1  'x, y, z'
loop_
 _atom_site_type_symbol
 _atom_site_label
 _atom_site_symmetry_multiplicity
 _atom_site_fract_x
 _atom_site_fract_y
 _atom_site_fract_z
 _atom_site_occupancy
  O  O0  1  0.25000000  0.66666666  0.33333330  1
  Cl  Cl1  1  0.75000000  0.33333333  0.66666664  1
  Ba  Ba2  1  0.75000000  0.78759899  0.21240097  1
  Ba  Ba3  1  0.75000000  0.42480200  0.21240098  1
  Te  Te4  1  0.75000000  0.78759899  0.57519796  1
  O  O5  1  0.25000000  0.21240100  0.78759897  1
  Cl  Cl6  1  0.25000000  0.57519800  0.78759896  1
  O  O7  1  0.25000000  0.21240100  0.42480198  1
