# generated using pymatgen
data_Au
_symmetry_space_group_name_H-M   'P 1'
_cell_length_a   6.35157204
_cell_length_b   6.35157204
_cell_length_c   6.35157204
_cell_angle_alpha   95.13316345
_cell_angle_beta   117.08196259
_cell_angle_gamma   117.08196259
_symmetry_Int_Tables_number   1
_chemical_formula_structural   Au
_chemical_formula_sum   Au8
_cell_volume   188.36108864
_cell_formula_units_Z   8
loop_
 _symmetry_equiv_pos_site_id
 _symmetry_equiv_pos_as_xyz
  1  'x, y, z'
loop_
 _atom_site_type_symbol
 _atom_site_label
 _atom_site_symmetry_multiplicity
 _atom_site_fract_x
 _atom_site_fract_y
 _atom_site_fract_z
 _atom_site_occupancy
  Au  Au0  1  0.00000005  0.50000002  0.50000000  1
  Au  Au1  1  0.50000004  0.25000001  0.75000003  1
  Au  Au2  1  0.50000009  0.75000003  0.25000004  1
  Au  Au3  1  0.00000000  0.00000000  0.00000000  1
  Au  Au4  1  0.00000010  0.95521903  0.31858801  1
  Au  Au5  1  0.00000003  0.31858801  0.95521899  1
  Au  Au6  1  0.36336901  0.04478100  0.04478103  1
  Au  Au7  1  0.63663108  0.68141202  0.68141204  1
