# generated using pymatgen
data_O2
_symmetry_space_group_name_H-M   'P 1'
_cell_length_a   5.27498531
_cell_length_b   6.40997696
_cell_length_c   6.40997696
_cell_angle_alpha   82.73736572
_cell_angle_beta   74.67613220
_cell_angle_gamma   74.67613220
_symmetry_Int_Tables_number   1
_chemical_formula_structural   O2
_chemical_formula_sum   O20
_cell_volume   201.22708787
_cell_formula_units_Z   10
loop_
 _symmetry_equiv_pos_site_id
 _symmetry_equiv_pos_as_xyz
  1  'x, y, z'
loop_
 _atom_site_type_symbol
 _atom_site_label
 _atom_site_symmetry_multiplicity
 _atom_site_fract_x
 _atom_site_fract_y
 _atom_site_fract_z
 _atom_site_occupancy
  O  O0  1  0.25000000  0.27050000  0.72950002  1
  O  O1  1  0.75000000  0.72949999  0.27050005  1
  O  O2  1  0.25000003  0.90546999  0.09453003  1
  O  O3  1  0.74999997  0.09453000  0.90547003  1
  O  O4  1  0.24202301  0.38672299  0.19995602  1
  O  O5  1  0.25797703  0.80004399  0.61327703  1
  O  O6  1  0.75797700  0.61327699  0.80004405  1
  O  O7  1  0.74202298  0.19995600  0.38672304  1
  O  O8  1  0.35904099  0.19207300  0.02612802  1
  O  O9  1  0.14095904  0.97387198  0.80792703  1
  O  O10  1  0.64095901  0.80792699  0.97387205  1
  O  O11  1  0.85904096  0.02612800  0.19207304  1
  O  O12  1  0.20015002  0.63209899  0.09960902  1
  O  O13  1  0.29985003  0.90039099  0.36790103  1
  O  O14  1  0.79984998  0.36790099  0.90039104  1
  O  O15  1  0.70014997  0.09960900  0.63209903  1
  O  O16  1  0.43516900  0.33742599  0.37253603  1
  O  O17  1  0.06483103  0.62746399  0.66257402  1
  O  O18  1  0.56483101  0.66257399  0.62746404  1
  O  O19  1  0.93516898  0.37253599  0.33742605  1
