# generated using pymatgen
data_LiO12
_symmetry_space_group_name_H-M   'P 1'
_cell_length_a   4.42237806
_cell_length_b   5.47239971
_cell_length_c   7.02730322
_cell_angle_alpha   97.76575470
_cell_angle_beta   90.00000000
_cell_angle_gamma   113.83235931
_symmetry_Int_Tables_number   1
_chemical_formula_structural   LiO12
_chemical_formula_sum   'Li1 O12'
_cell_volume   153.85982592
_cell_formula_units_Z   1
loop_
 _symmetry_equiv_pos_site_id
 _symmetry_equiv_pos_as_xyz
  1  'x, y, z'
loop_
 _atom_site_type_symbol
 _atom_site_label
 _atom_site_symmetry_multiplicity
 _atom_site_fract_x
 _atom_site_fract_y
 _atom_site_fract_z
 _atom_site_occupancy
  O  O0  1  0.43527893  0.87055801  0.28389102  1
  Li  Li1  1  0.70814896  0.41629800  0.13851501  1
  O  O2  1  0.85413894  0.70827800  0.57713701  1
  O  O3  1  0.14586098  0.29172200  0.42286300  1
  O  O4  1  0.29185095  0.58370200  0.86148500  1
  O  O5  1  0.56472098  0.12944200  0.71610899  1
  O  O6  1  0.64239797  0.28479600  0.42548300  1
  O  O7  1  0.35760194  0.71520401  0.57451701  1
  O  O8  1  0.92231292  0.84462601  0.29645402  1
  O  O9  1  0.49999999  0.00000000  0.99999998  1
  O  O10  1  0.22698196  0.45396400  0.14543501  1
  O  O11  1  0.77301795  0.54603600  0.85456500  1
  O  O12  1  0.07768699  0.15537400  0.70354599  1
