# generated using pymatgen
data_Ba3O4F
_symmetry_space_group_name_H-M   'P 1'
_cell_length_a   3.87174010
_cell_length_b   6.36089516
_cell_length_c   7.20868063
_cell_angle_alpha   96.56158447
_cell_angle_beta   105.57782745
_cell_angle_gamma   90.00000000
_symmetry_Int_Tables_number   1
_chemical_formula_structural   Ba3O4F
_chemical_formula_sum   'Ba3 O4 F1'
_cell_volume   169.80447593
_cell_formula_units_Z   1
loop_
 _symmetry_equiv_pos_site_id
 _symmetry_equiv_pos_as_xyz
  1  'x, y, z'
loop_
 _atom_site_type_symbol
 _atom_site_label
 _atom_site_symmetry_multiplicity
 _atom_site_fract_x
 _atom_site_fract_y
 _atom_site_fract_z
 _atom_site_occupancy
  Ba  Ba0  1  0.05572300  0.87392902  0.11144599  1
  F  F1  1  0.94427698  0.12607100  0.88855400  1
  O  O2  1  0.55921699  0.65371602  0.11843400  1
  O  O3  1  0.44078299  0.34628401  0.88156600  1
  O  O4  1  0.21295699  0.05707100  0.42591400  1
  Ba  Ba5  1  0.78704298  0.94292902  0.57408599  1
  O  O6  1  0.72724998  0.58572701  0.45450000  1
  Ba  Ba7  1  0.27274999  0.41427301  0.54550000  1
