# generated using pymatgen
data_HO11
_symmetry_space_group_name_H-M   'P 1'
_cell_length_a   4.02875423
_cell_length_b   5.41884565
_cell_length_c   5.56137514
_cell_angle_alpha   80.57492065
_cell_angle_beta   68.76411438
_cell_angle_gamma   68.17731476
_symmetry_Int_Tables_number   1
_chemical_formula_structural   HO11
_chemical_formula_sum   'H1 O11'
_cell_volume   104.99810219
_cell_formula_units_Z   1
loop_
 _symmetry_equiv_pos_site_id
 _symmetry_equiv_pos_as_xyz
  1  'x, y, z'
loop_
 _atom_site_type_symbol
 _atom_site_label
 _atom_site_symmetry_multiplicity
 _atom_site_fract_x
 _atom_site_fract_y
 _atom_site_fract_z
 _atom_site_occupancy
  H  H0  1  0.49999999  0.49999998  0.49999999  1
  O  O1  1  0.82756396  0.30027999  0.04459201  1
  O  O2  1  0.17243602  0.69971997  0.95540798  1
  O  O3  1  0.96718098  0.90269796  0.75501100  1
  O  O4  1  0.62488996  0.09730200  0.24498900  1
  O  O5  1  0.03281900  0.09730200  0.24498899  1
  O  O6  1  0.37511002  0.90269796  0.75501099  1
  O  O7  1  0.77556096  0.21984399  0.22903400  1
  O  O8  1  0.22443902  0.78015597  0.77096599  1
  O  O9  1  0.49315300  0.77796097  0.23573300  1
  O  O10  1  0.50684698  0.22203899  0.76426698  1
  O  O11  1  0.00000002  0.49999998  0.49999999  1
