# generated using pymatgen
data_Cs9As5
_symmetry_space_group_name_H-M   'P 1'
_cell_length_a   8.45073128
_cell_length_b   8.45073032
_cell_length_c   8.45073032
_cell_angle_alpha   109.31211853
_cell_angle_beta   109.55082703
_cell_angle_gamma   109.55082703
_symmetry_Int_Tables_number   1
_chemical_formula_structural   Cs9As5
_chemical_formula_sum   'Cs9 As5'
_cell_volume   464.57775436
_cell_formula_units_Z   1
loop_
 _symmetry_equiv_pos_site_id
 _symmetry_equiv_pos_as_xyz
  1  'x, y, z'
loop_
 _atom_site_type_symbol
 _atom_site_label
 _atom_site_symmetry_multiplicity
 _atom_site_fract_x
 _atom_site_fract_y
 _atom_site_fract_z
 _atom_site_occupancy
  As  As0  1  0.87879385  0.87499999  0.25379390  1
  Cs  Cs1  1  0.12120595  0.37500000  0.99620602  1
  As  As2  1  0.37879397  0.00379400  0.12499999  1
  As  As3  1  0.62120588  0.74620599  0.62499994  1
  Cs  Cs4  1  0.25202890  0.77402199  0.37006194  1
  Cs  Cs5  1  0.24797095  0.27199300  0.36803299  1
  Cs  Cs6  1  0.09603989  0.97597799  0.72800695  1
  Cs  Cs7  1  0.75202894  0.12006200  0.02402196  1
  Cs  Cs8  1  0.40395991  0.62993799  0.88196697  1
  Cs  Cs9  1  0.74797094  0.11803300  0.52199299  1
  Cs  Cs10  1  0.59603991  0.47800700  0.22597795  1
  Cs  Cs11  1  0.90395987  0.63196699  0.87993796  1
  As  As12  1  0.49999994  0.25000000  0.75000000  1
  As  As13  1  0.99999988  0.50000000  0.49999994  1
