# generated using pymatgen
data_CsSe3
_symmetry_space_group_name_H-M   'P 1'
_cell_length_a   7.23910093
_cell_length_b   7.36206484
_cell_length_c   8.41345024
_cell_angle_alpha   90.43234253
_cell_angle_beta   115.29189301
_cell_angle_gamma   119.40002441
_symmetry_Int_Tables_number   1
_chemical_formula_structural   CsSe3
_chemical_formula_sum   'Cs2 Se6'
_cell_volume   339.49733306
_cell_formula_units_Z   2
loop_
 _symmetry_equiv_pos_site_id
 _symmetry_equiv_pos_as_xyz
  1  'x, y, z'
loop_
 _atom_site_type_symbol
 _atom_site_label
 _atom_site_symmetry_multiplicity
 _atom_site_fract_x
 _atom_site_fract_y
 _atom_site_fract_z
 _atom_site_occupancy
  Cs  Cs0  1  0.58458399  0.29241199  0.87292500  1
  Cs  Cs1  1  0.24828698  0.62283699  0.87090299  1
  Se  Se2  1  0.44358600  0.03641300  0.11634900  1
  Se  Se3  1  0.10440499  0.22525000  0.63792401  1
  Se  Se4  1  0.75756498  0.53535199  0.63782398  1
  Se  Se5  1  0.42209097  0.88157598  0.64097197  1
  Se  Se6  1  0.67938198  0.64865899  0.08603696  1
  Se  Se7  1  0.05909998  0.40700099  0.08556598  1
