# generated using pymatgen
data_Sn
_symmetry_space_group_name_H-M   'P 1'
_cell_length_a   4.97119617
_cell_length_b   4.97119665
_cell_length_c   8.85318279
_cell_angle_alpha   90.00000000
_cell_angle_beta   90.00000000
_cell_angle_gamma   119.99999237
_symmetry_Int_Tables_number   1
_chemical_formula_structural   Sn
_chemical_formula_sum   Sn8
_cell_volume   189.47501120
_cell_formula_units_Z   8
loop_
 _symmetry_equiv_pos_site_id
 _symmetry_equiv_pos_as_xyz
  1  'x, y, z'
loop_
 _atom_site_type_symbol
 _atom_site_label
 _atom_site_symmetry_multiplicity
 _atom_site_fract_x
 _atom_site_fract_y
 _atom_site_fract_z
 _atom_site_occupancy
  Sn  Sn0  1  0.00000000  0.00000000  0.75000002  1
  Sn  Sn1  1  0.00000000  0.00000000  0.25000001  1
  Sn  Sn2  1  0.66666663  0.33333334  0.42036201  1
  Sn  Sn3  1  0.33333330  0.66666668  0.92036202  1
  Sn  Sn4  1  0.33333330  0.66666668  0.57963801  1
  Sn  Sn5  1  0.66666663  0.33333334  0.07963800  1
  Sn  Sn6  1  0.66666663  0.33333334  0.75000002  1
  Sn  Sn7  1  0.33333330  0.66666668  0.25000001  1
