# generated using pymatgen
data_Ca4SO5
_symmetry_space_group_name_H-M   'P 1'
_cell_length_a   3.58954811
_cell_length_b   5.52334547
_cell_length_c   10.98050308
_cell_angle_alpha   90.00000000
_cell_angle_beta   90.00000000
_cell_angle_gamma   108.96213531
_symmetry_Int_Tables_number   1
_chemical_formula_structural   Ca4SO5
_chemical_formula_sum   'Ca4 S1 O5'
_cell_volume   205.88893605
_cell_formula_units_Z   1
loop_
 _symmetry_equiv_pos_site_id
 _symmetry_equiv_pos_as_xyz
  1  'x, y, z'
loop_
 _atom_site_type_symbol
 _atom_site_label
 _atom_site_symmetry_multiplicity
 _atom_site_fract_x
 _atom_site_fract_y
 _atom_site_fract_z
 _atom_site_occupancy
  O  O0  1  0.43004491  0.86009000  0.12357000  1
  O  O1  1  0.56995497  0.13991000  0.62357000  1
  O  O2  1  0.82794492  0.65589000  0.41190900  1
  O  O3  1  0.17205497  0.34411000  0.91190899  1
  S  S4  1  0.13360197  0.26720400  0.24888800  1
  O  O5  1  0.86639791  0.73279600  0.74888799  1
  Ca  Ca6  1  0.54814998  0.09630000  0.36563400  1
  Ca  Ca7  1  0.45184991  0.90370000  0.86563399  1
  Ca  Ca8  1  0.71734094  0.43468200  0.12999900  1
  Ca  Ca9  1  0.28265894  0.56531800  0.62999900  1
