# generated using pymatgen
data_BaF4
_symmetry_space_group_name_H-M   'P 1'
_cell_length_a   4.21187019
_cell_length_b   4.21186972
_cell_length_c   6.46276188
_cell_angle_alpha   90.00000000
_cell_angle_beta   90.00000000
_cell_angle_gamma   120.00000000
_symmetry_Int_Tables_number   1
_chemical_formula_structural   BaF4
_chemical_formula_sum   'Ba1 F4'
_cell_volume   99.28844140
_cell_formula_units_Z   1
loop_
 _symmetry_equiv_pos_site_id
 _symmetry_equiv_pos_as_xyz
  1  'x, y, z'
loop_
 _atom_site_type_symbol
 _atom_site_label
 _atom_site_symmetry_multiplicity
 _atom_site_fract_x
 _atom_site_fract_y
 _atom_site_fract_z
 _atom_site_occupancy
  Ba  Ba0  1  0.00000000  0.00000000  0.00000000  1
  F  F1  1  0.33333328  0.66666664  0.64654701  1
  F  F2  1  0.66666662  0.33333332  0.35345301  1
  F  F3  1  0.33333328  0.66666664  0.25704700  1
  F  F4  1  0.66666662  0.33333332  0.74295301  1
