# generated using pymatgen
data_Au
_symmetry_space_group_name_H-M   'P 1'
_cell_length_a   7.58009005
_cell_length_b   7.75620651
_cell_length_c   7.58009005
_cell_angle_alpha   119.25167084
_cell_angle_beta   90.00000000
_cell_angle_gamma   119.25167084
_symmetry_Int_Tables_number   1
_chemical_formula_structural   Au
_chemical_formula_sum   Au18
_cell_volume   322.12169521
_cell_formula_units_Z   18
loop_
 _symmetry_equiv_pos_site_id
 _symmetry_equiv_pos_as_xyz
  1  'x, y, z'
loop_
 _atom_site_type_symbol
 _atom_site_label
 _atom_site_symmetry_multiplicity
 _atom_site_fract_x
 _atom_site_fract_y
 _atom_site_fract_z
 _atom_site_occupancy
  Au  Au0  1  0.81789800  0.00000000  0.68210200  1
  Au  Au1  1  0.18210200  0.00000000  0.31789800  1
  Au  Au2  1  0.31789800  0.00000000  0.81789800  1
  Au  Au3  1  0.68210200  0.00000000  0.18210200  1
  Au  Au4  1  0.74999995  0.49999997  0.74999995  1
  Au  Au5  1  0.24999996  0.49999997  0.24999996  1
  Au  Au6  1  0.74999995  0.49999997  0.24999996  1
  Au  Au7  1  0.24999996  0.49999997  0.74999995  1
  Au  Au8  1  0.53669597  0.32289098  0.28619497  1
  Au  Au9  1  0.78619597  0.32289298  0.03669697  1
  Au  Au10  1  0.03669597  0.32289198  0.53669597  1
  Au  Au11  1  0.28619597  0.32289198  0.78619597  1
  Au  Au12  1  0.46330394  0.67710896  0.71380494  1
  Au  Au13  1  0.21380394  0.67710696  0.96330294  1
  Au  Au14  1  0.96330394  0.67710796  0.46330394  1
  Au  Au15  1  0.71380394  0.67710796  0.21380394  1
  Au  Au16  1  0.50000000  0.00000000  0.50000000  1
  Au  Au17  1  0.00000000  0.00000000  0.00000000  1
