# generated using pymatgen
data_Rb2MgF7
_symmetry_space_group_name_H-M   'P 1'
_cell_length_a   5.80688238
_cell_length_b   5.80688238
_cell_length_c   5.80688238
_cell_angle_alpha   60.00000000
_cell_angle_beta   60.00000000
_cell_angle_gamma   60.00000000
_symmetry_Int_Tables_number   1
_chemical_formula_structural   Rb2MgF7
_chemical_formula_sum   'Rb2 Mg1 F7'
_cell_volume   138.45673642
_cell_formula_units_Z   1
loop_
 _symmetry_equiv_pos_site_id
 _symmetry_equiv_pos_as_xyz
  1  'x, y, z'
loop_
 _atom_site_type_symbol
 _atom_site_label
 _atom_site_symmetry_multiplicity
 _atom_site_fract_x
 _atom_site_fract_y
 _atom_site_fract_z
 _atom_site_occupancy
  Rb  Rb0  1  0.00000000  0.00000000  0.00000000  1
  Rb  Rb1  1  0.50000001  0.50000001  0.50000001  1
  F  F2  1  0.75000002  0.75000002  0.75000002  1
  Mg  Mg3  1  0.25000001  0.25000001  0.25000001  1
  F  F4  1  0.00028500  0.49971501  0.00028500  1
  F  F5  1  0.49971501  0.49971501  0.00028500  1
  F  F6  1  0.00028500  0.49971501  0.49971501  1
  F  F7  1  0.00028500  0.00028500  0.49971501  1
  F  F8  1  0.49971501  0.00028500  0.00028500  1
  F  F9  1  0.49971501  0.00028500  0.49971501  1
