# generated using pymatgen
data_CsBr4
_symmetry_space_group_name_H-M   'P 1'
_cell_length_a   4.00830793
_cell_length_b   8.05382442
_cell_length_c   11.42832375
_cell_angle_alpha   83.47630310
_cell_angle_beta   79.89997101
_cell_angle_gamma   75.59082031
_symmetry_Int_Tables_number   1
_chemical_formula_structural   CsBr4
_chemical_formula_sum   'Cs2 Br8'
_cell_volume   350.84018355
_cell_formula_units_Z   2
loop_
 _symmetry_equiv_pos_site_id
 _symmetry_equiv_pos_as_xyz
  1  'x, y, z'
loop_
 _atom_site_type_symbol
 _atom_site_label
 _atom_site_symmetry_multiplicity
 _atom_site_fract_x
 _atom_site_fract_y
 _atom_site_fract_z
 _atom_site_occupancy
  Br  Br0  1  0.06953186  0.94753503  0.80411998  1
  Br  Br1  1  0.82118700  0.05246500  0.19588001  1
  Br  Br2  1  0.32027491  0.63899602  0.71392099  1
  Cs  Cs3  1  0.09841489  0.76585503  0.04256100  1
  Br  Br4  1  0.88794889  0.82893803  0.38764501  1
  Cs  Cs5  1  0.90683097  0.23414501  0.95743899  1
  Br  Br6  1  0.67319195  0.36100401  0.28607901  1
  Br  Br7  1  0.10453198  0.17106201  0.61235498  1
  Br  Br8  1  0.37023199  0.05030000  0.18837300  1
  Br  Br9  1  0.60890487  0.94970003  0.81162699  1
