# generated using pymatgen
data_Ba2Au2O9
_symmetry_space_group_name_H-M   'P 1'
_cell_length_a   6.09880829
_cell_length_b   6.09880829
_cell_length_c   6.09880877
_cell_angle_alpha   60.43280029
_cell_angle_beta   60.43280029
_cell_angle_gamma   60.43280411
_symmetry_Int_Tables_number   1
_chemical_formula_structural   Ba2Au2O9
_chemical_formula_sum   'Ba2 Au2 O9'
_cell_volume   161.97542727
_cell_formula_units_Z   1
loop_
 _symmetry_equiv_pos_site_id
 _symmetry_equiv_pos_as_xyz
  1  'x, y, z'
loop_
 _atom_site_type_symbol
 _atom_site_label
 _atom_site_symmetry_multiplicity
 _atom_site_fract_x
 _atom_site_fract_y
 _atom_site_fract_z
 _atom_site_occupancy
  O  O0  1  0.24219500  0.24219500  0.24219502  1
  O  O1  1  0.76144000  0.24756000  0.24756004  1
  O  O2  1  0.23856001  0.75243999  0.75244005  1
  O  O3  1  0.24756001  0.76143999  0.24756004  1
  O  O4  1  0.75244000  0.23856000  0.75244005  1
  O  O5  1  0.75780501  0.75780499  0.75780507  1
  O  O6  1  0.75244001  0.75243999  0.23856005  1
  O  O7  1  0.24756000  0.24756000  0.76144004  1
  Ba  Ba8  1  0.00000000  0.00000000  0.50000002  1
  O  O9  1  0.50000000  0.00000000  1.00000005  1
  Ba  Ba10  1  0.00000001  0.50000000  0.00000001  1
  Au  Au11  1  0.50000001  0.50000000  0.50000004  1
  Au  Au12  1  0.00000000  0.00000000  0.00000000  1
