# generated using pymatgen
data_Ba2LaYbF6
_symmetry_space_group_name_H-M   'P 1'
_cell_length_a   6.08369589
_cell_length_b   6.08369589
_cell_length_c   6.08369589
_cell_angle_alpha   60.00000381
_cell_angle_beta   60.00000381
_cell_angle_gamma   60.00000381
_symmetry_Int_Tables_number   1
_chemical_formula_structural   Ba2LaYbF6
_chemical_formula_sum   'Ba2 La1 Yb1 F6'
_cell_volume   159.21630067
_cell_formula_units_Z   1
loop_
 _symmetry_equiv_pos_site_id
 _symmetry_equiv_pos_as_xyz
  1  'x, y, z'
loop_
 _atom_site_type_symbol
 _atom_site_label
 _atom_site_symmetry_multiplicity
 _atom_site_fract_x
 _atom_site_fract_y
 _atom_site_fract_z
 _atom_site_occupancy
  Ba  Ba0  1  0.74999997  0.74999998  0.75000000  1
  Ba  Ba1  1  0.24999999  0.24999999  0.25000000  1
  La  La2  1  0.00000000  0.00000000  0.00000000  1
  Yb  Yb3  1  0.49999998  0.49999999  0.50000000  1
  F  F4  1  0.22034599  0.77965398  0.77965399  1
  F  F5  1  0.77965397  0.77965398  0.22034601  1
  F  F6  1  0.77965397  0.22034599  0.22034601  1
  F  F7  1  0.22034599  0.77965398  0.22034600  1
  F  F8  1  0.77965397  0.22034599  0.77965400  1
  F  F9  1  0.22034599  0.22034599  0.77965399  1
