# generated using pymatgen
data_BaZnS3
_symmetry_space_group_name_H-M   'P 1'
_cell_length_a   6.08369589
_cell_length_b   6.08369589
_cell_length_c   6.08369589
_cell_angle_alpha   60.00000381
_cell_angle_beta   60.00000381
_cell_angle_gamma   60.00000381
_symmetry_Int_Tables_number   1
_chemical_formula_structural   BaZnS3
_chemical_formula_sum   'Ba2 Zn2 S6'
_cell_volume   159.21630067
_cell_formula_units_Z   2
loop_
 _symmetry_equiv_pos_site_id
 _symmetry_equiv_pos_as_xyz
  1  'x, y, z'
loop_
 _atom_site_type_symbol
 _atom_site_label
 _atom_site_symmetry_multiplicity
 _atom_site_fract_x
 _atom_site_fract_y
 _atom_site_fract_z
 _atom_site_occupancy
  Ba  Ba0  1  0.74999997  0.74999998  0.75000000  1
  Ba  Ba1  1  0.24999999  0.24999999  0.25000000  1
  Zn  Zn2  1  0.00000000  0.00000000  0.00000000  1
  Zn  Zn3  1  0.49999998  0.49999999  0.50000000  1
  S  S4  1  0.22034599  0.77965398  0.77965399  1
  S  S5  1  0.77965397  0.77965398  0.22034601  1
  S  S6  1  0.77965397  0.22034599  0.22034601  1
  S  S7  1  0.22034599  0.77965398  0.22034600  1
  S  S8  1  0.77965397  0.22034599  0.77965400  1
  S  S9  1  0.22034599  0.22034599  0.77965399  1
