# generated using pymatgen
data_ErZnSn3
_symmetry_space_group_name_H-M   'P 1'
_cell_length_a   4.31116295
_cell_length_b   4.31116295
_cell_length_c   5.72836494
_cell_angle_alpha   90.00000000
_cell_angle_beta   90.00000000
_cell_angle_gamma   90.00000000
_symmetry_Int_Tables_number   1
_chemical_formula_structural   ErZnSn3
_chemical_formula_sum   'Er1 Zn1 Sn3'
_cell_volume   106.46811246
_cell_formula_units_Z   1
loop_
 _symmetry_equiv_pos_site_id
 _symmetry_equiv_pos_as_xyz
  1  'x, y, z'
loop_
 _atom_site_type_symbol
 _atom_site_label
 _atom_site_symmetry_multiplicity
 _atom_site_fract_x
 _atom_site_fract_y
 _atom_site_fract_z
 _atom_site_occupancy
  Er  Er0  1  0.00000000  0.00000000  0.00000000  1
  Zn  Zn1  1  0.50000001  0.50000001  0.70960601  1
  Sn  Sn2  1  0.50000001  0.50000001  0.29039400  1
  Sn  Sn3  1  0.50000001  0.00000000  0.50000000  1
  Sn  Sn4  1  0.00000000  0.50000001  0.50000000  1
