# generated using pymatgen
data_Zn
_symmetry_space_group_name_H-M   'P 1'
_cell_length_a   5.49838781
_cell_length_b   6.17479992
_cell_length_c   6.17479992
_cell_angle_alpha   78.56664276
_cell_angle_beta   63.56206894
_cell_angle_gamma   63.56206894
_symmetry_Int_Tables_number   1
_chemical_formula_structural   Zn
_chemical_formula_sum   Zn6
_cell_volume   168.08618430
_cell_formula_units_Z   6
loop_
 _symmetry_equiv_pos_site_id
 _symmetry_equiv_pos_as_xyz
  1  'x, y, z'
loop_
 _atom_site_type_symbol
 _atom_site_label
 _atom_site_symmetry_multiplicity
 _atom_site_fract_x
 _atom_site_fract_y
 _atom_site_fract_z
 _atom_site_occupancy
  Zn  Zn0  1  0.34775999  0.80448000  0.49999998  1
  Zn  Zn1  1  0.84776002  0.50000000  0.80447996  1
  Zn  Zn2  1  0.15223999  0.50000000  0.19551999  1
  Zn  Zn3  1  0.65224002  0.19552000  0.49999997  1
  Zn  Zn4  1  0.50000002  0.00000000  -0.00000001  1
  Zn  Zn5  1  0.00000000  0.00000000  0.00000000  1
