# generated using pymatgen
data_Mo13O5
_symmetry_space_group_name_H-M   'P 1'
_cell_length_a   3.09824204
_cell_length_b   3.09824204
_cell_length_c   22.81363678
_cell_angle_alpha   86.10643768
_cell_angle_beta   86.10643768
_cell_angle_gamma   60.00000000
_symmetry_Int_Tables_number   1
_chemical_formula_structural   Mo13O5
_chemical_formula_sum   'Mo13 O5'
_cell_volume   189.06744029
_cell_formula_units_Z   1
loop_
 _symmetry_equiv_pos_site_id
 _symmetry_equiv_pos_as_xyz
  1  'x, y, z'
loop_
 _atom_site_type_symbol
 _atom_site_label
 _atom_site_symmetry_multiplicity
 _atom_site_fract_x
 _atom_site_fract_y
 _atom_site_fract_z
 _atom_site_occupancy
  O  O0  1  0.88893600  0.88893599  0.33319201  1
  Mo  Mo1  1  0.51851700  0.51851699  0.44444900  1
  Mo  Mo2  1  0.14810400  0.14810400  0.55568800  1
  O  O3  1  0.29620100  0.29620100  0.11139700  1
  O  O4  1  0.59260200  0.59260199  0.22219400  1
  O  O5  1  0.99990600  0.99990599  0.00028201  1
  Mo  Mo6  1  0.44437700  0.44437699  0.66686900  1
  O  O7  1  0.37029300  0.37029300  0.88912100  1
  Mo  Mo8  1  0.74068900  0.74068899  0.77793300  1
  Mo  Mo9  1  0.39813300  0.39813299  0.80560100  1
  Mo  Mo10  1  0.76859900  0.76859899  0.69420300  1
  Mo  Mo11  1  0.32401000  0.32401000  0.02797000  1
  Mo  Mo12  1  0.02782900  0.02782900  0.91651300  1
  Mo  Mo13  1  0.47219500  0.47219499  0.58341500  1
  Mo  Mo14  1  0.91682300  0.91682299  0.24953101  1
  Mo  Mo15  1  0.17603600  0.17603600  0.47189200  1
  Mo  Mo16  1  0.54635600  0.54635599  0.36093200  1
  Mo  Mo17  1  0.62039200  0.62039199  0.13882400  1
