# generated using pymatgen
data_S
_symmetry_space_group_name_H-M   'P 1'
_cell_length_a   5.95092297
_cell_length_b   5.96465921
_cell_length_c   6.00750351
_cell_angle_alpha   111.21504211
_cell_angle_beta   90.00000000
_cell_angle_gamma   90.00000000
_symmetry_Int_Tables_number   1
_chemical_formula_structural   S
_chemical_formula_sum   S12
_cell_volume   198.78633515
_cell_formula_units_Z   12
loop_
 _symmetry_equiv_pos_site_id
 _symmetry_equiv_pos_as_xyz
  1  'x, y, z'
loop_
 _atom_site_type_symbol
 _atom_site_label
 _atom_site_symmetry_multiplicity
 _atom_site_fract_x
 _atom_site_fract_y
 _atom_site_fract_z
 _atom_site_occupancy
  S  S0  1  0.12634200  0.35096899  0.62857101  1
  S  S1  1  0.87365800  0.64903099  0.37142902  1
  S  S2  1  0.62634200  0.64903099  0.87142902  1
  S  S3  1  0.37365800  0.35096899  0.12857101  1
  S  S4  1  0.50542600  0.21567400  0.70374500  1
  S  S5  1  0.49457400  0.78432598  0.29625503  1
  S  S6  1  0.00542600  0.78432598  0.79625502  1
  S  S7  1  0.99457401  0.21567400  0.20374501  1
  S  S8  1  0.87234200  0.15715100  0.81582400  1
  S  S9  1  0.12765800  0.84284898  0.18417603  1
  S  S10  1  0.37234200  0.84284898  0.68417603  1
  S  S11  1  0.62765800  0.15715100  0.31582400  1
