# generated using pymatgen
data_KS2
_symmetry_space_group_name_H-M   'P 1'
_cell_length_a   7.18989611
_cell_length_b   8.15115643
_cell_length_c   8.15115547
_cell_angle_alpha   120.00000000
_cell_angle_beta   90.00000000
_cell_angle_gamma   90.00000000
_symmetry_Int_Tables_number   1
_chemical_formula_structural   KS2
_chemical_formula_sum   'K3 S6'
_cell_volume   413.70583942
_cell_formula_units_Z   3
loop_
 _symmetry_equiv_pos_site_id
 _symmetry_equiv_pos_as_xyz
  1  'x, y, z'
loop_
 _atom_site_type_symbol
 _atom_site_label
 _atom_site_symmetry_multiplicity
 _atom_site_fract_x
 _atom_site_fract_y
 _atom_site_fract_z
 _atom_site_occupancy
  K  K0  1  0.49999999  0.66666663  0.33333334  1
  K  K1  1  0.49999999  0.33333331  0.66666669  1
  K  K2  1  0.00000000  0.00000000  0.00000000  1
  S  S3  1  0.24216400  0.00000000  0.67105103  1
  S  S4  1  0.75783599  0.00000000  0.32894902  1
  S  S5  1  0.24216400  0.67105096  -0.00000001  1
  S  S6  1  0.75783599  0.32894898  1.00000004  1
  S  S7  1  0.75783599  0.67105096  0.67105102  1
  S  S8  1  0.24216400  0.32894898  0.32894901  1
