# generated using pymatgen
data_O2
_symmetry_space_group_name_H-M   'P 1'
_cell_length_a   6.28989983
_cell_length_b   6.59723139
_cell_length_c   7.36381531
_cell_angle_alpha   77.36592102
_cell_angle_beta   80.01636505
_cell_angle_gamma   75.91354370
_symmetry_Int_Tables_number   1
_chemical_formula_structural   O2
_chemical_formula_sum   O14
_cell_volume   286.86427542
_cell_formula_units_Z   7
loop_
 _symmetry_equiv_pos_site_id
 _symmetry_equiv_pos_as_xyz
  1  'x, y, z'
loop_
 _atom_site_type_symbol
 _atom_site_label
 _atom_site_symmetry_multiplicity
 _atom_site_fract_x
 _atom_site_fract_y
 _atom_site_fract_z
 _atom_site_occupancy
  O  O0  1  0.16375799  0.71565403  0.56258698  1
  O  O1  1  0.83624201  0.28434601  0.43741302  1
  O  O2  1  0.68020300  0.83633103  0.39296198  1
  O  O3  1  0.31979700  0.16366901  0.60703801  1
  O  O4  1  0.97506901  0.83127703  0.39260099  1
  O  O5  1  0.02493100  0.16872301  0.60739900  1
  O  O6  1  0.38067899  0.87377103  0.53683998  1
  O  O7  1  0.61932101  0.12622900  0.46316002  1
  O  O8  1  0.02365099  0.70234403  0.76815098  1
  O  O9  1  0.97634902  0.29765601  0.23184902  1
  O  O10  1  0.64057500  0.88183503  0.17767198  1
  O  O11  1  0.35942501  0.11816500  0.82232802  1
  O  O12  1  0.28586500  0.45316002  0.52552399  1
  O  O13  1  0.71413501  0.54684002  0.47447600  1
