# generated using pymatgen
data_Yb5Ni
_symmetry_space_group_name_H-M   'P 1'
_cell_length_a   4.01993513
_cell_length_b   4.85812998
_cell_length_c   4.85812998
_cell_angle_alpha   118.45558929
_cell_angle_beta   90.00000000
_cell_angle_gamma   90.00000000
_symmetry_Int_Tables_number   1
_chemical_formula_structural   Yb5Ni
_chemical_formula_sum   'Yb5 Ni1'
_cell_volume   83.41389771
_cell_formula_units_Z   1
loop_
 _symmetry_equiv_pos_site_id
 _symmetry_equiv_pos_as_xyz
  1  'x, y, z'
loop_
 _atom_site_type_symbol
 _atom_site_label
 _atom_site_symmetry_multiplicity
 _atom_site_fract_x
 _atom_site_fract_y
 _atom_site_fract_z
 _atom_site_occupancy
  Yb  Yb0  1  -0.00000000  0.49999997  0.49999996  1
  Yb  Yb1  1  0.49999998  0.00000000  -0.00000000  1
  Yb  Yb2  1  0.99999997  0.83351495  0.16648495  1
  Ni  Ni3  1  -0.00000000  0.16648499  0.83351497  1
  Yb  Yb4  1  0.49999998  0.49999997  0.99999994  1
  Yb  Yb5  1  0.49999998  0.00000000  0.49999998  1
