# generated using pymatgen
data_Au
_symmetry_space_group_name_H-M   'P 1'
_cell_length_a   5.85245609
_cell_length_b   6.99692392
_cell_length_c   6.99692297
_cell_angle_alpha   120.00000763
_cell_angle_beta   90.00000000
_cell_angle_gamma   90.00000000
_symmetry_Int_Tables_number   1
_chemical_formula_structural   Au
_chemical_formula_sum   Au8
_cell_volume   248.13213200
_cell_formula_units_Z   8
loop_
 _symmetry_equiv_pos_site_id
 _symmetry_equiv_pos_as_xyz
  1  'x, y, z'
loop_
 _atom_site_type_symbol
 _atom_site_label
 _atom_site_symmetry_multiplicity
 _atom_site_fract_x
 _atom_site_fract_y
 _atom_site_fract_z
 _atom_site_occupancy
  Au  Au0  1  0.74999999  0.82749204  0.17250807  1
  Au  Au1  1  0.74999999  0.34501602  0.17250803  1
  Au  Au2  1  0.74999999  0.82749204  0.65498408  1
  Au  Au3  1  0.25000000  0.17250801  0.82749204  1
  Au  Au4  1  0.25000000  0.65498403  0.82749208  1
  Au  Au5  1  0.25000000  0.17250801  0.34501602  1
  Au  Au6  1  0.25000000  0.66666670  0.33333340  1
  Au  Au7  1  0.74999999  0.33333335  0.66666671  1
