# generated using pymatgen
data_BaS12O
_symmetry_space_group_name_H-M   'P 1'
_cell_length_a   7.13183832
_cell_length_b   7.13183832
_cell_length_c   7.74915171
_cell_angle_alpha   62.60198593
_cell_angle_beta   62.60198593
_cell_angle_gamma   59.99999619
_symmetry_Int_Tables_number   1
_chemical_formula_structural   BaS12O
_chemical_formula_sum   'Ba1 S12 O1'
_cell_volume   289.16579573
_cell_formula_units_Z   1
loop_
 _symmetry_equiv_pos_site_id
 _symmetry_equiv_pos_as_xyz
  1  'x, y, z'
loop_
 _atom_site_type_symbol
 _atom_site_label
 _atom_site_symmetry_multiplicity
 _atom_site_fract_x
 _atom_site_fract_y
 _atom_site_fract_z
 _atom_site_occupancy
  O  O0  1  0.91122304  0.31632601  0.14102997  1
  S  S1  1  0.68367403  0.36857901  0.85896999  1
  S  S2  1  0.63142104  0.91122302  0.14102996  1
  S  S3  1  0.36857901  0.08877700  0.85897001  1
  S  S4  1  0.31632603  0.63142101  0.14102997  1
  S  S5  1  0.08877702  0.68367401  0.85897000  1
  S  S6  1  0.83032005  0.83032002  0.50903996  1
  S  S7  1  0.16968001  0.16968000  0.49096000  1
  S  S8  1  0.95695205  0.57768401  0.23878296  1
  S  S9  1  0.77341903  0.04304800  0.76121700  1
  Ba  Ba10  1  0.57768402  0.22658100  0.23878298  1
  S  S11  1  0.42231603  0.77341902  0.76121698  1
  S  S12  1  0.22658103  0.95695202  0.23878297  1
  S  S13  1  0.04304801  0.42231601  0.76121700  1
