# generated using pymatgen
data_Zn
_symmetry_space_group_name_H-M   'P 1'
_cell_length_a   4.19198847
_cell_length_b   4.19198847
_cell_length_c   7.72425222
_cell_angle_alpha   74.25523376
_cell_angle_beta   74.25523376
_cell_angle_gamma   59.99998856
_symmetry_Int_Tables_number   1
_chemical_formula_structural   Zn
_chemical_formula_sum   Zn4
_cell_volume   111.63182397
_cell_formula_units_Z   4
loop_
 _symmetry_equiv_pos_site_id
 _symmetry_equiv_pos_as_xyz
  1  'x, y, z'
loop_
 _atom_site_type_symbol
 _atom_site_label
 _atom_site_symmetry_multiplicity
 _atom_site_fract_x
 _atom_site_fract_y
 _atom_site_fract_z
 _atom_site_occupancy
  Zn  Zn0  1  0.00000000  0.00000000  0.00000000  1
  Zn  Zn1  1  0.50000001  0.50000003  0.50000003  1
  Zn  Zn2  1  0.73594201  0.73594204  0.79217404  1
  Zn  Zn3  1  0.26405800  0.26405801  0.20782601  1
