# generated using pymatgen
data_EuAu9
_symmetry_space_group_name_H-M   'P 1'
_cell_length_a   6.96736526
_cell_length_b   6.96736526
_cell_length_c   6.96736526
_cell_angle_alpha   89.46089935
_cell_angle_beta   60.31076050
_cell_angle_gamma   119.68923950
_symmetry_Int_Tables_number   1
_chemical_formula_structural   EuAu9
_chemical_formula_sum   'Eu1 Au9'
_cell_volume   240.27306683
_cell_formula_units_Z   1
loop_
 _symmetry_equiv_pos_site_id
 _symmetry_equiv_pos_as_xyz
  1  'x, y, z'
loop_
 _atom_site_type_symbol
 _atom_site_label
 _atom_site_symmetry_multiplicity
 _atom_site_fract_x
 _atom_site_fract_y
 _atom_site_fract_z
 _atom_site_occupancy
  Au  Au0  1  0.49999997  0.74999997  0.74999998  1
  Eu  Eu1  1  0.49999998  0.24999999  0.25000000  1
  Au  Au2  1  -0.00000001  0.49999998  0.49999998  1
  Au  Au3  1  0.00000000  0.00000000  0.00000000  1
  Au  Au4  1  0.69009595  0.99999996  0.30990399  1
  Au  Au5  1  0.69009596  0.69009597  0.99999997  1
  Au  Au6  1  0.30990398  0.30990399  0.99999997  1
  Au  Au7  1  0.30990397  0.99999996  0.69009597  1
  Au  Au8  1  -0.00000001  0.76781197  0.23218798  1
  Au  Au9  1  -0.00000000  0.23218799  0.76781197  1
