# generated using pymatgen
data_O3F5
_symmetry_space_group_name_H-M   'P 1'
_cell_length_a   4.43319798
_cell_length_b   4.43319798
_cell_length_c   4.43319798
_cell_angle_alpha   90.00000000
_cell_angle_beta   90.00000000
_cell_angle_gamma   90.00000000
_symmetry_Int_Tables_number   1
_chemical_formula_structural   O3F5
_chemical_formula_sum   'O3 F5'
_cell_volume   87.12672278
_cell_formula_units_Z   1
loop_
 _symmetry_equiv_pos_site_id
 _symmetry_equiv_pos_as_xyz
  1  'x, y, z'
loop_
 _atom_site_type_symbol
 _atom_site_label
 _atom_site_symmetry_multiplicity
 _atom_site_fract_x
 _atom_site_fract_y
 _atom_site_fract_z
 _atom_site_occupancy
  O  O0  1  0.85490000  0.64510000  0.35490000  1
  O  O1  1  0.64510000  0.35490000  0.85490000  1
  O  O2  1  0.35490000  0.85490000  0.64510000  1
  F  F3  1  0.14510000  0.14510000  0.14510000  1
  F  F4  1  0.15680400  0.34319600  0.65680400  1
  F  F5  1  0.34319600  0.65680400  0.15680400  1
  F  F6  1  0.65680400  0.15680400  0.34319600  1
  F  F7  1  0.84319600  0.84319600  0.84319600  1
