# generated using pymatgen
data_Ca4SO5
_symmetry_space_group_name_H-M   'P 1'
_cell_length_a   3.59334993
_cell_length_b   5.55127287
_cell_length_c   10.96055984
_cell_angle_alpha   90.00000000
_cell_angle_beta   90.00000000
_cell_angle_gamma   108.88386536
_symmetry_Int_Tables_number   1
_chemical_formula_structural   Ca4SO5
_chemical_formula_sum   'Ca4 S1 O5'
_cell_volume   206.86975491
_cell_formula_units_Z   1
loop_
 _symmetry_equiv_pos_site_id
 _symmetry_equiv_pos_as_xyz
  1  'x, y, z'
loop_
 _atom_site_type_symbol
 _atom_site_label
 _atom_site_symmetry_multiplicity
 _atom_site_fract_x
 _atom_site_fract_y
 _atom_site_fract_z
 _atom_site_occupancy
  O  O0  1  0.17172799  0.34345599  0.90590001  1
  S  S1  1  0.82827199  0.65654398  0.40590001  1
  O  O2  1  0.43091998  0.86183998  0.12264700  1
  O  O3  1  0.56908001  0.13816000  0.62264701  1
  O  O4  1  0.86541799  0.73083598  0.74602701  1
  O  O5  1  0.13458199  0.26916399  0.24602700  1
  Ca  Ca6  1  0.55182801  0.10365600  0.36326001  1
  Ca  Ca7  1  0.44817198  0.89634398  0.86326001  1
  Ca  Ca8  1  0.71713400  0.43426799  0.12816700  1
  Ca  Ca9  1  0.28286599  0.56573199  0.62816701  1
