# generated using pymatgen
data_Zn2O5
_symmetry_space_group_name_H-M   'P 1'
_cell_length_a   3.87273002
_cell_length_b   4.06094599
_cell_length_c   6.82690477
_cell_angle_alpha   90.72547150
_cell_angle_beta   106.47740936
_cell_angle_gamma   90.00000000
_symmetry_Int_Tables_number   1
_chemical_formula_structural   Zn2O5
_chemical_formula_sum   'Zn2 O5'
_cell_volume   102.94803669
_cell_formula_units_Z   1
loop_
 _symmetry_equiv_pos_site_id
 _symmetry_equiv_pos_as_xyz
  1  'x, y, z'
loop_
 _atom_site_type_symbol
 _atom_site_label
 _atom_site_symmetry_multiplicity
 _atom_site_fract_x
 _atom_site_fract_y
 _atom_site_fract_z
 _atom_site_occupancy
  Zn  Zn0  1  0.85383998  0.93278400  0.70767997  1
  Zn  Zn1  1  0.14616000  0.06721600  0.29232000  1
  O  O2  1  0.85241698  0.48936600  0.70483398  1
  O  O3  1  0.14758299  0.51063400  0.29516599  1
  O  O4  1  0.00000000  0.00000000  0.00000000  1
  O  O5  1  0.68503299  0.00308500  0.37006599  1
  O  O6  1  0.31496698  0.99691501  0.62993398  1
