# generated using pymatgen
data_TiO
_symmetry_space_group_name_H-M   'P 1'
_cell_length_a   3.00287199
_cell_length_b   3.00287199
_cell_length_c   12.37434101
_cell_angle_alpha   83.03086090
_cell_angle_beta   83.03086090
_cell_angle_gamma   60.00000000
_symmetry_Int_Tables_number   1
_chemical_formula_structural   TiO
_chemical_formula_sum   'Ti5 O5'
_cell_volume   95.68006695
_cell_formula_units_Z   5
loop_
 _symmetry_equiv_pos_site_id
 _symmetry_equiv_pos_as_xyz
  1  'x, y, z'
loop_
 _atom_site_type_symbol
 _atom_site_label
 _atom_site_symmetry_multiplicity
 _atom_site_fract_x
 _atom_site_fract_y
 _atom_site_fract_z
 _atom_site_occupancy
  Ti  Ti0  1  0.00000000  0.00000000  0.00000000  1
  Ti  Ti1  1  0.59977598  0.59977600  0.20067199  1
  Ti  Ti2  1  0.20000099  0.20000100  0.39999700  1
  Ti  Ti3  1  0.79999898  0.79999900  0.60000298  1
  Ti  Ti4  1  0.40022399  0.40022400  0.79932799  1
  O  O5  1  0.70075098  0.70075100  0.89774698  1
  O  O6  1  0.10002100  0.10002100  0.69993700  1
  O  O7  1  0.49999999  0.50000000  0.49999999  1
  O  O8  1  0.29924899  0.29924900  0.10225299  1
  O  O9  1  0.89997898  0.89997900  0.30006298  1
