# generated using pymatgen
data_Ba2O5
_symmetry_space_group_name_H-M   'P 1'
_cell_length_a   6.09396219
_cell_length_b   6.09396315
_cell_length_c   7.89025879
_cell_angle_alpha   90.00000000
_cell_angle_beta   90.00000000
_cell_angle_gamma   119.99999237
_symmetry_Int_Tables_number   1
_chemical_formula_structural   Ba2O5
_chemical_formula_sum   'Ba4 O10'
_cell_volume   253.75902192
_cell_formula_units_Z   2
loop_
 _symmetry_equiv_pos_site_id
 _symmetry_equiv_pos_as_xyz
  1  'x, y, z'
loop_
 _atom_site_type_symbol
 _atom_site_label
 _atom_site_symmetry_multiplicity
 _atom_site_fract_x
 _atom_site_fract_y
 _atom_site_fract_z
 _atom_site_occupancy
  Ba  Ba0  1  0.33333329  0.66666663  0.68699002  1
  Ba  Ba1  1  0.66666663  0.33333331  0.31301001  1
  Ba  Ba2  1  0.00000000  0.00000000  0.00000000  1
  Ba  Ba3  1  0.00000000  0.00000000  0.50000001  1
  O  O4  1  0.33333329  0.66666663  0.25054501  1
  O  O5  1  0.66666663  0.33333331  0.74945502  1
  O  O6  1  0.33333329  0.66666663  0.03753700  1
  O  O7  1  0.66666663  0.33333331  0.96246303  1
  O  O8  1  0.17587095  0.82412895  0.32870301  1
  O  O9  1  0.82412897  0.17587099  0.67129702  1
  O  O10  1  0.17587098  0.35174198  0.32870301  1
  O  O11  1  0.82412894  0.64825796  0.67129702  1
  O  O12  1  0.64825794  0.82412895  0.32870301  1
  O  O13  1  0.35174198  0.17587099  0.67129702  1
