# generated using pymatgen
data_TmNiOF2
_symmetry_space_group_name_H-M   'P 1'
_cell_length_a   3.16252208
_cell_length_b   3.16252208
_cell_length_c   4.73215055
_cell_angle_alpha   84.35951996
_cell_angle_beta   84.35951996
_cell_angle_gamma   60.04870605
_symmetry_Int_Tables_number   1
_chemical_formula_structural   TmNiOF2
_chemical_formula_sum   'Tm1 Ni1 O1 F2'
_cell_volume   40.74298087
_cell_formula_units_Z   1
loop_
 _symmetry_equiv_pos_site_id
 _symmetry_equiv_pos_as_xyz
  1  'x, y, z'
loop_
 _atom_site_type_symbol
 _atom_site_label
 _atom_site_symmetry_multiplicity
 _atom_site_fract_x
 _atom_site_fract_y
 _atom_site_fract_z
 _atom_site_occupancy
  F  F0  1  0.04845996  0.95153999  0.00000001  1
  O  O1  1  0.39085998  0.21979200  0.42067298  1
  Tm  Tm2  1  0.78020795  0.60913999  0.57932698  1
  Ni  Ni3  1  0.35903098  0.26160700  0.21657699  1
  F  F4  1  0.73839295  0.64096899  0.78342297  1
