# generated using pymatgen
data_BaH4
_symmetry_space_group_name_H-M   'P 1'
_cell_length_a   4.10516787
_cell_length_b   4.10516787
_cell_length_c   7.16718102
_cell_angle_alpha   106.64174652
_cell_angle_beta   106.64174652
_cell_angle_gamma   90.00000000
_symmetry_Int_Tables_number   1
_chemical_formula_structural   BaH4
_chemical_formula_sum   'Ba1 H4'
_cell_volume   110.43440409
_cell_formula_units_Z   1
loop_
 _symmetry_equiv_pos_site_id
 _symmetry_equiv_pos_as_xyz
  1  'x, y, z'
loop_
 _atom_site_type_symbol
 _atom_site_label
 _atom_site_symmetry_multiplicity
 _atom_site_fract_x
 _atom_site_fract_y
 _atom_site_fract_z
 _atom_site_occupancy
  H  H0  1  0.65967703  0.65967703  0.31935402  1
  H  H1  1  0.34032302  0.34032301  0.68064600  1
  Ba  Ba2  1  0.00000000  0.00000000  0.00000000  1
  H  H3  1  0.75000003  0.25000001  0.50000001  1
  H  H4  1  0.25000002  0.75000003  0.50000001  1
