# generated using pymatgen
data_OF7
_symmetry_space_group_name_H-M   'P 1'
_cell_length_a   3.77963996
_cell_length_b   5.97282362
_cell_length_c   5.98051310
_cell_angle_alpha   90.00000000
_cell_angle_beta   90.00000000
_cell_angle_gamma   108.44554138
_symmetry_Int_Tables_number   1
_chemical_formula_structural   OF7
_chemical_formula_sum   'O1 F7'
_cell_volume   128.07461252
_cell_formula_units_Z   1
loop_
 _symmetry_equiv_pos_site_id
 _symmetry_equiv_pos_as_xyz
  1  'x, y, z'
loop_
 _atom_site_type_symbol
 _atom_site_label
 _atom_site_symmetry_multiplicity
 _atom_site_fract_x
 _atom_site_fract_y
 _atom_site_fract_z
 _atom_site_occupancy
  F  F0  1  0.71261904  0.42523802  0.74999999  1
  F  F1  1  0.28738105  0.57476203  0.25000000  1
  F  F2  1  0.00330000  0.00660000  0.25000000  1
  O  O3  1  0.99670009  0.99340005  0.74999999  1
  F  F4  1  0.12219902  0.24439801  0.50674299  1
  F  F5  1  0.87780107  0.75560204  0.49325699  1
  F  F6  1  0.12219902  0.24439801  0.99325698  1
  F  F7  1  0.87780107  0.75560204  0.00674300  1
