# generated using pymatgen
data_Si
_symmetry_space_group_name_H-M   'P 1'
_cell_length_a   3.85766602
_cell_length_b   3.85770106
_cell_length_c   12.05840683
_cell_angle_alpha   90.00004578
_cell_angle_beta   89.99996948
_cell_angle_gamma   89.99420929
_symmetry_Int_Tables_number   1
_chemical_formula_structural   Si
_chemical_formula_sum   Si13
_cell_volume   179.44986078
_cell_formula_units_Z   13
loop_
 _symmetry_equiv_pos_site_id
 _symmetry_equiv_pos_as_xyz
  1  'x, y, z'
loop_
 _atom_site_type_symbol
 _atom_site_label
 _atom_site_symmetry_multiplicity
 _atom_site_fract_x
 _atom_site_fract_y
 _atom_site_fract_z
 _atom_site_occupancy
  Si  Si0  1  0.50000001  0.49999999  0.78912303  1
  Si  Si1  1  0.49999901  0.49999999  0.21089202  1
  Si  Si2  1  0.50000201  0.49999899  0.49999702  1
  Si  Si3  1  0.99999700  0.00000000  0.00000702  1
  Si  Si4  1  0.00000003  0.99999798  0.64942702  1
  Si  Si5  1  0.00000000  0.00000100  0.35056600  1
  Si  Si6  1  0.00000102  0.49999899  0.62016001  1
  Si  Si7  1  0.50000203  0.99999898  0.62015403  1
  Si  Si8  1  0.00000102  0.49999999  0.37983001  1
  Si  Si9  1  0.50000003  0.99999898  0.37983702  1
  Si  Si10  1  0.00000100  0.00000500  0.81970401  1
  Si  Si11  1  0.99999603  0.99999998  0.18030003  1
  Si  Si12  1  0.49999901  0.49999999  0.00000401  1
