# generated using pymatgen
data_Li11SO
_symmetry_space_group_name_H-M   'P 1'
_cell_length_a   3.85766602
_cell_length_b   3.85770106
_cell_length_c   12.05840683
_cell_angle_alpha   90.00004578
_cell_angle_beta   89.99996948
_cell_angle_gamma   89.99420929
_symmetry_Int_Tables_number   1
_chemical_formula_structural   Li11SO
_chemical_formula_sum   'Li11 S1 O1'
_cell_volume   179.44986078
_cell_formula_units_Z   1
loop_
 _symmetry_equiv_pos_site_id
 _symmetry_equiv_pos_as_xyz
  1  'x, y, z'
loop_
 _atom_site_type_symbol
 _atom_site_label
 _atom_site_symmetry_multiplicity
 _atom_site_fract_x
 _atom_site_fract_y
 _atom_site_fract_z
 _atom_site_occupancy
  Li  Li0  1  0.50000001  0.49999999  0.78912303  1
  Li  Li1  1  0.49999901  0.49999999  0.21089202  1
  S  S2  1  0.50000201  0.49999899  0.49999702  1
  O  O3  1  0.99999700  0.00000000  0.00000702  1
  Li  Li4  1  0.00000003  0.99999798  0.64942702  1
  Li  Li5  1  0.00000000  0.00000100  0.35056600  1
  Li  Li6  1  0.00000102  0.49999899  0.62016001  1
  Li  Li7  1  0.50000203  0.99999898  0.62015403  1
  Li  Li8  1  0.00000102  0.49999999  0.37983001  1
  Li  Li9  1  0.50000003  0.99999898  0.37983702  1
  Li  Li10  1  0.00000100  0.00000500  0.81970401  1
  Li  Li11  1  0.99999603  0.99999998  0.18030003  1
  Li  Li12  1  0.49999901  0.49999999  0.00000401  1
