# generated using pymatgen
data_BaLaSi4
_symmetry_space_group_name_H-M   'P 1'
_cell_length_a   4.32492781
_cell_length_b   5.68884134
_cell_length_c   5.78704453
_cell_angle_alpha   73.84445953
_cell_angle_beta   68.05766296
_cell_angle_gamma   67.65864563
_symmetry_Int_Tables_number   1
_chemical_formula_structural   BaLaSi4
_chemical_formula_sum   'Ba1 La1 Si4'
_cell_volume   120.60631579
_cell_formula_units_Z   1
loop_
 _symmetry_equiv_pos_site_id
 _symmetry_equiv_pos_as_xyz
  1  'x, y, z'
loop_
 _atom_site_type_symbol
 _atom_site_label
 _atom_site_symmetry_multiplicity
 _atom_site_fract_x
 _atom_site_fract_y
 _atom_site_fract_z
 _atom_site_occupancy
  La  La0  1  0.54747596  0.70559702  0.19945102  1
  Ba  Ba1  1  0.45252399  0.29440301  0.80054902  1
  Si  Si2  1  0.16348298  0.28838201  0.38465201  1
  Si  Si3  1  0.83651697  0.71161802  0.61534803  1
  Si  Si4  1  0.83633102  0.11912400  0.20821401  1
  Si  Si5  1  0.16366893  0.88087602  0.79178602  1
