# generated using pymatgen
data_CsO2
_symmetry_space_group_name_H-M   'P 1'
_cell_length_a   7.15134811
_cell_length_b   7.51832342
_cell_length_c   7.15134811
_cell_angle_alpha   61.60192871
_cell_angle_beta   90.00000000
_cell_angle_gamma   118.39807129
_symmetry_Int_Tables_number   1
_chemical_formula_structural   CsO2
_chemical_formula_sum   'Cs4 O8'
_cell_volume   284.53540738
_cell_formula_units_Z   4
loop_
 _symmetry_equiv_pos_site_id
 _symmetry_equiv_pos_as_xyz
  1  'x, y, z'
loop_
 _atom_site_type_symbol
 _atom_site_label
 _atom_site_symmetry_multiplicity
 _atom_site_fract_x
 _atom_site_fract_y
 _atom_site_fract_z
 _atom_site_occupancy
  Cs  Cs0  1  0.50000002  1.00000006  0.49999996  1
  Cs  Cs1  1  0.00000000  0.00000000  0.00000000  1
  Cs  Cs2  1  0.00000000  0.00000000  0.49999999  1
  Cs  Cs3  1  0.50000002  1.00000006  -0.00000003  1
  O  O4  1  0.47788000  0.23617301  0.74170698  1
  O  O5  1  0.24170702  0.76382704  0.97787996  1
  O  O6  1  0.52212001  0.76382704  0.25829297  1
  O  O7  1  0.02212002  0.76382704  0.47787997  1
  O  O8  1  0.75829299  0.23617301  0.02211999  1
  O  O9  1  0.25829300  0.23617301  0.24170699  1
  O  O10  1  0.97787999  0.23617301  0.52211998  1
  O  O11  1  0.74170701  0.76382704  0.75829297  1
