# generated using pymatgen
data_BaYb8
_symmetry_space_group_name_H-M   'P 1'
_cell_length_a   4.44173384
_cell_length_b   7.29884005
_cell_length_c   7.29884005
_cell_angle_alpha   120.00000000
_cell_angle_beta   90.00000000
_cell_angle_gamma   90.00000000
_symmetry_Int_Tables_number   1
_chemical_formula_structural   BaYb8
_chemical_formula_sum   'Ba1 Yb8'
_cell_volume   204.92307059
_cell_formula_units_Z   1
loop_
 _symmetry_equiv_pos_site_id
 _symmetry_equiv_pos_as_xyz
  1  'x, y, z'
loop_
 _atom_site_type_symbol
 _atom_site_label
 _atom_site_symmetry_multiplicity
 _atom_site_fract_x
 _atom_site_fract_y
 _atom_site_fract_z
 _atom_site_occupancy
  Yb  Yb0  1  0.50000002  0.00000000  0.57393801  1
  Yb  Yb1  1  0.50000002  0.57393800  0.00000001  1
  Ba  Ba2  1  0.50000002  0.42606200  0.42606201  1
  Yb  Yb3  1  1.00000004  0.00000000  0.24355800  1
  Yb  Yb4  1  1.00000004  0.24355800  0.00000000  1
  Yb  Yb5  1  1.00000004  0.75644200  0.75644202  1
  Yb  Yb6  1  1.00000004  0.66666667  0.33333334  1
  Yb  Yb7  1  1.00000004  0.33333333  0.66666668  1
  Yb  Yb8  1  0.50000002  0.00000000  -0.00000000  1
