# generated using pymatgen
data_BaTeO8
_symmetry_space_group_name_H-M   'P 1'
_cell_length_a   4.49373579
_cell_length_b   7.05013895
_cell_length_c   10.31926537
_cell_angle_alpha   90.00000000
_cell_angle_beta   90.00000000
_cell_angle_gamma   98.54683685
_symmetry_Int_Tables_number   1
_chemical_formula_structural   BaTeO8
_chemical_formula_sum   'Ba2 Te2 O16'
_cell_volume   323.29876320
_cell_formula_units_Z   2
loop_
 _symmetry_equiv_pos_site_id
 _symmetry_equiv_pos_as_xyz
  1  'x, y, z'
loop_
 _atom_site_type_symbol
 _atom_site_label
 _atom_site_symmetry_multiplicity
 _atom_site_fract_x
 _atom_site_fract_y
 _atom_site_fract_z
 _atom_site_occupancy
  Ba  Ba0  1  0.65741704  0.08527500  0.81447097  1
  Te  Te1  1  0.34258310  0.91472499  0.18552899  1
  Te  Te2  1  0.84258308  0.41472500  0.31447099  1
  Ba  Ba3  1  0.15741706  0.58527499  0.68552898  1
  O  O4  1  0.38645304  0.21230300  0.54849498  1
  O  O5  1  0.61354710  0.78769699  0.45150498  1
  O  O6  1  0.11354703  0.28769700  0.04849500  1
  O  O7  1  0.88645311  0.71230299  0.95150497  1
  O  O8  1  0.62055606  0.33032500  0.58168598  1
  O  O9  1  0.37944408  0.66967499  0.41831399  1
  O  O10  1  0.87944406  0.16967500  0.08168600  1
  O  O11  1  0.12055608  0.83032499  0.91831397  1
  O  O12  1  0.32501103  0.17887200  0.42878698  1
  O  O13  1  0.67498911  0.82112799  0.57121298  1
  O  O14  1  0.17498904  0.32112800  0.92878697  1
  O  O15  1  0.82501110  0.67887199  0.07121300  1
  O  O16  1  0.21240202  0.13285800  0.63808598  1
  O  O17  1  0.78759812  0.86714199  0.36191399  1
  O  O18  1  0.28759805  0.36714200  0.13808600  1
  O  O19  1  0.71240209  0.63285799  0.86191397  1
