# generated using pymatgen
data_AlF3
_symmetry_space_group_name_H-M   'P 1'
_cell_length_a   3.73493600
_cell_length_b   3.73493552
_cell_length_c   10.41954422
_cell_angle_alpha   90.00000000
_cell_angle_beta   90.00000000
_cell_angle_gamma   120.00000000
_symmetry_Int_Tables_number   1
_chemical_formula_structural   AlF3
_chemical_formula_sum   'Al2 F6'
_cell_volume   125.87678057
_cell_formula_units_Z   2
loop_
 _symmetry_equiv_pos_site_id
 _symmetry_equiv_pos_as_xyz
  1  'x, y, z'
loop_
 _atom_site_type_symbol
 _atom_site_label
 _atom_site_symmetry_multiplicity
 _atom_site_fract_x
 _atom_site_fract_y
 _atom_site_fract_z
 _atom_site_occupancy
  Al  Al0  1  0.33333329  0.66666666  0.49219399  1
  F  F1  1  0.66666664  0.33333333  0.99219398  1
  F  F2  1  0.00000000  0.00000000  0.31841899  1
  F  F3  1  0.00000000  0.00000000  0.81841898  1
  Al  Al4  1  0.33333329  0.66666666  0.15574000  1
  F  F5  1  0.66666664  0.33333333  0.65573999  1
  F  F6  1  0.00000000  0.00000000  0.41323599  1
  F  F7  1  0.00000000  0.00000000  0.91323598  1
