# generated using pymatgen
data_CaF9
_symmetry_space_group_name_H-M   'P 1'
_cell_length_a   6.35920811
_cell_length_b   6.35920811
_cell_length_c   6.94430208
_cell_angle_alpha   62.75010681
_cell_angle_beta   62.75010681
_cell_angle_gamma   60.00000000
_symmetry_Int_Tables_number   1
_chemical_formula_structural   CaF9
_chemical_formula_sum   'Ca1 F9'
_cell_volume   206.43030853
_cell_formula_units_Z   1
loop_
 _symmetry_equiv_pos_site_id
 _symmetry_equiv_pos_as_xyz
  1  'x, y, z'
loop_
 _atom_site_type_symbol
 _atom_site_label
 _atom_site_symmetry_multiplicity
 _atom_site_fract_x
 _atom_site_fract_y
 _atom_site_fract_z
 _atom_site_occupancy
  Ca  Ca0  1  0.00000000  0.00000000  0.00000000  1
  F  F1  1  0.49999999  0.49999999  0.50000002  1
  F  F2  1  0.67609498  0.67609499  0.97171504  1
  F  F3  1  0.32390499  0.32390499  0.02828500  1
  F  F4  1  0.09583299  0.73792399  0.76249203  1
  F  F5  1  0.73792398  0.40375099  0.76249203  1
  F  F6  1  0.40375099  0.09583300  0.76249203  1
  F  F7  1  0.90416698  0.26207600  0.23750801  1
  F  F8  1  0.26207599  0.59624899  0.23750801  1
  F  F9  1  0.59624898  0.90416698  0.23750802  1
