# generated using pymatgen
data_Ba5S
_symmetry_space_group_name_H-M   'P 1'
_cell_length_a   4.75094986
_cell_length_b   4.75094986
_cell_length_c   8.13220692
_cell_angle_alpha   73.01584625
_cell_angle_beta   73.01584625
_cell_angle_gamma   60.00000000
_symmetry_Int_Tables_number   1
_chemical_formula_structural   Ba5S
_chemical_formula_sum   'Ba5 S1'
_cell_volume   149.64887513
_cell_formula_units_Z   1
loop_
 _symmetry_equiv_pos_site_id
 _symmetry_equiv_pos_as_xyz
  1  'x, y, z'
loop_
 _atom_site_type_symbol
 _atom_site_label
 _atom_site_symmetry_multiplicity
 _atom_site_fract_x
 _atom_site_fract_y
 _atom_site_fract_z
 _atom_site_occupancy
  Ba  Ba0  1  0.37473699  0.37473701  0.87578901  1
  Ba  Ba1  1  0.12345900  0.12345900  0.62962300  1
  Ba  Ba2  1  0.62761798  0.62761801  0.11714601  1
  Ba  Ba3  1  0.87440997  0.87441002  0.37677001  1
  Ba  Ba4  1  0.99908097  0.99908102  0.00275701  1
  S  S5  1  0.50069598  0.50069601  0.49791201  1
