# generated using pymatgen
data_K
_symmetry_space_group_name_H-M   'P 1'
_cell_length_a   5.78661203
_cell_length_b   7.15942478
_cell_length_c   7.15942478
_cell_angle_alpha   77.84098816
_cell_angle_beta   66.16366577
_cell_angle_gamma   66.16366577
_symmetry_Int_Tables_number   1
_chemical_formula_structural   K
_chemical_formula_sum   K6
_cell_volume   247.76846811
_cell_formula_units_Z   6
loop_
 _symmetry_equiv_pos_site_id
 _symmetry_equiv_pos_as_xyz
  1  'x, y, z'
loop_
 _atom_site_type_symbol
 _atom_site_label
 _atom_site_symmetry_multiplicity
 _atom_site_fract_x
 _atom_site_fract_y
 _atom_site_fract_z
 _atom_site_occupancy
  K  K0  1  0.06001602  0.18998400  0.68998399  1
  K  K1  1  0.93998405  0.81001598  0.31001600  1
  K  K2  1  0.33410801  0.23787399  0.09391000  1
  K  K3  1  0.66589205  0.76212598  0.90608998  1
  K  K4  1  0.33410705  0.59390998  0.73787498  1
  K  K5  1  0.66589302  0.40608999  0.26212501  1
