# generated using pymatgen
data_K3TiO6
_symmetry_space_group_name_H-M   'P 1'
_cell_length_a   5.29096556
_cell_length_b   5.29096556
_cell_length_c   6.15926266
_cell_angle_alpha   64.56334686
_cell_angle_beta   64.56334686
_cell_angle_gamma   60.00000763
_symmetry_Int_Tables_number   1
_chemical_formula_structural   K3TiO6
_chemical_formula_sum   'K3 Ti1 O6'
_cell_volume   129.66479751
_cell_formula_units_Z   1
loop_
 _symmetry_equiv_pos_site_id
 _symmetry_equiv_pos_as_xyz
  1  'x, y, z'
loop_
 _atom_site_type_symbol
 _atom_site_label
 _atom_site_symmetry_multiplicity
 _atom_site_fract_x
 _atom_site_fract_y
 _atom_site_fract_z
 _atom_site_occupancy
  K  K0  1  0.85937206  0.85937199  0.42188391  1
  Ti  Ti1  1  0.13842301  0.13842300  0.58473097  1
  K  K2  1  0.65642305  0.65642299  0.03073094  1
  K  K3  1  0.34067703  0.34067700  0.97796894  1
  O  O4  1  0.06400304  0.68232499  0.79001994  1
  O  O5  1  0.68232504  0.46365199  0.79001992  1
  O  O6  1  0.46365201  0.06400300  0.79001995  1
  O  O7  1  0.94642303  0.31311600  0.20487594  1
  O  O8  1  0.31311604  0.53558499  0.20487595  1
  O  O9  1  0.53558507  0.94642299  0.20487592  1
