# generated using pymatgen
data_Ca2SiO4
_symmetry_space_group_name_H-M   'P 1'
_cell_length_a   3.73471999
_cell_length_b   6.28152609
_cell_length_c   10.38793659
_cell_angle_alpha   90.00000000
_cell_angle_beta   90.00000000
_cell_angle_gamma   90.00000000
_symmetry_Int_Tables_number   1
_chemical_formula_structural   Ca2SiO4
_chemical_formula_sum   'Ca4 Si2 O8'
_cell_volume   243.69830262
_cell_formula_units_Z   2
loop_
 _symmetry_equiv_pos_site_id
 _symmetry_equiv_pos_as_xyz
  1  'x, y, z'
loop_
 _atom_site_type_symbol
 _atom_site_label
 _atom_site_symmetry_multiplicity
 _atom_site_fract_x
 _atom_site_fract_y
 _atom_site_fract_z
 _atom_site_occupancy
  Ca  Ca0  1  0.50000000  0.06397600  0.32295801  1
  Ca  Ca1  1  0.50000000  0.93602399  0.67704203  1
  Ca  Ca2  1  0.50000000  0.43602399  0.82295803  1
  Si  Si3  1  0.50000000  0.56397599  0.17704201  1
  Si  Si4  1  0.00000000  0.00000000  0.00000000  1
  Ca  Ca5  1  0.00000000  0.49999999  0.50000002  1
  O  O6  1  0.00000000  0.15215800  0.79423203  1
  O  O7  1  0.00000000  0.84784199  0.20576801  1
  O  O8  1  0.00000000  0.65215799  0.70576803  1
  O  O9  1  0.00000000  0.34784200  0.29423201  1
  O  O10  1  0.50000000  0.26347900  0.54391602  1
  O  O11  1  0.50000000  0.73652099  0.45608402  1
  O  O12  1  0.50000000  0.23652100  0.04391600  1
  O  O13  1  0.50000000  0.76347899  0.95608404  1
