# generated using pymatgen
data_O2
_symmetry_space_group_name_H-M   'P 1'
_cell_length_a   5.72201014
_cell_length_b   6.46078777
_cell_length_c   6.81492186
_cell_angle_alpha   61.70458603
_cell_angle_beta   90.00000000
_cell_angle_gamma   90.00000000
_symmetry_Int_Tables_number   1
_chemical_formula_structural   O2
_chemical_formula_sum   O20
_cell_volume   221.83592754
_cell_formula_units_Z   10
loop_
 _symmetry_equiv_pos_site_id
 _symmetry_equiv_pos_as_xyz
  1  'x, y, z'
loop_
 _atom_site_type_symbol
 _atom_site_label
 _atom_site_symmetry_multiplicity
 _atom_site_fract_x
 _atom_site_fract_y
 _atom_site_fract_z
 _atom_site_occupancy
  O  O0  1  0.24999999  0.65334202  0.69331603  1
  O  O1  1  0.74999998  0.34665801  0.30668401  1
  O  O2  1  0.49999999  0.00000000  -0.00000000  1
  O  O3  1  0.00000000  0.00000000  0.00000000  1
  O  O4  1  0.74999998  0.80189802  0.83398304  1
  O  O5  1  0.24999999  0.63588102  0.16601702  1
  O  O6  1  0.24999999  0.19810200  0.16601701  1
  O  O7  1  0.74999998  0.36411901  0.83398303  1
  O  O8  1  0.74999998  0.78776102  0.42447803  1
  O  O9  1  0.24999999  0.21223901  0.57552202  1
  O  O10  1  0.74999998  0.21091901  0.97038103  1
  O  O11  1  0.24999999  0.18130000  0.02961900  1
  O  O12  1  0.24999999  0.78908102  0.02961902  1
  O  O13  1  0.74999998  0.81870002  0.97038104  1
  O  O14  1  0.55158499  0.84156302  0.31687403  1
  O  O15  1  0.44841499  0.15843700  0.68312602  1
  O  O16  1  0.94841498  0.84156302  0.31687403  1
  O  O17  1  0.05158500  0.15843700  0.68312602  1
  O  O18  1  0.74999998  0.68109202  0.63781603  1
  O  O19  1  0.24999999  0.31890801  0.36218401  1
