# generated using pymatgen
data_O2
_symmetry_space_group_name_H-M   'P 1'
_cell_length_a   5.31588602
_cell_length_b   5.81025219
_cell_length_c   6.07108927
_cell_angle_alpha   61.41133881
_cell_angle_beta   69.88188934
_cell_angle_gamma   90.00000000
_symmetry_Int_Tables_number   1
_chemical_formula_structural   O2
_chemical_formula_sum   O16
_cell_volume   151.49518908
_cell_formula_units_Z   8
loop_
 _symmetry_equiv_pos_site_id
 _symmetry_equiv_pos_as_xyz
  1  'x, y, z'
loop_
 _atom_site_type_symbol
 _atom_site_label
 _atom_site_symmetry_multiplicity
 _atom_site_fract_x
 _atom_site_fract_y
 _atom_site_fract_z
 _atom_site_occupancy
  O  O0  1  0.50000005  0.75145698  -0.00000004  1
  O  O1  1  0.48440603  0.25285599  0.49428797  1
  O  O2  1  0.51559405  0.74714398  0.50571196  1
  O  O3  1  0.50000003  0.24854299  -0.00000003  1
  O  O4  1  0.00000002  0.49999999  0.49999998  1
  O  O5  1  0.00000000  0.00000000  0.49999999  1
  O  O6  1  0.00000002  0.49999999  -0.00000001  1
  O  O7  1  0.00000000  0.00000000  0.00000000  1
  O  O8  1  0.23773604  0.85773098  0.76787196  1
  O  O9  1  0.22742502  0.35839199  0.28321598  1
  O  O10  1  0.20616704  0.88097398  0.23805197  1
  O  O11  1  0.23773603  0.37439699  0.76787197  1
  O  O12  1  0.76226406  0.62560299  0.23212795  1
  O  O13  1  0.79383305  0.11902600  0.76194795  1
  O  O14  1  0.77257506  0.64160799  0.71678394  1
  O  O15  1  0.76226404  0.14226900  0.23212796  1
