# generated using pymatgen
data_BaLa2Yb3
_symmetry_space_group_name_H-M   'P 1'
_cell_length_a   3.81862807
_cell_length_b   7.43654680
_cell_length_c   8.83747959
_cell_angle_alpha   105.18011475
_cell_angle_beta   90.00000000
_cell_angle_gamma   104.87715149
_symmetry_Int_Tables_number   1
_chemical_formula_structural   BaLa2Yb3
_chemical_formula_sum   'Ba1 La2 Yb3'
_cell_volume   233.47690654
_cell_formula_units_Z   1
loop_
 _symmetry_equiv_pos_site_id
 _symmetry_equiv_pos_as_xyz
  1  'x, y, z'
loop_
 _atom_site_type_symbol
 _atom_site_label
 _atom_site_symmetry_multiplicity
 _atom_site_fract_x
 _atom_site_fract_y
 _atom_site_fract_z
 _atom_site_occupancy
  Ba  Ba0  1  0.99475100  0.98950202  0.01421203  1
  La  La1  1  0.67500200  0.35000401  0.33028203  1
  Yb  Yb2  1  0.04870900  0.09741800  0.59369003  1
  Yb  Yb3  1  0.33333334  0.66666668  0.66345205  1
  Yb  Yb4  1  0.72637100  0.45274201  0.95443106  1
  La  La5  1  0.38850901  0.77701802  0.27726503  1
