# generated using pymatgen
data_YbTmSn
_symmetry_space_group_name_H-M   'P 1'
_cell_length_a   3.98501611
_cell_length_b   3.98501515
_cell_length_c   4.75598288
_cell_angle_alpha   90.00000000
_cell_angle_beta   90.00000000
_cell_angle_gamma   120.00000763
_symmetry_Int_Tables_number   1
_chemical_formula_structural   YbTmSn
_chemical_formula_sum   'Yb1 Tm1 Sn1'
_cell_volume   65.40801042
_cell_formula_units_Z   1
loop_
 _symmetry_equiv_pos_site_id
 _symmetry_equiv_pos_as_xyz
  1  'x, y, z'
loop_
 _atom_site_type_symbol
 _atom_site_label
 _atom_site_symmetry_multiplicity
 _atom_site_fract_x
 _atom_site_fract_y
 _atom_site_fract_z
 _atom_site_occupancy
  Tm  Tm0  1  0.66666665  0.33333332  -0.00000000  1
  Yb  Yb1  1  0.33333332  0.66666665  0.50000001  1
  Sn  Sn2  1  0.00000000  0.00000000  0.50000001  1
