# generated using pymatgen
data_LiO2
_symmetry_space_group_name_H-M   'P 1'
_cell_length_a   5.20378685
_cell_length_b   5.55841684
_cell_length_c   5.32917070
_cell_angle_alpha   90.00000000
_cell_angle_beta   82.93364716
_cell_angle_gamma   90.00000000
_symmetry_Int_Tables_number   1
_chemical_formula_structural   LiO2
_chemical_formula_sum   'Li4 O8'
_cell_volume   152.97445129
_cell_formula_units_Z   4
loop_
 _symmetry_equiv_pos_site_id
 _symmetry_equiv_pos_as_xyz
  1  'x, y, z'
loop_
 _atom_site_type_symbol
 _atom_site_label
 _atom_site_symmetry_multiplicity
 _atom_site_fract_x
 _atom_site_fract_y
 _atom_site_fract_z
 _atom_site_occupancy
  Li  Li0  1  0.50000001  0.72996702  0.25000002  1
  Li  Li1  1  0.50000001  0.27003301  0.75000001  1
  Li  Li2  1  0.00000000  0.18829801  0.24999999  1
  Li  Li3  1  0.00000000  0.81170202  0.74999998  1
  O  O4  1  0.76855502  0.93159703  0.50161203  1
  O  O5  1  0.76855502  0.06840300  0.00161205  1
  O  O6  1  0.74097702  0.41015201  0.39161003  1
  O  O7  1  0.74097702  0.58984802  0.89161002  1
  O  O8  1  0.25902301  0.41015201  0.10839001  1
  O  O9  1  0.25902301  0.58984802  0.60839000  1
  O  O10  1  0.23144500  0.93159703  0.99838798  1
  O  O11  1  0.23144500  0.06840300  0.49838800  1
