# generated using pymatgen
data_LaAs5
_symmetry_space_group_name_H-M   'P 1'
_cell_length_a   5.23576593
_cell_length_b   5.23722982
_cell_length_c   12.80409241
_cell_angle_alpha   90.00000000
_cell_angle_beta   90.00000000
_cell_angle_gamma   90.00000000
_symmetry_Int_Tables_number   1
_chemical_formula_structural   LaAs5
_chemical_formula_sum   'La2 As10'
_cell_volume   351.09985915
_cell_formula_units_Z   2
loop_
 _symmetry_equiv_pos_site_id
 _symmetry_equiv_pos_as_xyz
  1  'x, y, z'
loop_
 _atom_site_type_symbol
 _atom_site_label
 _atom_site_symmetry_multiplicity
 _atom_site_fract_x
 _atom_site_fract_y
 _atom_site_fract_z
 _atom_site_occupancy
  As  As0  1  0.25000000  0.75341603  0.84373997  1
  La  La1  1  0.25000000  0.25341601  0.65625998  1
  As  As2  1  0.75000001  0.24658401  0.84373997  1
  La  La3  1  0.75000001  0.74658403  0.65625998  1
  As  As4  1  0.25000000  0.25341601  0.34373999  1
  As  As5  1  0.25000000  0.75341603  0.15626000  1
  As  As6  1  0.75000001  0.74658403  0.34373999  1
  As  As7  1  0.75000001  0.24658401  0.15626000  1
  As  As8  1  0.25000000  0.25932501  0.00000000  1
  As  As9  1  0.75000001  0.74067502  0.00000000  1
  As  As10  1  0.25000000  0.75932503  0.49999998  1
  As  As11  1  0.75000001  0.24067501  0.49999998  1
