# generated using pymatgen
data_AuO5
_symmetry_space_group_name_H-M   'P 1'
_cell_length_a   6.08529329
_cell_length_b   6.08529329
_cell_length_c   6.08529329
_cell_angle_alpha   106.35913086
_cell_angle_beta   106.35913086
_cell_angle_gamma   115.89260864
_symmetry_Int_Tables_number   1
_chemical_formula_structural   AuO5
_chemical_formula_sum   'Au2 O10'
_cell_volume   171.81723100
_cell_formula_units_Z   2
loop_
 _symmetry_equiv_pos_site_id
 _symmetry_equiv_pos_as_xyz
  1  'x, y, z'
loop_
 _atom_site_type_symbol
 _atom_site_label
 _atom_site_symmetry_multiplicity
 _atom_site_fract_x
 _atom_site_fract_y
 _atom_site_fract_z
 _atom_site_occupancy
  Au  Au0  1  0.00000000  0.00000000  0.00000000  1
  Au  Au1  1  0.75000000  0.24999999  0.50000001  1
  O  O2  1  0.24999994  0.74999998  0.49999999  1
  O  O3  1  0.49999997  0.49999999  1.00000001  1
  O  O4  1  0.67304494  0.85253498  0.17948998  1
  O  O5  1  0.60253493  0.92304498  0.67948999  1
  O  O6  1  0.24355493  0.92304498  0.32050998  1
  O  O7  1  0.67304497  0.49355499  0.82051001  1
  O  O8  1  0.14746498  0.32695499  0.82051001  1
  O  O9  1  0.07695497  0.39746499  0.32050999  1
  O  O10  1  0.07695494  0.75644498  0.67948999  1
  O  O11  1  0.50644498  0.32695499  0.17949000  1
