# generated using pymatgen
data_HfN13
_symmetry_space_group_name_H-M   'P 1'
_cell_length_a   3.52552795
_cell_length_b   6.32222414
_cell_length_c   6.32222414
_cell_angle_alpha   120.00000000
_cell_angle_beta   90.00000000
_cell_angle_gamma   90.00000000
_symmetry_Int_Tables_number   1
_chemical_formula_structural   HfN13
_chemical_formula_sum   'Hf1 N13'
_cell_volume   122.03785669
_cell_formula_units_Z   1
loop_
 _symmetry_equiv_pos_site_id
 _symmetry_equiv_pos_as_xyz
  1  'x, y, z'
loop_
 _atom_site_type_symbol
 _atom_site_label
 _atom_site_symmetry_multiplicity
 _atom_site_fract_x
 _atom_site_fract_y
 _atom_site_fract_z
 _atom_site_occupancy
  Hf  Hf0  1  0.25000000  0.33333333  0.66666670  1
  N  N1  1  0.75000001  0.66666666  0.33333337  1
  N  N2  1  0.25000000  0.27880400  0.14002002  1
  N  N3  1  0.75000001  0.14002000  0.86121603  1
  N  N4  1  0.25000000  0.85998000  0.13878404  1
  N  N5  1  0.75000001  0.72119600  0.85998006  1
  N  N6  1  0.75000001  0.13878400  0.27880401  1
  N  N7  1  0.25000000  0.86121600  0.72119606  1
  N  N8  1  0.75000001  0.08495900  0.68726303  1
  N  N9  1  0.25000000  0.39769600  0.08495902  1
  N  N10  1  0.25000000  0.91504100  0.31273704  1
  N  N11  1  0.75000001  0.60230400  0.91504105  1
  N  N12  1  0.75000001  0.31273700  0.39769602  1
  N  N13  1  0.25000000  0.68726300  0.60230405  1
