# generated using pymatgen
data_O2
_symmetry_space_group_name_H-M   'P 1'
_cell_length_a   3.27935791
_cell_length_b   5.74886990
_cell_length_c   9.92522144
_cell_angle_alpha   90.00000000
_cell_angle_beta   90.00000000
_cell_angle_gamma   90.00000000
_symmetry_Int_Tables_number   1
_chemical_formula_structural   O2
_chemical_formula_sum   O14
_cell_volume   187.11624931
_cell_formula_units_Z   7
loop_
 _symmetry_equiv_pos_site_id
 _symmetry_equiv_pos_as_xyz
  1  'x, y, z'
loop_
 _atom_site_type_symbol
 _atom_site_label
 _atom_site_symmetry_multiplicity
 _atom_site_fract_x
 _atom_site_fract_y
 _atom_site_fract_z
 _atom_site_occupancy
  O  O0  1  0.50000001  0.06640100  0.31889399  1
  O  O1  1  0.50000001  0.43359901  0.81889396  1
  O  O2  1  0.50000001  0.56640101  0.18110599  1
  O  O3  1  0.50000001  0.93359902  0.68110597  1
  O  O4  1  0.00000000  0.00000000  0.00000000  1
  O  O5  1  0.00000000  0.50000001  0.49999998  1
  O  O6  1  0.00000000  0.13876100  0.80770696  1
  O  O7  1  0.50000001  0.22569100  0.04542900  1
  O  O8  1  0.50000001  0.27430900  0.54542898  1
  O  O9  1  0.00000000  0.36123901  0.30770699  1
  O  O10  1  0.00000000  0.63876101  0.69229297  1
  O  O11  1  0.50000001  0.72569101  0.45457098  1
  O  O12  1  0.50000001  0.77430901  0.95457096  1
  O  O13  1  0.00000000  0.86123902  0.19229299  1
