# generated using pymatgen
data_KS2
_symmetry_space_group_name_H-M   'P 1'
_cell_length_a   4.38195992
_cell_length_b   6.43319893
_cell_length_c   6.63174391
_cell_angle_alpha   90.00000000
_cell_angle_beta   90.00000000
_cell_angle_gamma   90.00000000
_symmetry_Int_Tables_number   1
_chemical_formula_structural   KS2
_chemical_formula_sum   'K2 S4'
_cell_volume   186.94899229
_cell_formula_units_Z   2
loop_
 _symmetry_equiv_pos_site_id
 _symmetry_equiv_pos_as_xyz
  1  'x, y, z'
loop_
 _atom_site_type_symbol
 _atom_site_label
 _atom_site_symmetry_multiplicity
 _atom_site_fract_x
 _atom_site_fract_y
 _atom_site_fract_z
 _atom_site_occupancy
  S  S0  1  0.00000000  0.64708201  0.72394701  1
  S  S1  1  0.00000000  0.35291800  0.27605300  1
  S  S2  1  0.50000001  0.85291801  0.22394700  1
  S  S3  1  0.50000001  0.14708200  0.77605301  1
  K  K4  1  0.00000000  0.00000000  0.00000000  1
  K  K5  1  0.50000001  0.50000001  0.50000001  1
