# generated using pymatgen
data_Mn3O2F
_symmetry_space_group_name_H-M   'P 1'
_cell_length_a   2.88728905
_cell_length_b   4.09124088
_cell_length_c   4.70918703
_cell_angle_alpha   90.00000000
_cell_angle_beta   90.00000000
_cell_angle_gamma   90.00000000
_symmetry_Int_Tables_number   1
_chemical_formula_structural   Mn3O2F
_chemical_formula_sum   'Mn3 O2 F1'
_cell_volume   55.62771913
_cell_formula_units_Z   1
loop_
 _symmetry_equiv_pos_site_id
 _symmetry_equiv_pos_as_xyz
  1  'x, y, z'
loop_
 _atom_site_type_symbol
 _atom_site_label
 _atom_site_symmetry_multiplicity
 _atom_site_fract_x
 _atom_site_fract_y
 _atom_site_fract_z
 _atom_site_occupancy
  O  O0  1  0.00000000  0.36196201  0.80591599  1
  F  F1  1  0.49999999  0.63803802  0.69408400  1
  Mn  Mn2  1  0.00000000  0.36196201  0.19408400  1
  O  O3  1  0.49999999  0.63803802  0.30591600  1
  Mn  Mn4  1  0.00000000  0.84495902  -0.00000000  1
  Mn  Mn5  1  0.49999999  0.15504100  0.50000000  1
