# generated using pymatgen
data_Mn2O5
_symmetry_space_group_name_H-M   'P 1'
_cell_length_a   5.43249416
_cell_length_b   5.43249416
_cell_length_c   6.70433760
_cell_angle_alpha   113.90038300
_cell_angle_beta   113.90038300
_cell_angle_gamma   90.00000000
_symmetry_Int_Tables_number   1
_chemical_formula_structural   Mn2O5
_chemical_formula_sum   'Mn4 O10'
_cell_volume   162.16067385
_cell_formula_units_Z   2
loop_
 _symmetry_equiv_pos_site_id
 _symmetry_equiv_pos_as_xyz
  1  'x, y, z'
loop_
 _atom_site_type_symbol
 _atom_site_label
 _atom_site_symmetry_multiplicity
 _atom_site_fract_x
 _atom_site_fract_y
 _atom_site_fract_z
 _atom_site_occupancy
  Mn  Mn0  1  0.50649598  0.00649600  0.01299199  1
  O  O1  1  0.75649596  0.75649597  0.51299197  1
  Mn  Mn2  1  0.99350395  0.49350398  0.98700796  1
  Mn  Mn3  1  0.24350399  0.24350399  0.48700798  1
  O  O4  1  0.37499997  0.85480396  0.24999997  1
  O  O5  1  0.87499996  0.39519598  0.24999998  1
  O  O6  1  0.60480397  0.62499997  0.74999997  1
  O  O7  1  0.14519599  0.12499999  0.74999998  1
  O  O8  1  0.37499998  0.39519598  0.24999998  1
  O  O9  1  0.87499995  0.85480396  0.24999997  1
  O  O10  1  0.60480398  0.12499999  0.74999998  1
  O  O11  1  0.14519598  0.62499997  0.74999997  1
  Mn  Mn12  1  0.74999997  0.24999999  0.49999998  1
  O  O13  1  0.00000000  0.00000000  0.00000000  1
