# generated using pymatgen
data_BaLa3O4
_symmetry_space_group_name_H-M   'P 1'
_cell_length_a   3.64911509
_cell_length_b   10.47031021
_cell_length_c   10.47030926
_cell_angle_alpha   120.00000000
_cell_angle_beta   90.00000000
_cell_angle_gamma   90.00000000
_symmetry_Int_Tables_number   1
_chemical_formula_structural   BaLa3O4
_chemical_formula_sum   'Ba1 La3 O4'
_cell_volume   346.44735540
_cell_formula_units_Z   1
loop_
 _symmetry_equiv_pos_site_id
 _symmetry_equiv_pos_as_xyz
  1  'x, y, z'
loop_
 _atom_site_type_symbol
 _atom_site_label
 _atom_site_symmetry_multiplicity
 _atom_site_fract_x
 _atom_site_fract_y
 _atom_site_fract_z
 _atom_site_occupancy
  La  La0  1  0.24999999  0.66666664  0.33333333  1
  O  O1  1  0.74999998  0.33333332  0.66666668  1
  La  La2  1  0.74999998  0.78172997  0.21826999  1
  Ba  Ba3  1  0.74999998  0.43653999  0.21827000  1
  O  O4  1  0.74999998  0.78172997  0.56346000  1
  La  La5  1  0.24999999  0.21826999  0.78173002  1
  O  O6  1  0.24999999  0.56345998  0.78173001  1
  O  O7  1  0.24999999  0.21826999  0.43654001  1
