# generated using pymatgen
data_O2
_symmetry_space_group_name_H-M   'P 1'
_cell_length_a   2.85094094
_cell_length_b   2.85533500
_cell_length_c   11.64487553
_cell_angle_alpha   90.00000000
_cell_angle_beta   90.00000000
_cell_angle_gamma   90.00000000
_symmetry_Int_Tables_number   1
_chemical_formula_structural   O2
_chemical_formula_sum   O10
_cell_volume   94.79384516
_cell_formula_units_Z   5
loop_
 _symmetry_equiv_pos_site_id
 _symmetry_equiv_pos_as_xyz
  1  'x, y, z'
loop_
 _atom_site_type_symbol
 _atom_site_label
 _atom_site_symmetry_multiplicity
 _atom_site_fract_x
 _atom_site_fract_y
 _atom_site_fract_z
 _atom_site_occupancy
  O  O0  1  0.75000002  0.74174600  0.09023600  1
  O  O1  1  0.75000002  0.74174600  0.40976402  1
  O  O2  1  0.25000001  0.25825400  0.90976404  1
  O  O3  1  0.25000001  0.25825400  0.59023602  1
  O  O4  1  0.75000002  0.77261500  0.75000003  1
  O  O5  1  0.25000001  0.22738500  0.25000001  1
  O  O6  1  0.75000002  0.75761400  0.58961702  1
  O  O7  1  0.75000002  0.75761400  0.91038304  1
  O  O8  1  0.25000001  0.24238600  0.41038302  1
  O  O9  1  0.25000001  0.24238600  0.08961700  1
