# generated using pymatgen
data_S
_symmetry_space_group_name_H-M   'P 1'
_cell_length_a   7.20111179
_cell_length_b   7.20111179
_cell_length_c   7.20111179
_cell_angle_alpha   60.00000000
_cell_angle_beta   60.00000000
_cell_angle_gamma   60.00000000
_symmetry_Int_Tables_number   1
_chemical_formula_structural   S
_chemical_formula_sum   S14
_cell_volume   264.04847384
_cell_formula_units_Z   14
loop_
 _symmetry_equiv_pos_site_id
 _symmetry_equiv_pos_as_xyz
  1  'x, y, z'
loop_
 _atom_site_type_symbol
 _atom_site_label
 _atom_site_symmetry_multiplicity
 _atom_site_fract_x
 _atom_site_fract_y
 _atom_site_fract_z
 _atom_site_occupancy
  S  S0  1  0.88182700  0.88182700  0.35451900  1
  S  S1  1  0.88182700  0.88182700  0.88182700  1
  S  S2  1  0.88182700  0.35451900  0.88182700  1
  S  S3  1  0.35451900  0.88182700  0.88182700  1
  S  S4  1  0.50000000  0.50000000  0.50000000  1
  S  S5  1  0.25000000  0.25000000  0.25000000  1
  S  S6  1  0.11298100  0.11298200  0.66105500  1
  S  S7  1  0.11298100  0.11298200  0.11298200  1
  S  S8  1  0.11298100  0.66105500  0.11298200  1
  S  S9  1  0.66105400  0.11298200  0.11298200  1
  S  S10  1  0.63346900  0.63346900  0.09959300  1
  S  S11  1  0.63346900  0.63346900  0.63346900  1
  S  S12  1  0.63346900  0.09959300  0.63346900  1
  S  S13  1  0.09959300  0.63346900  0.63346900  1
