# generated using pymatgen
data_TiOF7
_symmetry_space_group_name_H-M   'P 1'
_cell_length_a   5.35351419
_cell_length_b   5.35351372
_cell_length_c   5.46347380
_cell_angle_alpha   90.00000000
_cell_angle_beta   90.00000000
_cell_angle_gamma   120.00000000
_symmetry_Int_Tables_number   1
_chemical_formula_structural   TiOF7
_chemical_formula_sum   'Ti1 O1 F7'
_cell_volume   135.60552192
_cell_formula_units_Z   1
loop_
 _symmetry_equiv_pos_site_id
 _symmetry_equiv_pos_as_xyz
  1  'x, y, z'
loop_
 _atom_site_type_symbol
 _atom_site_label
 _atom_site_symmetry_multiplicity
 _atom_site_fract_x
 _atom_site_fract_y
 _atom_site_fract_z
 _atom_site_occupancy
  Ti  Ti0  1  0.00000000  0.00000000  0.00000000  1
  F  F1  1  0.66666664  0.33333334  0.50000002  1
  F  F2  1  0.33333331  0.66666668  0.50000002  1
  O  O3  1  0.62280598  0.00000000  0.29391401  1
  F  F4  1  0.37719398  0.37719401  0.29391401  1
  F  F5  1  -0.00000001  0.62280602  0.29391401  1
  F  F6  1  0.62280597  0.62280602  0.70608603  1
  F  F7  1  -0.00000001  0.37719401  0.70608603  1
  F  F8  1  0.37719399  0.00000000  0.70608603  1
