# generated using pymatgen
data_NdSi3Au
_symmetry_space_group_name_H-M   'P 1'
_cell_length_a   4.12842798
_cell_length_b   4.12842798
_cell_length_c   5.78352308
_cell_angle_alpha   110.91072845
_cell_angle_beta   110.91072845
_cell_angle_gamma   90.00000000
_symmetry_Int_Tables_number   1
_chemical_formula_structural   NdSi3Au
_chemical_formula_sum   'Nd1 Si3 Au1'
_cell_volume   85.09538278
_cell_formula_units_Z   1
loop_
 _symmetry_equiv_pos_site_id
 _symmetry_equiv_pos_as_xyz
  1  'x, y, z'
loop_
 _atom_site_type_symbol
 _atom_site_label
 _atom_site_symmetry_multiplicity
 _atom_site_fract_x
 _atom_site_fract_y
 _atom_site_fract_z
 _atom_site_occupancy
  Nd  Nd0  1  0.00185800  0.00185800  0.00371600  1
  Si  Si1  1  0.74568602  0.24568601  0.49137205  1
  Au  Au2  1  0.24568603  0.74568602  0.49137205  1
  Si  Si3  1  0.62486203  0.62486201  0.24972405  1
  Si  Si4  1  0.38190802  0.38190801  0.76381606  1
