# generated using pymatgen
data_Pb5S2
_symmetry_space_group_name_H-M   'P 1'
_cell_length_a   4.48536348
_cell_length_b   4.48536348
_cell_length_c   14.42857361
_cell_angle_alpha   81.05806732
_cell_angle_beta   81.05806732
_cell_angle_gamma   60.00000763
_symmetry_Int_Tables_number   1
_chemical_formula_structural   Pb5S2
_chemical_formula_sum   'Pb5 S2'
_cell_volume   247.30864878
_cell_formula_units_Z   1
loop_
 _symmetry_equiv_pos_site_id
 _symmetry_equiv_pos_as_xyz
  1  'x, y, z'
loop_
 _atom_site_type_symbol
 _atom_site_label
 _atom_site_symmetry_multiplicity
 _atom_site_fract_x
 _atom_site_fract_y
 _atom_site_fract_z
 _atom_site_occupancy
  Pb  Pb0  1  0.42873098  0.42873100  0.71380700  1
  Pb  Pb1  1  0.99969594  0.99969599  0.00091200  1
  Pb  Pb2  1  0.86356595  0.86356599  0.40930200  1
  S  S3  1  0.13503099  0.13503100  0.59490700  1
  S  S4  1  0.71175696  0.71175699  0.86472900  1
  Pb  Pb5  1  0.29199698  0.29199700  0.12400900  1
  Pb  Pb6  1  0.56922097  0.56922100  0.29233700  1
