# generated using pymatgen
data_Na4Cl5F
_symmetry_space_group_name_H-M   'P 1'
_cell_length_a   5.83149338
_cell_length_b   5.83149338
_cell_length_c   5.83149338
_cell_angle_alpha   60.00000000
_cell_angle_beta   60.00000000
_cell_angle_gamma   60.00000000
_symmetry_Int_Tables_number   1
_chemical_formula_structural   Na4Cl5F
_chemical_formula_sum   'Na4 Cl5 F1'
_cell_volume   140.22464929
_cell_formula_units_Z   1
loop_
 _symmetry_equiv_pos_site_id
 _symmetry_equiv_pos_as_xyz
  1  'x, y, z'
loop_
 _atom_site_type_symbol
 _atom_site_label
 _atom_site_symmetry_multiplicity
 _atom_site_fract_x
 _atom_site_fract_y
 _atom_site_fract_z
 _atom_site_occupancy
  Na  Na0  1  0.74999998  0.74999998  0.74999998  1
  Na  Na1  1  0.24999999  0.24999999  0.24999999  1
  Na  Na2  1  0.00000000  0.00000000  0.00000000  1
  Na  Na3  1  0.49999999  0.49999999  0.49999999  1
  F  F4  1  0.24995894  0.75004103  0.24995894  1
  Cl  Cl5  1  0.75004103  0.24995894  0.75004103  1
  Cl  Cl6  1  0.75004103  0.24995894  0.24995894  1
  Cl  Cl7  1  0.24995894  0.75004103  0.75004103  1
  Cl  Cl8  1  0.75004103  0.75004103  0.24995894  1
  Cl  Cl9  1  0.24995894  0.24995894  0.75004103  1
