# generated using pymatgen
data_Al
_symmetry_space_group_name_H-M   'P 1'
_cell_length_a   3.27543998
_cell_length_b   3.27544069
_cell_length_c   12.55707836
_cell_angle_alpha   90.00000000
_cell_angle_beta   90.00000000
_cell_angle_gamma   119.99999237
_symmetry_Int_Tables_number   1
_chemical_formula_structural   Al
_chemical_formula_sum   Al8
_cell_volume   116.66985421
_cell_formula_units_Z   8
loop_
 _symmetry_equiv_pos_site_id
 _symmetry_equiv_pos_as_xyz
  1  'x, y, z'
loop_
 _atom_site_type_symbol
 _atom_site_label
 _atom_site_symmetry_multiplicity
 _atom_site_fract_x
 _atom_site_fract_y
 _atom_site_fract_z
 _atom_site_occupancy
  Al  Al0  1  0.66666666  0.33333333  0.59311198  1
  Al  Al1  1  0.33333332  0.66666665  0.40688799  1
  Al  Al2  1  0.33333332  0.66666665  0.09311200  1
  Al  Al3  1  0.66666666  0.33333333  0.90688797  1
  Al  Al4  1  0.33333332  0.66666665  0.74999998  1
  Al  Al5  1  0.66666666  0.33333333  0.24999999  1
  Al  Al6  1  0.00000000  0.00000000  0.49999999  1
  Al  Al7  1  0.00000000  0.00000000  0.00000000  1
