# generated using pymatgen
data_La
_symmetry_space_group_name_H-M   'P 1'
_cell_length_a   3.87441611
_cell_length_b   6.70870686
_cell_length_c   6.70870686
_cell_angle_alpha   70.13953400
_cell_angle_beta   73.21624756
_cell_angle_gamma   73.21624756
_symmetry_Int_Tables_number   1
_chemical_formula_structural   La
_chemical_formula_sum   La5
_cell_volume   153.45713942
_cell_formula_units_Z   5
loop_
 _symmetry_equiv_pos_site_id
 _symmetry_equiv_pos_as_xyz
  1  'x, y, z'
loop_
 _atom_site_type_symbol
 _atom_site_label
 _atom_site_symmetry_multiplicity
 _atom_site_fract_x
 _atom_site_fract_y
 _atom_site_fract_z
 _atom_site_occupancy
  La  La0  1  0.19319198  0.30680800  0.30680798  1
  La  La1  1  0.80680796  0.69319201  0.69319195  1
  La  La2  1  0.00000000  0.00000000  0.00000000  1
  La  La3  1  0.49999998  0.21058600  0.78941397  1
  La  La4  1  0.49999996  0.78941401  0.21058595  1
