# generated using pymatgen
data_LaSi11
_symmetry_space_group_name_H-M   'P 1'
_cell_length_a   3.52704501
_cell_length_b   6.94484186
_cell_length_c   8.19564342
_cell_angle_alpha   90.00000000
_cell_angle_beta   90.00000000
_cell_angle_gamma   90.00000000
_symmetry_Int_Tables_number   1
_chemical_formula_structural   LaSi11
_chemical_formula_sum   'La1 Si11'
_cell_volume   200.75039942
_cell_formula_units_Z   1
loop_
 _symmetry_equiv_pos_site_id
 _symmetry_equiv_pos_as_xyz
  1  'x, y, z'
loop_
 _atom_site_type_symbol
 _atom_site_label
 _atom_site_symmetry_multiplicity
 _atom_site_fract_x
 _atom_site_fract_y
 _atom_site_fract_z
 _atom_site_occupancy
  Si  Si0  1  0.25000000  0.54179301  0.16745399  1
  La  La1  1  0.25000000  0.04179300  0.33254598  1
  Si  Si2  1  0.75000000  0.45820701  0.83254596  1
  Si  Si3  1  0.75000000  0.95820702  0.66745397  1
  Si  Si4  1  0.25000000  0.75613202  0.86166796  1
  Si  Si5  1  0.25000000  0.25613201  0.63833197  1
  Si  Si6  1  0.75000000  0.24386800  0.13833199  1
  Si  Si7  1  0.75000000  0.74386801  0.36166798  1
  Si  Si8  1  0.25000000  0.63392801  0.56204797  1
  Si  Si9  1  0.25000000  0.13392800  0.93795195  1
  Si  Si10  1  0.75000000  0.36607201  0.43795198  1
  Si  Si11  1  0.75000000  0.86607202  0.06204800  1
