# generated using pymatgen
data_Zn
_symmetry_space_group_name_H-M   'P 1'
_cell_length_a   3.83947301
_cell_length_b   5.92142248
_cell_length_c   6.82485914
_cell_angle_alpha   115.70977020
_cell_angle_beta   106.33696747
_cell_angle_gamma   90.00000000
_symmetry_Int_Tables_number   1
_chemical_formula_structural   Zn
_chemical_formula_sum   Zn9
_cell_volume   132.81585857
_cell_formula_units_Z   9
loop_
 _symmetry_equiv_pos_site_id
 _symmetry_equiv_pos_as_xyz
  1  'x, y, z'
loop_
 _atom_site_type_symbol
 _atom_site_label
 _atom_site_symmetry_multiplicity
 _atom_site_fract_x
 _atom_site_fract_y
 _atom_site_fract_z
 _atom_site_occupancy
  Zn  Zn0  1  0.00000000  0.00000000  0.00000000  1
  Zn  Zn1  1  0.20273304  0.70273399  0.40546600  1
  Zn  Zn2  1  0.79726600  0.29726599  0.59453302  1
  Zn  Zn3  1  0.50000102  0.49999999  1.00000002  1
  Zn  Zn4  1  0.00000003  0.49999999  -0.00000001  1
  Zn  Zn5  1  0.64679304  0.88789998  0.29358400  1
  Zn  Zn6  1  0.35320800  0.11210100  0.70641502  1
  Zn  Zn7  1  0.35320803  0.59431499  0.70641501  1
  Zn  Zn8  1  0.64679101  0.40568499  0.29358401  1
