# generated using pymatgen
data_BaS4
_symmetry_space_group_name_H-M   'P 1'
_cell_length_a   5.91032219
_cell_length_b   5.93845987
_cell_length_c   7.22567177
_cell_angle_alpha   90.00000000
_cell_angle_beta   114.14082336
_cell_angle_gamma   90.00000000
_symmetry_Int_Tables_number   1
_chemical_formula_structural   BaS4
_chemical_formula_sum   'Ba2 S8'
_cell_volume   231.42834755
_cell_formula_units_Z   2
loop_
 _symmetry_equiv_pos_site_id
 _symmetry_equiv_pos_as_xyz
  1  'x, y, z'
loop_
 _atom_site_type_symbol
 _atom_site_label
 _atom_site_symmetry_multiplicity
 _atom_site_fract_x
 _atom_site_fract_y
 _atom_site_fract_z
 _atom_site_occupancy
  Ba  Ba0  1  0.40145198  0.21910300  0.80290397  1
  S  S1  1  0.59854797  0.78089702  0.19709597  1
  S  S2  1  0.09854799  0.21910300  0.19709599  1
  S  S3  1  0.90145195  0.78089702  0.80290394  1
  Ba  Ba4  1  0.74999996  0.22905500  0.49999996  1
  S  S5  1  0.24999999  0.77094502  0.49999998  1
  S  S6  1  0.24999999  1.00000002  0.99999997  1
  S  S7  1  0.74999996  1.00000002  -0.00000004  1
  S  S8  1  0.24999999  0.50000001  0.99999997  1
  S  S9  1  0.74999996  0.50000001  -0.00000004  1
