# generated using pymatgen
data_Re
_symmetry_space_group_name_H-M   'P 1'
_cell_length_a   4.79069519
_cell_length_b   4.85331392
_cell_length_c   4.89223671
_cell_angle_alpha   60.26283646
_cell_angle_beta   90.00000000
_cell_angle_gamma   90.00000000
_symmetry_Int_Tables_number   1
_chemical_formula_structural   Re
_chemical_formula_sum   Re6
_cell_volume   98.76866184
_cell_formula_units_Z   6
loop_
 _symmetry_equiv_pos_site_id
 _symmetry_equiv_pos_as_xyz
  1  'x, y, z'
loop_
 _atom_site_type_symbol
 _atom_site_label
 _atom_site_symmetry_multiplicity
 _atom_site_fract_x
 _atom_site_fract_y
 _atom_site_fract_z
 _atom_site_occupancy
  Re  Re0  1  0.74999997  0.22838300  -0.00000000  1
  Re  Re1  1  0.24999999  0.77161701  1.00000002  1
  Re  Re2  1  0.74999997  0.55433101  0.32394601  1
  Re  Re3  1  0.24999999  0.12172300  0.32394601  1
  Re  Re4  1  0.24999999  0.44566901  0.67605402  1
  Re  Re5  1  0.74999997  0.87827702  0.67605402  1
