# generated using pymatgen
data_O2
_symmetry_space_group_name_H-M   'P 1'
_cell_length_a   5.46208477
_cell_length_b   5.52931356
_cell_length_c   7.11392689
_cell_angle_alpha   90.00000000
_cell_angle_beta   90.00000000
_cell_angle_gamma   116.60976410
_symmetry_Int_Tables_number   1
_chemical_formula_structural   O2
_chemical_formula_sum   O16
_cell_volume   192.09427503
_cell_formula_units_Z   8
loop_
 _symmetry_equiv_pos_site_id
 _symmetry_equiv_pos_as_xyz
  1  'x, y, z'
loop_
 _atom_site_type_symbol
 _atom_site_label
 _atom_site_symmetry_multiplicity
 _atom_site_fract_x
 _atom_site_fract_y
 _atom_site_fract_z
 _atom_site_occupancy
  O  O0  1  0.63778702  0.25993699  0.23318500  1
  O  O1  1  0.36221299  0.74006298  0.73318501  1
  O  O2  1  0.00355797  0.99420597  0.48727501  1
  O  O3  1  0.99644204  0.00579400  0.98727502  1
  O  O4  1  0.34063899  0.62600398  0.24514900  1
  O  O5  1  0.65936102  0.37399599  0.74514901  1
  O  O6  1  0.03631698  0.53021798  0.99928602  1
  O  O7  1  0.96368303  0.46978198  0.49928601  1
  O  O8  1  0.67285000  0.80402797  0.23788200  1
  O  O9  1  0.32715001  0.19597199  0.73788201  1
  O  O10  1  0.23417700  0.29735699  0.24025800  1
  O  O11  1  0.76582301  0.70264298  0.74025801  1
  O  O12  1  0.20558399  0.70978698  0.42546701  1
  O  O13  1  0.79441602  0.29021299  0.92546701  1
  O  O14  1  0.20831999  0.70201398  0.04849800  1
  O  O15  1  0.79168002  0.29798599  0.54849801  1
