# generated using pymatgen
data_BaS17
_symmetry_space_group_name_H-M   'P 1'
_cell_length_a   7.83271027
_cell_length_b   8.55465412
_cell_length_c   10.08926010
_cell_angle_alpha   107.79798126
_cell_angle_beta   105.00962067
_cell_angle_gamma   107.74185944
_symmetry_Int_Tables_number   1
_chemical_formula_structural   BaS17
_chemical_formula_sum   'Ba1 S17'
_cell_volume   564.96861619
_cell_formula_units_Z   1
loop_
 _symmetry_equiv_pos_site_id
 _symmetry_equiv_pos_as_xyz
  1  'x, y, z'
loop_
 _atom_site_type_symbol
 _atom_site_label
 _atom_site_symmetry_multiplicity
 _atom_site_fract_x
 _atom_site_fract_y
 _atom_site_fract_z
 _atom_site_occupancy
  Ba  Ba0  1  0.30779999  0.05780001  0.11559999  1
  S  S1  1  0.69220004  0.94220008  0.88440006  1
  S  S2  1  0.18541602  0.43541604  0.87083205  1
  S  S3  1  0.81458401  0.56458405  0.12916800  1
  S  S4  1  0.93968998  0.18969002  0.37937998  1
  S  S5  1  0.06031005  0.81031007  0.62062007  1
  S  S6  1  0.37741302  0.53398405  0.36355203  1
  S  S7  1  0.48613904  0.82956807  0.36355204  1
  S  S8  1  0.62258701  0.46601604  0.63644802  1
  S  S9  1  0.51386099  0.17043202  0.63644801  1
  S  S10  1  0.35098903  0.55447905  0.60355904  1
  S  S11  1  0.75256997  0.04908000  0.60355899  1
  S  S12  1  0.55732204  0.81154507  0.14532903  1
  S  S13  1  0.08800702  0.33378403  0.14532902  1
  S  S14  1  0.44267800  0.18845502  0.85467102  1
  S  S15  1  0.91199301  0.66621606  0.85467103  1
  S  S16  1  0.24743006  0.95092008  0.39644107  1
  S  S17  1  0.64901101  0.44552104  0.39644101  1
