# generated using pymatgen
data_S
_symmetry_space_group_name_H-M   'P 1'
_cell_length_a   6.11736202
_cell_length_b   6.11736202
_cell_length_c   7.64860630
_cell_angle_alpha   96.99554443
_cell_angle_beta   96.99554443
_cell_angle_gamma   96.87255096
_symmetry_Int_Tables_number   1
_chemical_formula_structural   S
_chemical_formula_sum   S12
_cell_volume   279.34126156
_cell_formula_units_Z   12
loop_
 _symmetry_equiv_pos_site_id
 _symmetry_equiv_pos_as_xyz
  1  'x, y, z'
loop_
 _atom_site_type_symbol
 _atom_site_label
 _atom_site_symmetry_multiplicity
 _atom_site_fract_x
 _atom_site_fract_y
 _atom_site_fract_z
 _atom_site_occupancy
  S  S0  1  0.89519604  0.59013100  0.28671104  1
  S  S1  1  0.40986901  0.10480400  0.21328901  1
  S  S2  1  0.10480403  0.40986900  0.71328900  1
  S  S3  1  0.59013106  0.89519600  0.78671103  1
  S  S4  1  0.33932403  0.43099600  0.03459403  1
  S  S5  1  0.56900404  0.66067600  0.46540603  1
  S  S6  1  0.66067604  0.56900400  0.96540602  1
  S  S7  1  0.43099602  0.33932400  0.53459401  1
  S  S8  1  0.30478205  0.69521800  0.25000003  1
  S  S9  1  0.69521802  0.30478200  0.75000001  1
  S  S10  1  0.86132201  0.13867800  0.25000003  1
  S  S11  1  0.13867806  0.86132200  0.75000002  1
