# generated using pymatgen
data_TeMo2
_symmetry_space_group_name_H-M   'P 1'
_cell_length_a   3.55237198
_cell_length_b   3.55237246
_cell_length_c   32.57111359
_cell_angle_alpha   90.00000000
_cell_angle_beta   90.00000000
_cell_angle_gamma   119.99999237
_symmetry_Int_Tables_number   1
_chemical_formula_structural   TeMo2
_chemical_formula_sum   'Te3 Mo6'
_cell_volume   355.95918341
_cell_formula_units_Z   3
loop_
 _symmetry_equiv_pos_site_id
 _symmetry_equiv_pos_as_xyz
  1  'x, y, z'
loop_
 _atom_site_type_symbol
 _atom_site_label
 _atom_site_symmetry_multiplicity
 _atom_site_fract_x
 _atom_site_fract_y
 _atom_site_fract_z
 _atom_site_occupancy
  Te  Te0  1  0.66666665  0.33333333  0.94424095  1
  Mo  Mo1  1  0.33333330  0.66666666  0.28701399  1
  Te  Te2  1  0.33333330  0.66666666  0.82437596  1
  Mo  Mo3  1  0.33333330  0.66666666  0.17562399  1
  Mo  Mo4  1  0.33333330  0.66666666  0.71298597  1
  Mo  Mo5  1  0.66666665  0.33333333  0.05575900  1
  Mo  Mo6  1  0.66666665  0.33333333  0.23132699  1
  Mo  Mo7  1  0.66666665  0.33333333  0.76867296  1
  Te  Te8  1  0.33333330  0.66666666  -0.00000000  1
