# generated using pymatgen
data_Mo2Se7
_symmetry_space_group_name_H-M   'P 1'
_cell_length_a   3.47913599
_cell_length_b   3.47913575
_cell_length_c   32.03364182
_cell_angle_alpha   90.00000000
_cell_angle_beta   90.00000000
_cell_angle_gamma   120.00000000
_symmetry_Int_Tables_number   1
_chemical_formula_structural   Mo2Se7
_chemical_formula_sum   'Mo2 Se7'
_cell_volume   335.79925332
_cell_formula_units_Z   1
loop_
 _symmetry_equiv_pos_site_id
 _symmetry_equiv_pos_as_xyz
  1  'x, y, z'
loop_
 _atom_site_type_symbol
 _atom_site_label
 _atom_site_symmetry_multiplicity
 _atom_site_fract_x
 _atom_site_fract_y
 _atom_site_fract_z
 _atom_site_occupancy
  Mo  Mo0  1  0.00000000  0.00000000  0.59560597  1
  Se  Se1  1  0.66666666  0.33333334  0.47910597  1
  Se  Se2  1  0.66666666  0.33333334  0.36423098  1
  Mo  Mo3  1  0.00000000  0.00000000  0.71051196  1
  Se  Se4  1  0.00000000  0.00000000  0.88433495  1
  Se  Se5  1  0.00000000  0.00000000  0.42162998  1
  Se  Se6  1  0.66666666  0.33333334  0.65302496  1
  Se  Se7  1  0.66666666  0.33333334  0.93505395  1
  Se  Se8  1  0.66666666  0.33333334  0.83366095  1
