# generated using pymatgen
data_LaZnS4
_symmetry_space_group_name_H-M   'P 1'
_cell_length_a   4.33016777
_cell_length_b   4.33016777
_cell_length_c   9.45314693
_cell_angle_alpha   90.00000000
_cell_angle_beta   90.00000000
_cell_angle_gamma   90.00000000
_symmetry_Int_Tables_number   1
_chemical_formula_structural   LaZnS4
_chemical_formula_sum   'La1 Zn1 S4'
_cell_volume   177.24984122
_cell_formula_units_Z   1
loop_
 _symmetry_equiv_pos_site_id
 _symmetry_equiv_pos_as_xyz
  1  'x, y, z'
loop_
 _atom_site_type_symbol
 _atom_site_label
 _atom_site_symmetry_multiplicity
 _atom_site_fract_x
 _atom_site_fract_y
 _atom_site_fract_z
 _atom_site_occupancy
  La  La0  1  0.00000000  0.50000003  0.72423101  1
  Zn  Zn1  1  0.50000003  0.00000000  0.27576900  1
  S  S2  1  0.00000000  0.00000000  0.00000000  1
  S  S3  1  0.50000003  0.50000003  -0.00000000  1
  S  S4  1  0.00000000  0.50000003  0.37628100  1
  S  S5  1  0.50000003  0.00000000  0.62371900  1
