# generated using pymatgen
data_BaLaF6
_symmetry_space_group_name_H-M   'P 1'
_cell_length_a   4.22250319
_cell_length_b   4.26774406
_cell_length_c   8.63534832
_cell_angle_alpha   75.69349670
_cell_angle_beta   90.00000000
_cell_angle_gamma   90.00000000
_symmetry_Int_Tables_number   1
_chemical_formula_structural   BaLaF6
_chemical_formula_sum   'Ba1 La1 F6'
_cell_volume   150.78789301
_cell_formula_units_Z   1
loop_
 _symmetry_equiv_pos_site_id
 _symmetry_equiv_pos_as_xyz
  1  'x, y, z'
loop_
 _atom_site_type_symbol
 _atom_site_label
 _atom_site_symmetry_multiplicity
 _atom_site_fract_x
 _atom_site_fract_y
 _atom_site_fract_z
 _atom_site_occupancy
  Ba  Ba0  1  0.74999997  0.60421099  0.79157797  1
  La  La1  1  0.24999999  0.39578900  0.20842199  1
  F  F2  1  0.74999997  0.96090699  0.07818599  1
  F  F3  1  0.24999999  0.03909300  0.92181397  1
  F  F4  1  0.74999997  0.24971800  0.50056398  1
  F  F5  1  0.24999999  0.75028199  0.49943597  1
  F  F6  1  0.74999997  0.81964399  0.36071198  1
  F  F7  1  0.24999999  0.18035600  0.63928798  1
