# generated using pymatgen
data_Li4O7
_symmetry_space_group_name_H-M   'P 1'
_cell_length_a   5.25820398
_cell_length_b   5.37811708
_cell_length_c   5.64943123
_cell_angle_alpha   89.83850861
_cell_angle_beta   66.42014313
_cell_angle_gamma   89.70780182
_symmetry_Int_Tables_number   1
_chemical_formula_structural   Li4O7
_chemical_formula_sum   'Li4 O7'
_cell_volume   146.42009864
_cell_formula_units_Z   1
loop_
 _symmetry_equiv_pos_site_id
 _symmetry_equiv_pos_as_xyz
  1  'x, y, z'
loop_
 _atom_site_type_symbol
 _atom_site_label
 _atom_site_symmetry_multiplicity
 _atom_site_fract_x
 _atom_site_fract_y
 _atom_site_fract_z
 _atom_site_occupancy
  Li  Li0  1  0.36099496  0.94497397  0.39003196  1
  Li  Li1  1  0.36528798  0.44100299  0.63124896  1
  Li  Li2  1  0.36440598  0.43983499  0.13065498  1
  Li  Li3  1  0.00055195  0.97803097  0.00044098  1
  O  O4  1  0.08508196  0.83443598  0.70571395  1
  O  O5  1  0.07333696  0.80924598  0.21587197  1
  O  O6  1  0.20656599  0.26847599  0.44339597  1
  O  O7  1  0.19319099  0.26244299  0.93982595  1
  O  O8  1  0.52220197  0.62676698  0.32523796  1
  O  O9  1  0.53916298  0.58501098  0.81546095  1
  O  O10  1  0.66141800  0.08567800  0.11201698  1
