# generated using pymatgen
data_BaLi2O9
_symmetry_space_group_name_H-M   'P 1'
_cell_length_a   5.09085512
_cell_length_b   5.17040396
_cell_length_c   6.83950090
_cell_angle_alpha   90.00000000
_cell_angle_beta   90.00000000
_cell_angle_gamma   90.00000000
_symmetry_Int_Tables_number   1
_chemical_formula_structural   BaLi2O9
_chemical_formula_sum   'Ba1 Li2 O9'
_cell_volume   180.02782078
_cell_formula_units_Z   1
loop_
 _symmetry_equiv_pos_site_id
 _symmetry_equiv_pos_as_xyz
  1  'x, y, z'
loop_
 _atom_site_type_symbol
 _atom_site_label
 _atom_site_symmetry_multiplicity
 _atom_site_fract_x
 _atom_site_fract_y
 _atom_site_fract_z
 _atom_site_occupancy
  Li  Li0  1  0.13968600  0.50800700  0.50000001  1
  Ba  Ba1  1  0.86031398  0.00800700  0.00000000  1
  Li  Li2  1  0.66503198  0.97931801  0.50000001  1
  O  O3  1  0.33496799  0.47931800  0.00000000  1
  O  O4  1  0.70186298  0.30008800  0.50000001  1
  O  O5  1  0.29813699  0.80008801  -0.00000000  1
  O  O6  1  0.34293099  0.91594701  0.50000001  1
  O  O7  1  0.65706898  0.41594700  -0.00000000  1
  O  O8  1  0.81612098  0.83422001  0.69238101  1
  O  O9  1  0.18387900  0.33422000  0.80761901  1
  O  O10  1  0.18387900  0.33422000  0.19238100  1
  O  O11  1  0.81612098  0.83422001  0.30761900  1
