# generated using pymatgen
data_O2
_symmetry_space_group_name_H-M   'P 1'
_cell_length_a   5.30083799
_cell_length_b   5.84247351
_cell_length_c   7.95753860
_cell_angle_alpha   106.05172729
_cell_angle_beta   107.51360321
_cell_angle_gamma   97.68608856
_symmetry_Int_Tables_number   1
_chemical_formula_structural   O2
_chemical_formula_sum   O18
_cell_volume   219.43837089
_cell_formula_units_Z   9
loop_
 _symmetry_equiv_pos_site_id
 _symmetry_equiv_pos_as_xyz
  1  'x, y, z'
loop_
 _atom_site_type_symbol
 _atom_site_label
 _atom_site_symmetry_multiplicity
 _atom_site_fract_x
 _atom_site_fract_y
 _atom_site_fract_z
 _atom_site_occupancy
  O  O0  1  0.73716698  0.40290299  0.81908696  1
  O  O1  1  0.26283297  0.59709699  0.18091296  1
  O  O2  1  0.00000000  0.00000000  0.50000000  1
  O  O3  1  0.00000000  0.00000000  0.00000000  1
  O  O4  1  0.67576598  0.37615099  0.22930297  1
  O  O5  1  0.32423397  0.62384899  0.77069696  1
  O  O6  1  0.38773199  0.04820000  0.32834599  1
  O  O7  1  0.61226795  0.95179998  0.67165394  1
  O  O8  1  0.79518299  0.06942400  0.72328497  1
  O  O9  1  0.71001298  0.21438900  0.35619997  1
  O  O10  1  0.32809798  0.35848699  0.66253497  1
  O  O11  1  0.39059498  0.27591399  0.06836098  1
  O  O12  1  0.90312298  0.37741599  0.14125896  1
  O  O13  1  0.09687697  0.62258399  0.85874096  1
  O  O14  1  0.60940496  0.72408599  0.93163895  1
  O  O15  1  0.67190197  0.64151299  0.33746495  1
  O  O16  1  0.28998696  0.78561098  0.64379995  1
  O  O17  1  0.20481696  0.93057598  0.27671495  1
