# generated using pymatgen
data_K2As7F
_symmetry_space_group_name_H-M   'P 1'
_cell_length_a   6.11114502
_cell_length_b   6.11114502
_cell_length_c   6.11114502
_cell_angle_alpha   60.00000000
_cell_angle_beta   60.00000000
_cell_angle_gamma   60.00000000
_symmetry_Int_Tables_number   1
_chemical_formula_structural   K2As7F
_chemical_formula_sum   'K2 As7 F1'
_cell_volume   161.38113723
_cell_formula_units_Z   1
loop_
 _symmetry_equiv_pos_site_id
 _symmetry_equiv_pos_as_xyz
  1  'x, y, z'
loop_
 _atom_site_type_symbol
 _atom_site_label
 _atom_site_symmetry_multiplicity
 _atom_site_fract_x
 _atom_site_fract_y
 _atom_site_fract_z
 _atom_site_occupancy
  K  K0  1  0.74999999  0.74999999  0.74999999  1
  K  K1  1  0.25000000  0.25000000  0.25000000  1
  As  As2  1  0.00000000  0.00000000  0.00000000  1
  As  As3  1  0.49999999  0.49999999  0.49999999  1
  F  F4  1  0.79279198  0.20720800  0.79279198  1
  As  As5  1  0.20720800  0.79279198  0.79279198  1
  As  As6  1  0.79279198  0.20720800  0.20720800  1
  As  As7  1  0.79279198  0.79279198  0.20720800  1
  As  As8  1  0.20720800  0.20720800  0.79279198  1
  As  As9  1  0.20720800  0.79279198  0.20720800  1
