# generated using pymatgen
data_Zn3O2
_symmetry_space_group_name_H-M   'P 1'
_cell_length_a   4.02757978
_cell_length_b   4.02757978
_cell_length_c   8.76155376
_cell_angle_alpha   90.00000000
_cell_angle_beta   90.00000000
_cell_angle_gamma   90.00000000
_symmetry_Int_Tables_number   1
_chemical_formula_structural   Zn3O2
_chemical_formula_sum   'Zn6 O4'
_cell_volume   142.12465877
_cell_formula_units_Z   2
loop_
 _symmetry_equiv_pos_site_id
 _symmetry_equiv_pos_as_xyz
  1  'x, y, z'
loop_
 _atom_site_type_symbol
 _atom_site_label
 _atom_site_symmetry_multiplicity
 _atom_site_fract_x
 _atom_site_fract_y
 _atom_site_fract_z
 _atom_site_occupancy
  O  O0  1  0.50000003  0.50000003  0.76389202  1
  O  O1  1  0.50000003  0.50000003  0.26807601  1
  O  O2  1  0.00000000  0.00000000  0.00629300  1
  O  O3  1  0.00000000  0.00000000  0.47316801  1
  Zn  Zn4  1  0.00000000  0.50000003  0.30052501  1
  Zn  Zn5  1  0.50000003  0.00000000  0.30052501  1
  Zn  Zn6  1  0.00000000  0.50000003  0.82570402  1
  Zn  Zn7  1  0.50000003  0.00000000  0.82570402  1
  Zn  Zn8  1  0.50000003  0.50000003  0.53781301  1
  Zn  Zn9  1  0.50000003  0.50000003  0.06690200  1
