# generated using pymatgen
data_La2Mg7
_symmetry_space_group_name_H-M   'P 1'
_cell_length_a   3.71612310
_cell_length_b   7.72381783
_cell_length_c   7.72381735
_cell_angle_alpha   120.00000000
_cell_angle_beta   90.00000000
_cell_angle_gamma   90.00000000
_symmetry_Int_Tables_number   1
_chemical_formula_structural   La2Mg7
_chemical_formula_sum   'La2 Mg7'
_cell_volume   191.99271106
_cell_formula_units_Z   1
loop_
 _symmetry_equiv_pos_site_id
 _symmetry_equiv_pos_as_xyz
  1  'x, y, z'
loop_
 _atom_site_type_symbol
 _atom_site_label
 _atom_site_symmetry_multiplicity
 _atom_site_fract_x
 _atom_site_fract_y
 _atom_site_fract_z
 _atom_site_occupancy
  La  La0  1  0.49999999  0.76019000  0.99999998  1
  Mg  Mg1  1  0.49999999  0.23981000  0.23980999  1
  La  La2  1  0.49999999  0.00000000  0.76019001  1
  Mg  Mg3  1  0.00000000  0.40575600  -0.00000002  1
  Mg  Mg4  1  0.00000000  0.59424400  0.59424398  1
  Mg  Mg5  1  0.00000000  0.00000000  0.40575601  1
  Mg  Mg6  1  0.00000000  0.00000000  0.00000000  1
  Mg  Mg7  1  0.49999999  0.33333333  0.66666666  1
  Mg  Mg8  1  0.49999999  0.66666667  0.33333331  1
