# generated using pymatgen
data_Au11O
_symmetry_space_group_name_H-M   'P 1'
_cell_length_a   6.07636786
_cell_length_b   6.07636690
_cell_length_c   8.09620285
_cell_angle_alpha   90.00000000
_cell_angle_beta   90.00000000
_cell_angle_gamma   120.00000763
_symmetry_Int_Tables_number   1
_chemical_formula_structural   Au11O
_chemical_formula_sum   'Au11 O1'
_cell_volume   258.88090980
_cell_formula_units_Z   1
loop_
 _symmetry_equiv_pos_site_id
 _symmetry_equiv_pos_as_xyz
  1  'x, y, z'
loop_
 _atom_site_type_symbol
 _atom_site_label
 _atom_site_symmetry_multiplicity
 _atom_site_fract_x
 _atom_site_fract_y
 _atom_site_fract_z
 _atom_site_occupancy
  Au  Au0  1  0.00000004  0.69064604  0.33333334  1
  Au  Au1  1  0.30935402  0.30935402  0.66666668  1
  Au  Au2  1  0.69064607  1.00000006  -0.00000000  1
  O  O3  1  0.30862902  0.30862902  0.16666700  1
  Au  Au4  1  0.00000004  0.69137104  0.83333302  1
  Au  Au5  1  0.69137102  0.00000000  0.50000001  1
  Au  Au6  1  0.10194704  0.62995304  0.94834402  1
  Au  Au7  1  0.52800606  0.89805305  0.61501101  1
  Au  Au8  1  0.37004703  0.47199403  0.28167701  1
  Au  Au9  1  0.62995302  0.10194701  0.38498901  1
  Au  Au10  1  0.47199403  0.37004702  0.05165600  1
  Au  Au11  1  0.89805305  0.52800603  0.71832301  1
