# generated using pymatgen
data_Cs3Te2
_symmetry_space_group_name_H-M   'P 1'
_cell_length_a   7.15694618
_cell_length_b   7.73871803
_cell_length_c   9.09730148
_cell_angle_alpha   115.17157745
_cell_angle_beta   113.16344452
_cell_angle_gamma   90.00000000
_symmetry_Int_Tables_number   1
_chemical_formula_structural   Cs3Te2
_chemical_formula_sum   'Cs6 Te4'
_cell_volume   410.68886323
_cell_formula_units_Z   2
loop_
 _symmetry_equiv_pos_site_id
 _symmetry_equiv_pos_as_xyz
  1  'x, y, z'
loop_
 _atom_site_type_symbol
 _atom_site_label
 _atom_site_symmetry_multiplicity
 _atom_site_fract_x
 _atom_site_fract_y
 _atom_site_fract_z
 _atom_site_occupancy
  Te  Te0  1  0.85633695  0.53231999  0.71267395  1
  Te  Te1  1  0.35633698  0.18035400  0.71267398  1
  Cs  Cs2  1  0.14366298  0.46767999  0.28732597  1
  Cs  Cs3  1  0.64366294  0.81964598  0.28732594  1
  Te  Te4  1  0.74999993  0.99999997  0.99999993  1
  Te  Te5  1  0.24999995  0.99999997  0.99999994  1
  Cs  Cs6  1  0.10349696  0.91498297  0.20699295  1
  Cs  Cs7  1  0.89650296  0.08501700  0.79300697  1
  Cs  Cs8  1  0.39650396  0.70798998  0.79300795  1
  Cs  Cs9  1  0.60349596  0.29200999  0.20699197  1
