# generated using pymatgen
data_BaYb8
_symmetry_space_group_name_H-M   'P 1'
_cell_length_a   3.78957701
_cell_length_b   7.80101585
_cell_length_c   7.80101585
_cell_angle_alpha   120.00000000
_cell_angle_beta   90.00000000
_cell_angle_gamma   90.00000000
_symmetry_Int_Tables_number   1
_chemical_formula_structural   BaYb8
_chemical_formula_sum   'Ba1 Yb8'
_cell_volume   199.72098047
_cell_formula_units_Z   1
loop_
 _symmetry_equiv_pos_site_id
 _symmetry_equiv_pos_as_xyz
  1  'x, y, z'
loop_
 _atom_site_type_symbol
 _atom_site_label
 _atom_site_symmetry_multiplicity
 _atom_site_fract_x
 _atom_site_fract_y
 _atom_site_fract_z
 _atom_site_occupancy
  Yb  Yb0  1  0.50000000  0.74997401  0.74997401  1
  Yb  Yb1  1  0.50000000  1.00000002  0.25002600  1
  Yb  Yb2  1  0.50000000  0.25002600  -0.00000000  1
  Yb  Yb3  1  1.00000000  0.40781101  0.40781101  1
  Ba  Ba4  1  0.00000000  1.00000002  0.59218901  1
  Yb  Yb5  1  0.00000000  0.59218901  -0.00000000  1
  Yb  Yb6  1  0.50000000  0.66666668  0.33333334  1
  Yb  Yb7  1  0.50000000  0.33333334  0.66666668  1
  Yb  Yb8  1  0.00000000  0.00000000  0.00000000  1
