# generated using pymatgen
data_O2
_symmetry_space_group_name_H-M   'P 1'
_cell_length_a   5.56630468
_cell_length_b   5.56630468
_cell_length_c   6.30240536
_cell_angle_alpha   111.49282837
_cell_angle_beta   111.49282837
_cell_angle_gamma   99.80684662
_symmetry_Int_Tables_number   1
_chemical_formula_structural   O2
_chemical_formula_sum   O12
_cell_volume   158.25289816
_cell_formula_units_Z   6
loop_
 _symmetry_equiv_pos_site_id
 _symmetry_equiv_pos_as_xyz
  1  'x, y, z'
loop_
 _atom_site_type_symbol
 _atom_site_label
 _atom_site_symmetry_multiplicity
 _atom_site_fract_x
 _atom_site_fract_y
 _atom_site_fract_z
 _atom_site_occupancy
  O  O0  1  0.79943099  0.20056899  0.99999994  1
  O  O1  1  0.20056891  0.79943098  -0.00000009  1
  O  O2  1  0.45056894  0.54943098  0.49999992  1
  O  O3  1  0.04943089  0.95056897  0.49999990  1
  O  O4  1  0.13640899  0.13640900  0.27281798  1
  O  O5  1  0.38640890  0.88640897  0.77281789  1
  O  O6  1  0.11359093  0.61359098  0.22718193  1
  O  O7  1  0.86359091  0.86359097  0.72718187  1
  O  O8  1  0.62499996  0.37499999  0.24999993  1
  O  O9  1  0.62499990  0.87499997  0.24999988  1
  O  O10  1  0.62499996  0.37499999  0.74999993  1
  O  O11  1  0.12499996  0.37499999  0.74999996  1
