# generated using pymatgen
data_As
_symmetry_space_group_name_H-M   'P 1'
_cell_length_a   3.63703203
_cell_length_b   3.63703179
_cell_length_c   16.36843109
_cell_angle_alpha   90.00000000
_cell_angle_beta   90.00000000
_cell_angle_gamma   120.00000000
_symmetry_Int_Tables_number   1
_chemical_formula_structural   As
_chemical_formula_sum   As8
_cell_volume   187.51322776
_cell_formula_units_Z   8
loop_
 _symmetry_equiv_pos_site_id
 _symmetry_equiv_pos_as_xyz
  1  'x, y, z'
loop_
 _atom_site_type_symbol
 _atom_site_label
 _atom_site_symmetry_multiplicity
 _atom_site_fract_x
 _atom_site_fract_y
 _atom_site_fract_z
 _atom_site_occupancy
  As  As0  1  0.00000000  0.00000000  0.00000000  1
  As  As1  1  0.00000000  0.00000000  0.50000003  1
  As  As2  1  0.00000000  0.00000000  0.75000004  1
  As  As3  1  0.00000000  0.00000000  0.25000001  1
  As  As4  1  0.66666666  0.33333334  0.84955905  1
  As  As5  1  0.66666666  0.33333334  0.65044104  1
  As  As6  1  0.33333332  0.66666668  0.34955902  1
  As  As7  1  0.33333332  0.66666668  0.15044101  1
