# generated using pymatgen
data_Be
_symmetry_space_group_name_H-M   'P 1'
_cell_length_a   3.06103611
_cell_length_b   3.06103611
_cell_length_c   6.32995987
_cell_angle_alpha   90.00000000
_cell_angle_beta   90.00000000
_cell_angle_gamma   120.00000000
_symmetry_Int_Tables_number   1
_chemical_formula_structural   Be
_chemical_formula_sum   Be6
_cell_volume   51.36514212
_cell_formula_units_Z   6
loop_
 _symmetry_equiv_pos_site_id
 _symmetry_equiv_pos_as_xyz
  1  'x, y, z'
loop_
 _atom_site_type_symbol
 _atom_site_label
 _atom_site_symmetry_multiplicity
 _atom_site_fract_x
 _atom_site_fract_y
 _atom_site_fract_z
 _atom_site_occupancy
  Be  Be0  1  0.00000000  0.00000000  0.00000000  1
  Be  Be1  1  0.00000000  0.00000000  0.50000001  1
  Be  Be2  1  0.33333333  0.66666666  0.26323001  1
  Be  Be3  1  0.33333333  0.66666666  0.73677002  1
  Be  Be4  1  0.66666665  0.33333333  0.26323001  1
  Be  Be5  1  0.66666665  0.33333333  0.73677002  1
