# generated using pymatgen
data_BaAu11
_symmetry_space_group_name_H-M   'P 1'
_cell_length_a   6.52873993
_cell_length_b   6.80986786
_cell_length_c   8.91416740
_cell_angle_alpha   112.45568848
_cell_angle_beta   111.48146820
_cell_angle_gamma   90.00000000
_symmetry_Int_Tables_number   1
_chemical_formula_structural   BaAu11
_chemical_formula_sum   'Ba1 Au11'
_cell_volume   336.29022253
_cell_formula_units_Z   1
loop_
 _symmetry_equiv_pos_site_id
 _symmetry_equiv_pos_as_xyz
  1  'x, y, z'
loop_
 _atom_site_type_symbol
 _atom_site_label
 _atom_site_symmetry_multiplicity
 _atom_site_fract_x
 _atom_site_fract_y
 _atom_site_fract_z
 _atom_site_occupancy
  Au  Au0  1  0.67485703  0.91622301  0.34971400  1
  Au  Au1  1  0.82514303  0.56650901  0.65028601  1
  Au  Au2  1  0.32514301  0.08377700  0.65028599  1
  Au  Au3  1  0.17485701  0.43349101  0.34971399  1
  Ba  Ba4  1  0.75000003  0.50000001  0.00000002  1
  Au  Au5  1  0.25000002  0.50000001  0.99999997  1
  Au  Au6  1  0.75000002  0.00000000  0.00000003  1
  Au  Au7  1  0.25000001  0.00000000  0.00000001  1
  Au  Au8  1  0.09423202  0.89380701  0.18846398  1
  Au  Au9  1  0.90576803  0.10619300  0.81153601  1
  Au  Au10  1  0.40576802  0.70534301  0.81153598  1
  Au  Au11  1  0.59423202  0.29465700  0.18846401  1
