# generated using pymatgen
data_BaS2
_symmetry_space_group_name_H-M   'P 1'
_cell_length_a   8.02472782
_cell_length_b   8.37660027
_cell_length_c   8.02472782
_cell_angle_alpha   118.61989594
_cell_angle_beta   90.00000000
_cell_angle_gamma   118.61989594
_symmetry_Int_Tables_number   1
_chemical_formula_structural   BaS2
_chemical_formula_sum   'Ba6 S12'
_cell_volume   396.80481626
_cell_formula_units_Z   6
loop_
 _symmetry_equiv_pos_site_id
 _symmetry_equiv_pos_as_xyz
  1  'x, y, z'
loop_
 _atom_site_type_symbol
 _atom_site_label
 _atom_site_symmetry_multiplicity
 _atom_site_fract_x
 _atom_site_fract_y
 _atom_site_fract_z
 _atom_site_occupancy
  Ba  Ba0  1  0.81443896  0.99999989  0.68556096  1
  Ba  Ba1  1  0.18556100  0.00000000  0.31443901  1
  Ba  Ba2  1  0.31443901  0.00000000  0.81443902  1
  Ba  Ba3  1  0.68556101  0.00000000  0.18556100  1
  Ba  Ba4  1  0.74999999  0.49999995  0.74999999  1
  Ba  Ba5  1  0.24999998  0.49999995  0.24999998  1
  S  S6  1  0.74999999  0.49999995  0.24999998  1
  S  S7  1  0.24999998  0.49999995  0.74999999  1
  S  S8  1  0.52898799  0.31621597  0.28722799  1
  S  S9  1  0.78722800  0.31621597  0.02898798  1
  S  S10  1  0.02898798  0.31621597  0.52898799  1
  S  S11  1  0.28722799  0.31621597  0.78722800  1
  S  S12  1  0.47101197  0.68378393  0.71277198  1
  S  S13  1  0.21277196  0.68378393  0.97101198  1
  S  S14  1  0.97101198  0.68378393  0.47101197  1
  S  S15  1  0.71277198  0.68378393  0.21277197  1
  S  S16  1  0.50000001  0.00000000  0.50000001  1
  S  S17  1  0.00000000  0.00000000  0.00000000  1
