# generated using pymatgen
data_Al
_symmetry_space_group_name_H-M   'P 1'
_cell_length_a   3.87688994
_cell_length_b   3.87688994
_cell_length_c   13.65683556
_cell_angle_alpha   98.16009521
_cell_angle_beta   98.16009521
_cell_angle_gamma   90.00000000
_symmetry_Int_Tables_number   1
_chemical_formula_structural   Al
_chemical_formula_sum   Al17
_cell_volume   201.08802305
_cell_formula_units_Z   17
loop_
 _symmetry_equiv_pos_site_id
 _symmetry_equiv_pos_as_xyz
  1  'x, y, z'
loop_
 _atom_site_type_symbol
 _atom_site_label
 _atom_site_symmetry_multiplicity
 _atom_site_fract_x
 _atom_site_fract_y
 _atom_site_fract_z
 _atom_site_occupancy
  Al  Al0  1  0.25000001  0.75000001  0.50000002  1
  Al  Al1  1  0.75000001  0.25000000  0.50000002  1
  Al  Al2  1  0.41883701  0.41883701  0.83767402  1
  Al  Al3  1  0.58116301  0.58116301  0.16232601  1
  Al  Al4  1  0.15771700  0.15771700  0.31543401  1
  Al  Al5  1  0.84228302  0.84228301  0.68456602  1
  Al  Al6  1  0.00000000  0.00000000  0.00000000  1
  Al  Al7  1  0.35747601  0.85747601  0.71495202  1
  Al  Al8  1  0.77545401  0.77545401  0.55090802  1
  Al  Al9  1  0.22454600  0.22454600  0.44909201  1
  Al  Al10  1  0.50000001  0.00000000  0.00000000  1
  Al  Al11  1  0.85747601  0.35747601  0.71495202  1
  Al  Al12  1  0.00000000  0.50000001  1.00000003  1
  Al  Al13  1  0.92736702  0.92736702  0.85473403  1
  Al  Al14  1  0.07263300  0.07263300  0.14526600  1
  Al  Al15  1  0.14252400  0.64252401  0.28504801  1
  Al  Al16  1  0.64252401  0.14252400  0.28504801  1
