# generated using pymatgen
data_KO11
_symmetry_space_group_name_H-M   'P 1'
_cell_length_a   6.35237217
_cell_length_b   6.48843002
_cell_length_c   6.50298023
_cell_angle_alpha   90.00000000
_cell_angle_beta   90.00000000
_cell_angle_gamma   90.00000000
_symmetry_Int_Tables_number   1
_chemical_formula_structural   KO11
_chemical_formula_sum   'K1 O11'
_cell_volume   268.03283097
_cell_formula_units_Z   1
loop_
 _symmetry_equiv_pos_site_id
 _symmetry_equiv_pos_as_xyz
  1  'x, y, z'
loop_
 _atom_site_type_symbol
 _atom_site_label
 _atom_site_symmetry_multiplicity
 _atom_site_fract_x
 _atom_site_fract_y
 _atom_site_fract_z
 _atom_site_occupancy
  O  O0  1  0.26700299  0.50000000  0.70135297  1
  O  O1  1  0.26700299  0.50000000  0.29864699  1
  O  O2  1  0.69240398  0.50000000  0.49999998  1
  O  O3  1  0.51844899  0.50000000  0.19124899  1
  O  O4  1  0.51844899  0.50000000  0.80875097  1
  O  O5  1  0.96487397  0.00000000  -0.00000000  1
  O  O6  1  0.51983099  0.50000000  0.49999998  1
  O  O7  1  0.98377197  0.00000000  0.49999998  1
  O  O8  1  0.46272999  0.00000000  -0.00000000  1
  K  K9  1  0.92058298  0.50000000  -0.00000000  1
  O  O10  1  0.42670799  0.50000000  0.31982799  1
  O  O11  1  0.42670799  0.50000000  0.68017198  1
