# generated using pymatgen
data_S
_symmetry_space_group_name_H-M   'P 1'
_cell_length_a   6.66222811
_cell_length_b   6.66222811
_cell_length_c   7.10460377
_cell_angle_alpha   62.03922653
_cell_angle_beta   62.03922653
_cell_angle_gamma   59.99999619
_symmetry_Int_Tables_number   1
_chemical_formula_structural   S
_chemical_formula_sum   S10
_cell_volume   229.60633712
_cell_formula_units_Z   10
loop_
 _symmetry_equiv_pos_site_id
 _symmetry_equiv_pos_as_xyz
  1  'x, y, z'
loop_
 _atom_site_type_symbol
 _atom_site_label
 _atom_site_symmetry_multiplicity
 _atom_site_fract_x
 _atom_site_fract_y
 _atom_site_fract_z
 _atom_site_occupancy
  S  S0  1  0.35440300  0.35440301  0.93679098  1
  S  S1  1  0.14559700  0.14559701  0.56320899  1
  S  S2  1  0.64559700  0.64559702  0.06320899  1
  S  S3  1  0.85440300  0.85440303  0.43679098  1
  S  S4  1  0.54867101  0.25000001  0.24999999  1
  S  S5  1  0.24999999  0.95132903  0.24999999  1
  S  S6  1  0.95132901  0.54867102  0.24999998  1
  S  S7  1  0.45132900  0.75000003  0.74999998  1
  S  S8  1  0.04867099  0.45132902  0.74999998  1
  S  S9  1  0.75000002  0.04867100  0.74999998  1
