# generated using pymatgen
data_Na2As7F
_symmetry_space_group_name_H-M   'P 1'
_cell_length_a   5.66366243
_cell_length_b   5.66366243
_cell_length_c   5.66366243
_cell_angle_alpha   60.00000000
_cell_angle_beta   60.00000000
_cell_angle_gamma   60.00000000
_symmetry_Int_Tables_number   1
_chemical_formula_structural   Na2As7F
_chemical_formula_sum   'Na2 As7 F1'
_cell_volume   128.46271130
_cell_formula_units_Z   1
loop_
 _symmetry_equiv_pos_site_id
 _symmetry_equiv_pos_as_xyz
  1  'x, y, z'
loop_
 _atom_site_type_symbol
 _atom_site_label
 _atom_site_symmetry_multiplicity
 _atom_site_fract_x
 _atom_site_fract_y
 _atom_site_fract_z
 _atom_site_occupancy
  Na  Na0  1  0.24999999  0.24999999  0.24999999  1
  Na  Na1  1  0.74999998  0.74999998  0.74999998  1
  As  As2  1  0.49999999  0.49999999  0.49999999  1
  As  As3  1  0.00000000  0.00000000  0.00000000  1
  F  F4  1  0.25232199  0.74767798  0.25232199  1
  As  As5  1  0.25232199  0.25232199  0.74767798  1
  As  As6  1  0.74767798  0.25232199  0.74767798  1
  As  As7  1  0.25232199  0.74767798  0.74767798  1
  As  As8  1  0.74767798  0.25232199  0.25232199  1
  As  As9  1  0.74767798  0.74767798  0.25232199  1
