# generated using pymatgen
data_Pm
_symmetry_space_group_name_H-M   'P 1'
_cell_length_a   7.54192305
_cell_length_b   7.54192305
_cell_length_c   7.54192305
_cell_angle_alpha   60.00000000
_cell_angle_beta   60.00000000
_cell_angle_gamma   60.00000000
_symmetry_Int_Tables_number   1
_chemical_formula_structural   Pm
_chemical_formula_sum   Pm9
_cell_volume   303.34112458
_cell_formula_units_Z   9
loop_
 _symmetry_equiv_pos_site_id
 _symmetry_equiv_pos_as_xyz
  1  'x, y, z'
loop_
 _atom_site_type_symbol
 _atom_site_label
 _atom_site_symmetry_multiplicity
 _atom_site_fract_x
 _atom_site_fract_y
 _atom_site_fract_z
 _atom_site_occupancy
  Pm  Pm0  1  0.25000000  0.25000000  0.25000000  1
  Pm  Pm1  1  0.75000001  0.75000001  0.75000001  1
  Pm  Pm2  1  0.50000001  0.50000001  0.50000001  1
  Pm  Pm3  1  0.73292201  0.73292201  0.26707800  1
  Pm  Pm4  1  0.73292201  0.26707800  0.73292201  1
  Pm  Pm5  1  0.73292201  0.26707800  0.26707800  1
  Pm  Pm6  1  0.26707800  0.26707800  0.73292201  1
  Pm  Pm7  1  0.26707800  0.73292201  0.26707800  1
  Pm  Pm8  1  0.26707800  0.73292201  0.73292201  1
