# generated using pymatgen
data_BaLa4As5
_symmetry_space_group_name_H-M   'P 1'
_cell_length_a   6.30391407
_cell_length_b   6.93363190
_cell_length_c   7.89991140
_cell_angle_alpha   116.03004456
_cell_angle_beta   113.51482391
_cell_angle_gamma   90.00000000
_symmetry_Int_Tables_number   1
_chemical_formula_structural   BaLa4As5
_chemical_formula_sum   'Ba1 La4 As5'
_cell_volume   278.00777046
_cell_formula_units_Z   1
loop_
 _symmetry_equiv_pos_site_id
 _symmetry_equiv_pos_as_xyz
  1  'x, y, z'
loop_
 _atom_site_type_symbol
 _atom_site_label
 _atom_site_symmetry_multiplicity
 _atom_site_fract_x
 _atom_site_fract_y
 _atom_site_fract_z
 _atom_site_occupancy
  As  As0  1  0.64715596  0.80613901  0.29431197  1
  La  La1  1  0.85284396  0.51182701  0.70568797  1
  Ba  Ba2  1  0.35284398  0.19386100  0.70568799  1
  As  As3  1  0.14715598  0.48817301  0.29431199  1
  As  As4  1  0.24999999  0.00000000  -0.00000001  1
  As  As5  1  0.74999998  0.00000000  -0.00000003  1
  As  As6  1  0.60217697  0.29493300  0.20435497  1
  La  La7  1  0.89782197  0.09057800  0.79564397  1
  La  La8  1  0.39782297  0.70506701  0.79564499  1
  La  La9  1  0.10217797  0.90942201  0.20435599  1
