# generated using pymatgen
data_S
_symmetry_space_group_name_H-M   'P 1'
_cell_length_a   6.50007200
_cell_length_b   6.56639004
_cell_length_c   6.56639004
_cell_angle_alpha   90.00000000
_cell_angle_beta   90.00000000
_cell_angle_gamma   90.00000000
_symmetry_Int_Tables_number   1
_chemical_formula_structural   S
_chemical_formula_sum   S7
_cell_volume   280.26671238
_cell_formula_units_Z   7
loop_
 _symmetry_equiv_pos_site_id
 _symmetry_equiv_pos_as_xyz
  1  'x, y, z'
loop_
 _atom_site_type_symbol
 _atom_site_label
 _atom_site_symmetry_multiplicity
 _atom_site_fract_x
 _atom_site_fract_y
 _atom_site_fract_z
 _atom_site_occupancy
  S  S0  1  0.50000000  0.50000000  -0.00000000  1
  S  S1  1  0.50000000  0.00000000  0.50000000  1
  S  S2  1  0.00000000  0.00000000  0.00000000  1
  S  S3  1  0.24039700  0.73936500  0.73936500  1
  S  S4  1  0.75960300  0.73936500  0.26063500  1
  S  S5  1  0.24039700  0.26063500  0.26063500  1
  S  S6  1  0.75960300  0.26063500  0.73936500  1
