# generated using pymatgen
data_Li3MnO6
_symmetry_space_group_name_H-M   'P 1'
_cell_length_a   2.97344208
_cell_length_b   5.12101746
_cell_length_c   7.25816393
_cell_angle_alpha   90.00000000
_cell_angle_beta   90.00000000
_cell_angle_gamma   106.87696838
_symmetry_Int_Tables_number   1
_chemical_formula_structural   Li3MnO6
_chemical_formula_sum   'Li3 Mn1 O6'
_cell_volume   105.76034197
_cell_formula_units_Z   1
loop_
 _symmetry_equiv_pos_site_id
 _symmetry_equiv_pos_as_xyz
  1  'x, y, z'
loop_
 _atom_site_type_symbol
 _atom_site_label
 _atom_site_symmetry_multiplicity
 _atom_site_fract_x
 _atom_site_fract_y
 _atom_site_fract_z
 _atom_site_occupancy
  O  O0  1  0.37045805  0.74091599  0.55552501  1
  O  O1  1  0.62954200  0.25908400  0.44447500  1
  O  O2  1  0.37045805  0.74091599  0.94447501  1
  O  O3  1  0.62954200  0.25908400  0.05552500  1
  O  O4  1  0.05992401  0.11984800  0.75000001  1
  O  O5  1  0.94007604  0.88015198  0.25000000  1
  Li  Li6  1  0.74336502  0.48672999  0.75000001  1
  Li  Li7  1  0.25663503  0.51326999  0.25000000  1
  Li  Li8  1  0.00000000  0.00000000  0.50000000  1
  Mn  Mn9  1  0.00000000  0.00000000  0.00000000  1
