# generated using pymatgen
data_BaYb3
_symmetry_space_group_name_H-M   'P 1'
_cell_length_a   3.74564004
_cell_length_b   6.41773176
_cell_length_c   7.18632603
_cell_angle_alpha   116.52087402
_cell_angle_beta   105.10619354
_cell_angle_gamma   90.00000000
_symmetry_Int_Tables_number   1
_chemical_formula_structural   BaYb3
_chemical_formula_sum   'Ba1 Yb3'
_cell_volume   147.86911047
_cell_formula_units_Z   1
loop_
 _symmetry_equiv_pos_site_id
 _symmetry_equiv_pos_as_xyz
  1  'x, y, z'
loop_
 _atom_site_type_symbol
 _atom_site_label
 _atom_site_symmetry_multiplicity
 _atom_site_fract_x
 _atom_site_fract_y
 _atom_site_fract_z
 _atom_site_occupancy
  Yb  Yb0  1  0.50000001  0.15062300  0.00000001  1
  Yb  Yb1  1  0.73456803  0.74285202  0.46913602  1
  Yb  Yb2  1  0.26543301  0.27371701  0.53086502  1
  Ba  Ba3  1  0.00000002  0.66614202  -0.00000001  1
