# generated using pymatgen
data_PrPt5
_symmetry_space_group_name_H-M   'P 1'
_cell_length_a   4.26684093
_cell_length_b   5.39509010
_cell_length_c   5.39509010
_cell_angle_alpha   60.00000000
_cell_angle_beta   90.00000000
_cell_angle_gamma   90.00000000
_symmetry_Int_Tables_number   1
_chemical_formula_structural   PrPt5
_chemical_formula_sum   'Pr1 Pt5'
_cell_volume   107.55596200
_cell_formula_units_Z   1
loop_
 _symmetry_equiv_pos_site_id
 _symmetry_equiv_pos_as_xyz
  1  'x, y, z'
loop_
 _atom_site_type_symbol
 _atom_site_label
 _atom_site_symmetry_multiplicity
 _atom_site_fract_x
 _atom_site_fract_y
 _atom_site_fract_z
 _atom_site_occupancy
  Pr  Pr0  1  0.00000000  0.00000000  0.00000000  1
  Pt  Pt1  1  0.50000001  0.49999999  0.49999999  1
  Pt  Pt2  1  1.00000002  0.33333333  0.33333333  1
  Pt  Pt3  1  1.00000002  0.66666665  0.66666665  1
  Pt  Pt4  1  0.50000001  0.00000000  0.49999999  1
  Pt  Pt5  1  0.50000001  0.49999999  -0.00000000  1
