# generated using pymatgen
data_BaO6
_symmetry_space_group_name_H-M   'P 1'
_cell_length_a   6.23042488
_cell_length_b   6.23042488
_cell_length_c   8.96065712
_cell_angle_alpha   90.00000000
_cell_angle_beta   90.00000000
_cell_angle_gamma   90.00000000
_symmetry_Int_Tables_number   1
_chemical_formula_structural   BaO6
_chemical_formula_sum   'Ba2 O12'
_cell_volume   347.83652821
_cell_formula_units_Z   2
loop_
 _symmetry_equiv_pos_site_id
 _symmetry_equiv_pos_as_xyz
  1  'x, y, z'
loop_
 _atom_site_type_symbol
 _atom_site_label
 _atom_site_symmetry_multiplicity
 _atom_site_fract_x
 _atom_site_fract_y
 _atom_site_fract_z
 _atom_site_occupancy
  Ba  Ba0  1  0.00000000  0.50000001  0.25000000  1
  O  O1  1  0.50000001  0.00000000  0.74999999  1
  O  O2  1  0.00000000  0.50000001  0.74999999  1
  Ba  Ba3  1  0.50000001  0.00000000  0.25000000  1
  O  O4  1  0.50000001  0.50000001  0.31402400  1
  O  O5  1  0.00000000  0.00000000  0.81402399  1
  O  O6  1  0.50000001  0.50000001  0.68597599  1
  O  O7  1  0.00000000  0.00000000  0.18597600  1
  O  O8  1  0.31150501  0.68849501  0.49999999  1
  O  O9  1  0.68849501  0.31150501  0.49999999  1
  O  O10  1  0.18849500  0.18849500  -0.00000000  1
  O  O11  1  0.81150502  0.81150502  -0.00000000  1
  O  O12  1  0.50000001  0.50000001  0.49999999  1
  O  O13  1  0.00000000  0.00000000  0.00000000  1
