# generated using pymatgen
data_CsTmI
_symmetry_space_group_name_H-M   'P 1'
_cell_length_a   3.32561207
_cell_length_b   3.32561255
_cell_length_c   17.52708435
_cell_angle_alpha   90.00000000
_cell_angle_beta   90.00000000
_cell_angle_gamma   119.99999237
_symmetry_Int_Tables_number   1
_chemical_formula_structural   CsTmI
_chemical_formula_sum   'Cs1 Tm1 I1'
_cell_volume   167.87405428
_cell_formula_units_Z   1
loop_
 _symmetry_equiv_pos_site_id
 _symmetry_equiv_pos_as_xyz
  1  'x, y, z'
loop_
 _atom_site_type_symbol
 _atom_site_label
 _atom_site_symmetry_multiplicity
 _atom_site_fract_x
 _atom_site_fract_y
 _atom_site_fract_z
 _atom_site_occupancy
  Tm  Tm0  1  0.00000000  0.00000000  0.00000000  1
  I  I1  1  0.66666663  0.33333331  0.90412403  1
  Cs  Cs2  1  0.66666663  0.33333331  0.09587600  1
