# generated using pymatgen
data_BaS6O
_symmetry_space_group_name_H-M   'P 1'
_cell_length_a   4.89041996
_cell_length_b   5.57993793
_cell_length_c   7.93329811
_cell_angle_alpha   90.00000000
_cell_angle_beta   90.00000000
_cell_angle_gamma   90.00000000
_symmetry_Int_Tables_number   1
_chemical_formula_structural   BaS6O
_chemical_formula_sum   'Ba1 S6 O1'
_cell_volume   216.48574167
_cell_formula_units_Z   1
loop_
 _symmetry_equiv_pos_site_id
 _symmetry_equiv_pos_as_xyz
  1  'x, y, z'
loop_
 _atom_site_type_symbol
 _atom_site_label
 _atom_site_symmetry_multiplicity
 _atom_site_fract_x
 _atom_site_fract_y
 _atom_site_fract_z
 _atom_site_occupancy
  S  S0  1  0.00000000  0.00000000  0.25000000  1
  S  S1  1  0.00000000  0.00000000  0.74999999  1
  O  O2  1  0.50000000  0.50000001  -0.00000000  1
  S  S3  1  0.50000000  0.50000001  0.49999999  1
  Ba  Ba4  1  0.67405701  0.88482301  0.00000000  1
  S  S5  1  0.67405701  0.11517700  0.49999999  1
  S  S6  1  0.32594300  0.88482301  0.49999999  1
  S  S7  1  0.32594300  0.11517700  0.00000000  1
