# generated using pymatgen
data_Al
_symmetry_space_group_name_H-M   'P 1'
_cell_length_a   4.19361782
_cell_length_b   4.19361830
_cell_length_c   7.93207979
_cell_angle_alpha   90.00000000
_cell_angle_beta   90.00000000
_cell_angle_gamma   120.00000000
_symmetry_Int_Tables_number   1
_chemical_formula_structural   Al
_chemical_formula_sum   Al8
_cell_volume   120.80793299
_cell_formula_units_Z   8
loop_
 _symmetry_equiv_pos_site_id
 _symmetry_equiv_pos_as_xyz
  1  'x, y, z'
loop_
 _atom_site_type_symbol
 _atom_site_label
 _atom_site_symmetry_multiplicity
 _atom_site_fract_x
 _atom_site_fract_y
 _atom_site_fract_z
 _atom_site_occupancy
  Al  Al0  1  0.33333337  0.66666667  0.58554102  1
  Al  Al1  1  0.66666671  0.33333334  0.08554100  1
  Al  Al2  1  0.33333337  0.66666667  0.91445902  1
  Al  Al3  1  0.66666671  0.33333334  0.41445901  1
  Al  Al4  1  0.00000000  0.00000000  0.25000001  1
  Al  Al5  1  0.00000000  0.00000000  0.75000002  1
  Al  Al6  1  0.66666671  0.33333334  0.75000002  1
  Al  Al7  1  0.33333337  0.66666667  0.25000001  1
