# generated using pymatgen
data_Tm2F
_symmetry_space_group_name_H-M   'P 1'
_cell_length_a   3.99075103
_cell_length_b   3.99075103
_cell_length_c   7.02024317
_cell_angle_alpha   90.00000000
_cell_angle_beta   90.00000000
_cell_angle_gamma   90.00000000
_symmetry_Int_Tables_number   1
_chemical_formula_structural   Tm2F
_chemical_formula_sum   'Tm4 F2'
_cell_volume   111.80505097
_cell_formula_units_Z   2
loop_
 _symmetry_equiv_pos_site_id
 _symmetry_equiv_pos_as_xyz
  1  'x, y, z'
loop_
 _atom_site_type_symbol
 _atom_site_label
 _atom_site_symmetry_multiplicity
 _atom_site_fract_x
 _atom_site_fract_y
 _atom_site_fract_z
 _atom_site_occupancy
  Tm  Tm0  1  0.00000000  0.50000000  0.76969798  1
  F  F1  1  0.50000000  0.00000000  0.23030199  1
  F  F2  1  0.50000000  0.00000000  0.64745898  1
  Tm  Tm3  1  0.00000000  0.50000000  0.35254099  1
  Tm  Tm4  1  0.50000000  0.50000000  0.00000000  1
  Tm  Tm5  1  0.00000000  0.00000000  0.00000000  1
