# generated using pymatgen
data_Sn
_symmetry_space_group_name_H-M   'P 1'
_cell_length_a   5.13952494
_cell_length_b   6.31145811
_cell_length_c   6.31145906
_cell_angle_alpha   60.00000381
_cell_angle_beta   90.00000000
_cell_angle_gamma   90.00000000
_symmetry_Int_Tables_number   1
_chemical_formula_structural   Sn
_chemical_formula_sum   Sn8
_cell_volume   177.30178172
_cell_formula_units_Z   8
loop_
 _symmetry_equiv_pos_site_id
 _symmetry_equiv_pos_as_xyz
  1  'x, y, z'
loop_
 _atom_site_type_symbol
 _atom_site_label
 _atom_site_symmetry_multiplicity
 _atom_site_fract_x
 _atom_site_fract_y
 _atom_site_fract_z
 _atom_site_occupancy
  Sn  Sn0  1  0.75000001  0.83241099  0.33517798  1
  Sn  Sn1  1  0.75000001  0.33517700  0.83241197  1
  Sn  Sn2  1  0.75000001  0.83241099  0.83241196  1
  Sn  Sn3  1  0.25000000  0.16758900  0.66482198  1
  Sn  Sn4  1  0.25000000  0.66482299  0.16758798  1
  Sn  Sn5  1  0.25000000  0.16758900  0.16758799  1
  Sn  Sn6  1  0.75000001  0.33333333  0.33333332  1
  Sn  Sn7  1  0.25000000  0.66666666  0.66666664  1
