# generated using pymatgen
data_Cs4Te
_symmetry_space_group_name_H-M   'P 1'
_cell_length_a   5.98042393
_cell_length_b   5.98508453
_cell_length_c   5.98508453
_cell_angle_alpha   89.93228149
_cell_angle_beta   90.05739594
_cell_angle_gamma   89.94260406
_symmetry_Int_Tables_number   1
_chemical_formula_structural   Cs4Te
_chemical_formula_sum   'Cs4 Te1'
_cell_volume   214.22581726
_cell_formula_units_Z   1
loop_
 _symmetry_equiv_pos_site_id
 _symmetry_equiv_pos_as_xyz
  1  'x, y, z'
loop_
 _atom_site_type_symbol
 _atom_site_label
 _atom_site_symmetry_multiplicity
 _atom_site_fract_x
 _atom_site_fract_y
 _atom_site_fract_z
 _atom_site_occupancy
  Cs  Cs0  1  0.00019495  0.99704397  0.00295601  1
  Te  Te1  1  0.51643198  0.49472499  0.50527501  1
  Cs  Cs2  1  0.51472498  0.49593399  0.00276903  1
  Cs  Cs3  1  0.01584898  0.50861099  0.49138899  1
  Cs  Cs4  1  0.51472496  0.99723097  0.50406602  1
