# generated using pymatgen
data_BaYb5
_symmetry_space_group_name_H-M   'P 1'
_cell_length_a   3.48410606
_cell_length_b   6.79180336
_cell_length_c   7.69029045
_cell_angle_alpha   105.14234924
_cell_angle_beta   90.00000000
_cell_angle_gamma   104.86209869
_symmetry_Int_Tables_number   1
_chemical_formula_structural   BaYb5
_chemical_formula_sum   'Ba1 Yb5'
_cell_volume   169.34492982
_cell_formula_units_Z   1
loop_
 _symmetry_equiv_pos_site_id
 _symmetry_equiv_pos_as_xyz
  1  'x, y, z'
loop_
 _atom_site_type_symbol
 _atom_site_label
 _atom_site_symmetry_multiplicity
 _atom_site_fract_x
 _atom_site_fract_y
 _atom_site_fract_z
 _atom_site_occupancy
  Yb  Yb0  1  0.47813105  0.95626197  0.22023896  1
  Yb  Yb1  1  0.52186899  0.04373800  0.77976100  1
  Ba  Ba2  1  0.19868402  0.39736799  0.13643798  1
  Yb  Yb3  1  0.84010502  0.68020998  0.46218498  1
  Yb  Yb4  1  0.15989502  0.31978999  0.53781499  1
  Yb  Yb5  1  0.80131602  0.60263198  0.86356198  1
