# generated using pymatgen
data_O2
_symmetry_space_group_name_H-M   'P 1'
_cell_length_a   3.16027093
_cell_length_b   6.21755791
_cell_length_c   9.31315899
_cell_angle_alpha   104.57985687
_cell_angle_beta   90.59517670
_cell_angle_gamma   91.88677979
_symmetry_Int_Tables_number   1
_chemical_formula_structural   O2
_chemical_formula_sum   O18
_cell_volume   176.97392621
_cell_formula_units_Z   9
loop_
 _symmetry_equiv_pos_site_id
 _symmetry_equiv_pos_as_xyz
  1  'x, y, z'
loop_
 _atom_site_type_symbol
 _atom_site_label
 _atom_site_symmetry_multiplicity
 _atom_site_fract_x
 _atom_site_fract_y
 _atom_site_fract_z
 _atom_site_occupancy
  O  O0  1  0.23252804  0.21038600  0.85592101  1
  O  O1  1  0.76747214  0.78961400  0.14407901  1
  O  O2  1  0.73397907  0.37198400  0.60261701  1
  O  O3  1  0.26602110  0.62801600  0.39738301  1
  O  O4  1  0.80054307  0.31854100  0.14368901  1
  O  O5  1  0.19945711  0.68145900  0.85631101  1
  O  O6  1  0.83720415  0.87942300  0.66920402  1
  O  O7  1  0.16279602  0.12057700  0.33079600  1
  O  O8  1  0.27378114  0.90688700  0.31886301  1
  O  O9  1  0.72621903  0.09311300  0.68113701  1
  O  O10  1  0.23551505  0.30395300  0.44662601  1
  O  O11  1  0.76448512  0.69604700  0.55337401  1
  O  O12  1  0.93366604  0.13864400  0.20069902  1
  O  O13  1  0.06633413  0.86135600  0.79930100  1
  O  O14  1  0.26796012  0.72517800  0.00430101  1
  O  O15  1  0.73204006  0.27482200  0.99569901  1
  O  O16  1  0.75926310  0.52328000  0.24152201  1
  O  O17  1  0.24073708  0.47672000  0.75847801  1
