# generated using pymatgen
data_Yb
_symmetry_space_group_name_H-M   'P 1'
_cell_length_a   4.05004597
_cell_length_b   5.45974636
_cell_length_c   6.86845398
_cell_angle_alpha   90.00000000
_cell_angle_beta   90.00000000
_cell_angle_gamma   111.77116394
_symmetry_Int_Tables_number   1
_chemical_formula_structural   Yb
_chemical_formula_sum   Yb8
_cell_volume   141.04381640
_cell_formula_units_Z   8
loop_
 _symmetry_equiv_pos_site_id
 _symmetry_equiv_pos_as_xyz
  1  'x, y, z'
loop_
 _atom_site_type_symbol
 _atom_site_label
 _atom_site_symmetry_multiplicity
 _atom_site_fract_x
 _atom_site_fract_y
 _atom_site_fract_z
 _atom_site_occupancy
  Yb  Yb0  1  0.93831694  0.87663401  0.75000000  1
  Yb  Yb1  1  0.06168299  0.12336600  0.25000000  1
  Yb  Yb2  1  0.34421295  0.68842601  0.05421800  1
  Yb  Yb3  1  0.65578698  0.31157400  0.94578200  1
  Yb  Yb4  1  0.65578698  0.31157400  0.55421800  1
  Yb  Yb5  1  0.34421295  0.68842601  0.44578200  1
  Yb  Yb6  1  0.21580897  0.43161801  0.75000000  1
  Yb  Yb7  1  0.78419096  0.56838201  0.25000000  1
