# generated using pymatgen
data_CsCl9
_symmetry_space_group_name_H-M   'P 1'
_cell_length_a   7.97441053
_cell_length_b   7.97441053
_cell_length_c   8.13389015
_cell_angle_alpha   60.64649200
_cell_angle_beta   60.64649200
_cell_angle_gamma   59.99999619
_symmetry_Int_Tables_number   1
_chemical_formula_structural   CsCl9
_chemical_formula_sum   'Cs1 Cl9'
_cell_volume   369.28007125
_cell_formula_units_Z   1
loop_
 _symmetry_equiv_pos_site_id
 _symmetry_equiv_pos_as_xyz
  1  'x, y, z'
loop_
 _atom_site_type_symbol
 _atom_site_label
 _atom_site_symmetry_multiplicity
 _atom_site_fract_x
 _atom_site_fract_y
 _atom_site_fract_z
 _atom_site_occupancy
  Cl  Cl0  1  0.86129004  0.86129000  0.41612992  1
  Cl  Cl1  1  0.13871001  0.13871000  0.58386996  1
  Cl  Cl2  1  0.66378403  0.66378400  0.00864795  1
  Cs  Cs3  1  0.33621602  0.33621600  0.99135193  1
  Cl  Cl4  1  0.01230503  0.73500100  0.76954393  1
  Cl  Cl5  1  0.73500103  0.48315000  0.76954392  1
  Cl  Cl6  1  0.48315001  0.01230500  0.76954395  1
  Cl  Cl7  1  0.98769502  0.26499900  0.23045595  1
  Cl  Cl8  1  0.51685004  0.98769500  0.23045593  1
  Cl  Cl9  1  0.26499902  0.51685000  0.23045596  1
