# generated using pymatgen
data_CaTiO6
_symmetry_space_group_name_H-M   'P 1'
_cell_length_a   5.50668192
_cell_length_b   5.50668192
_cell_length_c   5.83110809
_cell_angle_alpha   61.82400894
_cell_angle_beta   61.82400894
_cell_angle_gamma   60.00000381
_symmetry_Int_Tables_number   1
_chemical_formula_structural   CaTiO6
_chemical_formula_sum   'Ca1 Ti1 O6'
_cell_volume   128.36742016
_cell_formula_units_Z   1
loop_
 _symmetry_equiv_pos_site_id
 _symmetry_equiv_pos_as_xyz
  1  'x, y, z'
loop_
 _atom_site_type_symbol
 _atom_site_label
 _atom_site_symmetry_multiplicity
 _atom_site_fract_x
 _atom_site_fract_y
 _atom_site_fract_z
 _atom_site_occupancy
  Ca  Ca0  1  0.50000000  0.49999998  0.49999999  1
  Ti  Ti1  1  0.00000000  0.00000000  0.00000000  1
  O  O2  1  0.36753601  0.74999997  0.74999999  1
  O  O3  1  0.74999998  0.13246400  0.75000000  1
  O  O4  1  0.86753599  0.63246398  0.24999997  1
  O  O5  1  0.25000001  0.86753597  0.24999997  1
  O  O6  1  0.63246399  0.24999999  0.24999998  1
  O  O7  1  0.13246400  0.36753599  0.75000001  1
