# generated using pymatgen
data_CsTi(MoO3)2
_symmetry_space_group_name_H-M   'P 1'
_cell_length_a   6.15811396
_cell_length_b   6.15811396
_cell_length_c   6.76399899
_cell_angle_alpha   62.92139435
_cell_angle_beta   62.92139435
_cell_angle_gamma   60.00000000
_symmetry_Int_Tables_number   1
_chemical_formula_structural   CsTi(MoO3)2
_chemical_formula_sum   'Cs1 Ti1 Mo2 O6'
_cell_volume   188.97812612
_cell_formula_units_Z   1
loop_
 _symmetry_equiv_pos_site_id
 _symmetry_equiv_pos_as_xyz
  1  'x, y, z'
loop_
 _atom_site_type_symbol
 _atom_site_label
 _atom_site_symmetry_multiplicity
 _atom_site_fract_x
 _atom_site_fract_y
 _atom_site_fract_z
 _atom_site_occupancy
  Ti  Ti0  1  0.00000000  0.00000000  0.00000000  1
  Cs  Cs1  1  0.50000001  0.50000000  0.49999997  1
  Mo  Mo2  1  0.75000001  0.75000001  0.74999996  1
  Mo  Mo3  1  0.25000000  0.25000000  0.24999999  1
  O  O4  1  0.95606301  0.75000001  0.74999995  1
  O  O5  1  0.54393701  0.95606301  0.74999996  1
  O  O6  1  0.45606300  0.04393700  0.24999999  1
  O  O7  1  0.04393700  0.25000000  0.24999999  1
  O  O8  1  0.25000000  0.45606300  0.24999998  1
  O  O9  1  0.75000001  0.54393700  0.74999996  1
