# generated using pymatgen
data_O7F5
_symmetry_space_group_name_H-M   'P 1'
_cell_length_a   5.19022322
_cell_length_b   5.23162794
_cell_length_c   5.28808355
_cell_angle_alpha   99.84201813
_cell_angle_beta   90.00000000
_cell_angle_gamma   90.00000000
_symmetry_Int_Tables_number   1
_chemical_formula_structural   O7F5
_chemical_formula_sum   'O7 F5'
_cell_volume   141.47578123
_cell_formula_units_Z   1
loop_
 _symmetry_equiv_pos_site_id
 _symmetry_equiv_pos_as_xyz
  1  'x, y, z'
loop_
 _atom_site_type_symbol
 _atom_site_label
 _atom_site_symmetry_multiplicity
 _atom_site_fract_x
 _atom_site_fract_y
 _atom_site_fract_z
 _atom_site_occupancy
  F  F0  1  0.47372098  0.69145601  0.28770905  1
  O  O1  1  0.97372096  0.30854401  0.21229102  1
  F  F2  1  0.52627898  0.30854401  0.71229104  1
  F  F3  1  0.02627900  0.69145601  0.78770906  1
  O  O4  1  0.74633297  0.54200401  0.01231703  1
  O  O5  1  0.24633299  0.45799601  0.48768304  1
  O  O6  1  0.25366699  0.45799601  0.98768305  1
  O  O7  1  0.75366697  0.54200401  0.51231704  1
  F  F8  1  0.32519599  0.94396202  0.65792807  1
  F  F9  1  0.82519597  0.05603800  0.84207202  1
  O  O10  1  0.67480397  0.05603800  0.34207201  1
  O  O11  1  0.17480399  0.94396202  0.15792806  1
