# generated using pymatgen
data_Ba
_symmetry_space_group_name_H-M   'P 1'
_cell_length_a   4.08027792
_cell_length_b   4.16068792
_cell_length_c   4.16068840
_cell_angle_alpha   60.00000381
_cell_angle_beta   90.00000000
_cell_angle_gamma   90.00000000
_symmetry_Int_Tables_number   1
_chemical_formula_structural   Ba
_chemical_formula_sum   Ba3
_cell_volume   61.17172507
_cell_formula_units_Z   3
loop_
 _symmetry_equiv_pos_site_id
 _symmetry_equiv_pos_as_xyz
  1  'x, y, z'
loop_
 _atom_site_type_symbol
 _atom_site_label
 _atom_site_symmetry_multiplicity
 _atom_site_fract_x
 _atom_site_fract_y
 _atom_site_fract_z
 _atom_site_occupancy
  Ba  Ba0  1  0.50000001  0.66666668  0.66666668  1
  Ba  Ba1  1  1.00000002  0.33333334  0.33333334  1
  Ba  Ba2  1  0.00000000  0.00000000  0.00000000  1
