# generated using pymatgen
data_Yb
_symmetry_space_group_name_H-M   'P 1'
_cell_length_a   5.27524519
_cell_length_b   5.75979614
_cell_length_c   5.75979614
_cell_angle_alpha   60.00000000
_cell_angle_beta   90.00000000
_cell_angle_gamma   90.00000000
_symmetry_Int_Tables_number   1
_chemical_formula_structural   Yb
_chemical_formula_sum   Yb6
_cell_volume   151.56101571
_cell_formula_units_Z   6
loop_
 _symmetry_equiv_pos_site_id
 _symmetry_equiv_pos_as_xyz
  1  'x, y, z'
loop_
 _atom_site_type_symbol
 _atom_site_label
 _atom_site_symmetry_multiplicity
 _atom_site_fract_x
 _atom_site_fract_y
 _atom_site_fract_z
 _atom_site_occupancy
  Yb  Yb0  1  0.00000000  0.66666666  0.66666666  1
  Yb  Yb1  1  0.99999996  0.33333333  0.33333333  1
  Yb  Yb2  1  0.49999998  0.00000000  0.34048601  1
  Yb  Yb3  1  0.00000000  0.00000000  0.00000000  1
  Yb  Yb4  1  0.49999998  0.65951400  -0.00000002  1
  Yb  Yb5  1  0.49999998  0.34048600  0.65951401  1
