# generated using pymatgen
data_Mg
_symmetry_space_group_name_H-M   'P 1'
_cell_length_a   5.50178814
_cell_length_b   8.04507160
_cell_length_c   8.04507160
_cell_angle_alpha   83.28563690
_cell_angle_beta   70.00517273
_cell_angle_gamma   70.00517273
_symmetry_Int_Tables_number   1
_chemical_formula_structural   Mg
_chemical_formula_sum   Mg16
_cell_volume   314.45887805
_cell_formula_units_Z   16
loop_
 _symmetry_equiv_pos_site_id
 _symmetry_equiv_pos_as_xyz
  1  'x, y, z'
loop_
 _atom_site_type_symbol
 _atom_site_label
 _atom_site_symmetry_multiplicity
 _atom_site_fract_x
 _atom_site_fract_y
 _atom_site_fract_z
 _atom_site_occupancy
  Mg  Mg0  1  0.39724798  0.94136596  0.79390003  1
  Mg  Mg1  1  0.66138698  0.20609899  0.94136498  1
  Mg  Mg2  1  0.80885097  0.79390096  0.05863405  1
  Mg  Mg3  1  0.13251500  0.05863400  0.20609900  1
  Mg  Mg4  1  0.11748499  0.44136598  0.29390102  1
  Mg  Mg5  1  0.44114898  0.70609897  0.44136603  1
  Mg  Mg6  1  0.58861298  0.29390099  0.55863500  1
  Mg  Mg7  1  0.85275197  0.55863397  0.70610001  1
  Mg  Mg8  1  0.30023999  0.58766197  0.80489200  1
  Mg  Mg9  1  0.13790299  0.30489099  0.91233698  1
  Mg  Mg10  1  0.35513098  0.69510897  0.08766204  1
  Mg  Mg11  1  0.69279297  0.41233798  0.19510902  1
  Mg  Mg12  1  0.55720698  0.08766200  0.30489100  1
  Mg  Mg13  1  0.89486896  0.80489096  0.41233804  1
  Mg  Mg14  1  0.11209699  0.19510899  0.58766299  1
  Mg  Mg15  1  0.94975996  0.91233796  0.69510803  1
