# generated using pymatgen
data_Au2O5
_symmetry_space_group_name_H-M   'P 1'
_cell_length_a   6.87450600
_cell_length_b   6.87450600
_cell_length_c   6.87450600
_cell_angle_alpha   109.47122192
_cell_angle_beta   109.47122192
_cell_angle_gamma   109.47122192
_symmetry_Int_Tables_number   1
_chemical_formula_structural   Au2O5
_chemical_formula_sum   'Au4 O10'
_cell_volume   250.09359761
_cell_formula_units_Z   2
loop_
 _symmetry_equiv_pos_site_id
 _symmetry_equiv_pos_as_xyz
  1  'x, y, z'
loop_
 _atom_site_type_symbol
 _atom_site_label
 _atom_site_symmetry_multiplicity
 _atom_site_fract_x
 _atom_site_fract_y
 _atom_site_fract_z
 _atom_site_occupancy
  Au  Au0  1  0.50000008  1.00000007  0.00000007  1
  Au  Au1  1  0.50000005  0.50000003  0.50000005  1
  Au  Au2  1  0.00000003  0.50000003  0.00000003  1
  Au  Au3  1  0.00000000  0.00000000  0.50000001  1
  O  O4  1  0.00000000  0.00000000  0.00000000  1
  O  O5  1  0.50000008  1.00000007  0.50000008  1
  O  O6  1  0.50000005  0.50000003  1.00000007  1
  O  O7  1  0.00000003  0.50000003  0.50000004  1
  O  O8  1  0.67102202  0.00000000  0.67102203  1
  O  O9  1  0.32897808  1.00000007  0.32897807  1
  O  O10  1  0.67102207  0.67102205  0.00000005  1
  O  O11  1  0.32897803  0.32897802  1.00000005  1
  O  O12  1  0.00000002  0.32897802  0.32897803  1
  O  O13  1  0.00000004  0.67102205  0.67102206  1
