# generated using pymatgen
data_Au
_symmetry_space_group_name_H-M   'P 1'
_cell_length_a   4.57556200
_cell_length_b   4.57556295
_cell_length_c   7.77472019
_cell_angle_alpha   90.00000000
_cell_angle_beta   90.00000000
_cell_angle_gamma   119.99999237
_symmetry_Int_Tables_number   1
_chemical_formula_structural   Au
_chemical_formula_sum   Au6
_cell_volume   140.96276590
_cell_formula_units_Z   6
loop_
 _symmetry_equiv_pos_site_id
 _symmetry_equiv_pos_as_xyz
  1  'x, y, z'
loop_
 _atom_site_type_symbol
 _atom_site_label
 _atom_site_symmetry_multiplicity
 _atom_site_fract_x
 _atom_site_fract_y
 _atom_site_fract_z
 _atom_site_occupancy
  Au  Au0  1  0.00000000  0.00000000  0.49999999  1
  Au  Au1  1  0.00000000  0.00000000  0.00000000  1
  Au  Au2  1  0.33333332  0.66666666  0.24999999  1
  Au  Au3  1  0.66666666  0.33333333  0.74999998  1
  Au  Au4  1  0.66666666  0.33333333  0.24999999  1
  Au  Au5  1  0.33333332  0.66666666  0.74999998  1
