# generated using pymatgen
data_Yb3(LuAu)2
_symmetry_space_group_name_H-M   'P 1'
_cell_length_a   5.67789078
_cell_length_b   5.67789078
_cell_length_c   5.67789078
_cell_angle_alpha   85.46093750
_cell_angle_beta   62.58510208
_cell_angle_gamma   117.41490173
_symmetry_Int_Tables_number   1
_chemical_formula_structural   Yb3(LuAu)2
_chemical_formula_sum   'Yb3 Lu2 Au2'
_cell_volume   134.03569626
_cell_formula_units_Z   1
loop_
 _symmetry_equiv_pos_site_id
 _symmetry_equiv_pos_as_xyz
  1  'x, y, z'
loop_
 _atom_site_type_symbol
 _atom_site_label
 _atom_site_symmetry_multiplicity
 _atom_site_fract_x
 _atom_site_fract_y
 _atom_site_fract_z
 _atom_site_occupancy
  Au  Au0  1  0.50000006  0.75000004  0.74999998  1
  Lu  Lu1  1  0.50000002  0.25000001  0.25000000  1
  Yb  Yb2  1  0.39848702  0.19924301  0.80075700  1
  Lu  Lu3  1  0.60151307  0.80075704  0.19924298  1
  Yb  Yb4  1  0.00000002  0.19924401  0.19924399  1
  Yb  Yb5  1  0.00000007  0.80075604  0.80075597  1
  Au  Au6  1  0.00000000  0.00000000  0.00000000  1
