# generated using pymatgen
data_Au
_symmetry_space_group_name_H-M   'P 1'
_cell_length_a   5.35591602
_cell_length_b   5.35591602
_cell_length_c   9.61371517
_cell_angle_alpha   106.17404175
_cell_angle_beta   106.17404175
_cell_angle_gamma   90.00000000
_symmetry_Int_Tables_number   1
_chemical_formula_structural   Au
_chemical_formula_sum   Au7
_cell_volume   253.47730937
_cell_formula_units_Z   7
loop_
 _symmetry_equiv_pos_site_id
 _symmetry_equiv_pos_as_xyz
  1  'x, y, z'
loop_
 _atom_site_type_symbol
 _atom_site_label
 _atom_site_symmetry_multiplicity
 _atom_site_fract_x
 _atom_site_fract_y
 _atom_site_fract_z
 _atom_site_occupancy
  Au  Au0  1  0.50000000  0.00000000  0.00000001  1
  Au  Au1  1  0.14711700  0.14711700  0.29423401  1
  Au  Au2  1  0.85288301  0.85288300  0.70576603  1
  Au  Au3  1  0.00000001  0.50000000  1.00000002  1
  Au  Au4  1  0.35291300  0.35291300  0.70582602  1
  Au  Au5  1  0.64708701  0.64708700  0.29417402  1
  Au  Au6  1  0.00000000  0.00000000  0.00000000  1
