# generated using pymatgen
data_TmOF6
_symmetry_space_group_name_H-M   'P 1'
_cell_length_a   2.96236110
_cell_length_b   2.96236110
_cell_length_c   8.52389526
_cell_angle_alpha   90.00000000
_cell_angle_beta   90.00000000
_cell_angle_gamma   90.00000000
_symmetry_Int_Tables_number   1
_chemical_formula_structural   TmOF6
_chemical_formula_sum   'Tm1 O1 F6'
_cell_volume   74.80215268
_cell_formula_units_Z   1
loop_
 _symmetry_equiv_pos_site_id
 _symmetry_equiv_pos_as_xyz
  1  'x, y, z'
loop_
 _atom_site_type_symbol
 _atom_site_label
 _atom_site_symmetry_multiplicity
 _atom_site_fract_x
 _atom_site_fract_y
 _atom_site_fract_z
 _atom_site_occupancy
  F  F0  1  0.00000000  0.00000000  0.49999998  1
  F  F1  1  0.49999998  0.49999998  0.75441998  1
  O  O2  1  0.00000000  0.00000000  0.00000000  1
  F  F3  1  0.49999998  0.49999998  0.24557999  1
  F  F4  1  0.00000000  0.00000000  0.74998598  1
  Tm  Tm5  1  0.49999998  0.49999998  -0.00000000  1
  F  F6  1  0.00000000  0.00000000  0.25001399  1
  F  F7  1  0.49999998  0.49999998  0.49999998  1
