# generated using pymatgen
data_BaAs4
_symmetry_space_group_name_H-M   'P 1'
_cell_length_a   6.75046968
_cell_length_b   6.75046968
_cell_length_c   6.75503492
_cell_angle_alpha   119.65737152
_cell_angle_beta   119.65737152
_cell_angle_gamma   90.39779663
_symmetry_Int_Tables_number   1
_chemical_formula_structural   BaAs4
_chemical_formula_sum   'Ba2 As8'
_cell_volume   219.15201188
_cell_formula_units_Z   2
loop_
 _symmetry_equiv_pos_site_id
 _symmetry_equiv_pos_as_xyz
  1  'x, y, z'
loop_
 _atom_site_type_symbol
 _atom_site_label
 _atom_site_symmetry_multiplicity
 _atom_site_fract_x
 _atom_site_fract_y
 _atom_site_fract_z
 _atom_site_occupancy
  As  As0  1  0.27790305  0.27790302  0.40748208  1
  Ba  Ba1  1  0.22351614  0.81656705  0.04120315  1
  As  As2  1  0.13305402  0.13305401  0.88112406  1
  As  As3  1  0.89573316  0.89573305  0.17506121  1
  As  As4  1  0.75103513  0.75103504  0.64794519  1
  Ba  Ba5  1  0.81656704  0.22351601  0.04120308  1
  As  As6  1  0.25418913  0.75389204  0.50884616  1
  As  As7  1  0.50316309  0.50316303  0.00624811  1
  As  As8  1  0.75389204  0.25418901  0.50884610  1
  As  As9  1  0.01374800  0.01374800  0.02764300  1
