# generated using pymatgen
data_Li
_symmetry_space_group_name_H-M   'P 1'
_cell_length_a   3.99753141
_cell_length_b   3.99753141
_cell_length_c   10.71263409
_cell_angle_alpha   99.69558716
_cell_angle_beta   99.69558716
_cell_angle_gamma   93.08849335
_symmetry_Int_Tables_number   1
_chemical_formula_structural   Li
_chemical_formula_sum   Li12
_cell_volume   165.73824669
_cell_formula_units_Z   12
loop_
 _symmetry_equiv_pos_site_id
 _symmetry_equiv_pos_as_xyz
  1  'x, y, z'
loop_
 _atom_site_type_symbol
 _atom_site_label
 _atom_site_symmetry_multiplicity
 _atom_site_fract_x
 _atom_site_fract_y
 _atom_site_fract_z
 _atom_site_occupancy
  Li  Li0  1  0.50000002  0.50000001  0.00000001  1
  Li  Li1  1  0.30512201  0.30512201  0.63003699  1
  Li  Li2  1  0.69487803  0.69487801  0.36996300  1
  Li  Li3  1  0.89748704  0.89748702  0.80335299  1
  Li  Li4  1  0.10251300  0.10251300  0.19664700  1
  Li  Li5  1  0.80404704  0.80404702  0.60802500  1
  Li  Li6  1  0.19595301  0.19595300  0.39197499  1
  Li  Li7  1  0.00000000  0.00000000  0.00000000  1
  Li  Li8  1  0.39001503  0.82954102  0.80553899  1
  Li  Li9  1  0.82954103  0.39001501  0.80553899  1
  Li  Li10  1  0.60998502  0.17045900  0.19446100  1
  Li  Li11  1  0.17045902  0.60998501  0.19446100  1
