# generated using pymatgen
data_Si
_symmetry_space_group_name_H-M   'P 1'
_cell_length_a   4.22761393
_cell_length_b   6.00806808
_cell_length_c   7.72645617
_cell_angle_alpha   90.00000000
_cell_angle_beta   105.87743378
_cell_angle_gamma   90.00000000
_symmetry_Int_Tables_number   1
_chemical_formula_structural   Si
_chemical_formula_sum   Si12
_cell_volume   188.76326004
_cell_formula_units_Z   12
loop_
 _symmetry_equiv_pos_site_id
 _symmetry_equiv_pos_as_xyz
  1  'x, y, z'
loop_
 _atom_site_type_symbol
 _atom_site_label
 _atom_site_symmetry_multiplicity
 _atom_site_fract_x
 _atom_site_fract_y
 _atom_site_fract_z
 _atom_site_occupancy
  Si  Si0  1  0.14753600  0.04419700  0.29507199  1
  Si  Si1  1  0.85246402  0.54419699  0.70492798  1
  Si  Si2  1  0.58617301  0.49784099  0.17234600  1
  Si  Si3  1  0.41382701  0.99784099  0.82765398  1
  Si  Si4  1  0.07591500  0.48292099  0.15183000  1
  Si  Si5  1  0.92408502  0.98292099  0.84816998  1
  Si  Si6  1  0.53064001  0.17467200  0.06128000  1
  Si  Si7  1  0.46936001  0.67467199  0.93871998  1
  Si  Si8  1  0.30057101  0.80734999  0.60114199  1
  Si  Si9  1  0.69942901  0.30735000  0.39885799  1
  Si  Si10  1  0.33768501  0.27541900  0.67536998  1
  Si  Si11  1  0.66231501  0.77541899  0.32462999  1
