# generated using pymatgen
data_BaS8O
_symmetry_space_group_name_H-M   'P 1'
_cell_length_a   6.65871525
_cell_length_b   6.69216728
_cell_length_c   6.69216728
_cell_angle_alpha   60.78879166
_cell_angle_beta   80.07740021
_cell_angle_gamma   99.92259979
_symmetry_Int_Tables_number   1
_chemical_formula_structural   BaS8O
_chemical_formula_sum   'Ba1 S8 O1'
_cell_volume   244.72535376
_cell_formula_units_Z   1
loop_
 _symmetry_equiv_pos_site_id
 _symmetry_equiv_pos_as_xyz
  1  'x, y, z'
loop_
 _atom_site_type_symbol
 _atom_site_label
 _atom_site_symmetry_multiplicity
 _atom_site_fract_x
 _atom_site_fract_y
 _atom_site_fract_z
 _atom_site_occupancy
  Ba  Ba0  1  0.75000008  0.91187303  0.91187294  1
  S  S1  1  0.25000001  0.08812700  0.08812698  1
  S  S2  1  0.25000007  0.74702002  0.74701997  1
  S  S3  1  0.75000002  0.25298001  0.25297995  1
  O  O4  1  0.50223501  0.15255600  0.67282397  1
  S  S5  1  0.49776508  0.84744403  0.32717595  1
  S  S6  1  0.50000004  0.50000002  -0.00000004  1
  S  S7  1  0.99776506  0.67282402  0.15255593  1
  S  S8  1  0.00223503  0.32717601  0.84744400  1
  S  S9  1  0.00000000  0.00000000  0.50000000  1
