# generated using pymatgen
data_Yb
_symmetry_space_group_name_H-M   'P 1'
_cell_length_a   4.21910000
_cell_length_b   4.22126818
_cell_length_c   9.01288033
_cell_angle_alpha   90.00000000
_cell_angle_beta   103.53618622
_cell_angle_gamma   90.00000000
_symmetry_Int_Tables_number   1
_chemical_formula_structural   Yb
_chemical_formula_sum   Yb8
_cell_volume   156.06012154
_cell_formula_units_Z   8
loop_
 _symmetry_equiv_pos_site_id
 _symmetry_equiv_pos_as_xyz
  1  'x, y, z'
loop_
 _atom_site_type_symbol
 _atom_site_label
 _atom_site_symmetry_multiplicity
 _atom_site_fract_x
 _atom_site_fract_y
 _atom_site_fract_z
 _atom_site_occupancy
  Yb  Yb0  1  0.64222699  0.49999998  0.28445399  1
  Yb  Yb1  1  0.35777300  0.49999998  0.71554599  1
  Yb  Yb2  1  0.79057799  0.00000000  0.58115598  1
  Yb  Yb3  1  0.20942200  0.00000000  0.41884399  1
  Yb  Yb4  1  0.00000000  0.49999998  -0.00000000  1
  Yb  Yb5  1  0.50000000  0.00000000  -0.00000001  1
  Yb  Yb6  1  0.92791199  0.99999996  0.85582398  1
  Yb  Yb7  1  0.07208800  0.99999996  0.14417600  1
