# generated using pymatgen
data_K2S11O
_symmetry_space_group_name_H-M   'P 1'
_cell_length_a   6.31749868
_cell_length_b   6.31749868
_cell_length_c   6.52719450
_cell_angle_alpha   91.09951019
_cell_angle_beta   91.09951019
_cell_angle_gamma   104.77988434
_symmetry_Int_Tables_number   1
_chemical_formula_structural   K2S11O
_chemical_formula_sum   'K2 S11 O1'
_cell_volume   251.76160220
_cell_formula_units_Z   1
loop_
 _symmetry_equiv_pos_site_id
 _symmetry_equiv_pos_as_xyz
  1  'x, y, z'
loop_
 _atom_site_type_symbol
 _atom_site_label
 _atom_site_symmetry_multiplicity
 _atom_site_fract_x
 _atom_site_fract_y
 _atom_site_fract_z
 _atom_site_occupancy
  K  K0  1  0.81755502  0.18244500  0.75000003  1
  K  K1  1  0.18244505  0.81755502  0.25000005  1
  O  O2  1  0.07315301  0.22987501  0.13364401  1
  S  S3  1  0.77012506  0.92684702  0.36635609  1
  S  S4  1  0.92684705  0.77012502  0.86635607  1
  S  S5  1  0.22987501  0.07315300  0.63364400  1
  S  S6  1  0.21313702  0.40173801  0.07039703  1
  S  S7  1  0.59826205  0.78686302  0.42960307  1
  S  S8  1  0.78686304  0.59826201  0.92960305  1
  S  S9  1  0.40173801  0.21313700  0.57039702  1
  S  S10  1  0.09486003  0.52458201  0.55497802  1
  S  S11  1  0.47541805  0.90514002  0.94502205  1
  S  S12  1  0.90514003  0.47541801  0.44502207  1
  S  S13  1  0.52458201  0.09486000  0.05497803  1
