# generated using pymatgen
data_Ba3LiO16
_symmetry_space_group_name_H-M   'P 1'
_cell_length_a   5.80494308
_cell_length_b   6.84678698
_cell_length_c   7.05723476
_cell_angle_alpha   90.00000000
_cell_angle_beta   90.00000000
_cell_angle_gamma   90.00000000
_symmetry_Int_Tables_number   1
_chemical_formula_structural   Ba3LiO16
_chemical_formula_sum   'Ba3 Li1 O16'
_cell_volume   280.49126860
_cell_formula_units_Z   1
loop_
 _symmetry_equiv_pos_site_id
 _symmetry_equiv_pos_as_xyz
  1  'x, y, z'
loop_
 _atom_site_type_symbol
 _atom_site_label
 _atom_site_symmetry_multiplicity
 _atom_site_fract_x
 _atom_site_fract_y
 _atom_site_fract_z
 _atom_site_occupancy
  Ba  Ba0  1  0.25000000  0.15183200  0.33426101  1
  Ba  Ba1  1  0.25000000  0.34816800  0.83426103  1
  Li  Li2  1  0.74999999  0.84816800  0.66573902  1
  Ba  Ba3  1  0.74999999  0.65183200  0.16573901  1
  O  O4  1  0.25000000  0.71397400  0.41264601  1
  O  O5  1  0.25000000  0.78602600  0.91264603  1
  O  O6  1  0.74999999  0.28602600  0.58735402  1
  O  O7  1  0.74999999  0.21397400  0.08735400  1
  O  O8  1  0.45696299  0.80648600  0.38770101  1
  O  O9  1  0.04303700  0.69351400  0.88770103  1
  O  O10  1  0.95696299  0.19351400  0.61229902  1
  O  O11  1  0.54303699  0.30648600  0.11229900  1
  O  O12  1  0.54303699  0.19351400  0.61229902  1
  O  O13  1  0.95696299  0.30648600  0.11229900  1
  O  O14  1  0.04303700  0.80648600  0.38770101  1
  O  O15  1  0.45696299  0.69351400  0.88770103  1
  O  O16  1  0.25000000  0.51996200  0.46523702  1
  O  O17  1  0.25000000  0.98003800  0.96523703  1
  O  O18  1  0.74999999  0.48003800  0.53476302  1
  O  O19  1  0.74999999  0.01996200  0.03476300  1
