# generated using pymatgen
data_Zn
_symmetry_space_group_name_H-M   'P 1'
_cell_length_a   5.39021587
_cell_length_b   5.40355635
_cell_length_c   5.40355635
_cell_angle_alpha   89.77629852
_cell_angle_beta   90.00000000
_cell_angle_gamma   90.00000000
_symmetry_Int_Tables_number   1
_chemical_formula_structural   Zn
_chemical_formula_sum   Zn10
_cell_volume   157.38459383
_cell_formula_units_Z   10
loop_
 _symmetry_equiv_pos_site_id
 _symmetry_equiv_pos_as_xyz
  1  'x, y, z'
loop_
 _atom_site_type_symbol
 _atom_site_label
 _atom_site_symmetry_multiplicity
 _atom_site_fract_x
 _atom_site_fract_y
 _atom_site_fract_z
 _atom_site_occupancy
  Zn  Zn0  1  0.25000001  0.49451499  0.25374000  1
  Zn  Zn1  1  -0.00000000  0.00768000  0.99231999  1
  Zn  Zn2  1  0.75000002  0.74625999  0.50548499  1
  Zn  Zn3  1  0.25000001  0.49033999  0.74578999  1
  Zn  Zn4  1  0.50000001  0.00768000  0.99231999  1
  Zn  Zn5  1  0.75000002  0.25421000  0.50965999  1
  Zn  Zn6  1  0.25000001  0.00013600  0.49971199  1
  Zn  Zn7  1  0.75000002  0.50028799  0.99986399  1
  Zn  Zn8  1  0.25000001  0.74828199  0.99939199  1
  Zn  Zn9  1  0.75000002  0.00060800  0.25171800  1
