# generated using pymatgen
data_KO5
_symmetry_space_group_name_H-M   'P 1'
_cell_length_a   6.12035084
_cell_length_b   6.12035084
_cell_length_c   6.12035084
_cell_angle_alpha   106.09915924
_cell_angle_beta   106.09915924
_cell_angle_gamma   116.44886017
_symmetry_Int_Tables_number   1
_chemical_formula_structural   KO5
_chemical_formula_sum   'K2 O10'
_cell_volume   174.49864314
_cell_formula_units_Z   2
loop_
 _symmetry_equiv_pos_site_id
 _symmetry_equiv_pos_as_xyz
  1  'x, y, z'
loop_
 _atom_site_type_symbol
 _atom_site_label
 _atom_site_symmetry_multiplicity
 _atom_site_fract_x
 _atom_site_fract_y
 _atom_site_fract_z
 _atom_site_occupancy
  K  K0  1  0.74999998  0.24999999  0.49999999  1
  K  K1  1  0.00000000  0.00000000  0.00000000  1
  O  O2  1  0.49999996  0.49999998  0.99999998  1
  O  O3  1  0.24999995  0.74999997  0.49999998  1
  O  O4  1  0.67312496  0.49135498  0.81822998  1
  O  O5  1  0.67312494  0.85489496  0.18176998  1
  O  O6  1  0.14510498  0.32687499  0.81822998  1
  O  O7  1  0.07687498  0.39510498  0.31822999  1
  O  O8  1  0.07687495  0.75864497  0.68176997  1
  O  O9  1  0.50864497  0.32687499  0.18176999  1
  O  O10  1  0.24135494  0.92312496  0.31822997  1
  O  O11  1  0.60489494  0.92312496  0.68176997  1
