# generated using pymatgen
data_Yb
_symmetry_space_group_name_H-M   'P 1'
_cell_length_a   6.18373156
_cell_length_b   6.18373156
_cell_length_c   6.35637903
_cell_angle_alpha   90.00000000
_cell_angle_beta   90.00000000
_cell_angle_gamma   106.34486389
_symmetry_Int_Tables_number   1
_chemical_formula_structural   Yb
_chemical_formula_sum   Yb8
_cell_volume   233.23546946
_cell_formula_units_Z   8
loop_
 _symmetry_equiv_pos_site_id
 _symmetry_equiv_pos_as_xyz
  1  'x, y, z'
loop_
 _atom_site_type_symbol
 _atom_site_label
 _atom_site_symmetry_multiplicity
 _atom_site_fract_x
 _atom_site_fract_y
 _atom_site_fract_z
 _atom_site_occupancy
  Yb  Yb0  1  0.97163898  0.31887599  0.25000000  1
  Yb  Yb1  1  0.02836097  0.68112399  0.75000000  1
  Yb  Yb2  1  0.68112399  0.02836100  0.75000000  1
  Yb  Yb3  1  0.31887596  0.97163898  0.25000000  1
  Yb  Yb4  1  0.25298299  0.25298299  0.75000000  1
  Yb  Yb5  1  0.74701696  0.74701698  0.25000000  1
  Yb  Yb6  1  0.49999997  0.49999999  0.50000000  1
  Yb  Yb7  1  0.49999997  0.49999999  0.99999999  1
