# generated using pymatgen
data_CsIn7S6
_symmetry_space_group_name_H-M   'P 1'
_cell_length_a   7.59881115
_cell_length_b   8.20069599
_cell_length_c   7.89815474
_cell_angle_alpha   90.00000000
_cell_angle_beta   65.24476624
_cell_angle_gamma   90.00000000
_symmetry_Int_Tables_number   1
_chemical_formula_structural   CsIn7S6
_chemical_formula_sum   'Cs1 In7 S6'
_cell_volume   446.94906552
_cell_formula_units_Z   1
loop_
 _symmetry_equiv_pos_site_id
 _symmetry_equiv_pos_as_xyz
  1  'x, y, z'
loop_
 _atom_site_type_symbol
 _atom_site_label
 _atom_site_symmetry_multiplicity
 _atom_site_fract_x
 _atom_site_fract_y
 _atom_site_fract_z
 _atom_site_occupancy
  In  In0  1  -0.00000000  0.50000000  0.50000000  1
  In  In1  1  0.00000000  0.00000000  0.00000000  1
  Cs  Cs2  1  0.40877598  0.12468100  0.22354003  1
  In  In3  1  0.59122397  0.62468100  0.27646004  1
  In  In4  1  0.40877598  0.37531900  0.72354002  1
  In  In5  1  0.59122397  0.87531900  0.77646004  1
  In  In6  1  0.18531699  0.64861700  0.07266901  1
  S  S7  1  0.18531699  0.85138300  0.57266901  1
  S  S8  1  0.81468296  0.14861700  0.42733105  1
  S  S9  1  0.81468296  0.35138300  0.92733105  1
  S  S10  1  0.33982298  0.39002200  0.43357502  1
  S  S11  1  0.66017697  0.89002200  0.06642504  1
  S  S12  1  0.33982298  0.10997800  0.93357502  1
  In  In13  1  0.66017697  0.60997800  0.56642504  1
