# generated using pymatgen
data_Zn
_symmetry_space_group_name_H-M   'P 1'
_cell_length_a   4.18118191
_cell_length_b   4.18118143
_cell_length_c   12.03444862
_cell_angle_alpha   90.00000000
_cell_angle_beta   90.00000000
_cell_angle_gamma   120.00000763
_symmetry_Int_Tables_number   1
_chemical_formula_structural   Zn
_chemical_formula_sum   Zn6
_cell_volume   182.20272628
_cell_formula_units_Z   6
loop_
 _symmetry_equiv_pos_site_id
 _symmetry_equiv_pos_as_xyz
  1  'x, y, z'
loop_
 _atom_site_type_symbol
 _atom_site_label
 _atom_site_symmetry_multiplicity
 _atom_site_fract_x
 _atom_site_fract_y
 _atom_site_fract_z
 _atom_site_occupancy
  Zn  Zn0  1  0.00000000  0.00000000  0.83179603  1
  Zn  Zn1  1  0.00000000  0.00000000  0.16820401  1
  Zn  Zn2  1  0.66666669  0.33333333  0.99524903  1
  Zn  Zn3  1  0.33333337  0.66666666  0.00475100  1
  Zn  Zn4  1  0.66666669  0.33333333  0.34727601  1
  Zn  Zn5  1  0.33333337  0.66666666  0.65272402  1
