# generated using pymatgen
data_BaAu2
_symmetry_space_group_name_H-M   'P 1'
_cell_length_a   4.73233414
_cell_length_b   4.73233414
_cell_length_c   9.84711266
_cell_angle_alpha   103.90367889
_cell_angle_beta   103.90367889
_cell_angle_gamma   90.00000000
_symmetry_Int_Tables_number   1
_chemical_formula_structural   BaAu2
_chemical_formula_sum   'Ba2 Au4'
_cell_volume   207.40241160
_cell_formula_units_Z   2
loop_
 _symmetry_equiv_pos_site_id
 _symmetry_equiv_pos_as_xyz
  1  'x, y, z'
loop_
 _atom_site_type_symbol
 _atom_site_label
 _atom_site_symmetry_multiplicity
 _atom_site_fract_x
 _atom_site_fract_y
 _atom_site_fract_z
 _atom_site_occupancy
  Ba  Ba0  1  0.99999994  0.49999998  -0.00000005  1
  Ba  Ba1  1  0.49999998  0.00000000  -0.00000002  1
  Au  Au2  1  0.67806395  0.67806397  0.35612796  1
  Au  Au3  1  0.32193598  0.32193599  0.64387199  1
  Au  Au4  1  0.86155993  0.86155996  0.72311996  1
  Au  Au5  1  0.13843999  0.13843999  0.27688000  1
