# generated using pymatgen
data_La3F4
_symmetry_space_group_name_H-M   'P 1'
_cell_length_a   4.96669197
_cell_length_b   4.96669197
_cell_length_c   8.67590237
_cell_angle_alpha   106.63267517
_cell_angle_beta   106.63267517
_cell_angle_gamma   90.00000000
_symmetry_Int_Tables_number   1
_chemical_formula_structural   La3F4
_chemical_formula_sum   'La3 F4'
_cell_volume   195.69891098
_cell_formula_units_Z   1
loop_
 _symmetry_equiv_pos_site_id
 _symmetry_equiv_pos_as_xyz
  1  'x, y, z'
loop_
 _atom_site_type_symbol
 _atom_site_label
 _atom_site_symmetry_multiplicity
 _atom_site_fract_x
 _atom_site_fract_y
 _atom_site_fract_z
 _atom_site_occupancy
  F  F0  1  0.35781298  0.35781299  0.71562596  1
  La  La1  1  0.64218697  0.64218699  0.28437395  1
  F  F2  1  0.00000000  0.00000000  0.00000000  1
  F  F3  1  0.49999999  0.00000000  -0.00000002  1
  F  F4  1  -0.00000002  0.49999999  -0.00000002  1
  La  La5  1  0.83818196  0.83818199  0.67636392  1
  La  La6  1  0.16181799  0.16181800  0.32363598  1
