# generated using pymatgen
data_LiO11
_symmetry_space_group_name_H-M   'P 1'
_cell_length_a   5.58627176
_cell_length_b   5.95243979
_cell_length_c   6.33650398
_cell_angle_alpha   61.98554230
_cell_angle_beta   88.74028015
_cell_angle_gamma   87.31723022
_symmetry_Int_Tables_number   1
_chemical_formula_structural   LiO11
_chemical_formula_sum   'Li1 O11'
_cell_volume   185.80918285
_cell_formula_units_Z   1
loop_
 _symmetry_equiv_pos_site_id
 _symmetry_equiv_pos_as_xyz
  1  'x, y, z'
loop_
 _atom_site_type_symbol
 _atom_site_label
 _atom_site_symmetry_multiplicity
 _atom_site_fract_x
 _atom_site_fract_y
 _atom_site_fract_z
 _atom_site_occupancy
  O  O0  1  0.24999993  0.73254303  0.53491399  1
  O  O1  1  0.74999995  0.26745701  0.46508600  1
  O  O2  1  0.24999996  0.42451402  0.15097200  1
  O  O3  1  0.74999993  0.57548602  0.84902799  1
  O  O4  1  0.74999990  0.94835104  0.10329801  1
  O  O5  1  0.24999999  0.05164900  0.89670198  1
  O  O6  1  0.00211398  0.20484001  0.01777700  1
  O  O7  1  0.49788592  0.77738303  0.01777701  1
  O  O8  1  0.74999991  0.78963503  0.42073000  1
  O  O9  1  0.99788590  0.79516003  0.98222299  1
  O  O10  1  0.50211396  0.22261701  0.98222299  1
  Li  Li11  1  0.24999997  0.21036501  0.57926999  1
