# generated using pymatgen
data_La3F
_symmetry_space_group_name_H-M   'P 1'
_cell_length_a   3.83281589
_cell_length_b   4.48258591
_cell_length_c   6.08343983
_cell_angle_alpha   90.00000000
_cell_angle_beta   108.36204529
_cell_angle_gamma   90.00000000
_symmetry_Int_Tables_number   1
_chemical_formula_structural   La3F
_chemical_formula_sum   'La3 F1'
_cell_volume   99.19753032
_cell_formula_units_Z   1
loop_
 _symmetry_equiv_pos_site_id
 _symmetry_equiv_pos_as_xyz
  1  'x, y, z'
loop_
 _atom_site_type_symbol
 _atom_site_label
 _atom_site_symmetry_multiplicity
 _atom_site_fract_x
 _atom_site_fract_y
 _atom_site_fract_z
 _atom_site_occupancy
  La  La0  1  0.64973801  0.75000002  0.29947599  1
  La  La1  1  0.35026200  0.25000001  0.70052401  1
  F  F2  1  0.93021201  0.75000002  0.86042400  1
  La  La3  1  0.06978800  0.25000001  0.13957600  1
