# generated using pymatgen
data_Ni
_symmetry_space_group_name_H-M   'P 1'
_cell_length_a   2.96925807
_cell_length_b   3.05287790
_cell_length_c   4.29754972
_cell_angle_alpha   110.80497742
_cell_angle_beta   90.00000000
_cell_angle_gamma   90.00000000
_symmetry_Int_Tables_number   1
_chemical_formula_structural   Ni
_chemical_formula_sum   Ni4
_cell_volume   36.41619704
_cell_formula_units_Z   4
loop_
 _symmetry_equiv_pos_site_id
 _symmetry_equiv_pos_as_xyz
  1  'x, y, z'
loop_
 _atom_site_type_symbol
 _atom_site_label
 _atom_site_symmetry_multiplicity
 _atom_site_fract_x
 _atom_site_fract_y
 _atom_site_fract_z
 _atom_site_occupancy
  Ni  Ni0  1  0.74999998  0.85232501  0.70464994  1
  Ni  Ni1  1  0.24999999  0.14767500  0.29534998  1
  Ni  Ni2  1  0.74999998  0.56250301  0.12500597  1
  Ni  Ni3  1  0.24999999  0.43749700  0.87499395  1
