# generated using pymatgen
data_Mg
_symmetry_space_group_name_H-M   'P 1'
_cell_length_a   5.92275000
_cell_length_b   5.92323494
_cell_length_c   5.92323494
_cell_angle_alpha   60.14498138
_cell_angle_beta   60.00270844
_cell_angle_gamma   60.00270844
_symmetry_Int_Tables_number   1
_chemical_formula_structural   Mg
_chemical_formula_sum   Mg10
_cell_volume   147.10171451
_cell_formula_units_Z   10
loop_
 _symmetry_equiv_pos_site_id
 _symmetry_equiv_pos_as_xyz
  1  'x, y, z'
loop_
 _atom_site_type_symbol
 _atom_site_label
 _atom_site_symmetry_multiplicity
 _atom_site_fract_x
 _atom_site_fract_y
 _atom_site_fract_z
 _atom_site_occupancy
  Mg  Mg0  1  0.75000000  0.74998296  0.75001701  1
  Mg  Mg1  1  0.25000000  0.25001699  0.24998300  1
  Mg  Mg2  1  0.00000000  0.00000000  0.00000000  1
  Mg  Mg3  1  0.50000000  0.49999997  0.50000001  1
  Mg  Mg4  1  0.76546300  0.73453696  0.23453703  1
  Mg  Mg5  1  0.23453700  0.26546299  0.76546299  1
  Mg  Mg6  1  0.74999999  0.22605399  0.27394602  1
  Mg  Mg7  1  0.26546300  0.73453696  0.23453702  1
  Mg  Mg8  1  0.73453699  0.26546299  0.76546300  1
  Mg  Mg9  1  0.25000001  0.77394596  0.72605400  1
