# generated using pymatgen
data_Au
_symmetry_space_group_name_H-M   'P 1'
_cell_length_a   5.33629799
_cell_length_b   5.33629799
_cell_length_c   5.33629799
_cell_angle_alpha   106.49853516
_cell_angle_beta   106.49853516
_cell_angle_gamma   115.59572601
_symmetry_Int_Tables_number   1
_chemical_formula_structural   Au
_chemical_formula_sum   Au6
_cell_volume   115.96339097
_cell_formula_units_Z   6
loop_
 _symmetry_equiv_pos_site_id
 _symmetry_equiv_pos_as_xyz
  1  'x, y, z'
loop_
 _atom_site_type_symbol
 _atom_site_label
 _atom_site_symmetry_multiplicity
 _atom_site_fract_x
 _atom_site_fract_y
 _atom_site_fract_z
 _atom_site_occupancy
  Au  Au0  1  0.18465308  0.68465303  0.86930605  1
  Au  Au1  1  0.31534702  0.18465301  0.50000002  1
  Au  Au2  1  0.81534702  0.31534701  0.13069407  1
  Au  Au3  1  0.68465309  0.81534704  0.50000011  1
  Au  Au4  1  0.75000008  0.75000004  1.00000008  1
  Au  Au5  1  0.25000003  0.25000001  1.00000000  1
