# generated using pymatgen
data_Pb
_symmetry_space_group_name_H-M   'P 1'
_cell_length_a   3.80246806
_cell_length_b   3.80246806
_cell_length_c   6.90290260
_cell_angle_alpha   105.98735809
_cell_angle_beta   105.98735809
_cell_angle_gamma   90.00000000
_symmetry_Int_Tables_number   1
_chemical_formula_structural   Pb
_chemical_formula_sum   Pb3
_cell_volume   91.92486175
_cell_formula_units_Z   3
loop_
 _symmetry_equiv_pos_site_id
 _symmetry_equiv_pos_as_xyz
  1  'x, y, z'
loop_
 _atom_site_type_symbol
 _atom_site_label
 _atom_site_symmetry_multiplicity
 _atom_site_fract_x
 _atom_site_fract_y
 _atom_site_fract_z
 _atom_site_occupancy
  Pb  Pb0  1  0.84274694  0.84274697  0.68549392  1
  Pb  Pb1  1  0.15725299  0.15725299  0.31450598  1
  Pb  Pb2  1  0.49999997  0.49999998  -0.00000003  1
