# generated using pymatgen
data_TmOF5
_symmetry_space_group_name_H-M   'P 1'
_cell_length_a   3.69112396
_cell_length_b   3.69112396
_cell_length_c   8.16004372
_cell_angle_alpha   90.00000000
_cell_angle_beta   90.00000000
_cell_angle_gamma   120.00000000
_symmetry_Int_Tables_number   1
_chemical_formula_structural   TmOF5
_chemical_formula_sum   'Tm1 O1 F5'
_cell_volume   96.28095263
_cell_formula_units_Z   1
loop_
 _symmetry_equiv_pos_site_id
 _symmetry_equiv_pos_as_xyz
  1  'x, y, z'
loop_
 _atom_site_type_symbol
 _atom_site_label
 _atom_site_symmetry_multiplicity
 _atom_site_fract_x
 _atom_site_fract_y
 _atom_site_fract_z
 _atom_site_occupancy
  O  O0  1  0.33333332  0.66666664  0.17630401  1
  F  F1  1  0.66666667  0.33333332  0.82369603  1
  F  F2  1  0.00000000  0.00000000  0.50000002  1
  F  F3  1  0.00000000  0.00000000  0.34857001  1
  F  F4  1  0.00000000  0.00000000  0.65143002  1
  Tm  Tm5  1  0.66666667  0.33333332  0.10274900  1
  F  F6  1  0.33333332  0.66666664  0.89725103  1
