# generated using pymatgen
data_TiO2
_symmetry_space_group_name_H-M   'P 1'
_cell_length_a   3.61384797
_cell_length_b   5.11523533
_cell_length_c   7.08481264
_cell_angle_alpha   110.95471954
_cell_angle_beta   90.00000000
_cell_angle_gamma   110.68583679
_symmetry_Int_Tables_number   1
_chemical_formula_structural   TiO2
_chemical_formula_sum   'Ti3 O6'
_cell_volume   113.21841943
_cell_formula_units_Z   3
loop_
 _symmetry_equiv_pos_site_id
 _symmetry_equiv_pos_as_xyz
  1  'x, y, z'
loop_
 _atom_site_type_symbol
 _atom_site_label
 _atom_site_symmetry_multiplicity
 _atom_site_fract_x
 _atom_site_fract_y
 _atom_site_fract_z
 _atom_site_occupancy
  Ti  Ti0  1  0.81324802  0.62649598  0.36242901  1
  Ti  Ti1  1  0.18675201  0.37350399  0.63757101  1
  Ti  Ti2  1  0.00000000  0.00000000  0.00000000  1
  O  O3  1  0.96985103  0.93970197  0.30222001  1
  O  O4  1  0.03014900  0.06029800  0.69778000  1
  O  O5  1  0.66515801  0.33031599  0.12976400  1
  O  O6  1  0.33484202  0.66968398  0.87023601  1
  O  O7  1  0.69637101  0.39274199  0.56430601  1
  O  O8  1  0.30362901  0.60725798  0.43569401  1
