# generated using pymatgen
data_BaLa7
_symmetry_space_group_name_H-M   'P 1'
_cell_length_a   4.52845478
_cell_length_b   6.84087181
_cell_length_c   9.51443672
_cell_angle_alpha   90.00000000
_cell_angle_beta   90.00000000
_cell_angle_gamma   90.00000000
_symmetry_Int_Tables_number   1
_chemical_formula_structural   BaLa7
_chemical_formula_sum   'Ba1 La7'
_cell_volume   294.74372635
_cell_formula_units_Z   1
loop_
 _symmetry_equiv_pos_site_id
 _symmetry_equiv_pos_as_xyz
  1  'x, y, z'
loop_
 _atom_site_type_symbol
 _atom_site_label
 _atom_site_symmetry_multiplicity
 _atom_site_fract_x
 _atom_site_fract_y
 _atom_site_fract_z
 _atom_site_occupancy
  La  La0  1  0.25000001  0.38058401  0.67722802  1
  Ba  Ba1  1  0.25000001  0.11941600  0.17722801  1
  La  La2  1  0.75000004  0.61941602  0.32277201  1
  La  La3  1  0.75000004  0.88058402  0.82277202  1
  La  La4  1  0.25000001  0.56883502  0.02287800  1
  La  La5  1  0.25000001  0.93116503  0.52287802  1
  La  La6  1  0.75000004  0.43116501  0.97712203  1
  La  La7  1  0.75000004  0.06883400  0.47712201  1
