# generated using pymatgen
data_BaLaYbF6
_symmetry_space_group_name_H-M   'P 1'
_cell_length_a   3.83450007
_cell_length_b   5.87353611
_cell_length_c   6.76244545
_cell_angle_alpha   115.73923492
_cell_angle_beta   106.47006226
_cell_angle_gamma   90.00000000
_symmetry_Int_Tables_number   1
_chemical_formula_structural   BaLaYbF6
_chemical_formula_sum   'Ba1 La1 Yb1 F6'
_cell_volume   130.22008609
_cell_formula_units_Z   1
loop_
 _symmetry_equiv_pos_site_id
 _symmetry_equiv_pos_as_xyz
  1  'x, y, z'
loop_
 _atom_site_type_symbol
 _atom_site_label
 _atom_site_symmetry_multiplicity
 _atom_site_fract_x
 _atom_site_fract_y
 _atom_site_fract_z
 _atom_site_occupancy
  Ba  Ba0  1  0.00000001  0.49999999  0.00000000  1
  La  La1  1  0.20343000  0.20343000  0.40686001  1
  Yb  Yb2  1  0.79657000  0.79656999  0.59314003  1
  F  F3  1  0.50000001  0.99999998  1.00000004  1
  F  F4  1  0.64771300  0.90632798  0.29542502  1
  F  F5  1  0.35228700  0.09367200  0.70457502  1
  F  F6  1  0.35228800  0.61090299  0.70457603  1
  F  F7  1  0.64771200  0.38909699  0.29542402  1
  F  F8  1  0.00000000  0.00000000  0.00000000  1
