# generated using pymatgen
data_YSi13
_symmetry_space_group_name_H-M   'P 1'
_cell_length_a   3.98643994
_cell_length_b   5.30975962
_cell_length_c   12.20707607
_cell_angle_alpha   84.36996460
_cell_angle_beta   80.60243988
_cell_angle_gamma   67.95170593
_symmetry_Int_Tables_number   1
_chemical_formula_structural   YSi13
_chemical_formula_sum   'Y1 Si13'
_cell_volume   236.08548273
_cell_formula_units_Z   1
loop_
 _symmetry_equiv_pos_site_id
 _symmetry_equiv_pos_as_xyz
  1  'x, y, z'
loop_
 _atom_site_type_symbol
 _atom_site_label
 _atom_site_symmetry_multiplicity
 _atom_site_fract_x
 _atom_site_fract_y
 _atom_site_fract_z
 _atom_site_occupancy
  Si  Si0  1  0.60076503  0.71939299  0.07907699  1
  Si  Si1  1  0.47508903  0.67115999  0.37866200  1
  Si  Si2  1  0.74267903  0.74099799  0.77364401  1
  Y  Y3  1  0.52491102  0.32884000  0.62133801  1
  Si  Si4  1  0.39923501  0.28060700  0.92092301  1
  Si  Si5  1  0.25732101  0.25900200  0.22635600  1
  Si  Si6  1  0.96133404  0.84076899  0.23656300  1
  Si  Si7  1  0.86736104  0.71956399  0.54571400  1
  Si  Si8  1  0.13263901  0.28043600  0.45428600  1
  Si  Si9  1  0.11779803  0.84006999  0.92433400  1
  Si  Si10  1  0.03866601  0.15923100  0.76343701  1
  Si  Si11  1  0.88220201  0.15993000  0.07566601  1
  Si  Si12  1  0.24337504  0.91768099  0.59556900  1
  Si  Si13  1  0.75662501  0.08231900  0.40443101  1
