# generated using pymatgen
data_LaO6
_symmetry_space_group_name_H-M   'P 1'
_cell_length_a   3.98643994
_cell_length_b   5.30975962
_cell_length_c   12.20707607
_cell_angle_alpha   84.36996460
_cell_angle_beta   80.60243988
_cell_angle_gamma   67.95170593
_symmetry_Int_Tables_number   1
_chemical_formula_structural   LaO6
_chemical_formula_sum   'La2 O12'
_cell_volume   236.08548273
_cell_formula_units_Z   2
loop_
 _symmetry_equiv_pos_site_id
 _symmetry_equiv_pos_as_xyz
  1  'x, y, z'
loop_
 _atom_site_type_symbol
 _atom_site_label
 _atom_site_symmetry_multiplicity
 _atom_site_fract_x
 _atom_site_fract_y
 _atom_site_fract_z
 _atom_site_occupancy
  O  O0  1  0.60076503  0.71939299  0.07907699  1
  La  La1  1  0.47508903  0.67115999  0.37866200  1
  O  O2  1  0.74267903  0.74099799  0.77364401  1
  La  La3  1  0.52491102  0.32884000  0.62133801  1
  O  O4  1  0.39923501  0.28060700  0.92092301  1
  O  O5  1  0.25732101  0.25900200  0.22635600  1
  O  O6  1  0.96133404  0.84076899  0.23656300  1
  O  O7  1  0.86736104  0.71956399  0.54571400  1
  O  O8  1  0.13263901  0.28043600  0.45428600  1
  O  O9  1  0.11779803  0.84006999  0.92433400  1
  O  O10  1  0.03866601  0.15923100  0.76343701  1
  O  O11  1  0.88220201  0.15993000  0.07566601  1
  O  O12  1  0.24337504  0.91768099  0.59556900  1
  O  O13  1  0.75662501  0.08231900  0.40443101  1
