# generated using pymatgen
data_Au
_symmetry_space_group_name_H-M   'P 1'
_cell_length_a   5.25262308
_cell_length_b   6.40183020
_cell_length_c   6.40182972
_cell_angle_alpha   120.00000000
_cell_angle_beta   90.00000000
_cell_angle_gamma   90.00000000
_symmetry_Int_Tables_number   1
_chemical_formula_structural   Au
_chemical_formula_sum   Au8
_cell_volume   186.42971615
_cell_formula_units_Z   8
loop_
 _symmetry_equiv_pos_site_id
 _symmetry_equiv_pos_as_xyz
  1  'x, y, z'
loop_
 _atom_site_type_symbol
 _atom_site_label
 _atom_site_symmetry_multiplicity
 _atom_site_fract_x
 _atom_site_fract_y
 _atom_site_fract_z
 _atom_site_occupancy
  Au  Au0  1  0.74999999  0.83098296  0.16901797  1
  Au  Au1  1  0.74999999  0.33803498  0.16901799  1
  Au  Au2  1  0.74999999  0.83098296  0.66196596  1
  Au  Au3  1  0.25000000  0.16901699  0.83098198  1
  Au  Au4  1  0.25000000  0.66196497  0.83098197  1
  Au  Au5  1  0.25000000  0.16901699  0.33803399  1
  Au  Au6  1  0.25000000  0.66666663  0.33333330  1
  Au  Au7  1  0.74999999  0.33333332  0.66666665  1
