# generated using pymatgen
data_Ba(La3As)2
_symmetry_space_group_name_H-M   'P 1'
_cell_length_a   3.85782099
_cell_length_b   7.73064184
_cell_length_c   7.73064184
_cell_angle_alpha   120.00000000
_cell_angle_beta   90.00000000
_cell_angle_gamma   90.00000000
_symmetry_Int_Tables_number   1
_chemical_formula_structural   Ba(La3As)2
_chemical_formula_sum   'Ba1 La6 As2'
_cell_volume   199.66585820
_cell_formula_units_Z   1
loop_
 _symmetry_equiv_pos_site_id
 _symmetry_equiv_pos_as_xyz
  1  'x, y, z'
loop_
 _atom_site_type_symbol
 _atom_site_label
 _atom_site_symmetry_multiplicity
 _atom_site_fract_x
 _atom_site_fract_y
 _atom_site_fract_z
 _atom_site_occupancy
  As  As0  1  0.50000000  0.59315100  0.59315097  1
  Ba  Ba1  1  0.50000000  1.00000001  0.40684897  1
  As  As2  1  0.50000000  0.40684900  -0.00000001  1
  La  La3  1  -0.00000000  0.26043600  0.26043599  1
  La  La4  1  0.00000000  0.73956401  -0.00000002  1
  La  La5  1  0.00000000  1.00000001  0.73956396  1
  La  La6  1  0.50000000  0.00000000  -0.00000000  1
  La  La7  1  1.00000000  0.33333334  0.66666664  1
  La  La8  1  -0.00000000  0.66666667  0.33333331  1
