# generated using pymatgen
data_Ti2O3
_symmetry_space_group_name_H-M   'P 1'
_cell_length_a   3.70405197
_cell_length_b   5.53181410
_cell_length_c   6.73833895
_cell_angle_alpha   90.00000000
_cell_angle_beta   90.00000000
_cell_angle_gamma   109.56009674
_symmetry_Int_Tables_number   1
_chemical_formula_structural   Ti2O3
_chemical_formula_sum   'Ti4 O6'
_cell_volume   130.10155098
_cell_formula_units_Z   2
loop_
 _symmetry_equiv_pos_site_id
 _symmetry_equiv_pos_as_xyz
  1  'x, y, z'
loop_
 _atom_site_type_symbol
 _atom_site_label
 _atom_site_symmetry_multiplicity
 _atom_site_fract_x
 _atom_site_fract_y
 _atom_site_fract_z
 _atom_site_occupancy
  O  O0  1  0.45269800  0.90539604  0.75000001  1
  O  O1  1  0.54730200  0.09460400  0.25000000  1
  O  O2  1  0.16538400  0.33076801  0.93788601  1
  O  O3  1  0.83461600  0.66923203  0.06211400  1
  O  O4  1  0.83461600  0.66923203  0.43788600  1
  O  O5  1  0.16538400  0.33076801  0.56211400  1
  Ti  Ti6  1  0.73271800  0.46543602  0.75000001  1
  Ti  Ti7  1  0.26728200  0.53456402  0.25000000  1
  Ti  Ti8  1  0.00000000  0.00000000  0.00000000  1
  Ti  Ti9  1  0.00000000  0.00000000  0.50000000  1
