# generated using pymatgen
data_Tm3OF4
_symmetry_space_group_name_H-M   'P 1'
_cell_length_a   3.36430597
_cell_length_b   3.36430645
_cell_length_c   11.02406693
_cell_angle_alpha   90.00000000
_cell_angle_beta   90.00000000
_cell_angle_gamma   119.99999237
_symmetry_Int_Tables_number   1
_chemical_formula_structural   Tm3OF4
_chemical_formula_sum   'Tm3 O1 F4'
_cell_volume   108.05964613
_cell_formula_units_Z   1
loop_
 _symmetry_equiv_pos_site_id
 _symmetry_equiv_pos_as_xyz
  1  'x, y, z'
loop_
 _atom_site_type_symbol
 _atom_site_label
 _atom_site_symmetry_multiplicity
 _atom_site_fract_x
 _atom_site_fract_y
 _atom_site_fract_z
 _atom_site_occupancy
  F  F0  1  0.33333330  0.66666665  0.74946201  1
  F  F1  1  0.00000000  0.00000000  0.98617401  1
  F  F2  1  0.00000000  0.00000000  0.51294200  1
  O  O3  1  0.33333330  0.66666665  0.24468000  1
  Tm  Tm4  1  0.33333330  0.66666665  0.04108900  1
  F  F5  1  0.33333330  0.66666665  0.56810500  1
  Tm  Tm6  1  0.00000000  0.00000000  0.33318000  1
  Tm  Tm7  1  0.00000000  0.00000000  0.80436801  1
