# generated using pymatgen
data_LaSi11
_symmetry_space_group_name_H-M   'P 1'
_cell_length_a   4.37252283
_cell_length_b   7.17413187
_cell_length_c   7.25998306
_cell_angle_alpha   90.00000000
_cell_angle_beta   90.00000000
_cell_angle_gamma   90.00000000
_symmetry_Int_Tables_number   1
_chemical_formula_structural   LaSi11
_chemical_formula_sum   'La1 Si11'
_cell_volume   227.73881086
_cell_formula_units_Z   1
loop_
 _symmetry_equiv_pos_site_id
 _symmetry_equiv_pos_as_xyz
  1  'x, y, z'
loop_
 _atom_site_type_symbol
 _atom_site_label
 _atom_site_symmetry_multiplicity
 _atom_site_fract_x
 _atom_site_fract_y
 _atom_site_fract_z
 _atom_site_occupancy
  Si  Si0  1  0.75000003  0.50574001  0.81100399  1
  La  La1  1  0.25000001  0.99426002  0.31100400  1
  Si  Si2  1  0.75000003  0.00574000  0.68899599  1
  Si  Si3  1  0.25000001  0.49426001  0.18899600  1
  Si  Si4  1  0.25000001  0.82609601  0.91812699  1
  Si  Si5  1  0.25000001  0.32609601  0.58187299  1
  Si  Si6  1  0.75000003  0.17390400  0.08187300  1
  Si  Si7  1  0.75000003  0.67390401  0.41812700  1
  Si  Si8  1  0.25000001  0.69068601  0.59703199  1
  Si  Si9  1  0.25000001  0.19068600  0.90296799  1
  Si  Si10  1  0.75000003  0.80931401  0.09703200  1
  Si  Si11  1  0.75000003  0.30931401  0.40296800  1
