# generated using pymatgen
data_BiBr2
_symmetry_space_group_name_H-M   'P 1'
_cell_length_a   4.68493366
_cell_length_b   4.68493366
_cell_length_c   8.32871342
_cell_angle_alpha   73.66506195
_cell_angle_beta   73.66506195
_cell_angle_gamma   60.00000381
_symmetry_Int_Tables_number   1
_chemical_formula_structural   BiBr2
_chemical_formula_sum   'Bi1 Br2'
_cell_volume   149.73139288
_cell_formula_units_Z   1
loop_
 _symmetry_equiv_pos_site_id
 _symmetry_equiv_pos_as_xyz
  1  'x, y, z'
loop_
 _atom_site_type_symbol
 _atom_site_label
 _atom_site_symmetry_multiplicity
 _atom_site_fract_x
 _atom_site_fract_y
 _atom_site_fract_z
 _atom_site_occupancy
  Bi  Bi0  1  0.00000000  0.00000000  0.00000000  1
  Br  Br1  1  0.74517202  0.74517201  0.76448403  1
  Br  Br2  1  0.25482801  0.25482800  0.23551601  1
