# generated using pymatgen
data_ZnO4F3
_symmetry_space_group_name_H-M   'P 1'
_cell_length_a   3.63933301
_cell_length_b   5.65134716
_cell_length_c   5.97820616
_cell_angle_alpha   90.00000000
_cell_angle_beta   90.00000000
_cell_angle_gamma   90.00000000
_symmetry_Int_Tables_number   1
_chemical_formula_structural   ZnO4F3
_chemical_formula_sum   'Zn1 O4 F3'
_cell_volume   122.95456874
_cell_formula_units_Z   1
loop_
 _symmetry_equiv_pos_site_id
 _symmetry_equiv_pos_as_xyz
  1  'x, y, z'
loop_
 _atom_site_type_symbol
 _atom_site_label
 _atom_site_symmetry_multiplicity
 _atom_site_fract_x
 _atom_site_fract_y
 _atom_site_fract_z
 _atom_site_occupancy
  O  O0  1  0.25000000  0.67845098  0.08331300  1
  O  O1  1  0.75000000  0.32154899  0.91668698  1
  O  O2  1  0.25000000  0.17845099  0.41668699  1
  O  O3  1  0.75000000  0.82154898  0.58331298  1
  Zn  Zn4  1  0.25000000  0.49477199  0.69337898  1
  F  F5  1  0.75000000  0.50522799  0.30662099  1
  F  F6  1  0.25000000  0.99477197  0.80662098  1
  F  F7  1  0.75000000  0.00522800  0.19337899  1
