# generated using pymatgen
data_Cs3SnF6
_symmetry_space_group_name_H-M   'P 1'
_cell_length_a   5.81956005
_cell_length_b   5.89135981
_cell_length_c   5.81956005
_cell_angle_alpha   60.40233994
_cell_angle_beta   90.00000000
_cell_angle_gamma   119.59766388
_symmetry_Int_Tables_number   1
_chemical_formula_structural   Cs3SnF6
_chemical_formula_sum   'Cs3 Sn1 F6'
_cell_volume   142.78373585
_cell_formula_units_Z   1
loop_
 _symmetry_equiv_pos_site_id
 _symmetry_equiv_pos_as_xyz
  1  'x, y, z'
loop_
 _atom_site_type_symbol
 _atom_site_label
 _atom_site_symmetry_multiplicity
 _atom_site_fract_x
 _atom_site_fract_y
 _atom_site_fract_z
 _atom_site_occupancy
  Cs  Cs0  1  0.25000004  0.50000001  0.24999999  1
  Cs  Cs1  1  0.75000003  0.50000001  0.74999998  1
  Sn  Sn2  1  0.50000007  1.00000001  0.49999998  1
  Cs  Cs3  1  0.00000000  0.00000000  0.00000000  1
  F  F4  1  0.29427700  0.00000000  0.16162300  1
  F  F5  1  0.83837699  0.00000000  0.29427700  1
  F  F6  1  0.16162307  1.00000001  0.70572298  1
  F  F7  1  0.70572299  0.00000000  0.83837699  1
  F  F8  1  0.76830603  0.53661201  0.23169399  1
  F  F9  1  0.23169403  0.46338801  0.76830599  1
