# generated using pymatgen
data_BaLa2Si11
_symmetry_space_group_name_H-M   'P 1'
_cell_length_a   5.78985119
_cell_length_b   6.73770189
_cell_length_c   9.99077511
_cell_angle_alpha   90.00000000
_cell_angle_beta   90.00000000
_cell_angle_gamma   98.16032410
_symmetry_Int_Tables_number   1
_chemical_formula_structural   BaLa2Si11
_chemical_formula_sum   'Ba1 La2 Si11'
_cell_volume   385.79680575
_cell_formula_units_Z   1
loop_
 _symmetry_equiv_pos_site_id
 _symmetry_equiv_pos_as_xyz
  1  'x, y, z'
loop_
 _atom_site_type_symbol
 _atom_site_label
 _atom_site_symmetry_multiplicity
 _atom_site_fract_x
 _atom_site_fract_y
 _atom_site_fract_z
 _atom_site_occupancy
  La  La0  1  0.28589399  0.67124999  0.95150999  1
  La  La1  1  0.71410598  0.32875000  0.45151000  1
  Ba  Ba2  1  0.71410598  0.32875000  0.04849000  1
  Si  Si3  1  0.28589399  0.67124999  0.54848999  1
  Si  Si4  1  0.84041697  0.99126299  0.74999999  1
  Si  Si5  1  0.15958299  0.00873700  0.25000000  1
  Si  Si6  1  0.38774699  0.26073700  0.74999999  1
  Si  Si7  1  0.61225298  0.73926299  0.25000000  1
  Si  Si8  1  0.74918498  0.81977699  0.40946700  1
  Si  Si9  1  0.25081499  0.18022300  0.90946699  1
  Si  Si10  1  0.25081499  0.18022300  0.59053299  1
  Si  Si11  1  0.74918498  0.81977699  0.09053300  1
  Si  Si12  1  0.33459199  0.57196800  0.25000000  1
  Si  Si13  1  0.66540798  0.42803200  0.74999999  1
