# generated using pymatgen
data_La7Si
_symmetry_space_group_name_H-M   'P 1'
_cell_length_a   4.70555019
_cell_length_b   5.92346811
_cell_length_c   7.61864185
_cell_angle_alpha   90.00000000
_cell_angle_beta   90.00000000
_cell_angle_gamma   113.40297699
_symmetry_Int_Tables_number   1
_chemical_formula_structural   La7Si
_chemical_formula_sum   'La7 Si1'
_cell_volume   194.88608894
_cell_formula_units_Z   1
loop_
 _symmetry_equiv_pos_site_id
 _symmetry_equiv_pos_as_xyz
  1  'x, y, z'
loop_
 _atom_site_type_symbol
 _atom_site_label
 _atom_site_symmetry_multiplicity
 _atom_site_fract_x
 _atom_site_fract_y
 _atom_site_fract_z
 _atom_site_occupancy
  La  La0  1  0.57552099  0.15104200  0.75000001  1
  La  La1  1  0.42447904  0.84895800  0.25000000  1
  La  La2  1  0.13910101  0.27820200  0.44913401  1
  Si  Si3  1  0.86089901  0.72179800  0.55086601  1
  La  La4  1  0.13910101  0.27820200  0.05086600  1
  La  La5  1  0.86089901  0.72179800  0.94913402  1
  La  La6  1  0.70733200  0.41466400  0.25000000  1
  La  La7  1  0.29266803  0.58533600  0.75000001  1
