# generated using pymatgen
data_LaSi3
_symmetry_space_group_name_H-M   'P 1'
_cell_length_a   4.11216784
_cell_length_b   4.56491423
_cell_length_c   8.41499901
_cell_angle_alpha   102.32880402
_cell_angle_beta   90.00000000
_cell_angle_gamma   90.00000000
_symmetry_Int_Tables_number   1
_chemical_formula_structural   LaSi3
_chemical_formula_sum   'La2 Si6'
_cell_volume   154.32087718
_cell_formula_units_Z   2
loop_
 _symmetry_equiv_pos_site_id
 _symmetry_equiv_pos_as_xyz
  1  'x, y, z'
loop_
 _atom_site_type_symbol
 _atom_site_label
 _atom_site_symmetry_multiplicity
 _atom_site_fract_x
 _atom_site_fract_y
 _atom_site_fract_z
 _atom_site_occupancy
  La  La0  1  0.75000003  0.08772900  0.20062899  1
  La  La1  1  0.25000001  0.91227097  0.79937099  1
  Si  Si2  1  0.75000003  0.83091597  0.50839500  1
  Si  Si3  1  0.25000001  0.16908399  0.49160498  1
  Si  Si4  1  0.25000001  0.53771998  0.09101001  1
  Si  Si5  1  0.75000003  0.46227998  0.90898997  1
  Si  Si6  1  0.25000001  0.62137298  0.38878200  1
  Si  Si7  1  0.75000003  0.37862699  0.61121798  1
