# generated using pymatgen
data_Mg
_symmetry_space_group_name_H-M   'P 1'
_cell_length_a   3.71088791
_cell_length_b   3.71088767
_cell_length_c   18.37602615
_cell_angle_alpha   90.00000000
_cell_angle_beta   90.00000000
_cell_angle_gamma   120.00000000
_symmetry_Int_Tables_number   1
_chemical_formula_structural   Mg
_chemical_formula_sum   Mg6
_cell_volume   219.14818421
_cell_formula_units_Z   6
loop_
 _symmetry_equiv_pos_site_id
 _symmetry_equiv_pos_as_xyz
  1  'x, y, z'
loop_
 _atom_site_type_symbol
 _atom_site_label
 _atom_site_symmetry_multiplicity
 _atom_site_fract_x
 _atom_site_fract_y
 _atom_site_fract_z
 _atom_site_occupancy
  Mg  Mg0  1  0.00781997  0.68805900  0.08352500  1
  Mg  Mg1  1  0.68023897  0.99217900  0.75019103  1
  Mg  Mg2  1  0.31193999  0.31976000  0.41685802  1
  Mg  Mg3  1  0.99218000  0.68024000  0.58314203  1
  Mg  Mg4  1  0.31976099  0.31194100  0.91647504  1
  Mg  Mg5  1  0.68806002  0.00782100  0.24980901  1
