# generated using pymatgen
data_La3Si
_symmetry_space_group_name_H-M   'P 1'
_cell_length_a   4.70800591
_cell_length_b   6.05867052
_cell_length_c   7.68697691
_cell_angle_alpha   90.00000000
_cell_angle_beta   90.00000000
_cell_angle_gamma   112.86334991
_symmetry_Int_Tables_number   1
_chemical_formula_structural   La3Si
_chemical_formula_sum   'La6 Si2'
_cell_volume   202.03853168
_cell_formula_units_Z   2
loop_
 _symmetry_equiv_pos_site_id
 _symmetry_equiv_pos_as_xyz
  1  'x, y, z'
loop_
 _atom_site_type_symbol
 _atom_site_label
 _atom_site_symmetry_multiplicity
 _atom_site_fract_x
 _atom_site_fract_y
 _atom_site_fract_z
 _atom_site_occupancy
  La  La0  1  0.42387707  0.84775403  0.75000001  1
  La  La1  1  0.57612302  0.15224601  0.25000000  1
  Si  Si2  1  0.86629707  0.73259403  0.44906001  1
  La  La3  1  0.13370302  0.26740601  0.55094001  1
  La  La4  1  0.86629707  0.73259403  0.05094000  1
  La  La5  1  0.13370302  0.26740601  0.94906001  1
  Si  Si6  1  0.71141305  0.42282602  0.75000001  1
  La  La7  1  0.28858705  0.57717402  0.25000000  1
