# generated using pymatgen
data_BaAu3O8
_symmetry_space_group_name_H-M   'P 1'
_cell_length_a   5.13536978
_cell_length_b   5.44010878
_cell_length_c   5.44010878
_cell_angle_alpha   90.00000000
_cell_angle_beta   90.00000000
_cell_angle_gamma   90.00000000
_symmetry_Int_Tables_number   1
_chemical_formula_structural   BaAu3O8
_chemical_formula_sum   'Ba1 Au3 O8'
_cell_volume   151.98015674
_cell_formula_units_Z   1
loop_
 _symmetry_equiv_pos_site_id
 _symmetry_equiv_pos_as_xyz
  1  'x, y, z'
loop_
 _atom_site_type_symbol
 _atom_site_label
 _atom_site_symmetry_multiplicity
 _atom_site_fract_x
 _atom_site_fract_y
 _atom_site_fract_z
 _atom_site_occupancy
  Au  Au0  1  1.00000004  0.50000002  0.50000002  1
  Ba  Ba1  1  0.00000000  0.00000000  0.00000000  1
  Au  Au2  1  0.50000002  1.00000004  0.50000002  1
  Au  Au3  1  0.50000002  0.50000002  0.00000000  1
  O  O4  1  0.25753601  0.18880601  0.68880603  1
  O  O5  1  0.74246403  0.81119403  0.68880603  1
  O  O6  1  0.25753601  0.81119403  0.31119401  1
  O  O7  1  0.74246403  0.18880601  0.31119401  1
  O  O8  1  0.74246403  0.68880603  0.18880601  1
  O  O9  1  0.25753601  0.31119401  0.18880601  1
  O  O10  1  0.25753601  0.68880603  0.81119403  1
  O  O11  1  0.74246403  0.31119401  0.81119403  1
