# generated using pymatgen
data_In
_symmetry_space_group_name_H-M   'P 1'
_cell_length_a   4.27548218
_cell_length_b   4.27548218
_cell_length_c   14.10817242
_cell_angle_alpha   81.28468323
_cell_angle_beta   81.28468323
_cell_angle_gamma   59.99999619
_symmetry_Int_Tables_number   1
_chemical_formula_structural   In
_chemical_formula_sum   In8
_cell_volume   219.89742392
_cell_formula_units_Z   8
loop_
 _symmetry_equiv_pos_site_id
 _symmetry_equiv_pos_as_xyz
  1  'x, y, z'
loop_
 _atom_site_type_symbol
 _atom_site_label
 _atom_site_symmetry_multiplicity
 _atom_site_fract_x
 _atom_site_fract_y
 _atom_site_fract_z
 _atom_site_occupancy
  In  In0  1  0.00000000  0.00000000  0.00000000  1
  In  In1  1  0.24980800  0.24980800  0.25057600  1
  In  In2  1  0.50000000  0.50000001  0.49999999  1
  In  In3  1  0.75019200  0.75019201  0.74942399  1
  In  In4  1  0.12509000  0.12509000  0.62472999  1
  In  In5  1  0.37480000  0.37480000  0.87559999  1
  In  In6  1  0.62520000  0.62520001  0.12440000  1
  In  In7  1  0.87491000  0.87491001  0.37526999  1
