# generated using pymatgen
data_Si
_symmetry_space_group_name_H-M   'P 1'
_cell_length_a   5.81033468
_cell_length_b   5.81033468
_cell_length_c   5.81033468
_cell_angle_alpha   89.57514191
_cell_angle_beta   60.19099045
_cell_angle_gamma   119.70104218
_symmetry_Int_Tables_number   1
_chemical_formula_structural   Si
_chemical_formula_sum   Si10
_cell_volume   139.21312231
_cell_formula_units_Z   10
loop_
 _symmetry_equiv_pos_site_id
 _symmetry_equiv_pos_as_xyz
  1  'x, y, z'
loop_
 _atom_site_type_symbol
 _atom_site_label
 _atom_site_symmetry_multiplicity
 _atom_site_fract_x
 _atom_site_fract_y
 _atom_site_fract_z
 _atom_site_occupancy
  Si  Si0  1  0.49116198  0.24116199  0.24999999  1
  Si  Si1  1  0.50883795  0.75883796  0.75000000  1
  Si  Si2  1  -0.00000003  0.49999997  0.50000001  1
  Si  Si3  1  0.00000000  0.00000000  0.00000000  1
  Si  Si4  1  0.49999998  0.20946199  0.79053797  1
  Si  Si5  1  -0.00000004  0.79053796  0.70946202  1
  Si  Si6  1  0.49999995  0.79053796  0.20946201  1
  Si  Si7  1  0.99999998  0.20946199  0.29053797  1
  Si  Si8  1  0.92514796  0.67514796  0.24999999  1
  Si  Si9  1  0.07485198  0.32485198  0.74999999  1
