# generated using pymatgen
data_Li3O
_symmetry_space_group_name_H-M   'P 1'
_cell_length_a   2.94626808
_cell_length_b   6.45532799
_cell_length_c   7.88263702
_cell_angle_alpha   86.31021881
_cell_angle_beta   79.22904205
_cell_angle_gamma   76.80862427
_symmetry_Int_Tables_number   1
_chemical_formula_structural   Li3O
_chemical_formula_sum   'Li12 O4'
_cell_volume   143.35642269
_cell_formula_units_Z   4
loop_
 _symmetry_equiv_pos_site_id
 _symmetry_equiv_pos_as_xyz
  1  'x, y, z'
loop_
 _atom_site_type_symbol
 _atom_site_label
 _atom_site_symmetry_multiplicity
 _atom_site_fract_x
 _atom_site_fract_y
 _atom_site_fract_z
 _atom_site_occupancy
  Li  Li0  1  0.11791303  0.62070900  0.14346503  1
  Li  Li1  1  0.88208700  0.37929100  0.85653502  1
  Li  Li2  1  0.61471199  0.14199900  0.62857701  1
  Li  Li3  1  0.38528804  0.85800101  0.37142304  1
  Li  Li4  1  0.00000003  0.50000000  0.50000002  1
  Li  Li5  1  0.25708804  0.74524800  0.74057603  1
  Li  Li6  1  0.74291199  0.25475200  0.25942401  1
  Li  Li7  1  0.49999998  0.00000000  0.00000000  1
  O  O8  1  0.06651100  0.05277800  0.81420000  1
  Li  Li9  1  0.80318602  0.80774701  0.58588104  1
  Li  Li10  1  0.57939301  0.53940600  0.30180803  1
  O  O11  1  0.31275801  0.29104200  0.08344201  1
  Li  Li12  1  0.19681401  0.19225300  0.41411901  1
  Li  Li13  1  0.93348903  0.94722201  0.18580005  1
  O  O14  1  0.68724202  0.70895800  0.91655803  1
  O  O15  1  0.42060701  0.46059400  0.69819202  1
