# generated using pymatgen
data_Ti3O5
_symmetry_space_group_name_H-M   'P 1'
_cell_length_a   3.61623597
_cell_length_b   4.30773878
_cell_length_c   5.95160294
_cell_angle_alpha   109.71099091
_cell_angle_beta   90.00000000
_cell_angle_gamma   90.00000000
_symmetry_Int_Tables_number   1
_chemical_formula_structural   Ti3O5
_chemical_formula_sum   'Ti3 O5'
_cell_volume   87.28044868
_cell_formula_units_Z   1
loop_
 _symmetry_equiv_pos_site_id
 _symmetry_equiv_pos_as_xyz
  1  'x, y, z'
loop_
 _atom_site_type_symbol
 _atom_site_label
 _atom_site_symmetry_multiplicity
 _atom_site_fract_x
 _atom_site_fract_y
 _atom_site_fract_z
 _atom_site_occupancy
  Ti  Ti0  1  0.25000000  0.16377501  0.81122102  1
  Ti  Ti1  1  0.75000001  0.83622504  0.18877900  1
  Ti  Ti2  1  0.25000000  0.51645703  0.40366301  1
  O  O3  1  0.75000001  0.48354302  0.59633701  1
  O  O4  1  0.25000000  0.73257304  0.94665002  1
  O  O5  1  0.75000001  0.26742701  0.05335000  1
  O  O6  1  0.25000000  0.75276104  0.43326301  1
  O  O7  1  0.75000001  0.24723901  0.56673701  1
