# generated using pymatgen
data_LaSi11
_symmetry_space_group_name_H-M   'P 1'
_cell_length_a   4.38852215
_cell_length_b   7.13838005
_cell_length_c   7.92147303
_cell_angle_alpha   90.00000000
_cell_angle_beta   90.00000000
_cell_angle_gamma   90.00000000
_symmetry_Int_Tables_number   1
_chemical_formula_structural   LaSi11
_chemical_formula_sum   'La1 Si11'
_cell_volume   248.15550192
_cell_formula_units_Z   1
loop_
 _symmetry_equiv_pos_site_id
 _symmetry_equiv_pos_as_xyz
  1  'x, y, z'
loop_
 _atom_site_type_symbol
 _atom_site_label
 _atom_site_symmetry_multiplicity
 _atom_site_fract_x
 _atom_site_fract_y
 _atom_site_fract_z
 _atom_site_occupancy
  Si  Si0  1  0.74999997  0.47517600  0.18554500  1
  La  La1  1  0.24999999  0.02482400  0.68554500  1
  Si  Si2  1  0.74999997  0.97517599  0.31445500  1
  Si  Si3  1  0.24999999  0.52482400  0.81445500  1
  Si  Si4  1  0.24999999  0.64862800  0.43160700  1
  Si  Si5  1  0.24999999  0.14862800  0.06839300  1
  Si  Si6  1  0.74999997  0.35137200  0.56839300  1
  Si  Si7  1  0.74999997  0.85137199  0.93160700  1
  Si  Si8  1  0.24999999  0.77749799  0.10736700  1
  Si  Si9  1  0.24999999  0.27749800  0.39263300  1
  Si  Si10  1  0.74999997  0.72250199  0.60736700  1
  Si  Si11  1  0.74999997  0.22250200  0.89263300  1
