# generated using pymatgen
data_Zn
_symmetry_space_group_name_H-M   'P 1'
_cell_length_a   3.02559447
_cell_length_b   3.02559447
_cell_length_c   10.00975513
_cell_angle_alpha   81.30744171
_cell_angle_beta   81.30744171
_cell_angle_gamma   59.99998856
_symmetry_Int_Tables_number   1
_chemical_formula_structural   Zn
_chemical_formula_sum   Zn8
_cell_volume   78.13750307
_cell_formula_units_Z   8
loop_
 _symmetry_equiv_pos_site_id
 _symmetry_equiv_pos_as_xyz
  1  'x, y, z'
loop_
 _atom_site_type_symbol
 _atom_site_label
 _atom_site_symmetry_multiplicity
 _atom_site_fract_x
 _atom_site_fract_y
 _atom_site_fract_z
 _atom_site_occupancy
  Zn  Zn0  1  0.24977801  0.24977801  0.25066599  1
  Zn  Zn1  1  0.50000003  0.50000001  0.49999998  1
  Zn  Zn2  1  0.75022204  0.75022202  0.74933397  1
  Zn  Zn3  1  0.00000000  0.00000000  0.00000000  1
  Zn  Zn4  1  0.12507101  0.12507100  0.62478698  1
  Zn  Zn5  1  0.37651702  0.37651701  0.87044897  1
  Zn  Zn6  1  0.62348303  0.62348301  0.12955099  1
  Zn  Zn7  1  0.87492905  0.87492902  0.37521298  1
