# generated using pymatgen
data_Au
_symmetry_space_group_name_H-M   'P 1'
_cell_length_a   7.45556402
_cell_length_b   7.77603722
_cell_length_c   7.45556402
_cell_angle_alpha   118.64579773
_cell_angle_beta   90.00000000
_cell_angle_gamma   118.64579773
_symmetry_Int_Tables_number   1
_chemical_formula_structural   Au
_chemical_formula_sum   Au10
_cell_volume   317.73308760
_cell_formula_units_Z   10
loop_
 _symmetry_equiv_pos_site_id
 _symmetry_equiv_pos_as_xyz
  1  'x, y, z'
loop_
 _atom_site_type_symbol
 _atom_site_label
 _atom_site_symmetry_multiplicity
 _atom_site_fract_x
 _atom_site_fract_y
 _atom_site_fract_z
 _atom_site_occupancy
  Au  Au0  1  0.24999996  0.49999997  0.74999996  1
  Au  Au1  1  0.74999996  0.49999997  0.24999996  1
  Au  Au2  1  0.50000000  0.00000000  0.50000000  1
  Au  Au3  1  0.00000000  0.00000000  0.00000000  1
  Au  Au4  1  0.71007997  0.42015998  0.71007997  1
  Au  Au5  1  0.22388300  0.00000000  0.22388300  1
  Au  Au6  1  0.77611700  0.00000000  0.77611700  1
  Au  Au7  1  0.22388300  0.00000000  0.77611700  1
  Au  Au8  1  0.28991996  0.57983997  0.28991996  1
  Au  Au9  1  0.77611700  0.00000000  0.22388300  1
