# generated using pymatgen
data_LaO2
_symmetry_space_group_name_H-M   'P 1'
_cell_length_a   3.80304646
_cell_length_b   5.81773949
_cell_length_c   6.70056486
_cell_angle_alpha   115.72951508
_cell_angle_beta   106.48626709
_cell_angle_gamma   89.99999237
_symmetry_Int_Tables_number   1
_chemical_formula_structural   LaO2
_chemical_formula_sum   'La3 O6'
_cell_volume   126.75259327
_cell_formula_units_Z   3
loop_
 _symmetry_equiv_pos_site_id
 _symmetry_equiv_pos_as_xyz
  1  'x, y, z'
loop_
 _atom_site_type_symbol
 _atom_site_label
 _atom_site_symmetry_multiplicity
 _atom_site_fract_x
 _atom_site_fract_y
 _atom_site_fract_z
 _atom_site_occupancy
  La  La0  1  0.00000000  0.00000000  0.00000000  1
  La  La1  1  0.20332999  0.70333004  0.40666004  1
  La  La2  1  0.79666899  0.29667102  0.59334004  1
  O  O3  1  0.49999899  0.49999903  0.99999904  1
  O  O4  1  0.64936999  0.40881602  0.29873904  1
  O  O5  1  0.35062999  0.59118503  0.70126104  1
  O  O6  1  0.35063100  0.11007601  0.70126102  1
  O  O7  1  0.64936899  0.88992405  0.29874006  1
  O  O8  1  -0.00000000  0.50000003  0.00000002  1
