# generated using pymatgen
data_La3O4
_symmetry_space_group_name_H-M   'P 1'
_cell_length_a   3.45792699
_cell_length_b   6.03881550
_cell_length_c   6.44684076
_cell_angle_alpha   116.31677246
_cell_angle_beta   104.41555023
_cell_angle_gamma   90.62448883
_symmetry_Int_Tables_number   1
_chemical_formula_structural   La3O4
_chemical_formula_sum   'La3 O4'
_cell_volume   115.72388002
_cell_formula_units_Z   1
loop_
 _symmetry_equiv_pos_site_id
 _symmetry_equiv_pos_as_xyz
  1  'x, y, z'
loop_
 _atom_site_type_symbol
 _atom_site_label
 _atom_site_symmetry_multiplicity
 _atom_site_fract_x
 _atom_site_fract_y
 _atom_site_fract_z
 _atom_site_occupancy
  La  La0  1  0.74716999  0.01957400  0.43772997  1
  La  La1  1  0.24460998  0.41064800  0.41518396  1
  La  La2  1  0.51754196  0.71287000  0.93789792  1
  O  O3  1  0.37887298  0.26609000  0.70780196  1
  O  O4  1  0.61495499  0.16446500  0.14476397  1
  O  O5  1  0.14260497  0.69270000  0.20893394  1
  O  O6  1  0.85424496  0.73365400  0.64768791  1
