# generated using pymatgen
data_LaAu5
_symmetry_space_group_name_H-M   'P 1'
_cell_length_a   4.62789011
_cell_length_b   4.62788963
_cell_length_c   8.11784267
_cell_angle_alpha   90.00000000
_cell_angle_beta   90.00000000
_cell_angle_gamma   120.00000000
_symmetry_Int_Tables_number   1
_chemical_formula_structural   LaAu5
_chemical_formula_sum   'La1 Au5'
_cell_volume   150.56959883
_cell_formula_units_Z   1
loop_
 _symmetry_equiv_pos_site_id
 _symmetry_equiv_pos_as_xyz
  1  'x, y, z'
loop_
 _atom_site_type_symbol
 _atom_site_label
 _atom_site_symmetry_multiplicity
 _atom_site_fract_x
 _atom_site_fract_y
 _atom_site_fract_z
 _atom_site_occupancy
  Au  Au0  1  0.00000000  0.00000000  0.50000002  1
  La  La1  1  0.00000000  0.00000000  0.00000000  1
  Au  Au2  1  0.66666664  0.33333333  0.25000001  1
  Au  Au3  1  0.33333330  0.66666667  0.75000003  1
  Au  Au4  1  0.66666664  0.33333333  0.75000003  1
  Au  Au5  1  0.33333330  0.66666667  0.25000001  1
