# generated using pymatgen
data_Ba
_symmetry_space_group_name_H-M   'P 1'
_cell_length_a   5.33142424
_cell_length_b   5.39128351
_cell_length_c   5.39128351
_cell_angle_alpha   75.84893799
_cell_angle_beta   60.36661148
_cell_angle_gamma   60.36661148
_symmetry_Int_Tables_number   1
_chemical_formula_structural   Ba
_chemical_formula_sum   Ba6
_cell_volume   117.07763910
_cell_formula_units_Z   6
loop_
 _symmetry_equiv_pos_site_id
 _symmetry_equiv_pos_as_xyz
  1  'x, y, z'
loop_
 _atom_site_type_symbol
 _atom_site_label
 _atom_site_symmetry_multiplicity
 _atom_site_fract_x
 _atom_site_fract_y
 _atom_site_fract_z
 _atom_site_occupancy
  Ba  Ba0  1  0.84187396  0.81625197  0.50000007  1
  Ba  Ba1  1  0.65812596  0.49999998  0.18374805  1
  Ba  Ba2  1  0.34187398  0.49999998  0.81625203  1
  Ba  Ba3  1  0.15812599  0.18374799  0.50000001  1
  Ba  Ba4  1  0.25000000  0.99999996  0.00000006  1
  Ba  Ba5  1  0.74999995  0.00000000  0.00000003  1
