# generated using pymatgen
data_BaO17
_symmetry_space_group_name_H-M   'P 1'
_cell_length_a   5.43044186
_cell_length_b   5.55682564
_cell_length_c   8.61522675
_cell_angle_alpha   90.00000000
_cell_angle_beta   90.00000000
_cell_angle_gamma   119.25045013
_symmetry_Int_Tables_number   1
_chemical_formula_structural   BaO17
_chemical_formula_sum   'Ba1 O17'
_cell_volume   226.82461755
_cell_formula_units_Z   1
loop_
 _symmetry_equiv_pos_site_id
 _symmetry_equiv_pos_as_xyz
  1  'x, y, z'
loop_
 _atom_site_type_symbol
 _atom_site_label
 _atom_site_symmetry_multiplicity
 _atom_site_fract_x
 _atom_site_fract_y
 _atom_site_fract_z
 _atom_site_occupancy
  O  O0  1  0.43207205  0.86414403  0.97736303  1
  O  O1  1  0.26965103  0.53930202  0.46924301  1
  O  O2  1  0.73034904  0.46069801  0.96924303  1
  O  O3  1  0.56792802  0.13585600  0.47736301  1
  O  O4  1  0.11581101  0.23162201  0.75966202  1
  O  O5  1  0.88418905  0.76837802  0.25966201  1
  O  O6  1  0.30402003  0.60804002  0.80588202  1
  O  O7  1  0.39085202  0.31265601  0.59898802  1
  O  O8  1  0.35034802  0.18523001  0.91026503  1
  O  O9  1  0.92180404  0.31265601  0.59898802  1
  O  O10  1  0.16511804  0.81477002  0.41026501  1
  Ba  Ba11  1  0.93575506  0.87151003  0.72148402  1
  O  O12  1  0.06424501  0.12849000  0.22148401  1
  O  O13  1  0.83488203  0.18523001  0.91026503  1
  O  O14  1  0.07819603  0.68734402  0.09898800  1
  O  O15  1  0.64965205  0.81477002  0.41026501  1
  O  O16  1  0.60914804  0.68734402  0.09898800  1
  O  O17  1  0.69598003  0.39196001  0.30588201  1
