# generated using pymatgen
data_S
_symmetry_space_group_name_H-M   'P 1'
_cell_length_a   3.59190989
_cell_length_b   6.05333185
_cell_length_c   11.05594158
_cell_angle_alpha   90.00000000
_cell_angle_beta   90.00000000
_cell_angle_gamma   107.25882721
_symmetry_Int_Tables_number   1
_chemical_formula_structural   S
_chemical_formula_sum   S14
_cell_volume   229.56586457
_cell_formula_units_Z   14
loop_
 _symmetry_equiv_pos_site_id
 _symmetry_equiv_pos_as_xyz
  1  'x, y, z'
loop_
 _atom_site_type_symbol
 _atom_site_label
 _atom_site_symmetry_multiplicity
 _atom_site_fract_x
 _atom_site_fract_y
 _atom_site_fract_z
 _atom_site_occupancy
  S  S0  1  0.10805201  0.21610400  0.75000003  1
  S  S1  1  0.89194807  0.78389600  0.25000001  1
  S  S2  1  0.36375105  0.72750200  0.56796802  1
  S  S3  1  0.36375105  0.72750200  0.93203204  1
  S  S4  1  0.63624903  0.27249800  0.43203202  1
  S  S5  1  0.63624903  0.27249800  0.06796800  1
  S  S6  1  0.00000000  0.00000000  0.00000000  1
  S  S7  1  0.00000000  0.00000000  0.50000002  1
  S  S8  1  0.43952806  0.87905600  0.75000003  1
  S  S9  1  0.27046404  0.54092800  0.39316501  1
  S  S10  1  0.27046404  0.54092800  0.10683500  1
  S  S11  1  0.56047202  0.12094400  0.25000001  1
  S  S12  1  0.72953605  0.45907200  0.60683502  1
  S  S13  1  0.72953605  0.45907200  0.89316503  1
