# generated using pymatgen
data_Zn
_symmetry_space_group_name_H-M   'P 1'
_cell_length_a   4.45354986
_cell_length_b   4.45354986
_cell_length_c   7.14923143
_cell_angle_alpha   108.14787292
_cell_angle_beta   108.14787292
_cell_angle_gamma   90.00000000
_symmetry_Int_Tables_number   1
_chemical_formula_structural   Zn
_chemical_formula_sum   Zn5
_cell_volume   127.30106447
_cell_formula_units_Z   5
loop_
 _symmetry_equiv_pos_site_id
 _symmetry_equiv_pos_as_xyz
  1  'x, y, z'
loop_
 _atom_site_type_symbol
 _atom_site_label
 _atom_site_symmetry_multiplicity
 _atom_site_fract_x
 _atom_site_fract_y
 _atom_site_fract_z
 _atom_site_occupancy
  Zn  Zn0  1  0.34621700  0.34621701  0.69243401  1
  Zn  Zn1  1  0.65378301  0.65378302  0.30756599  1
  Zn  Zn2  1  0.00000000  0.00000000  0.00000000  1
  Zn  Zn3  1  0.11243300  0.11243300  0.22486600  1
  Zn  Zn4  1  0.88756701  0.88756702  0.77513400  1
