# generated using pymatgen
data_Tm5O
_symmetry_space_group_name_H-M   'P 1'
_cell_length_a   2.81820607
_cell_length_b   2.81820607
_cell_length_c   8.39020538
_cell_angle_alpha   90.00000000
_cell_angle_beta   90.00000000
_cell_angle_gamma   120.00000000
_symmetry_Int_Tables_number   1
_chemical_formula_structural   Tm5O
_chemical_formula_sum   'Tm5 O1'
_cell_volume   57.70968666
_cell_formula_units_Z   1
loop_
 _symmetry_equiv_pos_site_id
 _symmetry_equiv_pos_as_xyz
  1  'x, y, z'
loop_
 _atom_site_type_symbol
 _atom_site_label
 _atom_site_symmetry_multiplicity
 _atom_site_fract_x
 _atom_site_fract_y
 _atom_site_fract_z
 _atom_site_occupancy
  Tm  Tm0  1  0.00000000  0.00000000  0.49999998  1
  Tm  Tm1  1  0.00000000  0.00000000  0.00000000  1
  O  O2  1  0.66666665  0.33333333  0.24999999  1
  Tm  Tm3  1  0.33333333  0.66666665  0.74999997  1
  Tm  Tm4  1  0.66666665  0.33333333  0.74999997  1
  Tm  Tm5  1  0.33333333  0.66666665  0.24999999  1
