# generated using pymatgen
data_Zn
_symmetry_space_group_name_H-M   'P 1'
_cell_length_a   3.46870589
_cell_length_b   3.46870589
_cell_length_c   7.19059849
_cell_angle_alpha   103.95721436
_cell_angle_beta   103.95721436
_cell_angle_gamma   90.00000000
_symmetry_Int_Tables_number   1
_chemical_formula_structural   Zn
_chemical_formula_sum   Zn5
_cell_volume   81.32790531
_cell_formula_units_Z   5
loop_
 _symmetry_equiv_pos_site_id
 _symmetry_equiv_pos_as_xyz
  1  'x, y, z'
loop_
 _atom_site_type_symbol
 _atom_site_label
 _atom_site_symmetry_multiplicity
 _atom_site_fract_x
 _atom_site_fract_y
 _atom_site_fract_z
 _atom_site_occupancy
  Zn  Zn0  1  0.67647099  0.67647101  0.35294196  1
  Zn  Zn1  1  0.32352900  0.32352901  0.64705797  1
  Zn  Zn2  1  0.00000000  0.00000000  0.00000000  1
  Zn  Zn3  1  0.85106699  0.85106701  0.70213394  1
  Zn  Zn4  1  0.14893300  0.14893300  0.29786599  1
