# generated using pymatgen
data_MgH11
_symmetry_space_group_name_H-M   'P 1'
_cell_length_a   3.86119199
_cell_length_b   6.36503315
_cell_length_c   7.30165291
_cell_angle_alpha   90.00000000
_cell_angle_beta   90.00000000
_cell_angle_gamma   90.00000000
_symmetry_Int_Tables_number   1
_chemical_formula_structural   MgH11
_chemical_formula_sum   'Mg1 H11'
_cell_volume   179.44991240
_cell_formula_units_Z   1
loop_
 _symmetry_equiv_pos_site_id
 _symmetry_equiv_pos_as_xyz
  1  'x, y, z'
loop_
 _atom_site_type_symbol
 _atom_site_label
 _atom_site_symmetry_multiplicity
 _atom_site_fract_x
 _atom_site_fract_y
 _atom_site_fract_z
 _atom_site_occupancy
  H  H0  1  0.25000000  0.76080398  0.38925500  1
  H  H1  1  0.75000000  0.23919599  0.61074501  1
  H  H2  1  0.25000000  0.26080399  0.11074500  1
  H  H3  1  0.75000000  0.73919598  0.88925501  1
  Mg  Mg4  1  0.25000000  0.52635099  0.67822101  1
  H  H5  1  0.75000000  0.47364899  0.32177900  1
  H  H6  1  0.25000000  0.02635100  0.82177901  1
  H  H7  1  0.75000000  0.97364898  0.17822100  1
  H  H8  1  0.75000000  0.35514799  0.92757801  1
  H  H9  1  0.25000000  0.64485198  0.07242200  1
  H  H10  1  0.75000000  0.85514798  0.57242201  1
  H  H11  1  0.25000000  0.14485200  0.42757801  1
