# generated using pymatgen
data_BaZnS8
_symmetry_space_group_name_H-M   'P 1'
_cell_length_a   4.30043602
_cell_length_b   4.30043602
_cell_length_c   10.10030174
_cell_angle_alpha   102.29156494
_cell_angle_beta   102.29156494
_cell_angle_gamma   90.00000000
_symmetry_Int_Tables_number   1
_chemical_formula_structural   BaZnS8
_chemical_formula_sum   'Ba1 Zn1 S8'
_cell_volume   178.12584125
_cell_formula_units_Z   1
loop_
 _symmetry_equiv_pos_site_id
 _symmetry_equiv_pos_as_xyz
  1  'x, y, z'
loop_
 _atom_site_type_symbol
 _atom_site_label
 _atom_site_symmetry_multiplicity
 _atom_site_fract_x
 _atom_site_fract_y
 _atom_site_fract_z
 _atom_site_occupancy
  Ba  Ba0  1  0.37280801  0.37280800  0.74561601  1
  S  S1  1  0.62719201  0.62719200  0.25438402  1
  S  S2  1  0.07038700  0.07038700  0.14077400  1
  Zn  Zn3  1  0.92961302  0.92961300  0.85922603  1
  S  S4  1  0.75000001  0.25000000  0.50000002  1
  S  S5  1  0.25000001  0.75000000  0.50000002  1
  S  S6  1  0.19282600  0.19282600  0.38565201  1
  S  S7  1  0.80717402  0.80717400  0.61434803  1
  S  S8  1  0.50000000  0.00000000  0.00000001  1
  S  S9  1  0.00000001  0.50000000  0.00000001  1
