# generated using pymatgen
data_Cs4Se
_symmetry_space_group_name_H-M   'P 1'
_cell_length_a   9.00027847
_cell_length_b   9.00027847
_cell_length_c   9.00027847
_cell_angle_alpha   60.00000000
_cell_angle_beta   60.00000000
_cell_angle_gamma   60.00000000
_symmetry_Int_Tables_number   1
_chemical_formula_structural   Cs4Se
_chemical_formula_sum   'Cs8 Se2'
_cell_volume   515.52869411
_cell_formula_units_Z   2
loop_
 _symmetry_equiv_pos_site_id
 _symmetry_equiv_pos_as_xyz
  1  'x, y, z'
loop_
 _atom_site_type_symbol
 _atom_site_label
 _atom_site_symmetry_multiplicity
 _atom_site_fract_x
 _atom_site_fract_y
 _atom_site_fract_z
 _atom_site_occupancy
  Cs  Cs0  1  0.25000000  0.25000000  0.25000000  1
  Cs  Cs1  1  0.75000001  0.75000001  0.75000001  1
  Se  Se2  1  0.50000000  0.50000000  0.50000000  1
  Se  Se3  1  0.00000000  0.00000000  0.00000000  1
  Cs  Cs4  1  0.22719700  0.77280301  0.22719700  1
  Cs  Cs5  1  0.22719700  0.22719700  0.77280301  1
  Cs  Cs6  1  0.77280301  0.22719700  0.77280301  1
  Cs  Cs7  1  0.22719700  0.77280301  0.77280301  1
  Cs  Cs8  1  0.77280301  0.22719700  0.22719700  1
  Cs  Cs9  1  0.77280301  0.77280301  0.22719700  1
