# generated using pymatgen
data_O2
_symmetry_space_group_name_H-M   'P 1'
_cell_length_a   4.78896284
_cell_length_b   4.78896284
_cell_length_c   6.02034807
_cell_angle_alpha   90.00000000
_cell_angle_beta   90.00000000
_cell_angle_gamma   89.99897003
_symmetry_Int_Tables_number   1
_chemical_formula_structural   O2
_chemical_formula_sum   O12
_cell_volume   138.07165658
_cell_formula_units_Z   6
loop_
 _symmetry_equiv_pos_site_id
 _symmetry_equiv_pos_as_xyz
  1  'x, y, z'
loop_
 _atom_site_type_symbol
 _atom_site_label
 _atom_site_symmetry_multiplicity
 _atom_site_fract_x
 _atom_site_fract_y
 _atom_site_fract_z
 _atom_site_occupancy
  O  O0  1  0.45855701  0.54144302  0.74999999  1
  O  O1  1  0.54144301  0.45855702  0.25000000  1
  O  O2  1  0.95854401  0.95854403  0.00000000  1
  O  O3  1  0.04145600  0.04145600  0.49999999  1
  O  O4  1  0.17984999  0.82015003  0.74999999  1
  O  O5  1  0.32015200  0.32015201  0.49999999  1
  O  O6  1  0.82015002  0.17985001  0.25000000  1
  O  O7  1  0.67984801  0.67984802  0.00000000  1
  O  O8  1  0.79575702  0.20424301  0.74999999  1
  O  O9  1  0.70423601  0.70423602  0.49999999  1
  O  O10  1  0.20424299  0.79575703  0.25000000  1
  O  O11  1  0.29576400  0.29576401  0.00000000  1
