# generated using pymatgen
data_Si
_symmetry_space_group_name_H-M   'P 1'
_cell_length_a   4.30916595
_cell_length_b   5.89726591
_cell_length_c   7.92033863
_cell_angle_alpha   90.00000000
_cell_angle_beta   105.78520203
_cell_angle_gamma   90.00000000
_symmetry_Int_Tables_number   1
_chemical_formula_structural   Si
_chemical_formula_sum   Si12
_cell_volume   193.68361355
_cell_formula_units_Z   12
loop_
 _symmetry_equiv_pos_site_id
 _symmetry_equiv_pos_as_xyz
  1  'x, y, z'
loop_
 _atom_site_type_symbol
 _atom_site_label
 _atom_site_symmetry_multiplicity
 _atom_site_fract_x
 _atom_site_fract_y
 _atom_site_fract_z
 _atom_site_occupancy
  Si  Si0  1  0.15317300  0.03650100  0.30634600  1
  Si  Si1  1  0.84682702  0.53650101  0.69365400  1
  Si  Si2  1  0.58584801  0.49454001  0.17169601  1
  Si  Si3  1  0.41415201  0.99454001  0.82830399  1
  Si  Si4  1  0.08266500  0.48083101  0.16533000  1
  Si  Si5  1  0.91733502  0.98083101  0.83467000  1
  Si  Si6  1  0.53251201  0.14781200  0.06502401  1
  Si  Si7  1  0.46748801  0.64781201  0.93497599  1
  Si  Si8  1  0.30234301  0.79853301  0.60468599  1
  Si  Si9  1  0.69765702  0.29853300  0.39531401  1
  Si  Si10  1  0.32990201  0.26938300  0.65980399  1
  Si  Si11  1  0.67009801  0.76938301  0.34019601  1
