# generated using pymatgen
data_S
_symmetry_space_group_name_H-M   'P 1'
_cell_length_a   4.31951380
_cell_length_b   4.31951427
_cell_length_c   17.75254059
_cell_angle_alpha   90.00000000
_cell_angle_beta   90.00000000
_cell_angle_gamma   120.00000000
_symmetry_Int_Tables_number   1
_chemical_formula_structural   S
_chemical_formula_sum   S10
_cell_volume   286.85400983
_cell_formula_units_Z   10
loop_
 _symmetry_equiv_pos_site_id
 _symmetry_equiv_pos_as_xyz
  1  'x, y, z'
loop_
 _atom_site_type_symbol
 _atom_site_label
 _atom_site_symmetry_multiplicity
 _atom_site_fract_x
 _atom_site_fract_y
 _atom_site_fract_z
 _atom_site_occupancy
  S  S0  1  0.00000000  0.00000000  0.49999998  1
  S  S1  1  0.00000000  0.00000000  0.00000000  1
  S  S2  1  0.66666670  0.33333332  0.17041899  1
  S  S3  1  0.33333336  0.66666665  0.67041898  1
  S  S4  1  0.33333336  0.66666665  0.82958097  1
  S  S5  1  0.66666670  0.33333332  0.32958099  1
  S  S6  1  0.33333336  0.66666665  0.39600299  1
  S  S7  1  0.33333336  0.66666665  0.10399700  1
  S  S8  1  0.66666670  0.33333332  0.89600297  1
  S  S9  1  0.66666670  0.33333332  0.60399698  1
