# generated using pymatgen
data_O10F
_symmetry_space_group_name_H-M   'P 1'
_cell_length_a   3.77207851
_cell_length_b   5.91312647
_cell_length_c   5.91312647
_cell_angle_alpha   92.46414948
_cell_angle_beta   91.89989471
_cell_angle_gamma   91.89989471
_symmetry_Int_Tables_number   1
_chemical_formula_structural   O10F
_chemical_formula_sum   'O10 F1'
_cell_volume   131.61758511
_cell_formula_units_Z   1
loop_
 _symmetry_equiv_pos_site_id
 _symmetry_equiv_pos_as_xyz
  1  'x, y, z'
loop_
 _atom_site_type_symbol
 _atom_site_label
 _atom_site_symmetry_multiplicity
 _atom_site_fract_x
 _atom_site_fract_y
 _atom_site_fract_z
 _atom_site_occupancy
  O  O0  1  1.00000002  0.99554900  0.00445101  1
  O  O1  1  0.21319900  0.19053900  0.38318000  1
  O  O2  1  0.78680101  0.61682000  0.80946101  1
  O  O3  1  0.79924100  0.25310500  0.34421701  1
  O  O4  1  0.89212201  0.78838900  0.60562201  1
  O  O5  1  0.20075902  0.65578300  0.74689500  1
  O  O6  1  0.10787801  0.39437800  0.21161100  1
  O  O7  1  0.96826001  0.73793400  0.76317401  1
  O  O8  1  0.03174001  0.23682600  0.26206600  1
  O  O9  1  0.50000000  0.18975900  0.81024101  1
  F  F10  1  0.50000002  0.80291800  0.19708201  1
