# generated using pymatgen
data_Ca
_symmetry_space_group_name_H-M   'P 1'
_cell_length_a   5.43525791
_cell_length_b   6.61643600
_cell_length_c   8.47281361
_cell_angle_alpha   90.00000000
_cell_angle_beta   90.00000000
_cell_angle_gamma   114.25127411
_symmetry_Int_Tables_number   1
_chemical_formula_structural   Ca
_chemical_formula_sum   Ca6
_cell_volume   277.81077354
_cell_formula_units_Z   6
loop_
 _symmetry_equiv_pos_site_id
 _symmetry_equiv_pos_as_xyz
  1  'x, y, z'
loop_
 _atom_site_type_symbol
 _atom_site_label
 _atom_site_symmetry_multiplicity
 _atom_site_fract_x
 _atom_site_fract_y
 _atom_site_fract_z
 _atom_site_occupancy
  Ca  Ca0  1  0.50000001  0.00000000  0.50000002  1
  Ca  Ca1  1  0.50000001  0.00000000  0.00000000  1
  Ca  Ca2  1  0.19313802  0.38627601  0.75000003  1
  Ca  Ca3  1  0.80686204  0.61372402  0.25000001  1
  Ca  Ca4  1  0.87818805  0.75637603  0.75000003  1
  Ca  Ca5  1  0.12181201  0.24362401  0.25000001  1
