# generated using pymatgen
data_Sm2As3
_symmetry_space_group_name_H-M   'P 1'
_cell_length_a   4.43724394
_cell_length_b   4.43724394
_cell_length_c   6.13697243
_cell_angle_alpha   111.19341278
_cell_angle_beta   111.19341278
_cell_angle_gamma   90.00000000
_symmetry_Int_Tables_number   1
_chemical_formula_structural   Sm2As3
_chemical_formula_sum   'Sm2 As3'
_cell_volume   103.84569126
_cell_formula_units_Z   1
loop_
 _symmetry_equiv_pos_site_id
 _symmetry_equiv_pos_as_xyz
  1  'x, y, z'
loop_
 _atom_site_type_symbol
 _atom_site_label
 _atom_site_symmetry_multiplicity
 _atom_site_fract_x
 _atom_site_fract_y
 _atom_site_fract_z
 _atom_site_occupancy
  Sm  Sm0  1  0.00000000  0.00000000  0.00000000  1
  As  As1  1  0.61486502  0.61486501  0.22973001  1
  As  As2  1  0.38513502  0.38513501  0.77026999  1
  As  As3  1  0.75000002  0.25000001  0.50000000  1
  Sm  Sm4  1  0.25000002  0.75000002  0.50000000  1
