# generated using pymatgen
data_Ba2S5
_symmetry_space_group_name_H-M   'P 1'
_cell_length_a   7.14305639
_cell_length_b   7.14305639
_cell_length_c   7.14305639
_cell_angle_alpha   104.68379211
_cell_angle_beta   104.68379211
_cell_angle_gamma   119.54001617
_symmetry_Int_Tables_number   1
_chemical_formula_structural   Ba2S5
_chemical_formula_sum   'Ba2 S5'
_cell_volume   273.96604636
_cell_formula_units_Z   1
loop_
 _symmetry_equiv_pos_site_id
 _symmetry_equiv_pos_as_xyz
  1  'x, y, z'
loop_
 _atom_site_type_symbol
 _atom_site_label
 _atom_site_symmetry_multiplicity
 _atom_site_fract_x
 _atom_site_fract_y
 _atom_site_fract_z
 _atom_site_occupancy
  Ba  Ba0  1  0.00000000  0.00000000  0.00000000  1
  S  S1  1  0.49999998  0.99999996  0.49999990  1
  S  S2  1  -0.00000000  0.49999998  0.49999996  1
  S  S3  1  0.07099599  0.57099598  0.14199196  1
  Ba  Ba4  1  0.92900396  0.07099700  0.49999993  1
  S  S5  1  0.57099598  0.42900298  0.49999993  1
  S  S6  1  0.42900398  0.92900396  0.85800790  1
