# generated using pymatgen
data_Sm3AsP
_symmetry_space_group_name_H-M   'P 1'
_cell_length_a   4.36123085
_cell_length_b   4.36123085
_cell_length_c   6.57168913
_cell_angle_alpha   109.37926483
_cell_angle_beta   109.37924957
_cell_angle_gamma   90.00000000
_symmetry_Int_Tables_number   1
_chemical_formula_structural   Sm3AsP
_chemical_formula_sum   'Sm3 As1 P1'
_cell_volume   110.37847749
_cell_formula_units_Z   1
loop_
 _symmetry_equiv_pos_site_id
 _symmetry_equiv_pos_as_xyz
  1  'x, y, z'
loop_
 _atom_site_type_symbol
 _atom_site_label
 _atom_site_symmetry_multiplicity
 _atom_site_fract_x
 _atom_site_fract_y
 _atom_site_fract_z
 _atom_site_occupancy
  Sm  Sm0  1  0.99554303  0.99554406  0.99108705  1
  Sm  Sm1  1  0.75080702  0.25080701  0.50161401  1
  Sm  Sm2  1  0.25080701  0.75080704  0.50161404  1
  P  P3  1  0.38742101  0.38742202  0.77484303  1
  As  As4  1  0.61542102  0.61542104  0.23084202  1
