# generated using pymatgen
data_Si
_symmetry_space_group_name_H-M   'P 1'
_cell_length_a   3.46907401
_cell_length_b   5.64505577
_cell_length_c   6.16173887
_cell_angle_alpha   90.00000000
_cell_angle_beta   90.00000000
_cell_angle_gamma   90.00000000
_symmetry_Int_Tables_number   1
_chemical_formula_structural   Si
_chemical_formula_sum   Si8
_cell_volume   120.66604873
_cell_formula_units_Z   8
loop_
 _symmetry_equiv_pos_site_id
 _symmetry_equiv_pos_as_xyz
  1  'x, y, z'
loop_
 _atom_site_type_symbol
 _atom_site_label
 _atom_site_symmetry_multiplicity
 _atom_site_fract_x
 _atom_site_fract_y
 _atom_site_fract_z
 _atom_site_occupancy
  Si  Si0  1  0.25000000  0.67681003  0.07272500  1
  Si  Si1  1  0.75000000  0.32319001  0.92727502  1
  Si  Si2  1  0.25000000  0.17681001  0.42727501  1
  Si  Si3  1  0.75000000  0.82319003  0.57272501  1
  Si  Si4  1  0.25000000  0.50399002  0.69087701  1
  Si  Si5  1  0.75000000  0.49601002  0.30912301  1
  Si  Si6  1  0.25000000  0.00399000  0.80912302  1
  Si  Si7  1  0.75000000  0.99601004  0.19087700  1
