# generated using pymatgen
data_Sm2Si2As
_symmetry_space_group_name_H-M   'P 1'
_cell_length_a   4.23879719
_cell_length_b   4.23879719
_cell_length_c   6.36492968
_cell_angle_alpha   109.44979095
_cell_angle_beta   109.44978333
_cell_angle_gamma   90.00000000
_symmetry_Int_Tables_number   1
_chemical_formula_structural   Sm2Si2As
_chemical_formula_sum   'Sm2 Si2 As1'
_cell_volume   100.88761133
_cell_formula_units_Z   1
loop_
 _symmetry_equiv_pos_site_id
 _symmetry_equiv_pos_as_xyz
  1  'x, y, z'
loop_
 _atom_site_type_symbol
 _atom_site_label
 _atom_site_symmetry_multiplicity
 _atom_site_fract_x
 _atom_site_fract_y
 _atom_site_fract_z
 _atom_site_occupancy
  Sm  Sm0  1  0.99106991  0.99107093  0.98214092  1
  Sm  Sm1  1  0.75072195  0.25072198  0.50144397  1
  Si  Si2  1  0.25072196  0.75072195  0.50144395  1
  Si  Si3  1  0.39276696  0.39276697  0.78553396  1
  As  As4  1  0.61471794  0.61471796  0.22943595  1
