# generated using pymatgen
data_Si
_symmetry_space_group_name_H-M   'P 1'
_cell_length_a   4.92586613
_cell_length_b   4.92586613
_cell_length_c   4.92586613
_cell_angle_alpha   90.00000000
_cell_angle_beta   90.00000000
_cell_angle_gamma   90.00000000
_symmetry_Int_Tables_number   1
_chemical_formula_structural   Si
_chemical_formula_sum   Si8
_cell_volume   119.52198957
_cell_formula_units_Z   8
loop_
 _symmetry_equiv_pos_site_id
 _symmetry_equiv_pos_as_xyz
  1  'x, y, z'
loop_
 _atom_site_type_symbol
 _atom_site_label
 _atom_site_symmetry_multiplicity
 _atom_site_fract_x
 _atom_site_fract_y
 _atom_site_fract_z
 _atom_site_occupancy
  Si  Si0  1  0.16298400  0.33701599  0.66298398  1
  Si  Si1  1  0.33701599  0.66298398  0.16298400  1
  Si  Si2  1  0.66298398  0.16298400  0.33701599  1
  Si  Si3  1  0.83701598  0.83701598  0.83701598  1
  Si  Si4  1  0.87340798  0.62659198  0.37340799  1
  Si  Si5  1  0.62659198  0.37340799  0.87340798  1
  Si  Si6  1  0.37340799  0.87340798  0.62659198  1
  Si  Si7  1  0.12659200  0.12659200  0.12659200  1
