# generated using pymatgen
data_BaLaF6
_symmetry_space_group_name_H-M   'P 1'
_cell_length_a   4.07003498
_cell_length_b   4.16454220
_cell_length_c   8.42938042
_cell_angle_alpha   104.30155945
_cell_angle_beta   90.00000000
_cell_angle_gamma   90.00000000
_symmetry_Int_Tables_number   1
_chemical_formula_structural   BaLaF6
_chemical_formula_sum   'Ba1 La1 F6'
_cell_volume   138.44869845
_cell_formula_units_Z   1
loop_
 _symmetry_equiv_pos_site_id
 _symmetry_equiv_pos_as_xyz
  1  'x, y, z'
loop_
 _atom_site_type_symbol
 _atom_site_label
 _atom_site_symmetry_multiplicity
 _atom_site_fract_x
 _atom_site_fract_y
 _atom_site_fract_z
 _atom_site_occupancy
  La  La0  1  0.75000000  0.89316796  0.78633604  1
  Ba  Ba1  1  0.25000000  0.10683200  0.21366401  1
  F  F2  1  0.25000000  0.31803899  0.63607803  1
  F  F3  1  0.75000000  0.68196097  0.36392202  1
  F  F4  1  0.75000000  0.24970199  0.49940403  1
  F  F5  1  0.25000000  0.75029797  0.50059603  1
  F  F6  1  0.25000000  0.45640898  0.91281805  1
  F  F7  1  0.75000000  0.54359098  0.08718201  1
