# generated using pymatgen
data_NaAgSe2
_symmetry_space_group_name_H-M   'P 1'
_cell_length_a   5.71850014
_cell_length_b   5.71850014
_cell_length_c   7.05847883
_cell_angle_alpha   113.89615631
_cell_angle_beta   113.89615631
_cell_angle_gamma   90.00000000
_symmetry_Int_Tables_number   1
_chemical_formula_structural   NaAgSe2
_chemical_formula_sum   'Na2 Ag2 Se4'
_cell_volume   189.19159791
_cell_formula_units_Z   2
loop_
 _symmetry_equiv_pos_site_id
 _symmetry_equiv_pos_as_xyz
  1  'x, y, z'
loop_
 _atom_site_type_symbol
 _atom_site_label
 _atom_site_symmetry_multiplicity
 _atom_site_fract_x
 _atom_site_fract_y
 _atom_site_fract_z
 _atom_site_occupancy
  Na  Na0  1  0.50000003  0.50000001  0.00000006  1
  Na  Na1  1  0.25000005  0.75000001  0.50000006  1
  Ag  Ag2  1  0.00000000  0.00000000  0.00000000  1
  Ag  Ag3  1  0.75000002  0.25000000  0.50000005  1
  Se  Se4  1  0.75192705  0.75192701  0.50385409  1
  Se  Se5  1  0.50192700  0.00192700  0.00385402  1
  Se  Se6  1  0.24807302  0.24807300  0.49614602  1
  Se  Se7  1  0.99807303  0.49807301  0.99614607  1
