# generated using pymatgen
data_Li6Rh5NO4
_symmetry_space_group_name_H-M   'P 1'
_cell_length_a   5.91868877
_cell_length_b   5.91869879
_cell_length_c   5.91869402
_cell_angle_alpha   60.13346481
_cell_angle_beta   60.13372040
_cell_angle_gamma   90.23161316
_symmetry_Int_Tables_number   1
_chemical_formula_structural   Li6Rh5NO4
_chemical_formula_sum   'Li6 Rh5 N1 O4'
_cell_volume   146.90433098
_cell_formula_units_Z   1
loop_
 _symmetry_equiv_pos_site_id
 _symmetry_equiv_pos_as_xyz
  1  'x, y, z'
loop_
 _atom_site_type_symbol
 _atom_site_label
 _atom_site_symmetry_multiplicity
 _atom_site_fract_x
 _atom_site_fract_y
 _atom_site_fract_z
 _atom_site_occupancy
  Li  Li0  1  0.99991397  0.00000600  0.50004097  1
  Li  Li1  1  0.49996198  0.00001700  0.00008099  1
  Li  Li2  1  0.49997898  0.00000600  0.49997198  1
  Li  Li3  1  0.49994402  0.49993103  0.00008295  1
  Li  Li4  1  0.00004703  0.49999103  0.99997493  1
  Li  Li5  1  0.49998702  0.49962003  0.50032594  1
  Rh  Rh6  1  0.00005107  0.99989507  0.99962988  1
  Rh  Rh7  1  0.00018603  0.50049503  0.49981794  1
  Rh  Rh8  1  0.75669700  0.27230102  0.48444395  1
  Rh  Rh9  1  0.75886703  0.74332205  0.48439091  1
  O  O10  1  0.75658503  0.74100805  0.01568193  1
  N  N11  1  0.77235899  0.25674802  0.98433394  1
  O  O12  1  0.22782404  0.74338505  0.01551693  1
  O  O13  1  0.24321301  0.25882602  0.98448494  1
  Rh  Rh14  1  0.24105801  0.25669802  0.51558096  1
  O  O15  1  0.24332404  0.72774805  0.51564192  1
