# generated using pymatgen
data_BaWO6
_symmetry_space_group_name_H-M   'P 1'
_cell_length_a   5.46504688
_cell_length_b   5.46504688
_cell_length_c   5.48403835
_cell_angle_alpha   90.78805542
_cell_angle_beta   119.28112030
_cell_angle_gamma   119.69638062
_symmetry_Int_Tables_number   1
_chemical_formula_structural   BaWO6
_chemical_formula_sum   'Ba1 W1 O6'
_cell_volume   116.79834421
_cell_formula_units_Z   1
loop_
 _symmetry_equiv_pos_site_id
 _symmetry_equiv_pos_as_xyz
  1  'x, y, z'
loop_
 _atom_site_type_symbol
 _atom_site_label
 _atom_site_symmetry_multiplicity
 _atom_site_fract_x
 _atom_site_fract_y
 _atom_site_fract_z
 _atom_site_occupancy
  Ba  Ba0  1  0.98597404  0.51048401  0.49645802  1
  W  W1  1  0.98478805  0.01056400  0.99535202  1
  O  O2  1  0.45226802  0.25501201  0.19810201  1
  O  O3  1  0.44988801  0.74719002  0.69943800  1
  O  O4  1  0.94135905  0.25103501  0.19239403  1
  O  O5  1  0.94309004  0.74583402  0.19810202  1
  O  O6  1  0.95224805  0.24955001  0.69943802  1
  O  O7  1  0.94661504  0.74924302  0.69585802  1
