# generated using pymatgen
data_CsTl3(SnS3)2
_symmetry_space_group_name_H-M   'P 1'
_cell_length_a   4.09135008
_cell_length_b   7.35165596
_cell_length_c   10.58797359
_cell_angle_alpha   90.00000000
_cell_angle_beta   90.00000000
_cell_angle_gamma   106.15641022
_symmetry_Int_Tables_number   1
_chemical_formula_structural   CsTl3(SnS3)2
_chemical_formula_sum   'Cs1 Tl3 Sn2 S6'
_cell_volume   305.88951761
_cell_formula_units_Z   1
loop_
 _symmetry_equiv_pos_site_id
 _symmetry_equiv_pos_as_xyz
  1  'x, y, z'
loop_
 _atom_site_type_symbol
 _atom_site_label
 _atom_site_symmetry_multiplicity
 _atom_site_fract_x
 _atom_site_fract_y
 _atom_site_fract_z
 _atom_site_occupancy
  Tl  Tl0  1  0.74430199  0.48860399  0.75000003  1
  Cs  Cs1  1  0.25569800  0.51139599  0.25000001  1
  Tl  Tl2  1  0.00000000  0.00000000  0.00000000  1
  Tl  Tl3  1  0.00000000  0.00000000  0.50000002  1
  Sn  Sn4  1  0.46961100  0.93922198  0.75000003  1
  Sn  Sn5  1  0.53038899  0.06077800  0.25000001  1
  S  S6  1  0.62377999  0.24755999  0.06925400  1
  S  S7  1  0.37622000  0.75243998  0.93074604  1
  S  S8  1  0.93565899  0.87131798  0.25000001  1
  S  S9  1  0.06434100  0.12868200  0.75000003  1
  S  S10  1  0.37622000  0.75243998  0.56925402  1
  S  S11  1  0.62377999  0.24755999  0.43074602  1
