# generated using pymatgen
data_La2BiN2Cl5
_symmetry_space_group_name_H-M   'P 1'
_cell_length_a   5.65433121
_cell_length_b   5.71564579
_cell_length_c   6.95597363
_cell_angle_alpha   65.74211121
_cell_angle_beta   90.00000000
_cell_angle_gamma   90.00000000
_symmetry_Int_Tables_number   1
_chemical_formula_structural   La2BiN2Cl5
_chemical_formula_sum   'La2 Bi1 N2 Cl5'
_cell_volume   204.95524893
_cell_formula_units_Z   1
loop_
 _symmetry_equiv_pos_site_id
 _symmetry_equiv_pos_as_xyz
  1  'x, y, z'
loop_
 _atom_site_type_symbol
 _atom_site_label
 _atom_site_symmetry_multiplicity
 _atom_site_fract_x
 _atom_site_fract_y
 _atom_site_fract_z
 _atom_site_occupancy
  La  La0  1  0.24999999  0.91242901  0.17514204  1
  La  La1  1  0.74999997  0.08757100  0.82485799  1
  Cl  Cl2  1  0.24999999  0.60677101  0.78645801  1
  Bi  Bi3  1  0.74999997  0.39322900  0.21354202  1
  Cl  Cl4  1  0.24999999  0.25393400  0.49213200  1
  Cl  Cl5  1  0.74999997  0.74606601  0.50786803  1
  N  N6  1  0.49999998  0.76227301  1.00000002  1
  N  N7  1  0.00000000  0.23772700  0.00000001  1
  Cl  Cl8  1  0.49999998  0.23772700  0.00000001  1
  Cl  Cl9  1  0.00000000  0.76227301  1.00000002  1
