# generated using pymatgen
data_CoHO3
_symmetry_space_group_name_H-M   'P 1'
_cell_length_a   6.74508142
_cell_length_b   6.77872705
_cell_length_c   6.78036833
_cell_angle_alpha   110.05932617
_cell_angle_beta   108.24881744
_cell_angle_gamma   109.80689240
_symmetry_Int_Tables_number   1
_chemical_formula_structural   CoHO3
_chemical_formula_sum   'Co4 H4 O12'
_cell_volume   239.47596107
_cell_formula_units_Z   4
loop_
 _symmetry_equiv_pos_site_id
 _symmetry_equiv_pos_as_xyz
  1  'x, y, z'
loop_
 _atom_site_type_symbol
 _atom_site_label
 _atom_site_symmetry_multiplicity
 _atom_site_fract_x
 _atom_site_fract_y
 _atom_site_fract_z
 _atom_site_occupancy
  Co  Co0  1  0.49905099  0.48802000  0.52018997  1
  Co  Co1  1  0.01891301  0.50563000  0.04207600  1
  Co  Co2  1  0.48220301  0.99890800  0.01351897  1
  Co  Co3  1  0.99563696  0.02159200  0.50610094  1
  H  H4  1  0.59943799  0.70037400  0.10707396  1
  H  H5  1  0.40648199  0.29206200  0.89392899  1
  H  H6  1  0.50373600  0.90010000  0.60192297  1
  H  H7  1  0.89378498  0.60066100  0.47985095  1
  O  O8  1  0.29664300  0.49818400  0.20219698  1
  O  O9  1  0.69465299  0.50438200  0.78979696  1
  O  O10  1  0.68830200  0.87630500  0.18208195  1
  O  O11  1  0.30458899  0.11579600  0.80649099  1
  O  O12  1  0.50385000  0.81108300  0.68855398  1
  O  O13  1  0.49922799  0.21211200  0.29013797  1
  O  O14  1  0.07898102  0.79090500  0.29153000  1
  O  O15  1  0.90537197  0.19589400  0.69650395  1
  O  O16  1  0.21086301  0.71552000  0.91180000  1
  O  O17  1  0.78947298  0.28103100  0.07777395  1
  O  O18  1  0.19642800  0.28654800  0.49017899  1
  O  O19  1  0.82001699  0.70166600  0.51096995  1
