# generated using pymatgen
data_Li2FeS6
_symmetry_space_group_name_H-M   'P 1'
_cell_length_a   6.07122183
_cell_length_b   6.07122231
_cell_length_c   7.10516024
_cell_angle_alpha   90.00000000
_cell_angle_beta   90.00000000
_cell_angle_gamma   120.00000000
_symmetry_Int_Tables_number   1
_chemical_formula_structural   Li2FeS6
_chemical_formula_sum   'Li4 Fe2 S12'
_cell_volume   226.80715189
_cell_formula_units_Z   2
loop_
 _symmetry_equiv_pos_site_id
 _symmetry_equiv_pos_as_xyz
  1  'x, y, z'
loop_
 _atom_site_type_symbol
 _atom_site_label
 _atom_site_symmetry_multiplicity
 _atom_site_fract_x
 _atom_site_fract_y
 _atom_site_fract_z
 _atom_site_occupancy
  Li  Li0  1  0.00000000  0.00000000  0.71228898  1
  Li  Li1  1  0.00000000  0.00000000  0.28771099  1
  Li  Li2  1  0.66666670  0.33333335  0.49999998  1
  Li  Li3  1  0.33333338  0.66666670  0.25337799  1
  Fe  Fe4  1  0.33333338  0.66666670  0.74662198  1
  Fe  Fe5  1  0.66666670  0.33333335  0.00000000  1
  S  S6  1  0.08789802  0.39389902  0.00000000  1
  S  S7  1  0.10806402  0.38411602  0.49999998  1
  S  S8  1  0.30600105  0.91210204  0.00000000  1
  S  S9  1  0.27605205  0.89193604  0.49999998  1
  S  S10  1  0.92665406  0.60221203  0.23557399  1
  S  S11  1  0.92665406  0.60221203  0.76442597  1
  S  S12  1  0.61588405  0.72394804  0.49999998  1
  S  S13  1  0.60610105  0.69399903  0.00000000  1
  S  S14  1  0.67555802  0.07334600  0.23557399  1
  S  S15  1  0.67555802  0.07334600  0.76442597  1
  S  S16  1  0.39778803  0.32444202  0.23557399  1
  S  S17  1  0.39778803  0.32444202  0.76442597  1
