# generated using pymatgen
data_LiMoO4
_symmetry_space_group_name_H-M   'P 1'
_cell_length_a   5.65314484
_cell_length_b   5.65312195
_cell_length_c   5.65315008
_cell_angle_alpha   66.06410980
_cell_angle_beta   72.71363068
_cell_angle_gamma   107.28588104
_symmetry_Int_Tables_number   1
_chemical_formula_structural   LiMoO4
_chemical_formula_sum   'Li2 Mo2 O8'
_cell_volume   138.43573927
_cell_formula_units_Z   2
loop_
 _symmetry_equiv_pos_site_id
 _symmetry_equiv_pos_as_xyz
  1  'x, y, z'
loop_
 _atom_site_type_symbol
 _atom_site_label
 _atom_site_symmetry_multiplicity
 _atom_site_fract_x
 _atom_site_fract_y
 _atom_site_fract_z
 _atom_site_occupancy
  Li  Li0  1  0.49999902  0.24034800  0.25965097  1
  Li  Li1  1  0.00000100  0.49036101  0.50963899  1
  Mo  Mo2  1  0.50000002  0.75116401  0.74883596  1
  Mo  Mo3  1  0.00000000  0.00115800  0.99884197  1
  O  O4  1  0.19955801  0.45995201  0.73960697  1
  O  O5  1  0.19809001  0.94194201  0.25614799  1
  O  O6  1  0.69956403  0.01039200  0.29004395  1
  O  O7  1  0.69808803  0.49384701  0.80806494  1
  O  O8  1  0.30043601  0.01039100  0.68917196  1
  O  O9  1  0.30191201  0.49384701  0.20424198  1
  O  O10  1  0.80044003  0.06083500  0.73960493  1
  O  O11  1  0.80191104  0.54576401  0.25614695  1
