# generated using pymatgen
data_LiNb3Cl5O11
_symmetry_space_group_name_H-M   'P 1'
_cell_length_a   6.70675802
_cell_length_b   6.70675802
_cell_length_c   6.70675850
_cell_angle_alpha   73.36737061
_cell_angle_beta   73.36737061
_cell_angle_gamma   73.36737823
_symmetry_Int_Tables_number   1
_chemical_formula_structural   LiNb3Cl5O11
_chemical_formula_sum   'Li1 Nb3 Cl5 O11'
_cell_volume   270.01301397
_cell_formula_units_Z   1
loop_
 _symmetry_equiv_pos_site_id
 _symmetry_equiv_pos_as_xyz
  1  'x, y, z'
loop_
 _atom_site_type_symbol
 _atom_site_label
 _atom_site_symmetry_multiplicity
 _atom_site_fract_x
 _atom_site_fract_y
 _atom_site_fract_z
 _atom_site_occupancy
  Li  Li0  1  0.72619104  0.72619097  0.72619092  1
  Nb  Nb1  1  0.27380902  0.27380899  0.27380897  1
  Nb  Nb2  1  0.88208299  0.05601000  0.29529996  1
  Nb  Nb3  1  0.05601002  0.29529999  0.88208296  1
  Cl  Cl4  1  0.29530006  0.88208297  0.05600994  1
  Cl  Cl5  1  0.11791707  0.94398996  0.70469993  1
  O  O6  1  0.94399004  0.70469997  0.11791693  1
  Cl  Cl7  1  0.70469999  0.11791700  0.94398995  1
  O  O8  1  0.42966606  0.82694897  0.74152892  1
  O  O9  1  0.82694904  0.74152897  0.42966592  1
  O  O10  1  0.74152902  0.42966598  0.82694893  1
  O  O11  1  0.57033400  0.17305099  0.25847097  1
  Cl  Cl12  1  0.17305102  0.25847099  0.57033397  1
  O  O13  1  0.25847104  0.57033398  0.17305096  1
  O  O14  1  0.96626801  0.35211499  0.20095794  1
  Cl  Cl15  1  0.35211501  0.20095799  0.96626795  1
  O  O16  1  0.79904199  0.03373200  0.64788496  1
  O  O17  1  0.64788505  0.79904197  0.03373194  1
  O  O18  1  0.03373205  0.64788498  0.79904195  1
  O  O19  1  0.20095807  0.96626796  0.35211494  1
