# generated using pymatgen
data_NaV5GeO7
_symmetry_space_group_name_H-M   'P 1'
_cell_length_a   5.26701403
_cell_length_b   5.26701403
_cell_length_c   8.97048950
_cell_angle_alpha   89.43931580
_cell_angle_beta   89.43931580
_cell_angle_gamma   60.27261353
_symmetry_Int_Tables_number   1
_chemical_formula_structural   NaV5GeO7
_chemical_formula_sum   'Na1 V5 Ge1 O7'
_cell_volume   216.08986594
_cell_formula_units_Z   1
loop_
 _symmetry_equiv_pos_site_id
 _symmetry_equiv_pos_as_xyz
  1  'x, y, z'
loop_
 _atom_site_type_symbol
 _atom_site_label
 _atom_site_symmetry_multiplicity
 _atom_site_fract_x
 _atom_site_fract_y
 _atom_site_fract_z
 _atom_site_occupancy
  V  V0  1  0.99874401  0.00042300  0.24975997  1
  Na  Na1  1  0.99957701  0.00125600  0.75023995  1
  V  V2  1  0.32573801  0.33893500  0.44565997  1
  V  V3  1  0.66106503  0.67426199  0.55433995  1
  V  V4  1  0.65867903  0.67623499  0.94573594  1
  V  V5  1  0.32376501  0.34132100  0.05426398  1
  Ge  Ge6  1  0.29661302  0.35927700  0.25042998  1
  O  O7  1  0.64072303  0.70338699  0.74956994  1
  O  O8  1  0.99836702  0.35945200  0.51270395  1
  O  O9  1  0.35534803  0.64465199  0.49999996  1
  O  O10  1  0.64054800  0.00163300  0.48729597  1
  O  O11  1  0.99779403  0.64679499  0.99100593  1
  O  O12  1  0.63699602  0.36300400  0.99999995  1
  O  O13  1  0.35320500  0.00220600  0.00899399  1
