# generated using pymatgen
data_Mn2P2O7
_symmetry_space_group_name_H-M   'P 1'
_cell_length_a   4.74216938
_cell_length_b   5.54437733
_cell_length_c   5.54437733
_cell_angle_alpha   75.12434387
_cell_angle_beta   82.79288483
_cell_angle_gamma   97.20711517
_symmetry_Int_Tables_number   1
_chemical_formula_structural   Mn2P2O7
_chemical_formula_sum   'Mn2 P2 O7'
_cell_volume   137.87356445
_cell_formula_units_Z   1
loop_
 _symmetry_equiv_pos_site_id
 _symmetry_equiv_pos_as_xyz
  1  'x, y, z'
loop_
 _atom_site_type_symbol
 _atom_site_label
 _atom_site_symmetry_multiplicity
 _atom_site_fract_x
 _atom_site_fract_y
 _atom_site_fract_z
 _atom_site_occupancy
  Mn  Mn0  1  0.00000004  0.99884797  0.99884792  1
  Mn  Mn1  1  0.00000002  0.38465499  0.38465497  1
  P  P2  1  0.41182304  0.92027598  0.47931894  1
  P  P3  1  0.58817702  0.47931899  0.92027593  1
  O  O4  1  0.21272100  0.10122000  0.59447397  1
  O  O5  1  0.78727902  0.59447398  0.10121996  1
  O  O6  1  0.50000003  0.72894098  0.72894093  1
  O  O7  1  0.28233001  0.31336799  0.08294698  1
  O  O8  1  0.71767000  0.08294700  0.31336797  1
  O  O9  1  0.22321503  0.75968898  0.32437195  1
  O  O10  1  0.77678501  0.32437199  0.75968894  1
