# generated using pymatgen
data_Li4P2S5O
_symmetry_space_group_name_H-M   'P 1'
_cell_length_a   4.68606186
_cell_length_b   7.20421410
_cell_length_c   7.20421410
_cell_angle_alpha   83.92818451
_cell_angle_beta   71.02045441
_cell_angle_gamma   71.02045441
_symmetry_Int_Tables_number   1
_chemical_formula_structural   Li4P2S5O
_chemical_formula_sum   'Li4 P2 S5 O1'
_cell_volume   217.48438358
_cell_formula_units_Z   1
loop_
 _symmetry_equiv_pos_site_id
 _symmetry_equiv_pos_as_xyz
  1  'x, y, z'
loop_
 _atom_site_type_symbol
 _atom_site_label
 _atom_site_symmetry_multiplicity
 _atom_site_fract_x
 _atom_site_fract_y
 _atom_site_fract_z
 _atom_site_occupancy
  Li  Li0  1  0.75306802  0.16026600  0.83973403  1
  Li  Li1  1  0.75306804  0.83973401  0.16026603  1
  Li  Li2  1  0.40719804  0.83973401  0.83973404  1
  Li  Li3  1  0.08666601  0.16026600  0.16026601  1
  P  P4  1  0.09389302  0.50000001  0.81221403  1
  P  P5  1  0.40610703  0.50000001  0.18778602  1
  S  S6  1  0.09389203  0.81221501  0.50000002  1
  O  O7  1  0.40610801  0.18778500  0.50000002  1
  S  S8  1  0.25414603  0.80876601  0.19123402  1
  S  S9  1  0.25414601  0.19123400  0.80876602  1
  S  S10  1  0.55462002  0.19123400  0.19123402  1
  S  S11  1  0.93708805  0.80876601  0.80876604  1
