# generated using pymatgen
data_AgSeO4
_symmetry_space_group_name_H-M   'P 1'
_cell_length_a   6.00857067
_cell_length_b   6.00857067
_cell_length_c   6.00857067
_cell_angle_alpha   106.23686981
_cell_angle_beta   106.23686981
_cell_angle_gamma   116.15378571
_symmetry_Int_Tables_number   1
_chemical_formula_structural   AgSeO4
_chemical_formula_sum   'Ag2 Se2 O8'
_cell_volume   165.26746839
_cell_formula_units_Z   2
loop_
 _symmetry_equiv_pos_site_id
 _symmetry_equiv_pos_as_xyz
  1  'x, y, z'
loop_
 _atom_site_type_symbol
 _atom_site_label
 _atom_site_symmetry_multiplicity
 _atom_site_fract_x
 _atom_site_fract_y
 _atom_site_fract_z
 _atom_site_occupancy
  Ag  Ag0  1  0.74999997  0.24999999  0.49999996  1
  Ag  Ag1  1  0.00000000  0.00000000  0.00000000  1
  Se  Se2  1  0.49999998  0.49999998  0.99999995  1
  Se  Se3  1  0.24999999  0.74999997  0.49999996  1
  O  O4  1  0.67606397  0.86083696  0.18477397  1
  O  O5  1  0.67606397  0.49129098  0.81522695  1
  O  O6  1  0.50870998  0.32393699  0.18477398  1
  O  O7  1  0.07393600  0.75870897  0.68477296  1
  O  O8  1  0.07393600  0.38916298  0.31522598  1
  O  O9  1  0.13916299  0.32393599  0.81522696  1
  O  O10  1  0.61083697  0.92606396  0.68477295  1
  O  O11  1  0.24128999  0.92606296  0.31522597  1
