# generated using pymatgen
data_Lu2S3
_symmetry_space_group_name_H-M   'P 1'
_cell_length_a   3.93436599
_cell_length_b   10.98481274
_cell_length_c   11.18301582
_cell_angle_alpha   109.05264282
_cell_angle_beta   90.00000000
_cell_angle_gamma   90.00000000
_symmetry_Int_Tables_number   1
_chemical_formula_structural   Lu2S3
_chemical_formula_sum   'Lu8 S12'
_cell_volume   456.83442063
_cell_formula_units_Z   4
loop_
 _symmetry_equiv_pos_site_id
 _symmetry_equiv_pos_as_xyz
  1  'x, y, z'
loop_
 _atom_site_type_symbol
 _atom_site_label
 _atom_site_symmetry_multiplicity
 _atom_site_fract_x
 _atom_site_fract_y
 _atom_site_fract_z
 _atom_site_occupancy
  Lu  Lu0  1  0.25000000  0.44963202  0.80452204  1
  Lu  Lu1  1  0.75000000  0.55036802  0.19547803  1
  Lu  Lu2  1  0.25000000  0.82046503  0.99986206  1
  Lu  Lu3  1  0.75000000  0.17953501  0.00013801  1
  Lu  Lu4  1  0.25000000  0.05676600  0.66599002  1
  Lu  Lu5  1  0.75000000  0.94323404  0.33401005  1
  Lu  Lu6  1  0.25000000  0.33924601  0.41318603  1
  Lu  Lu7  1  0.75000000  0.66075403  0.58681404  1
  S  S8  1  0.25000000  0.02176000  0.88813502  1
  S  S9  1  0.75000000  0.97824004  0.11186505  1
  S  S10  1  0.25000000  0.69737403  0.74877505  1
  S  S11  1  0.75000000  0.30262601  0.25122502  1
  S  S12  1  0.25000000  0.10742100  0.44235702  1
  S  S13  1  0.75000000  0.89257903  0.55764305  1
  S  S14  1  0.25000000  0.58063302  0.40669804  1
  S  S15  1  0.75000000  0.41936702  0.59330203  1
  S  S16  1  0.25000000  0.76872903  0.23003604  1
  S  S17  1  0.75000000  0.23127101  0.76996403  1
  S  S18  1  0.25000000  0.37997801  0.03619802  1
  S  S19  1  0.75000000  0.62002202  0.96380205  1
