# generated using pymatgen
data_CuSnF6
_symmetry_space_group_name_H-M   'P 1'
_cell_length_a   5.37785530
_cell_length_b   5.37785530
_cell_length_c   5.73119879
_cell_angle_alpha   62.01933670
_cell_angle_beta   62.01933670
_cell_angle_gamma   60.00001144
_symmetry_Int_Tables_number   1
_chemical_formula_structural   CuSnF6
_chemical_formula_sum   'Cu1 Sn1 F6'
_cell_volume   120.65655897
_cell_formula_units_Z   1
loop_
 _symmetry_equiv_pos_site_id
 _symmetry_equiv_pos_as_xyz
  1  'x, y, z'
loop_
 _atom_site_type_symbol
 _atom_site_label
 _atom_site_symmetry_multiplicity
 _atom_site_fract_x
 _atom_site_fract_y
 _atom_site_fract_z
 _atom_site_occupancy
  Sn  Sn0  1  0.00000000  0.00000000  0.00000000  1
  Cu  Cu1  1  0.50000000  0.49999998  0.50000000  1
  F  F2  1  0.62604399  0.24508399  0.24633400  1
  F  F3  1  0.88253799  0.62604398  0.24633401  1
  F  F4  1  0.75491598  0.11746200  0.75366600  1
  F  F5  1  0.11746201  0.37395599  0.75366599  1
  F  F6  1  0.37395601  0.75491597  0.75366599  1
  F  F7  1  0.24508401  0.88253797  0.24633400  1
