# generated using pymatgen
data_Li2CuS3
_symmetry_space_group_name_H-M   'P 1'
_cell_length_a   6.42547464
_cell_length_b   6.42547464
_cell_length_c   6.93883753
_cell_angle_alpha   99.03242493
_cell_angle_beta   99.03242493
_cell_angle_gamma   119.84957886
_symmetry_Int_Tables_number   1
_chemical_formula_structural   Li2CuS3
_chemical_formula_sum   'Li4 Cu2 S6'
_cell_volume   235.96813646
_cell_formula_units_Z   2
loop_
 _symmetry_equiv_pos_site_id
 _symmetry_equiv_pos_as_xyz
  1  'x, y, z'
loop_
 _atom_site_type_symbol
 _atom_site_label
 _atom_site_symmetry_multiplicity
 _atom_site_fract_x
 _atom_site_fract_y
 _atom_site_fract_z
 _atom_site_occupancy
  Li  Li0  1  0.00000000  0.00000000  0.00000000  1
  Li  Li1  1  0.49999999  0.49999998  0.50000000  1
  Li  Li2  1  0.34298299  0.65701698  -0.00000001  1
  Li  Li3  1  0.65701698  0.34298299  -0.00000001  1
  Cu  Cu4  1  0.83300697  0.16699299  0.50000000  1
  Cu  Cu5  1  0.16699300  0.83300697  0.50000000  1
  S  S6  1  0.83472098  0.83472097  0.31667999  1
  S  S7  1  0.03886900  0.43723299  0.31383100  1
  S  S8  1  0.43723298  0.03886900  0.31383100  1
  S  S9  1  0.56276699  0.96113097  0.68616900  1
  S  S10  1  0.96113097  0.56276698  0.68616900  1
  S  S11  1  0.16527900  0.16527899  0.68332001  1
