# generated using pymatgen
data_CsLiO2
_symmetry_space_group_name_H-M   'P 1'
_cell_length_a   5.67497253
_cell_length_b   6.55079699
_cell_length_c   6.55079699
_cell_angle_alpha   101.42830658
_cell_angle_beta   109.73014069
_cell_angle_gamma   109.73014069
_symmetry_Int_Tables_number   1
_chemical_formula_structural   CsLiO2
_chemical_formula_sum   'Cs2 Li2 O4'
_cell_volume   201.94504944
_cell_formula_units_Z   2
loop_
 _symmetry_equiv_pos_site_id
 _symmetry_equiv_pos_as_xyz
  1  'x, y, z'
loop_
 _atom_site_type_symbol
 _atom_site_label
 _atom_site_symmetry_multiplicity
 _atom_site_fract_x
 _atom_site_fract_y
 _atom_site_fract_z
 _atom_site_occupancy
  Cs  Cs0  1  0.24999999  0.35259799  0.64740197  1
  Cs  Cs1  1  0.74999999  0.64740198  0.35259796  1
  Li  Li2  1  0.75000001  0.07800500  0.92199500  1
  Li  Li3  1  0.24999998  0.92199498  0.07800493  1
  O  O4  1  0.29695098  0.87278798  0.78592994  1
  O  O5  1  0.70304901  0.12721200  0.21406999  1
  O  O6  1  0.20304900  0.21406999  0.12721199  1
  O  O7  1  0.79695099  0.78592998  0.87278795  1
