# generated using pymatgen
data_VPO5
_symmetry_space_group_name_H-M   'P 1'
_cell_length_a   4.63142586
_cell_length_b   6.28262806
_cell_length_c   6.28262806
_cell_angle_alpha   90.00000000
_cell_angle_beta   90.00000000
_cell_angle_gamma   90.00000000
_symmetry_Int_Tables_number   1
_chemical_formula_structural   VPO5
_chemical_formula_sum   'V2 P2 O10'
_cell_volume   182.80893361
_cell_formula_units_Z   2
loop_
 _symmetry_equiv_pos_site_id
 _symmetry_equiv_pos_as_xyz
  1  'x, y, z'
loop_
 _atom_site_type_symbol
 _atom_site_label
 _atom_site_symmetry_multiplicity
 _atom_site_fract_x
 _atom_site_fract_y
 _atom_site_fract_z
 _atom_site_occupancy
  V  V0  1  0.79107002  0.50000000  0.00000000  1
  V  V1  1  0.20893001  0.99999999  0.50000000  1
  P  P2  1  0.50000002  0.00000000  0.00000000  1
  P  P3  1  0.50000002  0.50000000  0.50000000  1
  O  O4  1  0.69361502  0.19227400  0.05405600  1
  O  O5  1  0.69361502  0.55405599  0.30772600  1
  O  O6  1  0.69361502  0.44594400  0.69227399  1
  O  O7  1  0.69361502  0.80772599  0.94594399  1
  O  O8  1  0.84093603  0.99999999  0.50000000  1
  O  O9  1  0.15906400  0.50000000  -0.00000000  1
  O  O10  1  0.30638501  0.69227399  0.55405599  1
  O  O11  1  0.30638501  0.05405600  0.80772599  1
  O  O12  1  0.30638501  0.94594399  0.19227400  1
  O  O13  1  0.30638501  0.30772600  0.44594400  1
