# generated using pymatgen
data_Ca4InBiO8
_symmetry_space_group_name_H-M   'P 1'
_cell_length_a   6.48413801
_cell_length_b   6.58383083
_cell_length_c   6.58383083
_cell_angle_alpha   60.85399246
_cell_angle_beta   60.49964523
_cell_angle_gamma   60.49964523
_symmetry_Int_Tables_number   1
_chemical_formula_structural   Ca4InBiO8
_chemical_formula_sum   'Ca4 In1 Bi1 O8'
_cell_volume   201.51178889
_cell_formula_units_Z   1
loop_
 _symmetry_equiv_pos_site_id
 _symmetry_equiv_pos_as_xyz
  1  'x, y, z'
loop_
 _atom_site_type_symbol
 _atom_site_label
 _atom_site_symmetry_multiplicity
 _atom_site_fract_x
 _atom_site_fract_y
 _atom_site_fract_z
 _atom_site_occupancy
  Ca  Ca0  1  0.50000002  1.00000000  0.49999998  1
  Ca  Ca1  1  1.00000001  1.00000000  0.49999999  1
  Ca  Ca2  1  0.13357201  0.61642800  0.11642799  1
  Ca  Ca3  1  0.86642800  0.38357200  0.88357201  1
  In  In4  1  0.50000001  0.50000000  0.50000000  1
  Bi  Bi5  1  0.49999999  0.00000000  1.00000001  1
  O  O6  1  0.26714800  0.25200000  0.75200000  1
  O  O7  1  0.72885200  0.25200000  0.75200001  1
  O  O8  1  0.73473700  0.26046200  0.27006401  1
  O  O9  1  0.73473701  0.77006400  0.76046199  1
  O  O10  1  0.26526300  0.22993600  0.23953800  1
  O  O11  1  0.26526301  0.73953800  0.72993598  1
  O  O12  1  0.27114801  0.74800000  0.24799998  1
  O  O13  1  0.73285201  0.74800000  0.24799999  1
