# generated using pymatgen
data_SrCaGdBiO6
_symmetry_space_group_name_H-M   'P 1'
_cell_length_a   6.06518698
_cell_length_b   6.16914749
_cell_length_c   8.69028759
_cell_angle_alpha   89.90753174
_cell_angle_beta   89.57975006
_cell_angle_gamma   89.81475067
_symmetry_Int_Tables_number   1
_chemical_formula_structural   SrCaGdBiO6
_chemical_formula_sum   'Sr2 Ca2 Gd2 Bi2 O12'
_cell_volume   325.15392047
_cell_formula_units_Z   2
loop_
 _symmetry_equiv_pos_site_id
 _symmetry_equiv_pos_as_xyz
  1  'x, y, z'
loop_
 _atom_site_type_symbol
 _atom_site_label
 _atom_site_symmetry_multiplicity
 _atom_site_fract_x
 _atom_site_fract_y
 _atom_site_fract_z
 _atom_site_occupancy
  Sr  Sr0  1  0.00665460  0.03952951  0.74940178  1
  Sr  Sr1  1  0.99334537  0.96047047  0.25059825  1
  Ca  Ca2  1  0.48923349  0.53988342  0.74652572  1
  Ca  Ca3  1  0.51076649  0.46011656  0.25347430  1
  Gd  Gd4  1  0.49999998  0.00000000  0.00000001  1
  Gd  Gd5  1  0.00000000  0.49999999  0.50000000  1
  Bi  Bi6  1  0.00000000  0.49999999  1.00000000  1
  Bi  Bi7  1  0.49999998  0.00000000  0.50000001  1
  O  O8  1  0.80613348  0.21819071  0.04333845  1
  O  O9  1  0.68106131  0.70737555  0.43659037  1
  O  O10  1  0.19386650  0.78180926  0.95666157  1
  O  O11  1  0.31893866  0.29262442  0.56340966  1
  O  O12  1  0.71347872  0.68845599  0.06838664  1
  O  O13  1  0.78533504  0.19583849  0.46644430  1
  O  O14  1  0.28652125  0.31154398  0.93161338  1
  O  O15  1  0.21466494  0.80416149  0.53355573  1
  O  O16  1  0.57340845  0.92933156  0.73743118  1
  O  O17  1  0.87895459  0.48942055  0.76357419  1
  O  O18  1  0.42659153  0.07066842  0.26256885  1
  O  O19  1  0.12104538  0.51057943  0.23642583  1
