# generated using pymatgen
data_Cs2K2Rb2P5SO8
_symmetry_space_group_name_H-M   'P 1'
_cell_length_a   6.29741287
_cell_length_b   7.98043394
_cell_length_c   8.83528709
_cell_angle_alpha   89.87081146
_cell_angle_beta   90.00000000
_cell_angle_gamma   90.00000000
_symmetry_Int_Tables_number   1
_chemical_formula_structural   Cs2K2Rb2P5SO8
_chemical_formula_sum   'Cs2 K2 Rb2 P5 S1 O8'
_cell_volume   444.02583193
_cell_formula_units_Z   1
loop_
 _symmetry_equiv_pos_site_id
 _symmetry_equiv_pos_as_xyz
  1  'x, y, z'
loop_
 _atom_site_type_symbol
 _atom_site_label
 _atom_site_symmetry_multiplicity
 _atom_site_fract_x
 _atom_site_fract_y
 _atom_site_fract_z
 _atom_site_occupancy
  K  K0  1  0.06806000  0.10709700  0.74649603  1
  Cs  Cs1  1  0.36077501  0.15592700  0.12178700  1
  Rb  Rb2  1  0.86077502  0.34407300  0.37821300  1
  Cs  Cs3  1  0.56806001  0.39290300  0.75350401  1
  K  K4  1  0.43194001  0.60709700  0.24649598  1
  Rb  Rb5  1  0.13922500  0.65592700  0.62178699  1
  P  P6  1  0.63922501  0.84407301  0.87821299  1
  P  P7  1  0.93194002  0.89290301  0.25350397  1
  P  P8  1  0.42564301  0.11454800  0.47926801  1
  P  P9  1  0.92564302  0.38545200  0.02073198  1
  P  P10  1  0.07435700  0.61454800  0.97926801  1
  S  S11  1  0.57435701  0.88545201  0.52073198  1
  O  O12  1  0.62085901  0.06846900  0.59010402  1
  O  O13  1  0.82242602  0.21746000  0.05277899  1
  O  O14  1  0.32242601  0.28254000  0.44722100  1
  O  O15  1  0.12085900  0.43153100  0.90989602  1
  O  O16  1  0.87914102  0.56846900  0.09010398  1
  O  O17  1  0.67757401  0.71746001  0.55277899  1
  O  O18  1  0.17757400  0.78254001  0.94722100  1
  O  O19  1  0.37914101  0.93153101  0.40989597  1
