# generated using pymatgen
data_CuSe
_symmetry_space_group_name_H-M   'P 1'
_cell_length_a   7.70463276
_cell_length_b   7.70463276
_cell_length_c   7.70463276
_cell_angle_alpha   60.00000000
_cell_angle_beta   60.00000000
_cell_angle_gamma   60.00000000
_symmetry_Int_Tables_number   1
_chemical_formula_structural   CuSe
_chemical_formula_sum   'Cu7 Se7'
_cell_volume   323.40060717
_cell_formula_units_Z   7
loop_
 _symmetry_equiv_pos_site_id
 _symmetry_equiv_pos_as_xyz
  1  'x, y, z'
loop_
 _atom_site_type_symbol
 _atom_site_label
 _atom_site_symmetry_multiplicity
 _atom_site_fract_x
 _atom_site_fract_y
 _atom_site_fract_z
 _atom_site_occupancy
  Cu  Cu0  1  0.49999999  0.49999999  0.49999999  1
  Cu  Cu1  1  0.25000000  0.25000000  0.25000000  1
  Cu  Cu2  1  0.37500000  0.87499999  0.87499999  1
  Cu  Cu3  1  0.87499999  0.37500000  0.87499999  1
  Cu  Cu4  1  0.87499999  0.87499999  0.87499999  1
  Cu  Cu5  1  0.87499999  0.87499999  0.37500000  1
  Cu  Cu6  1  0.11787400  0.11787400  0.64637799  1
  Se  Se7  1  0.10362200  0.63212599  0.63212599  1
  Se  Se8  1  0.63212599  0.63212599  0.10362200  1
  Se  Se9  1  0.11787400  0.64637799  0.11787400  1
  Se  Se10  1  0.64637799  0.11787400  0.11787400  1
  Se  Se11  1  0.63212599  0.63212599  0.63212599  1
  Se  Se12  1  0.63212599  0.10362200  0.63212599  1
  Se  Se13  1  0.11787400  0.11787400  0.11787400  1
