# generated using pymatgen
data_SrCaAl2BiO7
_symmetry_space_group_name_H-M   'P 1'
_cell_length_a   3.74418998
_cell_length_b   3.74418998
_cell_length_c   10.27591801
_cell_angle_alpha   100.49692535
_cell_angle_beta   100.49692535
_cell_angle_gamma   90.00000000
_symmetry_Int_Tables_number   1
_chemical_formula_structural   SrCaAl2BiO7
_chemical_formula_sum   'Sr1 Ca1 Al2 Bi1 O7'
_cell_volume   139.19421840
_cell_formula_units_Z   1
loop_
 _symmetry_equiv_pos_site_id
 _symmetry_equiv_pos_as_xyz
  1  'x, y, z'
loop_
 _atom_site_type_symbol
 _atom_site_label
 _atom_site_symmetry_multiplicity
 _atom_site_fract_x
 _atom_site_fract_y
 _atom_site_fract_z
 _atom_site_occupancy
  Sr  Sr0  1  0.50000001  0.50000001  0.00000001  1
  Ca  Ca1  1  0.68173401  0.68173401  0.36346803  1
  Bi  Bi2  1  0.31826601  0.31826600  0.63653203  1
  Al  Al3  1  0.09511900  0.09511900  0.19023801  1
  Al  Al4  1  0.90488102  0.90488101  0.80976205  1
  O  O5  1  0.39554001  0.89554001  0.79108005  1
  O  O6  1  0.89554001  0.39554000  0.79108005  1
  O  O7  1  0.60446001  0.10446000  0.20892001  1
  O  O8  1  0.10446001  0.60446001  0.20892002  1
  O  O9  1  0.79616001  0.79616001  0.59232004  1
  O  O10  1  0.20384000  0.20384000  0.40768002  1
  O  O11  1  0.00000000  0.00000000  0.00000000  1
