# generated using pymatgen
data_Na2NiS2
_symmetry_space_group_name_H-M   'P 1'
_cell_length_a   5.97689581
_cell_length_b   6.46268177
_cell_length_c   7.11687088
_cell_angle_alpha   117.00315857
_cell_angle_beta   114.82892609
_cell_angle_gamma   90.00000000
_symmetry_Int_Tables_number   1
_chemical_formula_structural   Na2NiS2
_chemical_formula_sum   'Na4 Ni2 S4'
_cell_volume   216.02510898
_cell_formula_units_Z   2
loop_
 _symmetry_equiv_pos_site_id
 _symmetry_equiv_pos_as_xyz
  1  'x, y, z'
loop_
 _atom_site_type_symbol
 _atom_site_label
 _atom_site_symmetry_multiplicity
 _atom_site_fract_x
 _atom_site_fract_y
 _atom_site_fract_z
 _atom_site_occupancy
  Na  Na0  1  0.85761700  0.50858903  0.71523398  1
  Na  Na1  1  0.14238300  0.49141103  0.28476602  1
  Na  Na2  1  0.64238299  0.79335505  0.28476601  1
  Na  Na3  1  0.35761700  0.20664501  0.71523399  1
  Ni  Ni4  1  0.24999999  1.00000006  1.00000004  1
  Ni  Ni5  1  0.74999999  1.00000006  0.00000001  1
  S  S6  1  0.38909300  0.67559704  0.77818702  1
  S  S7  1  0.61090700  0.32440302  0.22181298  1
  S  S8  1  0.11090599  0.89741006  0.22181204  1
  S  S9  1  0.88909400  0.10259001  0.77818796  1
