# generated using pymatgen
data_Na3Sr2LiO6
_symmetry_space_group_name_H-M   'P 1'
_cell_length_a   5.97230005
_cell_length_b   5.97230053
_cell_length_c   6.82699585
_cell_angle_alpha   90.00000000
_cell_angle_beta   90.00000000
_cell_angle_gamma   120.00000000
_symmetry_Int_Tables_number   1
_chemical_formula_structural   Na3Sr2LiO6
_chemical_formula_sum   'Na3 Sr2 Li1 O6'
_cell_volume   210.88395744
_cell_formula_units_Z   1
loop_
 _symmetry_equiv_pos_site_id
 _symmetry_equiv_pos_as_xyz
  1  'x, y, z'
loop_
 _atom_site_type_symbol
 _atom_site_label
 _atom_site_symmetry_multiplicity
 _atom_site_fract_x
 _atom_site_fract_y
 _atom_site_fract_z
 _atom_site_occupancy
  Sr  Sr0  1  0.34604101  0.34604100  0.16666700  1
  Sr  Sr1  1  1.00000002  0.65395900  0.83333302  1
  Li  Li2  1  0.65395899  0.00000000  0.50000001  1
  Na  Na3  1  0.58405500  0.00000000  0.00000000  1
  Na  Na4  1  1.00000002  0.58405500  0.33333334  1
  Na  Na5  1  0.41594502  0.41594500  0.66666668  1
  O  O6  1  0.87608401  0.29728100  0.12382700  1
  O  O7  1  0.42119700  0.12391600  0.79049402  1
  O  O8  1  0.70271902  0.57880300  0.45716001  1
  O  O9  1  0.29728104  0.87608400  0.20950600  1
  O  O10  1  0.57880303  0.70271900  0.87617302  1
  O  O11  1  0.12391602  0.42119700  0.54284001  1
