# generated using pymatgen
data_Ba5Sr3P8
_symmetry_space_group_name_H-M   'P 1'
_cell_length_a   8.54865360
_cell_length_b   8.54865360
_cell_length_c   8.90910816
_cell_angle_alpha   118.67041779
_cell_angle_beta   118.67040253
_cell_angle_gamma   90.00000000
_symmetry_Int_Tables_number   1
_chemical_formula_structural   Ba5Sr3P8
_chemical_formula_sum   'Ba5 Sr3 P8'
_cell_volume   478.27975597
_cell_formula_units_Z   1
loop_
 _symmetry_equiv_pos_site_id
 _symmetry_equiv_pos_as_xyz
  1  'x, y, z'
loop_
 _atom_site_type_symbol
 _atom_site_label
 _atom_site_symmetry_multiplicity
 _atom_site_fract_x
 _atom_site_fract_y
 _atom_site_fract_z
 _atom_site_occupancy
  Ba  Ba0  1  0.50422302  0.00422300  0.31079000  1
  Ba  Ba1  1  0.80656702  0.30656701  0.31078998  1
  Ba  Ba2  1  0.00422298  0.80656702  0.31078998  1
  Ba  Ba3  1  0.30656700  0.50422302  0.31078998  1
  Ba  Ba4  1  0.49577699  0.99577703  0.68920997  1
  Sr  Sr5  1  0.19343299  0.69343302  0.68920999  1
  Sr  Sr6  1  0.99577703  0.19343301  0.68920999  1
  Sr  Sr7  1  0.69343301  0.49577702  0.68920998  1
  P  P8  1  0.50000000  0.50000002  1.00000000  1
  P  P9  1  0.00000000  0.00000000  0.00000000  1
  P  P10  1  0.75000000  0.75000002  0.49999997  1
  P  P11  1  0.25000000  0.25000001  0.50000000  1
  P  P12  1  0.16307399  0.66307402  1.00000000  1
  P  P13  1  0.83692602  0.33692601  0.99999999  1
  P  P14  1  0.66307400  0.83692603  -0.00000004  1
  P  P15  1  0.33692601  0.16307400  1.00000001  1
