# generated using pymatgen
data_LiCu(PO3)2
_symmetry_space_group_name_H-M   'P 1'
_cell_length_a   5.34004545
_cell_length_b   6.53237581
_cell_length_c   6.53237581
_cell_angle_alpha   83.62432098
_cell_angle_beta   74.63781738
_cell_angle_gamma   74.63781738
_symmetry_Int_Tables_number   1
_chemical_formula_structural   LiCu(PO3)2
_chemical_formula_sum   'Li2 Cu2 P4 O12'
_cell_volume   211.67286243
_cell_formula_units_Z   2
loop_
 _symmetry_equiv_pos_site_id
 _symmetry_equiv_pos_as_xyz
  1  'x, y, z'
loop_
 _atom_site_type_symbol
 _atom_site_label
 _atom_site_symmetry_multiplicity
 _atom_site_fract_x
 _atom_site_fract_y
 _atom_site_fract_z
 _atom_site_occupancy
  Li  Li0  1  0.25000006  0.74152097  0.25847897  1
  Li  Li1  1  0.75000002  0.25847899  0.74152101  1
  Cu  Cu2  1  0.25000001  0.10144400  0.89855599  1
  Cu  Cu3  1  0.75000007  0.89855597  0.10144400  1
  P  P4  1  0.23762802  0.20589999  0.38712699  1
  P  P5  1  0.76237206  0.79409997  0.61287299  1
  P  P6  1  0.73762803  0.38712699  0.20590001  1
  P  P7  1  0.26237205  0.61287298  0.79409997  1
  O  O8  1  0.05140605  0.64512098  0.64417896  1
  O  O9  1  0.55140605  0.64417898  0.64512098  1
  O  O10  1  0.94859403  0.35487899  0.35582102  1
  O  O11  1  0.44859403  0.35582099  0.35487900  1
  O  O12  1  0.85596802  0.19829799  0.02957603  1
  O  O13  1  0.82851107  0.89224497  0.37273799  1
  O  O14  1  0.14403206  0.80170197  0.97042395  1
  O  O15  1  0.35596800  0.02957600  0.19829801  1
  O  O16  1  0.64403208  0.97042396  0.80170197  1
  O  O17  1  0.17148901  0.10775500  0.62726199  1
  O  O18  1  0.32851103  0.37273799  0.89224498  1
  O  O19  1  0.67148905  0.62726198  0.10775500  1
