# generated using pymatgen
data_Sr2PO6
_symmetry_space_group_name_H-M   'P 1'
_cell_length_a   5.73175383
_cell_length_b   6.39184141
_cell_length_c   7.00500774
_cell_angle_alpha   113.12277222
_cell_angle_beta   90.00000000
_cell_angle_gamma   90.00000000
_symmetry_Int_Tables_number   1
_chemical_formula_structural   Sr2PO6
_chemical_formula_sum   'Sr4 P2 O12'
_cell_volume   236.02175243
_cell_formula_units_Z   2
loop_
 _symmetry_equiv_pos_site_id
 _symmetry_equiv_pos_as_xyz
  1  'x, y, z'
loop_
 _atom_site_type_symbol
 _atom_site_label
 _atom_site_symmetry_multiplicity
 _atom_site_fract_x
 _atom_site_fract_y
 _atom_site_fract_z
 _atom_site_occupancy
  Sr  Sr0  1  0.75000002  0.07113800  0.20316199  1
  Sr  Sr1  1  0.25000001  0.92886199  0.79683796  1
  Sr  Sr2  1  0.75000002  0.39054900  0.82172997  1
  Sr  Sr3  1  0.25000001  0.60945100  0.17826998  1
  P  P4  1  0.75000002  0.76614100  0.53557597  1
  P  P5  1  0.25000001  0.23385900  0.46442399  1
  O  O6  1  0.96918703  0.76501700  0.40150697  1
  O  O7  1  0.03081300  0.23498300  0.59849298  1
  O  O8  1  0.46918701  0.23498300  0.59849298  1
  O  O9  1  0.53081302  0.76501700  0.40150697  1
  O  O10  1  0.75000002  0.55821900  0.59522597  1
  O  O11  1  0.25000001  0.44178100  0.40477398  1
  O  O12  1  0.99893803  0.67497800  0.96601796  1
  O  O13  1  0.00106200  0.32502200  0.03398199  1
  O  O14  1  0.49893802  0.32502200  0.03398199  1
  O  O15  1  0.50106202  0.67497800  0.96601796  1
  O  O16  1  0.75000002  0.99035599  0.73825096  1
  O  O17  1  0.25000001  0.00964400  0.26174900  1
