# generated using pymatgen
data_KRbNb2O8
_symmetry_space_group_name_H-M   'P 1'
_cell_length_a   6.55767870
_cell_length_b   6.55767870
_cell_length_c   6.55767870
_cell_angle_alpha   78.01132965
_cell_angle_beta   66.66284943
_cell_angle_gamma   113.33715057
_symmetry_Int_Tables_number   1
_chemical_formula_structural   KRbNb2O8
_chemical_formula_sum   'K1 Rb1 Nb2 O8'
_cell_volume   214.35854873
_cell_formula_units_Z   1
loop_
 _symmetry_equiv_pos_site_id
 _symmetry_equiv_pos_as_xyz
  1  'x, y, z'
loop_
 _atom_site_type_symbol
 _atom_site_label
 _atom_site_symmetry_multiplicity
 _atom_site_fract_x
 _atom_site_fract_y
 _atom_site_fract_z
 _atom_site_occupancy
  K  K0  1  1.00000011  0.50000005  0.49999989  1
  Rb  Rb1  1  0.50000006  0.25000003  0.24999994  1
  Nb  Nb2  1  0.50000013  0.75000008  0.74999988  1
  Nb  Nb3  1  0.00000000  0.00000000  0.00000000  1
  O  O4  1  0.27189316  0.95418410  0.04581585  1
  O  O5  1  0.00000005  0.31770903  0.95418397  1
  O  O6  1  0.00000001  0.04581600  0.68229101  1
  O  O7  1  0.72810713  0.68229107  0.31770887  1
  O  O8  1  0.59033714  0.77444508  0.22555486  1
  O  O9  1  1.00000016  0.81589209  0.77444485  1
  O  O10  1  1.00000007  0.22555502  0.18410792  1
  O  O11  1  0.40966304  0.18410802  0.81589197  1
