# generated using pymatgen
data_Be3Ni(BO2)4
_symmetry_space_group_name_H-M   'P 1'
_cell_length_a   4.39675713
_cell_length_b   5.75794411
_cell_length_c   6.70814705
_cell_angle_alpha   110.62271118
_cell_angle_beta   90.00000000
_cell_angle_gamma   90.00000000
_symmetry_Int_Tables_number   1
_chemical_formula_structural   Be3Ni(BO2)4
_chemical_formula_sum   'Be3 Ni1 B4 O8'
_cell_volume   158.94293266
_cell_formula_units_Z   1
loop_
 _symmetry_equiv_pos_site_id
 _symmetry_equiv_pos_as_xyz
  1  'x, y, z'
loop_
 _atom_site_type_symbol
 _atom_site_label
 _atom_site_symmetry_multiplicity
 _atom_site_fract_x
 _atom_site_fract_y
 _atom_site_fract_z
 _atom_site_occupancy
  Ni  Ni0  1  0.21784999  0.56050800  0.64602402  1
  Be  Be1  1  0.71784998  0.43949200  0.85397601  1
  Be  Be2  1  0.78214998  0.43949200  0.35397601  1
  Be  Be3  1  0.28214999  0.56050800  0.14602402  1
  B  B4  1  0.67920498  0.87355000  0.72174803  1
  B  B5  1  0.17920499  0.12645000  0.77825200  1
  B  B6  1  0.32079499  0.12645000  0.27825200  1
  B  B7  1  0.82079498  0.87355000  0.22174803  1
  O  O8  1  0.36051799  0.91397600  0.73451203  1
  O  O9  1  0.86051798  0.08602400  0.76548799  1
  O  O10  1  0.63948198  0.08602400  0.26548800  1
  O  O11  1  0.13948200  0.91397600  0.23451204  1
  O  O12  1  0.77610998  0.63978900  0.66833402  1
  O  O13  1  0.27610999  0.36021100  0.83166601  1
  O  O14  1  0.22388999  0.36021100  0.33166601  1
  O  O15  1  0.72388998  0.63978900  0.16833403  1
