# generated using pymatgen
data_AsO
_symmetry_space_group_name_H-M   'P 1'
_cell_length_a   6.52372217
_cell_length_b   6.52372217
_cell_length_c   6.52372217
_cell_angle_alpha   90.00000000
_cell_angle_beta   90.00000000
_cell_angle_gamma   90.00000000
_symmetry_Int_Tables_number   1
_chemical_formula_structural   AsO
_chemical_formula_sum   'As8 O8'
_cell_volume   277.64277208
_cell_formula_units_Z   8
loop_
 _symmetry_equiv_pos_site_id
 _symmetry_equiv_pos_as_xyz
  1  'x, y, z'
loop_
 _atom_site_type_symbol
 _atom_site_label
 _atom_site_symmetry_multiplicity
 _atom_site_fract_x
 _atom_site_fract_y
 _atom_site_fract_z
 _atom_site_occupancy
  As  As0  1  0.61918598  0.88081398  0.11918600  1
  As  As1  1  0.88081398  0.11918600  0.61918598  1
  As  As2  1  0.11918600  0.61918598  0.88081398  1
  As  As3  1  0.38081399  0.38081399  0.38081399  1
  As  As4  1  0.38081399  0.11918600  0.88081398  1
  As  As5  1  0.11918600  0.88081398  0.38081399  1
  As  As6  1  0.88081398  0.38081399  0.11918600  1
  As  As7  1  0.61918598  0.61918598  0.61918598  1
  O  O8  1  0.15717000  0.34282999  0.65716998  1
  O  O9  1  0.34282999  0.65716998  0.15717000  1
  O  O10  1  0.65716998  0.15717000  0.34282999  1
  O  O11  1  0.84282998  0.84282998  0.84282998  1
  O  O12  1  0.84282998  0.65716998  0.34282999  1
  O  O13  1  0.65716998  0.34282999  0.84282998  1
  O  O14  1  0.34282999  0.84282998  0.65716998  1
  O  O15  1  0.15717000  0.15717000  0.15717000  1
