# generated using pymatgen
data_Cs4KRbHO5
_symmetry_space_group_name_H-M   'P 1'
_cell_length_a   5.02098417
_cell_length_b   6.79609251
_cell_length_c   10.71796608
_cell_angle_alpha   84.60889435
_cell_angle_beta   76.45363617
_cell_angle_gamma   68.32124329
_symmetry_Int_Tables_number   1
_chemical_formula_structural   Cs4KRbHO5
_chemical_formula_sum   'Cs4 K1 Rb1 H1 O5'
_cell_volume   330.39582843
_cell_formula_units_Z   1
loop_
 _symmetry_equiv_pos_site_id
 _symmetry_equiv_pos_as_xyz
  1  'x, y, z'
loop_
 _atom_site_type_symbol
 _atom_site_label
 _atom_site_symmetry_multiplicity
 _atom_site_fract_x
 _atom_site_fract_y
 _atom_site_fract_z
 _atom_site_occupancy
  K  K0  1  0.98273702  0.85481398  0.17971198  1
  Cs  Cs1  1  0.17706701  0.23722299  0.40864301  1
  Cs  Cs2  1  0.01726301  0.14518600  0.82028803  1
  Cs  Cs3  1  0.82293302  0.76277698  0.59135700  1
  Rb  Rb4  1  0.29712703  0.53924299  0.86650302  1
  Cs  Cs5  1  0.70287301  0.46075699  0.13349699  1
  H  H6  1  0.50000002  0.49999999  0.50000000  1
  O  O7  1  0.49999998  0.00000000  1.00000004  1
  O  O8  1  0.33574600  0.24008299  0.08842499  1
  O  O9  1  0.46689003  0.69235098  0.37386899  1
  O  O10  1  0.66425403  0.75991698  0.91157501  1
  O  O11  1  0.53311000  0.30764899  0.62613101  1
