# generated using pymatgen
data_Tl3AgS6
_symmetry_space_group_name_H-M   'P 1'
_cell_length_a   4.06504488
_cell_length_b   4.06504488
_cell_length_c   14.25333309
_cell_angle_alpha   90.00000000
_cell_angle_beta   90.00000000
_cell_angle_gamma   90.00000000
_symmetry_Int_Tables_number   1
_chemical_formula_structural   Tl3AgS6
_chemical_formula_sum   'Tl3 Ag1 S6'
_cell_volume   235.53048370
_cell_formula_units_Z   1
loop_
 _symmetry_equiv_pos_site_id
 _symmetry_equiv_pos_as_xyz
  1  'x, y, z'
loop_
 _atom_site_type_symbol
 _atom_site_label
 _atom_site_symmetry_multiplicity
 _atom_site_fract_x
 _atom_site_fract_y
 _atom_site_fract_z
 _atom_site_occupancy
  Ag  Ag0  1  -0.00000000  0.50000001  0.89714299  1
  Tl  Tl1  1  0.50000001  0.00000000  0.10285700  1
  Tl  Tl2  1  -0.00000000  0.50000001  0.36716300  1
  Tl  Tl3  1  0.50000001  0.00000000  0.63283700  1
  S  S4  1  -0.00000000  0.50000001  0.61097100  1
  S  S5  1  0.50000001  0.00000000  0.38902900  1
  S  S6  1  -0.00000000  0.50000001  0.19083100  1
  S  S7  1  0.50000001  0.00000000  0.80916899  1
  S  S8  1  0.00000000  0.00000000  0.00000000  1
  S  S9  1  0.50000001  0.50000001  0.00000000  1
