# generated using pymatgen
data_SiNiP3(OF3)3
_symmetry_space_group_name_H-M   'P 1'
_cell_length_a   5.22775221
_cell_length_b   5.23328209
_cell_length_c   9.72032166
_cell_angle_alpha   80.92939758
_cell_angle_beta   85.01721954
_cell_angle_gamma   61.25124741
_symmetry_Int_Tables_number   1
_chemical_formula_structural   SiNiP3(OF3)3
_chemical_formula_sum   'Si1 Ni1 P3 O3 F9'
_cell_volume   230.21774673
_cell_formula_units_Z   1
loop_
 _symmetry_equiv_pos_site_id
 _symmetry_equiv_pos_as_xyz
  1  'x, y, z'
loop_
 _atom_site_type_symbol
 _atom_site_label
 _atom_site_symmetry_multiplicity
 _atom_site_fract_x
 _atom_site_fract_y
 _atom_site_fract_z
 _atom_site_occupancy
  F  F0  1  0.68643600  0.68690796  0.99994997  1
  Ni  Ni1  1  0.31356400  0.31309198  0.00004999  1
  Si  Si2  1  0.02392002  0.71497896  0.71200900  1
  P  P3  1  0.97607997  0.28502098  0.28799097  1
  P  P4  1  0.37337099  0.06601300  0.71165397  1
  P  P5  1  0.62662901  0.93398695  0.28834599  1
  O  O6  1  0.50000000  0.49999997  -0.00000001  1
  O  O7  1  0.99522498  0.61876396  0.88034096  1
  F  F8  1  0.00477501  0.38123598  0.11965900  1
  F  F9  1  0.41698899  0.04140200  0.88044297  1
  O  O10  1  0.58301101  0.95859794  0.11955699  1
  F  F11  1  0.24128500  0.41228698  0.64642599  1
  F  F12  1  0.75871499  0.58771297  0.35357398  1
  F  F13  1  0.69727200  0.86912195  0.64625398  1
  F  F14  1  0.30272799  0.13087799  0.35374598  1
  F  F15  1  0.15283202  0.94619295  0.67873799  1
  F  F16  1  0.84716797  0.05380700  0.32126197  1
