# generated using pymatgen
data_Sr2GdMoO6
_symmetry_space_group_name_H-M   'P 1'
_cell_length_a   5.95623827
_cell_length_b   5.97517443
_cell_length_c   8.42445374
_cell_angle_alpha   89.53808594
_cell_angle_beta   90.33563232
_cell_angle_gamma   89.71986389
_symmetry_Int_Tables_number   1
_chemical_formula_structural   Sr2GdMoO6
_chemical_formula_sum   'Sr4 Gd2 Mo2 O12'
_cell_volume   299.80408273
_cell_formula_units_Z   2
loop_
 _symmetry_equiv_pos_site_id
 _symmetry_equiv_pos_as_xyz
  1  'x, y, z'
loop_
 _atom_site_type_symbol
 _atom_site_label
 _atom_site_symmetry_multiplicity
 _atom_site_fract_x
 _atom_site_fract_y
 _atom_site_fract_z
 _atom_site_occupancy
  Sr  Sr0  1  0.99653920  0.02244690  0.24934205  1
  Sr  Sr1  1  0.00346080  0.97755309  0.75065802  1
  Sr  Sr2  1  0.50443370  0.53354888  0.24881465  1
  Sr  Sr3  1  0.49556630  0.46645111  0.75118543  1
  Gd  Gd4  1  0.00000002  0.50000000  0.00000000  1
  Gd  Gd5  1  0.49999999  0.00000000  0.50000003  1
  Mo  Mo6  1  0.49999999  0.00000000  0.00000002  1
  Mo  Mo7  1  0.00000002  0.50000000  0.50000002  1
  O  O8  1  0.24177904  0.20027479  0.97423017  1
  O  O9  1  0.25787805  0.69645164  0.54015370  1
  O  O10  1  0.75822097  0.79972520  0.02576991  1
  O  O11  1  0.74212196  0.30354835  0.45984637  1
  O  O12  1  0.30900413  0.73694630  0.96239137  1
  O  O13  1  0.19873010  0.24216157  0.53468320  1
  O  O14  1  0.69099588  0.26305369  0.03760871  1
  O  O15  1  0.80126990  0.75783842  0.46531688  1
  O  O16  1  0.44486126  0.97025489  0.22831619  1
  O  O17  1  0.07537234  0.49718699  0.27293394  1
  O  O18  1  0.55513875  0.02974510  0.77168389  1
  O  O19  1  0.92462766  0.50281301  0.72706614  1
