# generated using pymatgen
data_Sr2Ca2Ti3O10
_symmetry_space_group_name_H-M   'P 1'
_cell_length_a   3.91119599
_cell_length_b   3.91119599
_cell_length_c   15.28115749
_cell_angle_alpha   97.35256195
_cell_angle_beta   97.35256195
_cell_angle_gamma   90.00000000
_symmetry_Int_Tables_number   1
_chemical_formula_structural   Sr2Ca2Ti3O10
_chemical_formula_sum   'Sr2 Ca2 Ti3 O10'
_cell_volume   229.90248718
_cell_formula_units_Z   1
loop_
 _symmetry_equiv_pos_site_id
 _symmetry_equiv_pos_as_xyz
  1  'x, y, z'
loop_
 _atom_site_type_symbol
 _atom_site_label
 _atom_site_symmetry_multiplicity
 _atom_site_fract_x
 _atom_site_fract_y
 _atom_site_fract_z
 _atom_site_occupancy
  Sr  Sr0  1  0.29225600  0.29225600  0.58451200  1
  Sr  Sr1  1  0.70774401  0.70774400  0.41548800  1
  Ca  Ca2  1  0.42844401  0.42844400  0.85688799  1
  Ca  Ca3  1  0.57155601  0.57155600  0.14311201  1
  Ti  Ti4  1  0.13990900  0.13990900  0.27981800  1
  Ti  Ti5  1  0.86009101  0.86009100  0.72018200  1
  Ti  Ti6  1  0.00000000  0.00000000  0.00000000  1
  O  O7  1  0.80140601  0.80140600  0.60281200  1
  O  O8  1  0.19859400  0.19859400  0.39718800  1
  O  O9  1  0.37349501  0.87349500  0.74699000  1
  O  O10  1  0.87349501  0.37349500  0.74699000  1
  O  O11  1  0.62650500  0.12650500  0.25301000  1
  O  O12  1  0.12650501  0.62650500  0.25301000  1
  O  O13  1  0.93575201  0.93575201  0.87150400  1
  O  O14  1  0.00000000  0.50000000  0.00000000  1
  O  O15  1  0.50000000  0.00000000  0.00000000  1
  O  O16  1  0.06424800  0.06424800  0.12849600  1
