# generated using pymatgen
data_LiMnO2
_symmetry_space_group_name_H-M   'P 1'
_cell_length_a   5.54641581
_cell_length_b   5.98713589
_cell_length_c   6.04332685
_cell_angle_alpha   60.30710220
_cell_angle_beta   90.00000000
_cell_angle_gamma   90.00000000
_symmetry_Int_Tables_number   1
_chemical_formula_structural   LiMnO2
_chemical_formula_sum   'Li3 Mn3 O6'
_cell_volume   174.33071341
_cell_formula_units_Z   3
loop_
 _symmetry_equiv_pos_site_id
 _symmetry_equiv_pos_as_xyz
  1  'x, y, z'
loop_
 _atom_site_type_symbol
 _atom_site_label
 _atom_site_symmetry_multiplicity
 _atom_site_fract_x
 _atom_site_fract_y
 _atom_site_fract_z
 _atom_site_occupancy
  Li  Li0  1  0.00588500  0.34137400  0.00000001  1
  Li  Li1  1  0.50588502  0.65862600  0.99999999  1
  Mn  Mn2  1  0.00883900  0.66433700  0.32130401  1
  Li  Li3  1  0.00883900  0.98564100  0.67869601  1
  Mn  Mn4  1  0.50883902  0.33566300  0.67869599  1
  Mn  Mn5  1  0.50883902  0.01435900  0.32130399  1
  O  O6  1  0.62966502  0.66696000  0.35019501  1
  O  O7  1  0.62966502  0.01715500  0.64980498  1
  O  O8  1  0.12966500  0.33304000  0.64980499  1
  O  O9  1  0.12966500  0.98284500  0.35019502  1
  O  O10  1  0.62910602  0.32682300  0.00000001  1
  O  O11  1  0.12910600  0.67317700  0.99999999  1
