# generated using pymatgen
data_SiGeH5O11
_symmetry_space_group_name_H-M   'P 1'
_cell_length_a   5.99778414
_cell_length_b   6.10724258
_cell_length_c   7.15729427
_cell_angle_alpha   110.13825989
_cell_angle_beta   114.68470764
_cell_angle_gamma   90.72829437
_symmetry_Int_Tables_number   1
_chemical_formula_structural   SiGeH5O11
_chemical_formula_sum   'Si1 Ge1 H5 O11'
_cell_volume   219.85509989
_cell_formula_units_Z   1
loop_
 _symmetry_equiv_pos_site_id
 _symmetry_equiv_pos_as_xyz
  1  'x, y, z'
loop_
 _atom_site_type_symbol
 _atom_site_label
 _atom_site_symmetry_multiplicity
 _atom_site_fract_x
 _atom_site_fract_y
 _atom_site_fract_z
 _atom_site_occupancy
  Si  Si0  1  0.87370598  0.14350999  0.75120603  1
  Ge  Ge1  1  0.10945198  0.86869496  0.25092499  1
  H  H2  1  0.27298898  0.49760898  0.72661602  1
  H  H3  1  0.55597098  0.66360997  0.87210302  1
  H  H4  1  0.34859598  0.66895797  0.60964801  1
  H  H5  1  0.48937098  0.43870198  0.20068100  1
  H  H6  1  0.65737098  0.31176899  0.37371801  1
  O  O7  1  0.67191698  0.26885099  0.12382401  1
  O  O8  1  0.37547798  0.64340597  0.75453302  1
  O  O9  1  0.64826598  0.38109098  0.25519301  1
  O  O10  1  0.66465198  0.24833799  0.55406002  1
  O  O11  1  0.90666496  0.86042796  0.61220301  1
  O  O12  1  0.81055997  0.69166197  0.06553700  1
  O  O13  1  0.24580297  0.92518896  0.09737199  1
  O  O14  1  0.30476698  0.71808897  0.41156900  1
  O  O15  1  0.08243200  0.14174199  0.42002601  1
  O  O16  1  0.16503599  0.33578399  0.90159503  1
  O  O17  1  0.74609598  0.12656499  0.92863904  1
