# generated using pymatgen
data_K2CSN2
_symmetry_space_group_name_H-M   'P 1'
_cell_length_a   4.14919853
_cell_length_b   4.14919853
_cell_length_c   9.21272373
_cell_angle_alpha   76.98603058
_cell_angle_beta   76.98603058
_cell_angle_gamma   59.99999237
_symmetry_Int_Tables_number   1
_chemical_formula_structural   K2CSN2
_chemical_formula_sum   'K2 C1 S1 N2'
_cell_volume   132.63102731
_cell_formula_units_Z   1
loop_
 _symmetry_equiv_pos_site_id
 _symmetry_equiv_pos_as_xyz
  1  'x, y, z'
loop_
 _atom_site_type_symbol
 _atom_site_label
 _atom_site_symmetry_multiplicity
 _atom_site_fract_x
 _atom_site_fract_y
 _atom_site_fract_z
 _atom_site_occupancy
  K  K0  1  0.75216494  0.75216498  0.74350497  1
  K  K1  1  0.24783498  0.24783499  0.25649499  1
  S  S2  1  0.49999996  0.49999999  0.49999998  1
  N  N3  1  0.00000000  0.00000000  0.00000000  1
  C  C4  1  0.55057796  0.55057799  0.34826599  1
  N  N5  1  0.44942196  0.44942199  0.65173398  1
