# generated using pymatgen
data_Na2Bi2CNO6
_symmetry_space_group_name_H-M   'P 1'
_cell_length_a   3.35736489
_cell_length_b   5.03154325
_cell_length_c   9.78172493
_cell_angle_alpha   90.00000000
_cell_angle_beta   90.00000000
_cell_angle_gamma   97.18544006
_symmetry_Int_Tables_number   1
_chemical_formula_structural   Na2Bi2CNO6
_chemical_formula_sum   'Na2 Bi2 C1 N1 O6'
_cell_volume   163.94229643
_cell_formula_units_Z   1
loop_
 _symmetry_equiv_pos_site_id
 _symmetry_equiv_pos_as_xyz
  1  'x, y, z'
loop_
 _atom_site_type_symbol
 _atom_site_label
 _atom_site_symmetry_multiplicity
 _atom_site_fract_x
 _atom_site_fract_y
 _atom_site_fract_z
 _atom_site_occupancy
  Na  Na0  1  0.23925601  0.20159300  0.56961600  1
  Na  Na1  1  0.76074403  0.79840698  0.06961600  1
  Bi  Bi2  1  0.76074403  0.79840698  0.43038400  1
  Bi  Bi3  1  0.23925601  0.20159300  0.93038401  1
  C  C4  1  0.80976803  0.71736498  0.75000001  1
  N  N5  1  0.19023201  0.28263499  0.25000000  1
  O  O6  1  0.28531701  0.40329099  0.13537000  1
  O  O7  1  0.71468303  0.59670899  0.63537000  1
  O  O8  1  0.00416901  0.96018498  0.75000001  1
  O  O9  1  0.99583103  0.03981500  0.25000000  1
  O  O10  1  0.28531701  0.40329099  0.36463000  1
  O  O11  1  0.71468303  0.59670899  0.86463001  1
