# generated using pymatgen
data_NaLi(AgO3)2
_symmetry_space_group_name_H-M   'P 1'
_cell_length_a   5.30378819
_cell_length_b   5.30378819
_cell_length_c   6.20107269
_cell_angle_alpha   115.31856537
_cell_angle_beta   115.31856537
_cell_angle_gamma   90.00000000
_symmetry_Int_Tables_number   1
_chemical_formula_structural   NaLi(AgO3)2
_chemical_formula_sum   'Na1 Li1 Ag2 O6'
_cell_volume   138.91924728
_cell_formula_units_Z   1
loop_
 _symmetry_equiv_pos_site_id
 _symmetry_equiv_pos_as_xyz
  1  'x, y, z'
loop_
 _atom_site_type_symbol
 _atom_site_label
 _atom_site_symmetry_multiplicity
 _atom_site_fract_x
 _atom_site_fract_y
 _atom_site_fract_z
 _atom_site_occupancy
  Na  Na0  1  0.80056888  0.80056893  0.60113787  1
  Li  Li1  1  0.26832196  0.26832198  0.53664396  1
  Ag  Ag2  1  0.99971789  0.49971796  0.99943589  1
  Ag  Ag3  1  0.49971789  0.99971792  0.99943588  1
  O  O4  1  0.07558899  0.07558899  0.15117799  1
  O  O5  1  0.61946091  0.61946095  0.23892190  1
  O  O6  1  0.61280891  0.61280895  0.72380691  1
  O  O7  1  0.61280895  0.11099799  0.72380695  1
  O  O8  1  0.11099798  0.11099799  0.72380699  1
  O  O9  1  0.11099794  0.61280895  0.72380694  1
