# generated using pymatgen
data_Fe2S3
_symmetry_space_group_name_H-M   'P 1'
_cell_length_a   6.05461311
_cell_length_b   6.20018816
_cell_length_c   8.56173992
_cell_angle_alpha   90.00000000
_cell_angle_beta   90.00000000
_cell_angle_gamma   90.00000000
_symmetry_Int_Tables_number   1
_chemical_formula_structural   Fe2S3
_chemical_formula_sum   'Fe8 S12'
_cell_volume   321.40549522
_cell_formula_units_Z   4
loop_
 _symmetry_equiv_pos_site_id
 _symmetry_equiv_pos_as_xyz
  1  'x, y, z'
loop_
 _atom_site_type_symbol
 _atom_site_label
 _atom_site_symmetry_multiplicity
 _atom_site_fract_x
 _atom_site_fract_y
 _atom_site_fract_z
 _atom_site_occupancy
  Fe  Fe0  1  0.75148299  0.03212000  0.39287200  1
  Fe  Fe1  1  0.75148299  0.46787999  0.60712801  1
  Fe  Fe2  1  0.74851699  0.53211999  0.10712800  1
  Fe  Fe3  1  0.74851699  0.96787998  0.89287201  1
  Fe  Fe4  1  0.24851700  0.96787998  0.60712801  1
  Fe  Fe5  1  0.24851700  0.53211999  0.39287200  1
  Fe  Fe6  1  0.25148300  0.46787999  0.89287201  1
  Fe  Fe7  1  0.25148300  0.03212000  0.10712800  1
  S  S8  1  0.45351199  0.24999999  0.50000000  1
  S  S9  1  0.04648800  0.74999998  0.00000000  1
  S  S10  1  0.54648799  0.74999998  0.50000000  1
  S  S11  1  0.95351198  0.24999999  0.00000000  1
  S  S12  1  0.89037998  0.39328999  0.34886000  1
  S  S13  1  0.89037998  0.10671000  0.65114001  1
  S  S14  1  0.60961999  0.89328998  0.15114000  1
  S  S15  1  0.60961999  0.60670998  0.84886001  1
  S  S16  1  0.39037999  0.39328999  0.15114000  1
  S  S17  1  0.39037999  0.10671000  0.84886001  1
  S  S18  1  0.10962000  0.89328998  0.34886000  1
  S  S19  1  0.10962000  0.60670998  0.65114001  1
