# generated using pymatgen
data_CdAgSe2
_symmetry_space_group_name_H-M   'P 1'
_cell_length_a   6.60644722
_cell_length_b   6.60644722
_cell_length_c   12.99934959
_cell_angle_alpha   90.00000000
_cell_angle_beta   90.00000000
_cell_angle_gamma   90.00000000
_symmetry_Int_Tables_number   1
_chemical_formula_structural   CdAgSe2
_chemical_formula_sum   'Cd4 Ag4 Se8'
_cell_volume   567.35849623
_cell_formula_units_Z   4
loop_
 _symmetry_equiv_pos_site_id
 _symmetry_equiv_pos_as_xyz
  1  'x, y, z'
loop_
 _atom_site_type_symbol
 _atom_site_label
 _atom_site_symmetry_multiplicity
 _atom_site_fract_x
 _atom_site_fract_y
 _atom_site_fract_z
 _atom_site_occupancy
  Cd  Cd0  1  0.49999998  0.49999998  0.50000002  1
  Cd  Cd1  1  0.00000000  0.00000000  0.50000002  1
  Cd  Cd2  1  0.49999998  0.00000000  0.24954401  1
  Cd  Cd3  1  -0.00000000  0.49999998  0.75045602  1
  Ag  Ag4  1  0.49999998  0.49999998  0.00000000  1
  Ag  Ag5  1  -0.00000000  0.49999998  0.24976001  1
  Ag  Ag6  1  0.49999998  0.00000000  0.75024002  1
  Ag  Ag7  1  0.00000000  0.00000000  0.00000000  1
  Se  Se8  1  0.75272397  0.25092299  0.37292801  1
  Se  Se9  1  0.24871499  0.75489497  0.87527203  1
  Se  Se10  1  0.24727599  0.74907698  0.37292801  1
  Se  Se11  1  0.75128497  0.24510499  0.87527203  1
  Se  Se12  1  0.24510499  0.24871499  0.12472800  1
  Se  Se13  1  0.74907698  0.75272397  0.62707202  1
  Se  Se14  1  0.75489497  0.75128497  0.12472800  1
  Se  Se15  1  0.25092299  0.24727599  0.62707202  1
