# generated using pymatgen
data_CsTlAgBr3
_symmetry_space_group_name_H-M   'P 1'
_cell_length_a   4.52230597
_cell_length_b   8.78965569
_cell_length_c   11.84959507
_cell_angle_alpha   90.00000000
_cell_angle_beta   90.00000000
_cell_angle_gamma   104.90704346
_symmetry_Int_Tables_number   1
_chemical_formula_structural   CsTlAgBr3
_chemical_formula_sum   'Cs2 Tl2 Ag2 Br6'
_cell_volume   455.16334131
_cell_formula_units_Z   2
loop_
 _symmetry_equiv_pos_site_id
 _symmetry_equiv_pos_as_xyz
  1  'x, y, z'
loop_
 _atom_site_type_symbol
 _atom_site_label
 _atom_site_symmetry_multiplicity
 _atom_site_fract_x
 _atom_site_fract_y
 _atom_site_fract_z
 _atom_site_occupancy
  Cs  Cs0  1  0.74417099  0.48834199  0.75000000  1
  Cs  Cs1  1  0.25582899  0.51165799  0.25000000  1
  Tl  Tl2  1  0.00000000  0.00000000  0.50000000  1
  Tl  Tl3  1  0.00000000  0.00000000  0.00000000  1
  Ag  Ag4  1  0.45997998  0.91995999  0.75000000  1
  Ag  Ag5  1  0.54002000  0.08004000  0.25000000  1
  Br  Br6  1  0.37816198  0.75632399  0.55867000  1
  Br  Br7  1  0.62183800  0.24367600  0.44133000  1
  Br  Br8  1  0.37816198  0.75632399  0.94132999  1
  Br  Br9  1  0.62183800  0.24367600  0.05867000  1
  Br  Br10  1  0.05800300  0.11600600  0.75000000  1
  Br  Br11  1  0.94199698  0.88399399  0.25000000  1
