# generated using pymatgen
data_NaCO2
_symmetry_space_group_name_H-M   'P 1'
_cell_length_a   3.55141306
_cell_length_b   5.29731512
_cell_length_c   10.60019112
_cell_angle_alpha   90.00000000
_cell_angle_beta   93.73970795
_cell_angle_gamma   90.00000000
_symmetry_Int_Tables_number   1
_chemical_formula_structural   NaCO2
_chemical_formula_sum   'Na4 C4 O8'
_cell_volume   198.99627310
_cell_formula_units_Z   4
loop_
 _symmetry_equiv_pos_site_id
 _symmetry_equiv_pos_as_xyz
  1  'x, y, z'
loop_
 _atom_site_type_symbol
 _atom_site_label
 _atom_site_symmetry_multiplicity
 _atom_site_fract_x
 _atom_site_fract_y
 _atom_site_fract_z
 _atom_site_occupancy
  Na  Na0  1  0.70210299  0.55683199  0.14407100  1
  Na  Na1  1  0.29789699  0.05683200  0.35592901  1
  Na  Na2  1  0.29789699  0.44316799  0.85592903  1
  Na  Na3  1  0.70210299  0.94316798  0.64407101  1
  C  C4  1  0.88672798  0.54390199  0.43698100  1
  C  C5  1  0.11327200  0.04390200  0.06301900  1
  C  C6  1  0.11327200  0.45609799  0.56301902  1
  C  C7  1  0.88672798  0.95609798  0.93698102  1
  O  O8  1  0.83825498  0.11753100  0.84889002  1
  O  O9  1  0.16174500  0.61753099  0.65111002  1
  O  O10  1  0.16174500  0.88246898  0.15111000  1
  O  O11  1  0.83825498  0.38246899  0.34889000  1
  O  O12  1  0.76968899  0.72991598  0.93289602  1
  O  O13  1  0.23031100  0.22991599  0.56710402  1
  O  O14  1  0.23031100  0.27008399  0.06710400  1
  O  O15  1  0.76968899  0.77008398  0.43289601  1
