# generated using pymatgen
data_SnO2
_symmetry_space_group_name_H-M   'P 1'
_cell_length_a   6.55456161
_cell_length_b   8.36400604
_cell_length_c   8.36400604
_cell_angle_alpha   113.43106079
_cell_angle_beta   105.14252472
_cell_angle_gamma   105.14252472
_symmetry_Int_Tables_number   1
_chemical_formula_structural   SnO2
_chemical_formula_sum   'Sn6 O12'
_cell_volume   370.00594103
_cell_formula_units_Z   6
loop_
 _symmetry_equiv_pos_site_id
 _symmetry_equiv_pos_as_xyz
  1  'x, y, z'
loop_
 _atom_site_type_symbol
 _atom_site_label
 _atom_site_symmetry_multiplicity
 _atom_site_fract_x
 _atom_site_fract_y
 _atom_site_fract_z
 _atom_site_occupancy
  Sn  Sn0  1  0.70289197  0.47011697  0.11956897  1
  Sn  Sn1  1  0.58332294  0.88043095  0.35054796  1
  Sn  Sn2  1  0.23277495  0.64945196  0.52988297  1
  Sn  Sn3  1  0.29710796  0.52988297  0.88043095  1
  Sn  Sn4  1  0.41667699  0.11956899  0.64945196  1
  Sn  Sn5  1  0.76722498  0.35054798  0.47011696  1
  O  O6  1  0.38307498  0.24949699  0.29547698  1
  O  O7  1  0.13357800  0.04598000  0.75050297  1
  O  O8  1  0.08759795  0.70452296  0.95401995  1
  O  O9  1  0.61692495  0.75050296  0.70452295  1
  O  O10  1  0.86642194  0.95401995  0.24949695  1
  O  O11  1  0.91240198  0.29547698  0.04597997  1
  O  O12  1  0.87070997  0.56099497  0.40241895  1
  O  O13  1  0.46829096  0.59758097  0.15857597  1
  O  O14  1  0.30971494  0.84142395  0.43900496  1
  O  O15  1  0.12928997  0.43900498  0.59758097  1
  O  O16  1  0.53170897  0.40241898  0.84142395  1
  O  O17  1  0.69028499  0.15857599  0.56099496  1
