# generated using pymatgen
data_Tl2O3
_symmetry_space_group_name_H-M   'P 1'
_cell_length_a   6.61652231
_cell_length_b   6.72070599
_cell_length_c   6.72070599
_cell_angle_alpha   61.60382080
_cell_angle_beta   61.39294434
_cell_angle_gamma   61.39294434
_symmetry_Int_Tables_number   1
_chemical_formula_structural   Tl2O3
_chemical_formula_sum   'Tl4 O6'
_cell_volume   218.26289098
_cell_formula_units_Z   2
loop_
 _symmetry_equiv_pos_site_id
 _symmetry_equiv_pos_as_xyz
  1  'x, y, z'
loop_
 _atom_site_type_symbol
 _atom_site_label
 _atom_site_symmetry_multiplicity
 _atom_site_fract_x
 _atom_site_fract_y
 _atom_site_fract_z
 _atom_site_occupancy
  Tl  Tl0  1  0.23965700  0.71608299  0.21234898  1
  Tl  Tl1  1  0.73965701  0.21234900  0.71608297  1
  Tl  Tl2  1  0.98432401  0.44420299  0.95309396  1
  Tl  Tl3  1  0.48432401  0.95309399  0.44420296  1
  O  O4  1  0.19551900  0.11667300  0.79436698  1
  O  O5  1  0.83009201  0.64440199  0.62940396  1
  O  O6  1  0.33009201  0.62940399  0.64440197  1
  O  O7  1  0.69551901  0.79436699  0.11667297  1
  O  O8  1  0.64221401  0.30141100  0.14744599  1
  O  O9  1  0.14221400  0.14744600  0.30141099  1
