# generated using pymatgen
data_NaLi3Cl4
_symmetry_space_group_name_H-M   'P 1'
_cell_length_a   5.35077000
_cell_length_b   5.35077000
_cell_length_c   7.09650230
_cell_angle_alpha   112.14801025
_cell_angle_beta   112.14801025
_cell_angle_gamma   90.00000000
_symmetry_Int_Tables_number   1
_chemical_formula_structural   NaLi3Cl4
_chemical_formula_sum   'Na1 Li3 Cl4'
_cell_volume   171.89171131
_cell_formula_units_Z   1
loop_
 _symmetry_equiv_pos_site_id
 _symmetry_equiv_pos_as_xyz
  1  'x, y, z'
loop_
 _atom_site_type_symbol
 _atom_site_label
 _atom_site_symmetry_multiplicity
 _atom_site_fract_x
 _atom_site_fract_y
 _atom_site_fract_z
 _atom_site_occupancy
  Li  Li0  1  0.00000000  0.00000000  0.00000000  1
  Li  Li1  1  0.75000000  0.25000000  0.50000002  1
  Li  Li2  1  0.50000000  0.50000000  0.00000000  1
  Na  Na3  1  0.25000000  0.75000000  0.50000002  1
  Cl  Cl4  1  0.77611800  0.77611800  0.55223602  1
  Cl  Cl5  1  0.22388200  0.22388200  0.44776401  1
  Cl  Cl6  1  0.97388200  0.47388200  0.94776403  1
  Cl  Cl7  1  0.52611800  0.02611800  0.05223600  1
