# generated using pymatgen
data_GaCu(HO)6
_symmetry_space_group_name_H-M   'P 1'
_cell_length_a   4.95956182
_cell_length_b   5.14807987
_cell_length_c   5.19558477
_cell_angle_alpha   103.44678497
_cell_angle_beta   98.72321320
_cell_angle_gamma   118.00210571
_symmetry_Int_Tables_number   1
_chemical_formula_structural   GaCu(HO)6
_chemical_formula_sum   'Ga1 Cu1 H6 O6'
_cell_volume   108.53177750
_cell_formula_units_Z   1
loop_
 _symmetry_equiv_pos_site_id
 _symmetry_equiv_pos_as_xyz
  1  'x, y, z'
loop_
 _atom_site_type_symbol
 _atom_site_label
 _atom_site_symmetry_multiplicity
 _atom_site_fract_x
 _atom_site_fract_y
 _atom_site_fract_z
 _atom_site_occupancy
  Cu  Cu0  1  0.84787307  0.68849002  0.00174402  1
  Ga  Ga1  1  0.17023502  0.33083901  0.99935402  1
  H  H2  1  0.52211707  0.87968102  0.21573402  1
  H  H3  1  0.28791802  0.17848700  0.41843701  1
  H  H4  1  0.07921503  0.55447002  0.61481101  1
  H  H5  1  0.75406505  0.31981901  0.23770502  1
  H  H6  1  0.46977802  0.11846900  0.77345002  1
  H  H7  1  0.72454407  0.84494302  0.59189103  1
  O  O8  1  0.43826803  0.29425001  0.78381102  1
  O  O9  1  0.95840606  0.47876001  0.22822203  1
  O  O10  1  0.06533603  0.54896102  0.79986101  1
  O  O11  1  0.23128701  0.09466500  0.21278801  1
  O  O12  1  0.57810506  0.72260502  0.22513002  1
  O  O13  1  0.79795208  0.92856103  0.79826303  1
