# generated using pymatgen
data_CuAgAs(HO2)5
_symmetry_space_group_name_H-M   'P 1'
_cell_length_a   5.71643591
_cell_length_b   6.18258286
_cell_length_c   7.31323290
_cell_angle_alpha   110.03739929
_cell_angle_beta   91.54361725
_cell_angle_gamma   116.02018738
_symmetry_Int_Tables_number   1
_chemical_formula_structural   CuAgAs(HO2)5
_chemical_formula_sum   'Cu1 Ag1 As1 H5 O10'
_cell_volume   213.34573708
_cell_formula_units_Z   1
loop_
 _symmetry_equiv_pos_site_id
 _symmetry_equiv_pos_as_xyz
  1  'x, y, z'
loop_
 _atom_site_type_symbol
 _atom_site_label
 _atom_site_symmetry_multiplicity
 _atom_site_fract_x
 _atom_site_fract_y
 _atom_site_fract_z
 _atom_site_occupancy
  Cu  Cu0  1  0.00000000  0.00000000  0.00000000  1
  Ag  Ag1  1  0.63620802  0.23425900  0.31633097  1
  H  H2  1  0.36379199  0.76574100  0.68366896  1
  As  As3  1  0.00000000  0.00000000  0.50000000  1
  H  H4  1  0.23094100  0.48314600  0.95791898  1
  H  H5  1  0.72371401  0.45443500  0.80151996  1
  H  H6  1  0.76905901  0.51685400  0.04208095  1
  H  H7  1  0.27628599  0.54556500  0.19847997  1
  O  O8  1  0.82671403  0.07715700  0.25181997  1
  O  O9  1  0.32114401  0.04186500  0.17951499  1
  O  O10  1  0.67885600  0.95813500  0.82048494  1
  O  O11  1  0.77404701  0.50770400  0.27950395  1
  O  O12  1  0.62474401  0.30159000  0.55027597  1
  O  O13  1  0.20455700  0.40832400  0.06071898  1
  O  O14  1  0.79544301  0.59167600  0.93928095  1
  O  O15  1  0.17328598  0.92284300  0.74817997  1
  O  O16  1  0.22595299  0.49229600  0.72049598  1
  O  O17  1  0.37525599  0.69841000  0.44972396  1
