# generated using pymatgen
data_In2S3
_symmetry_space_group_name_H-M   'P 1'
_cell_length_a   6.74112892
_cell_length_b   6.74112892
_cell_length_c   7.21333790
_cell_angle_alpha   62.14287186
_cell_angle_beta   62.14287186
_cell_angle_gamma   59.99999237
_symmetry_Int_Tables_number   1
_chemical_formula_structural   In2S3
_chemical_formula_sum   'In4 S6'
_cell_volume   239.01139567
_cell_formula_units_Z   2
loop_
 _symmetry_equiv_pos_site_id
 _symmetry_equiv_pos_as_xyz
  1  'x, y, z'
loop_
 _atom_site_type_symbol
 _atom_site_label
 _atom_site_symmetry_multiplicity
 _atom_site_fract_x
 _atom_site_fract_y
 _atom_site_fract_z
 _atom_site_occupancy
  In  In0  1  0.84894102  0.84894099  0.45317698  1
  In  In1  1  0.65105901  0.65105899  0.04682298  1
  In  In2  1  0.15105900  0.15105900  0.54682300  1
  In  In3  1  0.34894101  0.34894100  0.95317699  1
  S  S4  1  0.05344402  0.74999999  0.74999999  1
  S  S5  1  0.75000001  0.44655599  0.74999998  1
  S  S6  1  0.44655600  0.05344400  0.74999999  1
  S  S7  1  0.94655600  0.25000000  0.24999998  1
  S  S8  1  0.55344402  0.94655599  0.24999998  1
  S  S9  1  0.25000001  0.55344399  0.24999999  1
