# generated using pymatgen
data_Li3Mn(CoO3)2
_symmetry_space_group_name_H-M   'P 1'
_cell_length_a   3.07575488
_cell_length_b   5.13084126
_cell_length_c   7.64248276
_cell_angle_alpha   76.21343994
_cell_angle_beta   82.17592621
_cell_angle_gamma   77.27291107
_symmetry_Int_Tables_number   1
_chemical_formula_structural   Li3Mn(CoO3)2
_chemical_formula_sum   'Li3 Mn1 Co2 O6'
_cell_volume   113.80894746
_cell_formula_units_Z   1
loop_
 _symmetry_equiv_pos_site_id
 _symmetry_equiv_pos_as_xyz
  1  'x, y, z'
loop_
 _atom_site_type_symbol
 _atom_site_label
 _atom_site_symmetry_multiplicity
 _atom_site_fract_x
 _atom_site_fract_y
 _atom_site_fract_z
 _atom_site_occupancy
  Li  Li0  1  0.34980598  0.49090900  0.83400801  1
  Li  Li1  1  -0.00000004  0.50000000  0.50000000  1
  Li  Li2  1  0.65019399  0.50909100  0.16599198  1
  Mn  Mn3  1  0.65443203  0.00202800  0.66866701  1
  Co  Co4  1  0.34556793  0.99797200  0.33133298  1
  Co  Co5  1  0.00000000  0.00000000  0.00000000  1
  O  O6  1  0.62524896  0.77781200  0.91218500  1
  O  O7  1  0.35320195  0.76918900  0.57534999  1
  O  O8  1  0.03687694  0.76409600  0.23966498  1
  O  O9  1  0.96312302  0.23590400  0.76033500  1
  O  O10  1  0.64679801  0.23081100  0.42465000  1
  O  O11  1  0.37475100  0.22218800  0.08781499  1
