# generated using pymatgen
data_BaLiNb2WO7
_symmetry_space_group_name_H-M   'P 1'
_cell_length_a   4.07030344
_cell_length_b   4.07030344
_cell_length_c   11.10746193
_cell_angle_alpha   100.51737976
_cell_angle_beta   100.51737976
_cell_angle_gamma   90.21579742
_symmetry_Int_Tables_number   1
_chemical_formula_structural   BaLiNb2WO7
_chemical_formula_sum   'Ba1 Li1 Nb2 W1 O7'
_cell_volume   177.75914875
_cell_formula_units_Z   1
loop_
 _symmetry_equiv_pos_site_id
 _symmetry_equiv_pos_as_xyz
  1  'x, y, z'
loop_
 _atom_site_type_symbol
 _atom_site_label
 _atom_site_symmetry_multiplicity
 _atom_site_fract_x
 _atom_site_fract_y
 _atom_site_fract_z
 _atom_site_occupancy
  Li  Li0  1  0.56239100  0.07209300  0.63448400  1
  Ba  Ba1  1  0.74348200  0.25651800  0.00000001  1
  Nb  Nb2  1  0.92790701  0.43760899  0.36551601  1
  Nb  Nb3  1  0.13473804  0.67559999  0.81033800  1
  W  W4  1  0.32440005  0.86526199  0.18966201  1
  O  O5  1  0.06868803  0.55985199  0.62854000  1
  O  O6  1  0.15823201  0.14248300  0.81179899  1
  O  O7  1  0.85751704  0.84176799  0.18820102  1
  O  O8  1  0.34643301  0.33068399  0.18820100  1
  O  O9  1  0.66931603  0.65356699  0.81179900  1
  O  O10  1  0.25535104  0.74464899  0.00000001  1
  O  O11  1  0.44014805  0.93131199  0.37146001  1
