# generated using pymatgen
data_BiW4SeS12
_symmetry_space_group_name_H-M   'P 1'
_cell_length_a   8.62240124
_cell_length_b   8.62240124
_cell_length_c   8.62240124
_cell_angle_alpha   108.01460266
_cell_angle_beta   108.01460266
_cell_angle_gamma   108.01461029
_symmetry_Int_Tables_number   1
_chemical_formula_structural   BiW4SeS12
_chemical_formula_sum   'Bi1 W4 Se1 S12'
_cell_volume   518.37845463
_cell_formula_units_Z   1
loop_
 _symmetry_equiv_pos_site_id
 _symmetry_equiv_pos_as_xyz
  1  'x, y, z'
loop_
 _atom_site_type_symbol
 _atom_site_label
 _atom_site_symmetry_multiplicity
 _atom_site_fract_x
 _atom_site_fract_y
 _atom_site_fract_z
 _atom_site_occupancy
  Bi  Bi0  1  0.30688199  0.05607900  0.08238398  1
  W  W1  1  0.05607900  0.08238400  0.30688200  1
  W  W2  1  0.08238400  0.30688199  0.05607898  1
  W  W3  1  0.69311800  0.94392098  0.91761594  1
  W  W4  1  0.94392099  0.91761598  0.69311792  1
  Se  Se5  1  0.91761599  0.69311799  0.94392094  1
  S  S6  1  0.24863401  0.97389398  0.77748396  1
  S  S7  1  0.97389399  0.77748398  0.24863392  1
  S  S8  1  0.77748398  0.24863399  0.97389396  1
  S  S9  1  0.75136598  0.02610600  0.22251596  1
  S  S10  1  0.02610600  0.22251600  0.75136600  1
  S  S11  1  0.22251601  0.75136598  0.02610596  1
  S  S12  1  0.86384799  0.61498499  0.64101394  1
  S  S13  1  0.64101400  0.86384798  0.61498494  1
  S  S14  1  0.61498500  0.64101399  0.86384795  1
  S  S15  1  0.13615200  0.38501499  0.35898598  1
  S  S16  1  0.35898599  0.13615200  0.38501498  1
  S  S17  1  0.38501500  0.35898599  0.13615197  1
