# generated using pymatgen
data_NaUSbF8
_symmetry_space_group_name_H-M   'P 1'
_cell_length_a   4.33404398
_cell_length_b   6.39332581
_cell_length_c   6.39332581
_cell_angle_alpha   112.75347900
_cell_angle_beta   95.21443939
_cell_angle_gamma   95.21443939
_symmetry_Int_Tables_number   1
_chemical_formula_structural   NaUSbF8
_chemical_formula_sum   'Na1 U1 Sb1 F8'
_cell_volume   161.15048838
_cell_formula_units_Z   1
loop_
 _symmetry_equiv_pos_site_id
 _symmetry_equiv_pos_as_xyz
  1  'x, y, z'
loop_
 _atom_site_type_symbol
 _atom_site_label
 _atom_site_symmetry_multiplicity
 _atom_site_fract_x
 _atom_site_fract_y
 _atom_site_fract_z
 _atom_site_occupancy
  Na  Na0  1  0.50000001  0.00000000  -0.00000000  1
  U  U1  1  1.00000002  0.32583300  0.67416699  1
  Sb  Sb2  1  1.00000001  0.67416699  0.32583299  1
  F  F3  1  0.93597001  0.67263999  0.95088298  1
  F  F4  1  0.93597001  0.95088299  0.67263999  1
  F  F5  1  0.27462000  0.60880099  0.60880099  1
  F  F6  1  0.50000000  0.74216699  0.25783300  1
  F  F7  1  0.50000001  0.25783300  0.74216699  1
  F  F8  1  0.72538001  0.39119899  0.39119899  1
  F  F9  1  0.06403000  0.04911700  0.32735999  1
  F  F10  1  0.06403000  0.32736000  0.04911700  1
