# generated using pymatgen
data_Tl
_symmetry_space_group_name_H-M   'P 1'
_cell_length_a   5.75123119
_cell_length_b   5.89722204
_cell_length_c   20.19171143
_cell_angle_alpha   89.85095215
_cell_angle_beta   90.00000000
_cell_angle_gamma   90.00000000
_symmetry_Int_Tables_number   1
_chemical_formula_structural   Tl
_chemical_formula_sum   Tl6
_cell_volume   684.82556991
_cell_formula_units_Z   6
loop_
 _symmetry_equiv_pos_site_id
 _symmetry_equiv_pos_as_xyz
  1  'x, y, z'
loop_
 _atom_site_type_symbol
 _atom_site_label
 _atom_site_symmetry_multiplicity
 _atom_site_fract_x
 _atom_site_fract_y
 _atom_site_fract_z
 _atom_site_occupancy
  Tl  Tl0  1  -0.00000000  0.50000000  0.00000001  1
  Tl  Tl1  1  0.49999998  0.00000000  -0.00000000  1
  Tl  Tl2  1  0.61035098  0.61808500  0.96252605  1
  Tl  Tl3  1  0.88964897  0.11808500  0.96252604  1
  Tl  Tl4  1  0.38964899  0.38191500  0.03747401  1
  Tl  Tl5  1  0.11035100  0.88191499  0.03747401  1
