# generated using pymatgen
data_ZnIn(CoO2)4
_symmetry_space_group_name_H-M   'P 1'
_cell_length_a   6.18629503
_cell_length_b   6.18629503
_cell_length_c   6.18629503
_cell_angle_alpha   60.00000000
_cell_angle_beta   60.00000000
_cell_angle_gamma   60.00000000
_symmetry_Int_Tables_number   1
_chemical_formula_structural   ZnIn(CoO2)4
_chemical_formula_sum   'Zn1 In1 Co4 O8'
_cell_volume   167.40826169
_cell_formula_units_Z   1
loop_
 _symmetry_equiv_pos_site_id
 _symmetry_equiv_pos_as_xyz
  1  'x, y, z'
loop_
 _atom_site_type_symbol
 _atom_site_label
 _atom_site_symmetry_multiplicity
 _atom_site_fract_x
 _atom_site_fract_y
 _atom_site_fract_z
 _atom_site_occupancy
  Zn  Zn0  1  0.24999999  0.24999999  0.24999999  1
  In  In1  1  0.49999998  0.49999998  0.49999998  1
  Co  Co2  1  0.37499999  0.87499997  0.87499997  1
  Co  Co3  1  0.87499997  0.87499997  0.37499999  1
  Co  Co4  1  0.87499997  0.37499999  0.87499997  1
  Co  Co5  1  0.87499997  0.87499997  0.87499997  1
  O  O6  1  0.10689300  0.10689200  0.10689200  1
  O  O7  1  0.64310698  0.07067700  0.64310798  1
  O  O8  1  0.07067600  0.64310798  0.64310798  1
  O  O9  1  0.64310698  0.64310798  0.07067700  1
  O  O10  1  0.67932397  0.10689200  0.10689200  1
  O  O11  1  0.10689300  0.10689200  0.67932297  1
  O  O12  1  0.64310698  0.64310798  0.64310798  1
  O  O13  1  0.10689300  0.67932297  0.10689200  1
