# generated using pymatgen
data_AgS
_symmetry_space_group_name_H-M   'P 1'
_cell_length_a   6.88365602
_cell_length_b   7.25486994
_cell_length_c   8.22703838
_cell_angle_alpha   90.00000000
_cell_angle_beta   90.00000000
_cell_angle_gamma   90.00000000
_symmetry_Int_Tables_number   1
_chemical_formula_structural   AgS
_chemical_formula_sum   'Ag8 S8'
_cell_volume   410.85853676
_cell_formula_units_Z   8
loop_
 _symmetry_equiv_pos_site_id
 _symmetry_equiv_pos_as_xyz
  1  'x, y, z'
loop_
 _atom_site_type_symbol
 _atom_site_label
 _atom_site_symmetry_multiplicity
 _atom_site_fract_x
 _atom_site_fract_y
 _atom_site_fract_z
 _atom_site_occupancy
  Ag  Ag0  1  0.51512700  0.82700501  0.75310896  1
  Ag  Ag1  1  0.01512700  0.17299500  0.74689097  1
  Ag  Ag2  1  0.01512700  0.17299500  0.25310899  1
  Ag  Ag3  1  0.51512700  0.82700501  0.24689099  1
  Ag  Ag4  1  0.99835500  0.66866401  0.00000000  1
  Ag  Ag5  1  0.49835500  0.33133600  0.49999998  1
  Ag  Ag6  1  0.51205200  0.35030900  0.00000000  1
  Ag  Ag7  1  0.01205200  0.64969101  0.49999998  1
  S  S8  1  0.88642700  0.34884400  0.00000000  1
  S  S9  1  0.38642700  0.65115601  0.49999998  1
  S  S10  1  0.88542100  0.83499101  0.75817696  1
  S  S11  1  0.38542100  0.16500900  0.74182297  1
  S  S12  1  0.38542100  0.16500900  0.25817699  1
  S  S13  1  0.88542100  0.83499101  0.24182299  1
  S  S14  1  0.35457000  0.67453901  0.00000000  1
  S  S15  1  0.85457000  0.32546100  0.49999998  1
