# generated using pymatgen
data_LiCa3V2O8
_symmetry_space_group_name_H-M   'P 1'
_cell_length_a   3.05066490
_cell_length_b   5.13478231
_cell_length_c   12.69088936
_cell_angle_alpha   90.00000000
_cell_angle_beta   90.00000000
_cell_angle_gamma   93.35093689
_symmetry_Int_Tables_number   1
_chemical_formula_structural   LiCa3V2O8
_chemical_formula_sum   'Li1 Ca3 V2 O8'
_cell_volume   198.45654584
_cell_formula_units_Z   1
loop_
 _symmetry_equiv_pos_site_id
 _symmetry_equiv_pos_as_xyz
  1  'x, y, z'
loop_
 _atom_site_type_symbol
 _atom_site_label
 _atom_site_symmetry_multiplicity
 _atom_site_fract_x
 _atom_site_fract_y
 _atom_site_fract_z
 _atom_site_occupancy
  Ca  Ca0  1  0.02733699  0.66900799  0.74999998  1
  Ca  Ca1  1  0.97266303  0.33099199  0.24999999  1
  Li  Li2  1  0.50000001  0.49999999  0.00000000  1
  Ca  Ca3  1  0.50000001  0.49999999  0.49999999  1
  V  V4  1  -0.00000000  0.00000000  0.49999999  1
  V  V5  1  0.00000000  0.00000000  0.00000000  1
  O  O6  1  0.54618001  0.81569298  0.58275598  1
  O  O7  1  0.54618001  0.81569298  0.91724397  1
  O  O8  1  0.01254599  0.65927899  0.42269699  1
  O  O9  1  0.01254599  0.65927899  0.07730300  1
  O  O10  1  0.45382001  0.18430700  0.08275600  1
  O  O11  1  0.45382001  0.18430700  0.41724399  1
  O  O12  1  0.98745403  0.34072099  0.57730298  1
  O  O13  1  0.98745403  0.34072099  0.92269697  1
