# generated using pymatgen
data_LaAsO2
_symmetry_space_group_name_H-M   'P 1'
_cell_length_a   5.79158592
_cell_length_b   5.84430695
_cell_length_c   5.89129066
_cell_angle_alpha   90.00000000
_cell_angle_beta   67.61398315
_cell_angle_gamma   90.00000000
_symmetry_Int_Tables_number   1
_chemical_formula_structural   LaAsO2
_chemical_formula_sum   'La3 As3 O6'
_cell_volume   184.37973323
_cell_formula_units_Z   3
loop_
 _symmetry_equiv_pos_site_id
 _symmetry_equiv_pos_as_xyz
  1  'x, y, z'
loop_
 _atom_site_type_symbol
 _atom_site_label
 _atom_site_symmetry_multiplicity
 _atom_site_fract_x
 _atom_site_fract_y
 _atom_site_fract_z
 _atom_site_occupancy
  As  As0  1  0.16036100  0.87944201  0.13234300  1
  La  La1  1  0.83963901  0.37944200  0.36765700  1
  La  La2  1  0.83963901  0.12055800  0.86765699  1
  La  La3  1  0.16036100  0.62055801  0.63234299  1
  As  As4  1  0.33388400  0.37738600  0.81186399  1
  As  As5  1  0.66611601  0.87738601  0.68813599  1
  O  O6  1  0.66611601  0.62261401  0.18813600  1
  O  O7  1  0.33388400  0.12261400  0.31186400  1
  O  O8  1  0.27170500  0.49871700  0.20997200  1
  O  O9  1  0.72829501  0.99871701  0.29002800  1
  O  O10  1  0.72829501  0.50128300  0.79002799  1
  O  O11  1  0.27170500  0.00128300  0.70997199  1
