# generated using pymatgen
data_AgO
_symmetry_space_group_name_H-M   'P 1'
_cell_length_a   3.54511189
_cell_length_b   5.12676191
_cell_length_c   9.16939068
_cell_angle_alpha   96.36840057
_cell_angle_beta   90.00000000
_cell_angle_gamma   90.00000000
_symmetry_Int_Tables_number   1
_chemical_formula_structural   AgO
_chemical_formula_sum   'Ag4 O4'
_cell_volume   165.62479204
_cell_formula_units_Z   4
loop_
 _symmetry_equiv_pos_site_id
 _symmetry_equiv_pos_as_xyz
  1  'x, y, z'
loop_
 _atom_site_type_symbol
 _atom_site_label
 _atom_site_symmetry_multiplicity
 _atom_site_fract_x
 _atom_site_fract_y
 _atom_site_fract_z
 _atom_site_occupancy
  Ag  Ag0  1  0.75000002  0.27722401  0.64760698  1
  Ag  Ag1  1  0.25000001  0.72106702  0.34792297  1
  Ag  Ag2  1  0.25000001  0.51879202  0.82290198  1
  Ag  Ag3  1  0.75000002  0.49015802  0.18734898  1
  O  O4  1  0.25000001  0.11593300  0.82717499  1
  O  O5  1  0.75000002  0.88488803  0.18440197  1
  O  O6  1  0.25000001  0.23515601  0.44014199  1
  O  O7  1  0.75000002  0.75678203  0.54249997  1
