# generated using pymatgen
data_LiV3O8
_symmetry_space_group_name_H-M   'P 1'
_cell_length_a   5.20817423
_cell_length_b   5.23217249
_cell_length_c   6.45961618
_cell_angle_alpha   101.03263092
_cell_angle_beta   113.77420807
_cell_angle_gamma   90.00000000
_symmetry_Int_Tables_number   1
_chemical_formula_structural   LiV3O8
_chemical_formula_sum   'Li1 V3 O8'
_cell_volume   157.52629156
_cell_formula_units_Z   1
loop_
 _symmetry_equiv_pos_site_id
 _symmetry_equiv_pos_as_xyz
  1  'x, y, z'
loop_
 _atom_site_type_symbol
 _atom_site_label
 _atom_site_symmetry_multiplicity
 _atom_site_fract_x
 _atom_site_fract_y
 _atom_site_fract_z
 _atom_site_occupancy
  V  V0  1  0.90361795  0.25000001  -0.00000002  1
  Li  Li1  1  0.09638198  0.75000003  -0.00000002  1
  V  V2  1  0.49999997  0.50000002  0.49999997  1
  V  V3  1  -0.00000002  1.00000004  0.49999997  1
  O  O4  1  0.03794000  0.00827300  0.81215999  1
  O  O5  1  0.37520597  0.83669003  0.59763396  1
  O  O6  1  0.77421995  0.50827302  0.81215996  1
  O  O7  1  0.22242798  0.33669001  0.59763398  1
  O  O8  1  0.62479396  0.16331001  0.40236598  1
  O  O9  1  0.96205993  0.99172704  0.18783996  1
  O  O10  1  0.77757195  0.66331002  0.40236596  1
  O  O11  1  0.22577998  0.49172702  0.18783998  1
