# generated using pymatgen
data_CaVO4
_symmetry_space_group_name_H-M   'P 1'
_cell_length_a   5.09907389
_cell_length_b   5.09907389
_cell_length_c   6.79090834
_cell_angle_alpha   112.05113220
_cell_angle_beta   112.05113220
_cell_angle_gamma   90.00000000
_symmetry_Int_Tables_number   1
_chemical_formula_structural   CaVO4
_chemical_formula_sum   'Ca2 V2 O8'
_cell_volume   149.62445349
_cell_formula_units_Z   2
loop_
 _symmetry_equiv_pos_site_id
 _symmetry_equiv_pos_as_xyz
  1  'x, y, z'
loop_
 _atom_site_type_symbol
 _atom_site_label
 _atom_site_symmetry_multiplicity
 _atom_site_fract_x
 _atom_site_fract_y
 _atom_site_fract_z
 _atom_site_occupancy
  Ca  Ca0  1  0.50000002  0.50000002  0.00000001  1
  Ca  Ca1  1  0.25000002  0.75000002  0.50000001  1
  V  V2  1  0.00000000  0.00000000  0.00000000  1
  V  V3  1  0.75000002  0.25000001  0.50000001  1
  O  O4  1  0.67153503  0.77550102  0.84363402  1
  O  O5  1  0.57790102  0.18186701  0.65636601  1
  O  O6  1  0.22449902  0.82790103  0.15636602  1
  O  O7  1  0.81813304  0.92153503  0.34363402  1
  O  O8  1  0.93186703  0.32846501  0.15636602  1
  O  O9  1  0.52550102  0.42209901  0.34363401  1
  O  O10  1  0.07846501  0.47449901  0.65636601  1
  O  O11  1  0.17209901  0.06813300  0.84363400  1
