# generated using pymatgen
data_Li2AgF6
_symmetry_space_group_name_H-M   'P 1'
_cell_length_a   3.65814805
_cell_length_b   5.36519051
_cell_length_c   7.22041035
_cell_angle_alpha   102.09043884
_cell_angle_beta   90.00000000
_cell_angle_gamma   109.93263245
_symmetry_Int_Tables_number   1
_chemical_formula_structural   Li2AgF6
_chemical_formula_sum   'Li2 Ag1 F6'
_cell_volume   129.87437989
_cell_formula_units_Z   1
loop_
 _symmetry_equiv_pos_site_id
 _symmetry_equiv_pos_as_xyz
  1  'x, y, z'
loop_
 _atom_site_type_symbol
 _atom_site_label
 _atom_site_symmetry_multiplicity
 _atom_site_fract_x
 _atom_site_fract_y
 _atom_site_fract_z
 _atom_site_occupancy
  Li  Li0  1  0.23321601  0.46643200  0.67219699  1
  Li  Li1  1  0.76678400  0.53356800  0.32780300  1
  Ag  Ag2  1  0.00000000  0.00000000  0.00000000  1
  F  F3  1  0.08352300  0.16704600  0.73421399  1
  F  F4  1  0.25233101  0.50466200  0.39890199  1
  F  F5  1  0.74766900  0.49533800  0.60109799  1
  F  F6  1  0.36094001  0.72188000  0.87407499  1
  F  F7  1  0.63906000  0.27812000  0.12592500  1
  F  F8  1  0.91647701  0.83295400  0.26578600  1
