# generated using pymatgen
data_MgAlCrFe2O5
_symmetry_space_group_name_H-M   'P 1'
_cell_length_a   4.05426598
_cell_length_b   5.20546961
_cell_length_c   5.20546961
_cell_angle_alpha   81.27739716
_cell_angle_beta   67.08135986
_cell_angle_gamma   67.08135986
_symmetry_Int_Tables_number   1
_chemical_formula_structural   MgAlCrFe2O5
_chemical_formula_sum   'Mg1 Al1 Cr1 Fe2 O5'
_cell_volume   93.19803254
_cell_formula_units_Z   1
loop_
 _symmetry_equiv_pos_site_id
 _symmetry_equiv_pos_as_xyz
  1  'x, y, z'
loop_
 _atom_site_type_symbol
 _atom_site_label
 _atom_site_symmetry_multiplicity
 _atom_site_fract_x
 _atom_site_fract_y
 _atom_site_fract_z
 _atom_site_occupancy
  Fe  Fe0  1  0.18492801  0.21032399  0.42103200  1
  Mg  Mg1  1  0.39525202  0.42103198  0.78967600  1
  Fe  Fe2  1  0.60596003  0.57896798  0.21032403  1
  Al  Al3  1  0.81628404  0.78967597  0.57896803  1
  Cr  Cr4  1  0.98645699  0.00000000  1.00000002  1
  O  O5  1  0.73155800  0.18665399  0.35637702  1
  O  O6  1  0.91821201  0.35637698  0.81334502  1
  O  O7  1  0.08793404  0.64362297  0.18665501  1
  O  O8  1  0.27458805  0.81334597  0.64362301  1
  O  O9  1  0.50140899  0.00000000  1.00000000  1
