# generated using pymatgen
data_MgAl5O8
_symmetry_space_group_name_H-M   'P 1'
_cell_length_a   5.77758121
_cell_length_b   5.77758121
_cell_length_c   5.77758121
_cell_angle_alpha   60.00000000
_cell_angle_beta   60.00000000
_cell_angle_gamma   60.00000000
_symmetry_Int_Tables_number   1
_chemical_formula_structural   MgAl5O8
_chemical_formula_sum   'Mg1 Al5 O8'
_cell_volume   136.37136239
_cell_formula_units_Z   1
loop_
 _symmetry_equiv_pos_site_id
 _symmetry_equiv_pos_as_xyz
  1  'x, y, z'
loop_
 _atom_site_type_symbol
 _atom_site_label
 _atom_site_symmetry_multiplicity
 _atom_site_fract_x
 _atom_site_fract_y
 _atom_site_fract_z
 _atom_site_occupancy
  Al  Al0  1  0.25000001  0.25000001  0.25000001  1
  Mg  Mg1  1  0.50000002  0.50000002  0.50000002  1
  Al  Al2  1  0.87500003  0.87500003  0.37500001  1
  Al  Al3  1  0.37500001  0.87500003  0.87500003  1
  Al  Al4  1  0.87500003  0.87500003  0.87500003  1
  Al  Al5  1  0.87500003  0.37500001  0.87500003  1
  O  O6  1  0.08411300  0.63862902  0.63862902  1
  O  O7  1  0.11137200  0.11137100  0.66588602  1
  O  O8  1  0.11137200  0.66588602  0.11137100  1
  O  O9  1  0.11137200  0.11137100  0.11137100  1
  O  O10  1  0.63862802  0.08411400  0.63862902  1
  O  O11  1  0.63862802  0.63862902  0.63862902  1
  O  O12  1  0.66588702  0.11137100  0.11137100  1
  O  O13  1  0.63862802  0.63862902  0.08411400  1
