# generated using pymatgen
data_BaSr2La2Bi3NO11
_symmetry_space_group_name_H-M   'P 1'
_cell_length_a   6.67234707
_cell_length_b   6.67234707
_cell_length_c   8.66226196
_cell_angle_alpha   90.00000000
_cell_angle_beta   90.00000000
_cell_angle_gamma   116.80564117
_symmetry_Int_Tables_number   1
_chemical_formula_structural   BaSr2La2Bi3NO11
_chemical_formula_sum   'Ba1 Sr2 La2 Bi3 N1 O11'
_cell_volume   344.20482262
_cell_formula_units_Z   1
loop_
 _symmetry_equiv_pos_site_id
 _symmetry_equiv_pos_as_xyz
  1  'x, y, z'
loop_
 _atom_site_type_symbol
 _atom_site_label
 _atom_site_symmetry_multiplicity
 _atom_site_fract_x
 _atom_site_fract_y
 _atom_site_fract_z
 _atom_site_occupancy
  Sr  Sr0  1  0.00000000  0.00000000  0.00000000  1
  Ba  Ba1  1  0.00000000  0.00000000  0.50000000  1
  La  La2  1  0.69063900  0.30936100  0.25000000  1
  Sr  Sr3  1  0.30936097  0.69063900  0.75000000  1
  Bi  Bi4  1  0.30717697  0.69282300  0.25000000  1
  La  La5  1  0.69282300  0.30717700  0.75000000  1
  Bi  Bi6  1  0.48967799  0.51032200  0.25000000  1
  Bi  Bi7  1  0.51032199  0.48967800  0.75000000  1
  O  O8  1  0.30000597  0.69999400  0.01293000  1
  O  O9  1  0.69999400  0.30000600  0.98707000  1
  O  O10  1  0.69999400  0.30000600  0.51293000  1
  O  O11  1  0.30000597  0.69999400  0.48707000  1
  O  O12  1  0.97807499  0.67161000  0.25000000  1
  O  O13  1  0.02192498  0.32839000  0.75000000  1
  O  O14  1  0.32839001  0.02192500  0.25000000  1
  O  O15  1  0.67160997  0.97807500  0.75000000  1
  O  O16  1  0.06389698  0.34897200  0.25000000  1
  N  N17  1  0.93610299  0.65102800  0.75000000  1
  O  O18  1  0.65102797  0.93610300  0.25000000  1
  O  O19  1  0.34897200  0.06389700  0.75000000  1
