# generated using pymatgen
data_LiCuSnS5
_symmetry_space_group_name_H-M   'P 1'
_cell_length_a   4.12393379
_cell_length_b   4.12393332
_cell_length_c   7.02804279
_cell_angle_alpha   90.00000000
_cell_angle_beta   90.00000000
_cell_angle_gamma   120.00000763
_symmetry_Int_Tables_number   1
_chemical_formula_structural   LiCuSnS5
_chemical_formula_sum   'Li1 Cu1 Sn1 S5'
_cell_volume   103.51143131
_cell_formula_units_Z   1
loop_
 _symmetry_equiv_pos_site_id
 _symmetry_equiv_pos_as_xyz
  1  'x, y, z'
loop_
 _atom_site_type_symbol
 _atom_site_label
 _atom_site_symmetry_multiplicity
 _atom_site_fract_x
 _atom_site_fract_y
 _atom_site_fract_z
 _atom_site_occupancy
  Li  Li0  1  0.33333340  0.66666671  0.25000001  1
  Sn  Sn1  1  0.66666672  0.33333336  0.75000002  1
  Cu  Cu2  1  0.00000000  0.00000000  0.75000002  1
  S  S3  1  0.00000000  0.00000000  0.25000001  1
  S  S4  1  0.66666672  0.33333336  0.42103601  1
  S  S5  1  0.66666672  0.33333336  0.07896400  1
  S  S6  1  0.33333340  0.66666671  0.92103603  1
  S  S7  1  0.33333340  0.66666671  0.57896402  1
