# generated using pymatgen
data_BaSr2CaLa2(BiO6)2
_symmetry_space_group_name_H-M   'P 1'
_cell_length_a   6.10832214
_cell_length_b   6.32146883
_cell_length_c   8.77607250
_cell_angle_alpha   89.99922943
_cell_angle_beta   90.53200531
_cell_angle_gamma   89.99952698
_symmetry_Int_Tables_number   1
_chemical_formula_structural   BaSr2CaLa2(BiO6)2
_chemical_formula_sum   'Ba1 Sr2 Ca1 La2 Bi2 O12'
_cell_volume   338.86086450
_cell_formula_units_Z   1
loop_
 _symmetry_equiv_pos_site_id
 _symmetry_equiv_pos_as_xyz
  1  'x, y, z'
loop_
 _atom_site_type_symbol
 _atom_site_label
 _atom_site_symmetry_multiplicity
 _atom_site_fract_x
 _atom_site_fract_y
 _atom_site_fract_z
 _atom_site_occupancy
  Sr  Sr0  1  0.00574263  0.96620478  0.24735188  1
  Ba  Ba1  1  0.50578646  0.53381283  0.74735054  1
  Ca  Ca2  1  0.49677049  0.98526278  0.99727303  1
  Sr  Sr3  1  0.99676803  0.51474493  0.49728185  1
  La  La4  1  0.47621292  0.43766984  0.24751450  1
  La  La5  1  0.97617126  0.06232363  0.74750373  1
  Bi  Bi6  1  0.99877052  0.49921757  0.00055695  1
  Bi  Bi7  1  0.49883470  0.00082304  0.50055428  1
  O  O8  1  0.84880097  0.79643821  0.93420183  1
  O  O9  1  0.70281840  0.26484568  0.56710671  1
  O  O10  1  0.20285563  0.23512168  0.06712221  1
  O  O11  1  0.34876287  0.70357158  0.43418328  1
  O  O12  1  0.73387220  0.28945785  0.94757534  1
  O  O13  1  0.79287207  0.83381542  0.56525311  1
  O  O14  1  0.29292169  0.66615821  0.06523516  1
  O  O15  1  0.23383152  0.21054158  0.44758193  1
  O  O16  1  0.58718327  0.06399072  0.26728911  1
  O  O17  1  0.85691214  0.53633769  0.22588604  1
  O  O18  1  0.35690021  0.96365037  0.72589397  1
  O  O19  1  0.08721169  0.43601162  0.76728547  1
