# generated using pymatgen
data_Ba3CrO8
_symmetry_space_group_name_H-M   'P 1'
_cell_length_a   6.33835316
_cell_length_b   6.33835316
_cell_length_c   6.33835316
_cell_angle_alpha   78.88539124
_cell_angle_beta   66.19570160
_cell_angle_gamma   113.80429840
_symmetry_Int_Tables_number   1
_chemical_formula_structural   Ba3CrO8
_chemical_formula_sum   'Ba3 Cr1 O8'
_cell_volume   192.96113691
_cell_formula_units_Z   1
loop_
 _symmetry_equiv_pos_site_id
 _symmetry_equiv_pos_as_xyz
  1  'x, y, z'
loop_
 _atom_site_type_symbol
 _atom_site_label
 _atom_site_symmetry_multiplicity
 _atom_site_fract_x
 _atom_site_fract_y
 _atom_site_fract_z
 _atom_site_occupancy
  Ba  Ba0  1  0.50000003  0.75000003  0.74999998  1
  Ba  Ba1  1  0.50000002  0.25000001  0.24999999  1
  Ba  Ba2  1  1.00000004  0.50000002  0.49999999  1
  Cr  Cr3  1  0.00000000  0.00000000  0.00000000  1
  O  O4  1  0.57434204  0.76619503  0.23380497  1
  O  O5  1  0.00000001  0.23380501  0.19185299  1
  O  O6  1  1.00000005  0.80814704  0.76619498  1
  O  O7  1  0.42565802  0.19185301  0.80814701  1
  O  O8  1  0.28295903  0.95511104  0.04488895  1
  O  O9  1  1.00000003  0.04488900  0.67215201  1
  O  O10  1  1.00000003  0.32784801  0.95511101  1
  O  O11  1  0.71704104  0.67215203  0.32784797  1
