# generated using pymatgen
data_CsRbNb(TeO4)3
_symmetry_space_group_name_H-M   'P 1'
_cell_length_a   7.34814548
_cell_length_b   7.34814548
_cell_length_c   7.34814548
_cell_angle_alpha   60.58812332
_cell_angle_beta   60.58812332
_cell_angle_gamma   60.58812714
_symmetry_Int_Tables_number   1
_chemical_formula_structural   CsRbNb(TeO4)3
_chemical_formula_sum   'Cs1 Rb1 Nb1 Te3 O12'
_cell_volume   284.28200790
_cell_formula_units_Z   1
loop_
 _symmetry_equiv_pos_site_id
 _symmetry_equiv_pos_as_xyz
  1  'x, y, z'
loop_
 _atom_site_type_symbol
 _atom_site_label
 _atom_site_symmetry_multiplicity
 _atom_site_fract_x
 _atom_site_fract_y
 _atom_site_fract_z
 _atom_site_occupancy
  Cs  Cs0  1  0.36657398  0.36657400  0.36657400  1
  Rb  Rb1  1  0.63342597  0.63342599  0.63342599  1
  Nb  Nb2  1  0.00000000  0.00000000  0.00000000  1
  Te  Te3  1  -0.00000001  0.49999999  -0.00000000  1
  Te  Te4  1  0.00000000  0.00000000  0.50000000  1
  Te  Te5  1  0.49999999  0.00000000  -0.00000001  1
  O  O6  1  0.68762399  0.05939800  0.68762400  1
  O  O7  1  0.05882798  0.68762999  0.05882800  1
  O  O8  1  0.68762397  0.68762399  0.05939799  1
  O  O9  1  0.05882800  0.05882800  0.68763000  1
  O  O10  1  0.68762999  0.05882800  0.05882799  1
  O  O11  1  0.05939798  0.68762399  0.68762400  1
  O  O12  1  0.31237597  0.94060199  0.31237599  1
  O  O13  1  0.94117197  0.31237000  0.94117199  1
  O  O14  1  0.31237599  0.31237600  0.94060200  1
  O  O15  1  0.94117196  0.94117199  0.31236999  1
  O  O16  1  0.31236997  0.94117199  0.94117200  1
  O  O17  1  0.94060197  0.31237600  0.31237599  1
