# generated using pymatgen
data_LaUBiO8
_symmetry_space_group_name_H-M   'P 1'
_cell_length_a   3.91092396
_cell_length_b   6.34641695
_cell_length_c   6.34641695
_cell_angle_alpha   117.82447815
_cell_angle_beta   90.00000000
_cell_angle_gamma   90.00000000
_symmetry_Int_Tables_number   1
_chemical_formula_structural   LaUBiO8
_chemical_formula_sum   'La1 U1 Bi1 O8'
_cell_volume   139.30807579
_cell_formula_units_Z   1
loop_
 _symmetry_equiv_pos_site_id
 _symmetry_equiv_pos_as_xyz
  1  'x, y, z'
loop_
 _atom_site_type_symbol
 _atom_site_label
 _atom_site_symmetry_multiplicity
 _atom_site_fract_x
 _atom_site_fract_y
 _atom_site_fract_z
 _atom_site_occupancy
  U  U0  1  0.00000000  0.00000000  0.00000000  1
  La  La1  1  -0.00000000  0.30118400  0.69881600  1
  Bi  Bi2  1  -0.00000000  0.69881600  0.30118401  1
  O  O3  1  -0.00000000  0.04583100  0.33796700  1
  O  O4  1  -0.00000000  0.33796700  0.04583101  1
  O  O5  1  0.50000001  0.00000000  -0.00000000  1
  O  O6  1  0.50000001  0.31084800  0.68915200  1
  O  O7  1  0.50000001  0.68915200  0.31084801  1
  O  O8  1  -0.00000000  0.95416900  0.66203301  1
  O  O9  1  -0.00000000  0.66203300  0.95416900  1
  O  O10  1  -0.00000000  0.50000000  0.50000000  1
