# generated using pymatgen
data_NaV(SiO3)2
_symmetry_space_group_name_H-M   'P 1'
_cell_length_a   5.52301645
_cell_length_b   6.77163029
_cell_length_c   6.77163029
_cell_angle_alpha   84.41168213
_cell_angle_beta   78.11357117
_cell_angle_gamma   78.11357117
_symmetry_Int_Tables_number   1
_chemical_formula_structural   NaV(SiO3)2
_chemical_formula_sum   'Na2 V2 Si4 O12'
_cell_volume   242.11371881
_cell_formula_units_Z   2
loop_
 _symmetry_equiv_pos_site_id
 _symmetry_equiv_pos_as_xyz
  1  'x, y, z'
loop_
 _atom_site_type_symbol
 _atom_site_label
 _atom_site_symmetry_multiplicity
 _atom_site_fract_x
 _atom_site_fract_y
 _atom_site_fract_z
 _atom_site_occupancy
  Na  Na0  1  0.50000002  0.30773400  0.69226600  1
  Na  Na1  1  1.00000004  0.68757000  0.31242999  1
  V  V2  1  0.50000005  0.90220000  0.09779996  1
  V  V3  1  0.00000000  0.09786500  0.90213500  1
  Si  Si4  1  0.51972902  0.38020200  0.19602299  1
  Si  Si5  1  0.48027104  0.80397700  0.61979797  1
  Si  Si6  1  0.98364504  0.61649000  0.79794899  1
  Si  Si7  1  0.01635501  0.20205100  0.38350999  1
  O  O8  1  0.61951302  0.19760100  0.01325800  1
  O  O9  1  0.38048705  0.98674200  0.80239896  1
  O  O10  1  0.89639804  0.78928500  0.96841998  1
  O  O11  1  0.10360200  0.03158000  0.21071500  1
  O  O12  1  0.41109103  0.62808100  0.11371897  1
  O  O13  1  0.58890905  0.88628100  0.37191896  1
  O  O14  1  0.07418902  0.38644300  0.88774698  1
  O  O15  1  0.92581101  0.11225300  0.61355702  1
  O  O16  1  0.76446102  0.36938400  0.33705400  1
  O  O17  1  0.23553903  0.66294600  0.63061597  1
  O  O18  1  0.75441604  0.62345500  0.67213998  1
  O  O19  1  0.24558402  0.32786000  0.37654499  1
