# generated using pymatgen
data_PrEuB4(ClO4)2
_symmetry_space_group_name_H-M   'P 1'
_cell_length_a   4.25072908
_cell_length_b   6.65973091
_cell_length_c   8.20377064
_cell_angle_alpha   81.95340729
_cell_angle_beta   89.05973053
_cell_angle_gamma   72.41313934
_symmetry_Int_Tables_number   1
_chemical_formula_structural   PrEuB4(ClO4)2
_chemical_formula_sum   'Pr1 Eu1 B4 Cl2 O8'
_cell_volume   219.12130490
_cell_formula_units_Z   1
loop_
 _symmetry_equiv_pos_site_id
 _symmetry_equiv_pos_as_xyz
  1  'x, y, z'
loop_
 _atom_site_type_symbol
 _atom_site_label
 _atom_site_symmetry_multiplicity
 _atom_site_fract_x
 _atom_site_fract_y
 _atom_site_fract_z
 _atom_site_occupancy
  Eu  Eu0  1  0.79757193  0.96524899  0.77874904  1
  Pr  Pr1  1  0.20242799  0.03475100  0.22125100  1
  B  B2  1  0.56433096  0.56263000  0.80526803  1
  B  B3  1  0.16654198  0.34923100  0.85141103  1
  B  B4  1  0.43566897  0.43737000  0.19473201  1
  B  B5  1  0.83345795  0.65076900  0.14858901  1
  Cl  Cl6  1  0.85306194  0.80182299  0.45598002  1
  Cl  Cl7  1  0.14693799  0.19817700  0.54402002  1
  O  O8  1  0.09734497  0.46529000  0.17859502  1
  O  O9  1  0.47823197  0.37444400  0.81671302  1
  O  O10  1  0.15994899  0.15432500  0.92142002  1
  O  O11  1  0.52176795  0.62555600  0.18328702  1
  O  O12  1  0.36972895  0.76348200  0.79014604  1
  O  O13  1  0.63027097  0.23651800  0.20985400  1
  O  O14  1  0.84005093  0.84567499  0.07858002  1
  O  O15  1  0.90265495  0.53471000  0.82140502  1
