# generated using pymatgen
data_RbNaO2
_symmetry_space_group_name_H-M   'P 1'
_cell_length_a   3.49338841
_cell_length_b   3.49338841
_cell_length_c   6.85928202
_cell_angle_alpha   75.24734497
_cell_angle_beta   75.24734497
_cell_angle_gamma   59.99999237
_symmetry_Int_Tables_number   1
_chemical_formula_structural   RbNaO2
_chemical_formula_sum   'Rb1 Na1 O2'
_cell_volume   69.28940037
_cell_formula_units_Z   1
loop_
 _symmetry_equiv_pos_site_id
 _symmetry_equiv_pos_as_xyz
  1  'x, y, z'
loop_
 _atom_site_type_symbol
 _atom_site_label
 _atom_site_symmetry_multiplicity
 _atom_site_fract_x
 _atom_site_fract_y
 _atom_site_fract_z
 _atom_site_occupancy
  Rb  Rb0  1  0.00000000  0.00000000  0.00000000  1
  Na  Na1  1  0.50000000  0.50000000  0.50000002  1
  O  O2  1  0.77519601  0.77519600  0.67441203  1
  O  O3  1  0.22480400  0.22480400  0.32558801  1
