# generated using pymatgen
data_CaMg2ZnO3
_symmetry_space_group_name_H-M   'P 1'
_cell_length_a   3.40357208
_cell_length_b   3.40357137
_cell_length_c   17.13889694
_cell_angle_alpha   90.00000000
_cell_angle_beta   90.00000000
_cell_angle_gamma   120.00000763
_symmetry_Int_Tables_number   1
_chemical_formula_structural   CaMg2ZnO3
_chemical_formula_sum   'Ca2 Mg4 Zn2 O6'
_cell_volume   171.94251697
_cell_formula_units_Z   2
loop_
 _symmetry_equiv_pos_site_id
 _symmetry_equiv_pos_as_xyz
  1  'x, y, z'
loop_
 _atom_site_type_symbol
 _atom_site_label
 _atom_site_symmetry_multiplicity
 _atom_site_fract_x
 _atom_site_fract_y
 _atom_site_fract_z
 _atom_site_occupancy
  Ca  Ca0  1  0.00000000  0.00000000  0.00000000  1
  Ca  Ca1  1  0.00000000  0.00000000  0.50000000  1
  Mg  Mg2  1  0.66666665  0.33333333  0.86794800  1
  Mg  Mg3  1  0.33333334  0.66666666  0.75000000  1
  Mg  Mg4  1  0.66666665  0.33333333  0.63205200  1
  Mg  Mg5  1  0.33333334  0.66666666  0.36794800  1
  Zn  Zn6  1  0.66666665  0.33333333  0.25000000  1
  Zn  Zn7  1  0.33333334  0.66666666  0.13205200  1
  O  O8  1  0.33333334  0.66666666  0.90973500  1
  O  O9  1  0.66666665  0.33333333  0.75000000  1
  O  O10  1  0.33333334  0.66666666  0.59026500  1
  O  O11  1  0.66666665  0.33333333  0.40973500  1
  O  O12  1  0.33333334  0.66666666  0.25000000  1
  O  O13  1  0.66666665  0.33333333  0.09026500  1
