# generated using pymatgen
data_YbYMg3(ZnP2)3
_symmetry_space_group_name_H-M   'P 1'
_cell_length_a   4.06253004
_cell_length_b   4.06253052
_cell_length_c   20.17518234
_cell_angle_alpha   90.00000000
_cell_angle_beta   90.00000000
_cell_angle_gamma   119.99999237
_symmetry_Int_Tables_number   1
_chemical_formula_structural   YbYMg3(ZnP2)3
_chemical_formula_sum   'Yb1 Y1 Mg3 Zn3 P6'
_cell_volume   288.36420870
_cell_formula_units_Z   1
loop_
 _symmetry_equiv_pos_site_id
 _symmetry_equiv_pos_as_xyz
  1  'x, y, z'
loop_
 _atom_site_type_symbol
 _atom_site_label
 _atom_site_symmetry_multiplicity
 _atom_site_fract_x
 _atom_site_fract_y
 _atom_site_fract_z
 _atom_site_occupancy
  Y  Y0  1  0.00000000  0.00000000  0.49999999  1
  Yb  Yb1  1  0.00000000  0.00000000  0.00000000  1
  Mg  Mg2  1  0.66666665  0.33333334  0.25000000  1
  Mg  Mg3  1  0.33333331  0.66666669  0.74999999  1
  Zn  Zn4  1  0.33333331  0.66666669  0.37013699  1
  Mg  Mg5  1  0.66666665  0.33333334  0.87013699  1
  Zn  Zn6  1  0.66666665  0.33333334  0.62986299  1
  Zn  Zn7  1  0.33333331  0.66666669  0.12986300  1
  P  P8  1  0.33333331  0.66666669  0.25000000  1
  P  P9  1  0.66666665  0.33333334  0.74999999  1
  P  P10  1  0.33333331  0.66666669  0.91168998  1
  P  P11  1  0.66666665  0.33333334  0.41168999  1
  P  P12  1  0.66666665  0.33333334  0.08831000  1
  P  P13  1  0.33333331  0.66666669  0.58830999  1
