# generated using pymatgen
data_LiCu2Ag4PdOF7
_symmetry_space_group_name_H-M   'P 1'
_cell_length_a   5.81683588
_cell_length_b   5.81683588
_cell_length_c   5.81683588
_cell_angle_alpha   90.00000000
_cell_angle_beta   90.00000000
_cell_angle_gamma   90.00000000
_symmetry_Int_Tables_number   1
_chemical_formula_structural   LiCu2Ag4PdOF7
_chemical_formula_sum   'Li1 Cu2 Ag4 Pd1 O1 F7'
_cell_volume   196.81601379
_cell_formula_units_Z   1
loop_
 _symmetry_equiv_pos_site_id
 _symmetry_equiv_pos_as_xyz
  1  'x, y, z'
loop_
 _atom_site_type_symbol
 _atom_site_label
 _atom_site_symmetry_multiplicity
 _atom_site_fract_x
 _atom_site_fract_y
 _atom_site_fract_z
 _atom_site_occupancy
  Ag  Ag0  1  0.50000001  0.50000001  0.50000001  1
  Li  Li1  1  0.00000000  0.00000000  0.00000000  1
  Ag  Ag2  1  0.75137002  0.50000001  0.00000000  1
  Cu  Cu3  1  0.50000001  0.00000000  0.75137002  1
  Cu  Cu4  1  -0.00000000  0.75137002  0.50000001  1
  Pd  Pd5  1  0.50000001  0.00000000  0.24863001  1
  Ag  Ag6  1  -0.00000000  0.24863001  0.50000001  1
  Ag  Ag7  1  0.24863001  0.50000001  0.00000000  1
  F  F8  1  0.23630100  0.76369902  0.23630100  1
  F  F9  1  0.76369902  0.23630100  0.23630100  1
  F  F10  1  0.23630100  0.23630100  0.76369902  1
  F  F11  1  0.76369902  0.76369902  0.76369902  1
  F  F12  1  0.76369902  0.23630100  0.76369902  1
  O  O13  1  0.23630100  0.76369902  0.76369902  1
  F  F14  1  0.76369902  0.76369902  0.23630100  1
  F  F15  1  0.23630100  0.23630100  0.23630100  1
