# generated using pymatgen
data_Li3Ag2F11
_symmetry_space_group_name_H-M   'P 1'
_cell_length_a   5.83887100
_cell_length_b   5.83887100
_cell_length_c   5.83887100
_cell_angle_alpha   90.00000000
_cell_angle_beta   90.00000000
_cell_angle_gamma   90.00000000
_symmetry_Int_Tables_number   1
_chemical_formula_structural   Li3Ag2F11
_chemical_formula_sum   'Li3 Ag2 F11'
_cell_volume   199.06121089
_cell_formula_units_Z   1
loop_
 _symmetry_equiv_pos_site_id
 _symmetry_equiv_pos_as_xyz
  1  'x, y, z'
loop_
 _atom_site_type_symbol
 _atom_site_label
 _atom_site_symmetry_multiplicity
 _atom_site_fract_x
 _atom_site_fract_y
 _atom_site_fract_z
 _atom_site_occupancy
  Ag  Ag0  1  0.50000000  0.50000000  0.50000000  1
  Li  Li1  1  0.00000000  0.00000000  0.00000000  1
  Li  Li2  1  -0.00000000  0.50000000  0.75000000  1
  Li  Li3  1  0.50000000  0.25000000  -0.00000000  1
  Ag  Ag4  1  0.75000000  0.00000000  0.50000000  1
  F  F5  1  -0.00000000  0.50000000  0.25000000  1
  F  F6  1  0.50000000  0.75000000  -0.00000000  1
  F  F7  1  0.25000000  0.00000000  0.50000000  1
  F  F8  1  0.75000000  0.25000000  0.75000000  1
  F  F9  1  0.25000000  0.75000000  0.25000000  1
  F  F10  1  0.75000000  0.75000000  0.25000000  1
  F  F11  1  0.25000000  0.25000000  0.75000000  1
  F  F12  1  0.25000000  0.75000000  0.75000000  1
  F  F13  1  0.75000000  0.25000000  0.25000000  1
  F  F14  1  0.25000000  0.25000000  0.25000000  1
  F  F15  1  0.75000000  0.75000000  0.75000000  1
