# generated using pymatgen
data_Tl2InGaTe4
_symmetry_space_group_name_H-M   'P 1'
_cell_length_a   6.85324526
_cell_length_b   6.85324526
_cell_length_c   6.85324526
_cell_angle_alpha   106.05490875
_cell_angle_beta   106.05490875
_cell_angle_gamma   116.54388428
_symmetry_Int_Tables_number   1
_chemical_formula_structural   Tl2InGaTe4
_chemical_formula_sum   'Tl2 In1 Ga1 Te4'
_cell_volume   244.91519107
_cell_formula_units_Z   1
loop_
 _symmetry_equiv_pos_site_id
 _symmetry_equiv_pos_as_xyz
  1  'x, y, z'
loop_
 _atom_site_type_symbol
 _atom_site_label
 _atom_site_symmetry_multiplicity
 _atom_site_fract_x
 _atom_site_fract_y
 _atom_site_fract_z
 _atom_site_occupancy
  Tl  Tl0  1  0.25000000  0.25000000  0.00000001  1
  Tl  Tl1  1  0.75000001  0.75000001  0.00000004  1
  In  In2  1  0.25000000  0.75000001  0.50000003  1
  Ga  Ga3  1  0.75000001  0.25000000  0.50000003  1
  Te  Te4  1  0.17626600  0.32373401  0.50000002  1
  Te  Te5  1  0.82373401  0.67626601  0.50000004  1
  Te  Te6  1  0.32373400  0.82373401  0.14746803  1
  Te  Te7  1  0.67626601  0.17626600  0.85253203  1
