# generated using pymatgen
data_K2RbDyV2O8
_symmetry_space_group_name_H-M   'P 1'
_cell_length_a   6.02135515
_cell_length_b   6.02135563
_cell_length_c   7.81690598
_cell_angle_alpha   90.00000000
_cell_angle_beta   90.00000000
_cell_angle_gamma   120.00000763
_symmetry_Int_Tables_number   1
_chemical_formula_structural   K2RbDyV2O8
_chemical_formula_sum   'K2 Rb1 Dy1 V2 O8'
_cell_volume   245.44489743
_cell_formula_units_Z   1
loop_
 _symmetry_equiv_pos_site_id
 _symmetry_equiv_pos_as_xyz
  1  'x, y, z'
loop_
 _atom_site_type_symbol
 _atom_site_label
 _atom_site_symmetry_multiplicity
 _atom_site_fract_x
 _atom_site_fract_y
 _atom_site_fract_z
 _atom_site_occupancy
  K  K0  1  0.66666669  0.33333335  0.29327600  1
  K  K1  1  0.33333337  0.66666670  0.70672400  1
  Rb  Rb2  1  0.00000000  0.00000000  0.00000000  1
  Dy  Dy3  1  0.00000000  0.00000000  0.50000000  1
  V  V4  1  0.66666669  0.33333335  0.74852400  1
  V  V5  1  0.33333337  0.66666670  0.25147600  1
  O  O6  1  0.66666669  0.33333335  0.96369900  1
  O  O7  1  0.33333337  0.66666670  0.03630100  1
  O  O8  1  0.82588904  0.65177803  0.67188800  1
  O  O9  1  0.34822201  0.17411101  0.67188800  1
  O  O10  1  0.82588902  0.17411101  0.67188800  1
  O  O11  1  0.17411102  0.34822201  0.32811200  1
  O  O12  1  0.65177804  0.82588904  0.32811200  1
  O  O13  1  0.17411104  0.82588904  0.32811200  1
