# generated using pymatgen
data_NaLiGdTm(CO3)4
_symmetry_space_group_name_H-M   'P 1'
_cell_length_a   4.54339504
_cell_length_b   6.66148806
_cell_length_c   8.53194523
_cell_angle_alpha   90.00000000
_cell_angle_beta   90.00000000
_cell_angle_gamma   90.00000000
_symmetry_Int_Tables_number   1
_chemical_formula_structural   NaLiGdTm(CO3)4
_chemical_formula_sum   'Na1 Li1 Gd1 Tm1 C4 O12'
_cell_volume   258.22590738
_cell_formula_units_Z   1
loop_
 _symmetry_equiv_pos_site_id
 _symmetry_equiv_pos_as_xyz
  1  'x, y, z'
loop_
 _atom_site_type_symbol
 _atom_site_label
 _atom_site_symmetry_multiplicity
 _atom_site_fract_x
 _atom_site_fract_y
 _atom_site_fract_z
 _atom_site_occupancy
  Tm  Tm0  1  0.50000000  0.50000000  0.00000000  1
  Na  Na1  1  0.00000000  0.00000000  0.00000000  1
  Li  Li2  1  0.00000000  0.00000000  0.49999999  1
  Gd  Gd3  1  0.50000000  0.50000000  0.49999999  1
  C  C4  1  0.02748300  0.63556799  0.24999999  1
  C  C5  1  0.52748300  0.86443199  0.74999998  1
  C  C6  1  0.47251700  0.13556800  0.24999999  1
  C  C7  1  0.97251699  0.36443200  0.74999998  1
  O  O8  1  0.21899100  0.04745400  0.24999999  1
  O  O9  1  0.09733900  0.31984000  0.61705998  1
  O  O10  1  0.28100900  0.54745400  0.24999999  1
  O  O11  1  0.90266099  0.68015999  0.38293999  1
  O  O12  1  0.40266100  0.81983999  0.61705998  1
  O  O13  1  0.78100899  0.95254599  0.74999998  1
  O  O14  1  0.59733899  0.18016000  0.38293999  1
  O  O15  1  0.59733899  0.18016000  0.11706000  1
  O  O16  1  0.40266100  0.81983999  0.88293998  1
  O  O17  1  0.90266099  0.68015999  0.11706000  1
  O  O18  1  0.09733900  0.31984000  0.88293998  1
  O  O19  1  0.71899099  0.45254600  0.74999998  1
