# generated using pymatgen
data_NbCu2SnAs2
_symmetry_space_group_name_H-M   'P 1'
_cell_length_a   3.05305505
_cell_length_b   5.47790718
_cell_length_c   6.25976086
_cell_angle_alpha   90.00000000
_cell_angle_beta   90.00000000
_cell_angle_gamma   90.00000000
_symmetry_Int_Tables_number   1
_chemical_formula_structural   NbCu2SnAs2
_chemical_formula_sum   'Nb1 Cu2 Sn1 As2'
_cell_volume   104.69044507
_cell_formula_units_Z   1
loop_
 _symmetry_equiv_pos_site_id
 _symmetry_equiv_pos_as_xyz
  1  'x, y, z'
loop_
 _atom_site_type_symbol
 _atom_site_label
 _atom_site_symmetry_multiplicity
 _atom_site_fract_x
 _atom_site_fract_y
 _atom_site_fract_z
 _atom_site_occupancy
  Nb  Nb0  1  0.49999999  0.32899299  0.86508602  1
  Sn  Sn1  1  0.49999999  0.67100698  0.13491400  1
  Cu  Cu2  1  -0.00000000  0.17100699  0.36508601  1
  Cu  Cu3  1  -0.00000000  0.82899297  0.63491401  1
  As  As4  1  0.49999999  0.49999998  0.50000001  1
  As  As5  1  0.00000000  0.00000000  0.00000000  1
