# generated using pymatgen
data_Rb4Be3AlF8
_symmetry_space_group_name_H-M   'P 1'
_cell_length_a   4.54262018
_cell_length_b   7.48167276
_cell_length_c   9.52956200
_cell_angle_alpha   90.00000000
_cell_angle_beta   90.00000000
_cell_angle_gamma   90.00000000
_symmetry_Int_Tables_number   1
_chemical_formula_structural   Rb4Be3AlF8
_chemical_formula_sum   'Rb4 Be3 Al1 F8'
_cell_volume   323.87548385
_cell_formula_units_Z   1
loop_
 _symmetry_equiv_pos_site_id
 _symmetry_equiv_pos_as_xyz
  1  'x, y, z'
loop_
 _atom_site_type_symbol
 _atom_site_label
 _atom_site_symmetry_multiplicity
 _atom_site_fract_x
 _atom_site_fract_y
 _atom_site_fract_z
 _atom_site_occupancy
  Rb  Rb0  1  0.74999997  0.38119201  0.67341300  1
  Rb  Rb1  1  0.74999997  0.88119203  0.82658700  1
  Rb  Rb2  1  0.24999999  0.11880800  0.17341300  1
  Rb  Rb3  1  0.24999999  0.61880802  0.32658700  1
  Be  Be4  1  0.24999999  0.06435700  0.53445600  1
  Be  Be5  1  0.24999999  0.56435702  0.96554400  1
  Al  Al6  1  0.74999997  0.43564301  0.03445600  1
  Be  Be7  1  0.74999997  0.93564303  0.46554400  1
  F  F8  1  0.74999997  0.72043502  0.51846700  1
  F  F9  1  0.24999999  0.10374200  0.70685200  1
  F  F10  1  0.24999999  0.60374202  0.79314800  1
  F  F11  1  0.74999997  0.22043501  0.98153300  1
  F  F12  1  0.24999999  0.77956502  0.01846700  1
  F  F13  1  0.74999997  0.39625801  0.20685200  1
  F  F14  1  0.74999997  0.89625803  0.29314800  1
  F  F15  1  0.24999999  0.27956501  0.48153300  1
