# generated using pymatgen
data_BaSr3AsPbNO
_symmetry_space_group_name_H-M   'P 1'
_cell_length_a   4.58337307
_cell_length_b   4.58337307
_cell_length_c   9.83436966
_cell_angle_alpha   90.00000000
_cell_angle_beta   90.00000000
_cell_angle_gamma   90.00000000
_symmetry_Int_Tables_number   1
_chemical_formula_structural   BaSr3AsPbNO
_chemical_formula_sum   'Ba1 Sr3 As1 Pb1 N1 O1'
_cell_volume   206.59363927
_cell_formula_units_Z   1
loop_
 _symmetry_equiv_pos_site_id
 _symmetry_equiv_pos_as_xyz
  1  'x, y, z'
loop_
 _atom_site_type_symbol
 _atom_site_label
 _atom_site_symmetry_multiplicity
 _atom_site_fract_x
 _atom_site_fract_y
 _atom_site_fract_z
 _atom_site_occupancy
  Sr  Sr0  1  0.49999999  0.00000000  0.14797101  1
  Ba  Ba1  1  -0.00000000  0.49999999  0.85202903  1
  Sr  Sr2  1  0.49999999  0.49999999  0.50000002  1
  Sr  Sr3  1  0.00000000  0.00000000  0.50000002  1
  As  As4  1  -0.00000000  0.49999999  0.31661101  1
  Pb  Pb5  1  0.49999999  0.00000000  0.68338902  1
  O  O6  1  0.00000000  0.00000000  0.00000000  1
  N  N7  1  0.49999999  0.49999999  0.00000000  1
