# generated using pymatgen
data_Li2CoF4
_symmetry_space_group_name_H-M   'P 1'
_cell_length_a   6.02090311
_cell_length_b   6.02090263
_cell_length_c   6.02090359
_cell_angle_alpha   60.28751373
_cell_angle_beta   60.28752518
_cell_angle_gamma   60.28752136
_symmetry_Int_Tables_number   1
_chemical_formula_structural   Li2CoF4
_chemical_formula_sum   'Li4 Co2 F8'
_cell_volume   155.34120326
_cell_formula_units_Z   2
loop_
 _symmetry_equiv_pos_site_id
 _symmetry_equiv_pos_as_xyz
  1  'x, y, z'
loop_
 _atom_site_type_symbol
 _atom_site_label
 _atom_site_symmetry_multiplicity
 _atom_site_fract_x
 _atom_site_fract_y
 _atom_site_fract_z
 _atom_site_occupancy
  Li  Li0  1  0.50000000  0.99999998  0.49999995  1
  Li  Li1  1  1.00000001  0.49999999  0.49999995  1
  Li  Li2  1  0.50000000  0.49999999  -0.00000002  1
  Li  Li3  1  0.50000000  0.49999999  0.49999996  1
  Co  Co4  1  0.87391801  0.87391699  0.87391794  1
  Co  Co5  1  0.12608200  0.12608300  0.12608199  1
  F  F6  1  0.73695201  0.25846700  0.25846597  1
  F  F7  1  0.74153401  0.74153299  0.26304796  1
  F  F8  1  0.74323401  0.74323399  0.74323395  1
  F  F9  1  0.25846600  0.25846700  0.73695197  1
  F  F10  1  0.74153401  0.26304700  0.74153396  1
  F  F11  1  0.25676600  0.25676600  0.25676598  1
  F  F12  1  0.26304800  0.74153299  0.74153396  1
  F  F13  1  0.25846600  0.73695299  0.25846597  1
