# generated using pymatgen
data_LiNdTi4O10
_symmetry_space_group_name_H-M   'P 1'
_cell_length_a   3.84159589
_cell_length_b   3.84159589
_cell_length_c   14.02516937
_cell_angle_alpha   97.87160492
_cell_angle_beta   97.87160492
_cell_angle_gamma   90.00000000
_symmetry_Int_Tables_number   1
_chemical_formula_structural   LiNdTi4O10
_chemical_formula_sum   'Li1 Nd1 Ti4 O10'
_cell_volume   203.06215761
_cell_formula_units_Z   1
loop_
 _symmetry_equiv_pos_site_id
 _symmetry_equiv_pos_as_xyz
  1  'x, y, z'
loop_
 _atom_site_type_symbol
 _atom_site_label
 _atom_site_symmetry_multiplicity
 _atom_site_fract_x
 _atom_site_fract_y
 _atom_site_fract_z
 _atom_site_occupancy
  Li  Li0  1  0.57961202  0.57961202  0.15922401  1
  Nd  Nd1  1  0.42038801  0.42038801  0.84077602  1
  Ti  Ti2  1  0.84444603  0.84444603  0.68889202  1
  Ti  Ti3  1  0.15555401  0.15555400  0.31110801  1
  Ti  Ti4  1  0.00000000  0.00000000  0.00000000  1
  Ti  Ti5  1  0.25000001  0.75000002  0.50000001  1
  O  O6  1  0.49988102  0.99988103  0.99976203  1
  O  O7  1  0.00011900  0.50011902  0.00023800  1
  O  O8  1  0.35941301  0.85941303  0.71882602  1
  O  O9  1  0.86121203  0.36121201  0.72242402  1
  O  O10  1  0.63878802  0.13878800  0.27757601  1
  O  O11  1  0.14058701  0.64058702  0.28117401  1
  O  O12  1  0.77890503  0.77890502  0.55781002  1
  O  O13  1  0.22109501  0.22109501  0.44219001  1
  O  O14  1  0.92893803  0.92893803  0.85787602  1
  O  O15  1  0.07106200  0.07106200  0.14212400  1
