# generated using pymatgen
data_SrPr2BiS4
_symmetry_space_group_name_H-M   'P 1'
_cell_length_a   4.26160812
_cell_length_b   4.71749020
_cell_length_c   11.97675800
_cell_angle_alpha   89.52051544
_cell_angle_beta   90.00000000
_cell_angle_gamma   90.00000000
_symmetry_Int_Tables_number   1
_chemical_formula_structural   SrPr2BiS4
_chemical_formula_sum   'Sr1 Pr2 Bi1 S4'
_cell_volume   240.77344392
_cell_formula_units_Z   1
loop_
 _symmetry_equiv_pos_site_id
 _symmetry_equiv_pos_as_xyz
  1  'x, y, z'
loop_
 _atom_site_type_symbol
 _atom_site_label
 _atom_site_symmetry_multiplicity
 _atom_site_fract_x
 _atom_site_fract_y
 _atom_site_fract_z
 _atom_site_occupancy
  Sr  Sr0  1  0.49999999  0.58735098  0.62064701  1
  Pr  Pr1  1  0.49999999  0.88555796  0.12276999  1
  Bi  Bi2  1  -0.00000000  0.38338198  0.37663801  1
  Pr  Pr3  1  -0.00000000  0.12242399  0.88725603  1
  S  S4  1  -0.00000000  0.01948700  0.64311302  1
  S  S5  1  0.49999999  0.50536498  0.85169302  1
  S  S6  1  0.49999999  0.99751196  0.34936900  1
  S  S7  1  -0.00000000  0.49892098  0.14851500  1
