# generated using pymatgen
data_SiGeAsPN
_symmetry_space_group_name_H-M   'P 1'
_cell_length_a   4.79265594
_cell_length_b   5.24507809
_cell_length_c   4.92671394
_cell_angle_alpha   115.71229553
_cell_angle_beta   90.00000000
_cell_angle_gamma   117.18543243
_symmetry_Int_Tables_number   1
_chemical_formula_structural   SiGeAsPN
_chemical_formula_sum   'Si1 Ge1 As1 P1 N1'
_cell_volume   96.17422681
_cell_formula_units_Z   1
loop_
 _symmetry_equiv_pos_site_id
 _symmetry_equiv_pos_as_xyz
  1  'x, y, z'
loop_
 _atom_site_type_symbol
 _atom_site_label
 _atom_site_symmetry_multiplicity
 _atom_site_fract_x
 _atom_site_fract_y
 _atom_site_fract_z
 _atom_site_occupancy
  Si  Si0  1  0.99960001  0.00000000  0.49999998  1
  Ge  Ge1  1  0.33715502  0.25738302  0.42961499  1
  P  P2  1  0.90559002  0.22734502  0.81978198  1
  As  As3  1  0.07977205  0.74261705  0.57038501  1
  N  N4  1  0.67824506  0.77265505  0.18021802  1
