# generated using pymatgen
data_Na3YF6
_symmetry_space_group_name_H-M   'P 1'
_cell_length_a   5.56948185
_cell_length_b   5.57656384
_cell_length_c   6.95047760
_cell_angle_alpha   90.00000000
_cell_angle_beta   113.61911011
_cell_angle_gamma   90.00000000
_symmetry_Int_Tables_number   1
_chemical_formula_structural   Na3YF6
_chemical_formula_sum   'Na3 Y1 F6'
_cell_volume   197.78812937
_cell_formula_units_Z   1
loop_
 _symmetry_equiv_pos_site_id
 _symmetry_equiv_pos_as_xyz
  1  'x, y, z'
loop_
 _atom_site_type_symbol
 _atom_site_label
 _atom_site_symmetry_multiplicity
 _atom_site_fract_x
 _atom_site_fract_y
 _atom_site_fract_z
 _atom_site_occupancy
  Y  Y0  1  0.70170502  0.50000001  0.40340999  1
  Na  Na1  1  0.15642701  1.00000003  0.31285399  1
  Na  Na2  1  0.83618903  1.00000003  0.67237799  1
  Na  Na3  1  0.33954301  0.50000001  0.67908598  1
  F  F4  1  0.49384602  1.00000003  0.98769197  1
  F  F5  1  0.98394903  0.50000001  0.96789798  1
  F  F6  1  0.49389202  0.75233402  0.49417099  1
  F  F7  1  0.00027900  0.24766601  0.49417098  1
  F  F8  1  0.00027900  0.75233402  0.49417098  1
  F  F9  1  0.49389202  0.24766601  0.49417099  1
