# generated using pymatgen
data_AlGeNO4
_symmetry_space_group_name_H-M   'P 1'
_cell_length_a   5.36686802
_cell_length_b   5.36686802
_cell_length_c   5.56707859
_cell_angle_alpha   61.18269730
_cell_angle_beta   61.18269730
_cell_angle_gamma   60.00000000
_symmetry_Int_Tables_number   1
_chemical_formula_structural   AlGeNO4
_chemical_formula_sum   'Al1 Ge1 N1 O4'
_cell_volume   115.36944503
_cell_formula_units_Z   1
loop_
 _symmetry_equiv_pos_site_id
 _symmetry_equiv_pos_as_xyz
  1  'x, y, z'
loop_
 _atom_site_type_symbol
 _atom_site_label
 _atom_site_symmetry_multiplicity
 _atom_site_fract_x
 _atom_site_fract_y
 _atom_site_fract_z
 _atom_site_occupancy
  Al  Al0  1  0.00000000  0.00000000  0.00000000  1
  Ge  Ge1  1  0.21552095  0.87712798  0.21946305  1
  N  N2  1  0.68788797  0.21552100  0.21946303  1
  O  O3  1  0.12287198  0.31211199  0.78053702  1
  O  O4  1  0.31211195  0.78447899  0.78053705  1
  O  O5  1  0.78447897  0.12287200  0.78053703  1
  O  O6  1  0.87712794  0.68788799  0.21946306  1
