# generated using pymatgen
data_Na2TaWO6
_symmetry_space_group_name_H-M   'P 1'
_cell_length_a   5.52861786
_cell_length_b   5.53014612
_cell_length_c   7.87532282
_cell_angle_alpha   90.71389771
_cell_angle_beta   89.76732635
_cell_angle_gamma   89.60849762
_symmetry_Int_Tables_number   1
_chemical_formula_structural   Na2TaWO6
_chemical_formula_sum   'Na4 Ta2 W2 O12'
_cell_volume   240.75424831
_cell_formula_units_Z   2
loop_
 _symmetry_equiv_pos_site_id
 _symmetry_equiv_pos_as_xyz
  1  'x, y, z'
loop_
 _atom_site_type_symbol
 _atom_site_label
 _atom_site_symmetry_multiplicity
 _atom_site_fract_x
 _atom_site_fract_y
 _atom_site_fract_z
 _atom_site_occupancy
  Na  Na0  1  0.01936303  0.48483399  0.75196403  1
  Na  Na1  1  0.51920105  0.98501097  0.25189003  1
  Na  Na2  1  0.49848299  0.00193400  0.76706001  1
  Na  Na3  1  0.99831402  0.50179899  0.26701101  1
  Ta  Ta4  1  0.50873302  0.49361499  0.00936901  1
  Ta  Ta5  1  0.00867806  0.99327897  0.50940303  1
  W  W6  1  0.00878906  0.99350697  0.00947602  1
  W  W7  1  0.50866702  0.49334999  0.50939302  1
  O  O8  1  0.70914504  0.79316898  0.55809503  1
  O  O9  1  0.20873102  0.29372399  0.05778401  1
  O  O10  1  0.80856303  0.69355198  0.96077703  1
  O  O11  1  0.30815501  0.19366200  0.46068601  1
  O  O12  1  0.05685900  0.05077800  0.75939902  1
  O  O13  1  0.55706903  0.55087099  0.25936301  1
  O  O14  1  0.46044602  0.43604999  0.75945502  1
  O  O15  1  0.96066305  0.93604698  0.25940102  1
  O  O16  1  0.20785304  0.68639098  0.50862202  1
  O  O17  1  0.70753600  0.18639000  0.00854200  1
  O  O18  1  0.30988705  0.80083498  0.01018002  1
  O  O19  1  0.80947801  0.30020399  0.51024001  1
