# generated using pymatgen
data_Eu3AgS4
_symmetry_space_group_name_H-M   'P 1'
_cell_length_a   4.26425123
_cell_length_b   6.06120396
_cell_length_c   8.56652546
_cell_angle_alpha   90.00000000
_cell_angle_beta   90.00000000
_cell_angle_gamma   90.00000000
_symmetry_Int_Tables_number   1
_chemical_formula_structural   Eu3AgS4
_chemical_formula_sum   'Eu3 Ag1 S4'
_cell_volume   221.41466979
_cell_formula_units_Z   1
loop_
 _symmetry_equiv_pos_site_id
 _symmetry_equiv_pos_as_xyz
  1  'x, y, z'
loop_
 _atom_site_type_symbol
 _atom_site_label
 _atom_site_symmetry_multiplicity
 _atom_site_fract_x
 _atom_site_fract_y
 _atom_site_fract_z
 _atom_site_occupancy
  Ag  Ag0  1  0.49999997  0.00000000  0.25162099  1
  Eu  Eu1  1  -0.00000000  0.50000000  0.49999997  1
  Eu  Eu2  1  0.49999997  0.00000000  0.74837896  1
  Eu  Eu3  1  -0.00000000  0.50000000  0.00000000  1
  S  S4  1  0.00000000  0.00000000  0.49999997  1
  S  S5  1  0.49999997  0.50000000  0.73970396  1
  S  S6  1  0.00000000  0.00000000  0.00000000  1
  S  S7  1  0.49999997  0.50000000  0.26029599  1
