# generated using pymatgen
data_RbCuS3
_symmetry_space_group_name_H-M   'P 1'
_cell_length_a   6.28383923
_cell_length_b   7.50395870
_cell_length_c   12.70116329
_cell_angle_alpha   90.00000000
_cell_angle_beta   90.00000000
_cell_angle_gamma   104.65737152
_symmetry_Int_Tables_number   1
_chemical_formula_structural   RbCuS3
_chemical_formula_sum   'Rb4 Cu4 S12'
_cell_volume   579.41582045
_cell_formula_units_Z   4
loop_
 _symmetry_equiv_pos_site_id
 _symmetry_equiv_pos_as_xyz
  1  'x, y, z'
loop_
 _atom_site_type_symbol
 _atom_site_label
 _atom_site_symmetry_multiplicity
 _atom_site_fract_x
 _atom_site_fract_y
 _atom_site_fract_z
 _atom_site_occupancy
  Rb  Rb0  1  0.70986499  0.25809500  0.07781100  1
  Rb  Rb1  1  0.79013501  0.74190500  0.57781099  1
  Rb  Rb2  1  0.29013503  0.74190500  0.92218898  1
  Rb  Rb3  1  0.20986501  0.25809500  0.42218899  1
  Cu  Cu4  1  0.69049002  0.70597700  0.23191199  1
  Cu  Cu5  1  0.80950999  0.29402300  0.73191198  1
  Cu  Cu6  1  0.30951001  0.29402300  0.76808798  1
  Cu  Cu7  1  0.19049003  0.70597700  0.26808799  1
  S  S8  1  0.18314705  0.93966100  0.17934300  1
  S  S9  1  0.31685299  0.06033900  0.67934298  1
  S  S10  1  0.81685297  0.06033900  0.82065698  1
  S  S11  1  0.68314703  0.93966100  0.32065699  1
  S  S12  1  0.34114103  0.80398300  0.40764799  1
  S  S13  1  0.15885901  0.19601700  0.90764798  1
  S  S14  1  0.65885899  0.19601700  0.59235199  1
  S  S15  1  0.84114102  0.80398300  0.09235200  1
  S  S16  1  0.37994702  0.54775000  0.19663700  1
  S  S17  1  0.12005302  0.45225000  0.69663698  1
  S  S18  1  0.62005300  0.45225000  0.80336298  1
  S  S19  1  0.87994700  0.54775000  0.30336299  1
