# generated using pymatgen
data_Li4Mn4CoNiO10
_symmetry_space_group_name_H-M   'P 1'
_cell_length_a   2.90327001
_cell_length_b   5.06864882
_cell_length_c   12.80924702
_cell_angle_alpha   78.61569977
_cell_angle_beta   84.96774292
_cell_angle_gamma   74.96524811
_symmetry_Int_Tables_number   1
_chemical_formula_structural   Li4Mn4CoNiO10
_chemical_formula_sum   'Li4 Mn4 Co1 Ni1 O10'
_cell_volume   178.32956102
_cell_formula_units_Z   1
loop_
 _symmetry_equiv_pos_site_id
 _symmetry_equiv_pos_as_xyz
  1  'x, y, z'
loop_
 _atom_site_type_symbol
 _atom_site_label
 _atom_site_symmetry_multiplicity
 _atom_site_fract_x
 _atom_site_fract_y
 _atom_site_fract_z
 _atom_site_occupancy
  Li  Li0  1  0.90404598  0.49390898  0.70086000  1
  Li  Li1  1  0.49999998  0.49999998  0.50000000  1
  Li  Li2  1  0.09595398  0.50609098  0.29914001  1
  Li  Li3  1  0.71689398  0.50441298  0.08874700  1
  Mn  Mn4  1  0.28310598  0.49558698  0.91125301  1
  Mn  Mn5  1  0.00000000  0.00000000  0.00000000  1
  Mn  Mn6  1  0.59695497  0.98919495  0.80793001  1
  Mn  Mn7  1  0.40304500  0.01080500  0.19207000  1
  Ni  Ni8  1  0.19249300  0.00212500  0.60043300  1
  Co  Co9  1  0.80750697  0.99787495  0.39956701  1
  O  O10  1  0.22037698  0.77636996  0.75184201  1
  O  O11  1  0.85096398  0.76901196  0.55160201  1
  O  O12  1  0.45958298  0.77550596  0.34712901  1
  O  O13  1  0.02435698  0.78132896  0.15702401  1
  O  O14  1  0.65044898  0.76076996  0.93680501  1
  O  O15  1  0.54041699  0.22449399  0.65287100  1
  O  O16  1  0.14903599  0.23098799  0.44839800  1
  O  O17  1  0.77962299  0.22362999  0.24815800  1
  O  O18  1  0.34955099  0.23922999  0.06319500  1
  O  O19  1  0.97564299  0.21867099  0.84297600  1
