# generated using pymatgen
data_Li2CuF4
_symmetry_space_group_name_H-M   'P 1'
_cell_length_a   5.75205469
_cell_length_b   5.75279045
_cell_length_c   5.75413227
_cell_angle_alpha   119.29853058
_cell_angle_beta   119.27235413
_cell_angle_gamma   91.21315765
_symmetry_Int_Tables_number   1
_chemical_formula_structural   Li2CuF4
_chemical_formula_sum   'Li4 Cu2 F8'
_cell_volume   136.09232135
_cell_formula_units_Z   2
loop_
 _symmetry_equiv_pos_site_id
 _symmetry_equiv_pos_as_xyz
  1  'x, y, z'
loop_
 _atom_site_type_symbol
 _atom_site_label
 _atom_site_symmetry_multiplicity
 _atom_site_fract_x
 _atom_site_fract_y
 _atom_site_fract_z
 _atom_site_occupancy
  Li  Li0  1  0.00144096  0.49972099  0.50168198  1
  Li  Li1  1  0.49806596  0.49977399  0.99832595  1
  Li  Li2  1  0.99972792  0.99815699  0.49845293  1
  Li  Li3  1  0.99967596  0.50130699  0.00159296  1
  Cu  Cu4  1  0.38032299  0.13014200  0.24980498  1
  Cu  Cu5  1  0.63030993  0.88042699  0.75005794  1
  F  F6  1  0.76058198  0.29546000  0.03509997  1
  F  F7  1  0.23706194  0.70925499  0.97195895  1
  F  F8  1  0.76034294  0.72555799  0.46502595  1
  F  F9  1  0.23732398  0.26499300  0.52790997  1
  F  F10  1  0.76517294  0.73768399  0.02796996  1
  F  F11  1  0.22525698  0.25999200  0.96497996  1
  F  F12  1  0.20969194  0.73718399  0.47204796  1
  F  F13  1  0.79502198  0.26034500  0.53509096  1
