# generated using pymatgen
data_Li4Mg2ScIrSeI4Br7
_symmetry_space_group_name_H-M   'P 1'
_cell_length_a   8.34573936
_cell_length_b   8.34573936
_cell_length_c   8.34574032
_cell_angle_alpha   107.01832581
_cell_angle_beta   107.01832581
_cell_angle_gamma   107.01833344
_symmetry_Int_Tables_number   1
_chemical_formula_structural   Li4Mg2ScIrSeI4Br7
_chemical_formula_sum   'Li4 Mg2 Sc1 Ir1 Se1 I4 Br7'
_cell_volume   483.86347049
_cell_formula_units_Z   1
loop_
 _symmetry_equiv_pos_site_id
 _symmetry_equiv_pos_as_xyz
  1  'x, y, z'
loop_
 _atom_site_type_symbol
 _atom_site_label
 _atom_site_symmetry_multiplicity
 _atom_site_fract_x
 _atom_site_fract_y
 _atom_site_fract_z
 _atom_site_occupancy
  Li  Li0  1  0.10132200  0.02295100  0.30940298  1
  Li  Li1  1  0.30940300  0.10132200  0.02295099  1
  Li  Li2  1  0.02295100  0.30940300  0.10132199  1
  Li  Li3  1  0.89867801  0.97704901  0.69059692  1
  Mg  Mg4  1  0.69059701  0.89867801  0.97704891  1
  Mg  Mg5  1  0.97704901  0.69059701  0.89867791  1
  Sc  Sc6  1  0.50000001  0.50000000  0.49999995  1
  Ir  Ir7  1  0.00000000  0.00000000  0.00000000  1
  Br  Br8  1  0.45855400  0.17034200  0.38434897  1
  I  I9  1  0.38434901  0.45855400  0.17034197  1
  Se  Se10  1  0.17034200  0.38434900  0.45855396  1
  I  I11  1  0.54144601  0.82965801  0.61565094  1
  I  I12  1  0.61565101  0.54144600  0.82965793  1
  I  I13  1  0.82965801  0.61565101  0.54144594  1
  Br  Br14  1  0.78390001  0.93066701  0.32121794  1
  Br  Br15  1  0.32121801  0.78390001  0.93066693  1
  Br  Br16  1  0.93066701  0.32121800  0.78389993  1
  Br  Br17  1  0.21610000  0.06933300  0.67878196  1
  Br  Br18  1  0.67878201  0.21610000  0.06933297  1
  Br  Br19  1  0.06933301  0.67878201  0.21609997  1
