# generated using pymatgen
data_CaBiO3
_symmetry_space_group_name_H-M   'P 1'
_cell_length_a   6.02780628
_cell_length_b   6.02780628
_cell_length_c   6.34019566
_cell_angle_alpha   61.61692047
_cell_angle_beta   61.61692047
_cell_angle_gamma   59.99999619
_symmetry_Int_Tables_number   1
_chemical_formula_structural   CaBiO3
_chemical_formula_sum   'Ca2 Bi2 O6'
_cell_volume   166.76263435
_cell_formula_units_Z   2
loop_
 _symmetry_equiv_pos_site_id
 _symmetry_equiv_pos_as_xyz
  1  'x, y, z'
loop_
 _atom_site_type_symbol
 _atom_site_label
 _atom_site_symmetry_multiplicity
 _atom_site_fract_x
 _atom_site_fract_y
 _atom_site_fract_z
 _atom_site_occupancy
  Ca  Ca0  1  0.85170194  0.85170200  0.44489405  1
  Ca  Ca1  1  0.64829795  0.64829800  0.05510604  1
  Bi  Bi2  1  0.35170197  0.35170200  0.94489399  1
  Bi  Bi3  1  0.14829799  0.14829800  0.55510599  1
  O  O4  1  0.95350095  0.54649900  0.25000004  1
  O  O5  1  0.24999995  0.95350099  0.25000004  1
  O  O6  1  0.54649898  0.25000000  0.25000002  1
  O  O7  1  0.45350095  0.75000000  0.75000002  1
  O  O8  1  0.74999998  0.04649900  0.75000000  1
  O  O9  1  0.04649898  0.45350100  0.75000000  1
