# generated using pymatgen
data_Te4Mo2(WSe)3
_symmetry_space_group_name_H-M   'P 1'
_cell_length_a   3.43786597
_cell_length_b   3.43786669
_cell_length_c   39.19287491
_cell_angle_alpha   90.00000000
_cell_angle_beta   90.00000000
_cell_angle_gamma   119.99999237
_symmetry_Int_Tables_number   1
_chemical_formula_structural   Te4Mo2(WSe)3
_chemical_formula_sum   'Te4 Mo2 W3 Se3'
_cell_volume   401.15827916
_cell_formula_units_Z   1
loop_
 _symmetry_equiv_pos_site_id
 _symmetry_equiv_pos_as_xyz
  1  'x, y, z'
loop_
 _atom_site_type_symbol
 _atom_site_label
 _atom_site_symmetry_multiplicity
 _atom_site_fract_x
 _atom_site_fract_y
 _atom_site_fract_z
 _atom_site_occupancy
  Te  Te0  1  0.66666666  0.33333332  0.67055400  1
  Te  Te1  1  0.66666666  0.33333332  0.29482700  1
  Te  Te2  1  0.66666666  0.33333332  0.76585000  1
  Te  Te3  1  0.66666666  0.33333332  0.39012300  1
  Mo  Mo4  1  0.66666666  0.33333332  0.90608500  1
  W  W5  1  0.66666666  0.33333332  0.53033600  1
  Mo  Mo6  1  0.33333331  0.66666664  0.71820100  1
  W  W7  1  0.33333331  0.66666664  0.34246500  1
  W  W8  1  0.33333331  0.66666664  0.94801400  1
  Se  Se9  1  0.33333331  0.66666664  0.57228100  1
  Se  Se10  1  0.33333331  0.66666664  0.86412800  1
  Se  Se11  1  0.33333331  0.66666664  0.48839000  1
