# generated using pymatgen
data_LiTaTi4FeN7
_symmetry_space_group_name_H-M   'P 1'
_cell_length_a   5.19468403
_cell_length_b   5.95392609
_cell_length_c   5.31283283
_cell_angle_alpha   90.00000000
_cell_angle_beta   89.29974365
_cell_angle_gamma   90.00000000
_symmetry_Int_Tables_number   1
_chemical_formula_structural   LiTaTi4FeN7
_chemical_formula_sum   'Li1 Ta1 Ti4 Fe1 N7'
_cell_volume   164.30708463
_cell_formula_units_Z   1
loop_
 _symmetry_equiv_pos_site_id
 _symmetry_equiv_pos_as_xyz
  1  'x, y, z'
loop_
 _atom_site_type_symbol
 _atom_site_label
 _atom_site_symmetry_multiplicity
 _atom_site_fract_x
 _atom_site_fract_y
 _atom_site_fract_z
 _atom_site_occupancy
  Li  Li0  1  0.80998899  0.25000000  0.06100505  1
  Ti  Ti1  1  0.19001100  0.74999999  0.93899500  1
  Fe  Fe2  1  0.00000000  0.00000000  0.50000000  1
  Ti  Ti3  1  0.48828300  0.25000000  0.51949403  1
  Ti  Ti4  1  -0.00000000  0.49999999  0.50000000  1
  Ta  Ta5  1  0.51171700  0.74999999  0.48050603  1
  Ti  Ti6  1  0.32072900  0.98625199  0.69257902  1
  N  N7  1  0.67927100  0.01374800  0.30742104  1
  N  N8  1  0.83706499  0.25000000  0.70139605  1
  N  N9  1  0.14127700  0.25000000  0.30463201  1
  N  N10  1  0.32072900  0.51374799  0.69257902  1
  N  N11  1  0.67927100  0.48625199  0.30742104  1
  N  N12  1  0.85872299  0.74999999  0.69536805  1
  N  N13  1  0.16293500  0.74999999  0.29860401  1
