# generated using pymatgen
data_CuH7O10
_symmetry_space_group_name_H-M   'P 1'
_cell_length_a   5.30847216
_cell_length_b   5.35391331
_cell_length_c   6.52522326
_cell_angle_alpha   107.01490021
_cell_angle_beta   108.56689453
_cell_angle_gamma   94.88890839
_symmetry_Int_Tables_number   1
_chemical_formula_structural   CuH7O10
_chemical_formula_sum   'Cu1 H7 O10'
_cell_volume   164.81875038
_cell_formula_units_Z   1
loop_
 _symmetry_equiv_pos_site_id
 _symmetry_equiv_pos_as_xyz
  1  'x, y, z'
loop_
 _atom_site_type_symbol
 _atom_site_label
 _atom_site_symmetry_multiplicity
 _atom_site_fract_x
 _atom_site_fract_y
 _atom_site_fract_z
 _atom_site_occupancy
  Cu  Cu0  1  0.65167199  0.72730802  0.31522096  1
  H  H1  1  0.34832799  0.27269201  0.68477898  1
  H  H2  1  0.87701898  0.72606802  0.85169196  1
  H  H3  1  0.12298100  0.27393201  0.14830799  1
  H  H4  1  0.20533900  0.87604902  0.93246895  1
  H  H5  1  0.79466098  0.12395100  0.06753099  1
  H  H6  1  0.08648001  0.83124902  0.13484196  1
  H  H7  1  0.91351997  0.16875100  0.86515799  1
  O  O8  1  0.03748001  0.87137102  0.98147395  1
  O  O9  1  0.96251997  0.12862900  0.01852599  1
  O  O10  1  0.76225599  0.85778902  0.55455495  1
  O  O11  1  0.23774399  0.14221100  0.44544499  1
  O  O12  1  0.61771199  0.91964502  0.19978095  1
  O  O13  1  0.38228799  0.08035500  0.80021899  1
  O  O14  1  0.39131899  0.57097801  0.25290497  1
  O  O15  1  0.60868099  0.42902201  0.74709497  1
  O  O16  1  0.82695398  0.56745001  0.24415997  1
  O  O17  1  0.17304600  0.43255001  0.75583997  1
