# generated using pymatgen
data_LiCeS2
_symmetry_space_group_name_H-M   'P 1'
_cell_length_a   5.67164803
_cell_length_b   5.67164803
_cell_length_c   7.02747345
_cell_angle_alpha   113.79928589
_cell_angle_beta   113.79928589
_cell_angle_gamma   90.00000000
_symmetry_Int_Tables_number   1
_chemical_formula_structural   LiCeS2
_chemical_formula_sum   'Li2 Ce2 S4'
_cell_volume   185.63122581
_cell_formula_units_Z   2
loop_
 _symmetry_equiv_pos_site_id
 _symmetry_equiv_pos_as_xyz
  1  'x, y, z'
loop_
 _atom_site_type_symbol
 _atom_site_label
 _atom_site_symmetry_multiplicity
 _atom_site_fract_x
 _atom_site_fract_y
 _atom_site_fract_z
 _atom_site_occupancy
  Li  Li0  1  0.00000000  0.00000000  0.00000000  1
  Li  Li1  1  0.74999998  0.24999999  0.49999998  1
  Ce  Ce2  1  0.24999997  0.74999998  0.49999997  1
  Ce  Ce3  1  0.49999997  0.49999999  -0.00000004  1
  S  S4  1  0.74641396  0.74641398  0.49282796  1
  S  S5  1  0.25358599  0.25358599  0.50717200  1
  S  S6  1  0.00358598  0.50358599  0.00717198  1
  S  S7  1  0.49641396  0.99641397  0.99282797  1
