# generated using pymatgen
data_Zn2Cd3SnF14
_symmetry_space_group_name_H-M   'P 1'
_cell_length_a   5.05620813
_cell_length_b   5.78798008
_cell_length_c   11.09396744
_cell_angle_alpha   89.57826996
_cell_angle_beta   89.03443909
_cell_angle_gamma   64.10105896
_symmetry_Int_Tables_number   1
_chemical_formula_structural   Zn2Cd3SnF14
_chemical_formula_sum   'Zn2 Cd3 Sn1 F14'
_cell_volume   292.01835245
_cell_formula_units_Z   1
loop_
 _symmetry_equiv_pos_site_id
 _symmetry_equiv_pos_as_xyz
  1  'x, y, z'
loop_
 _atom_site_type_symbol
 _atom_site_label
 _atom_site_symmetry_multiplicity
 _atom_site_fract_x
 _atom_site_fract_y
 _atom_site_fract_z
 _atom_site_occupancy
  Cd  Cd0  1  0.07590305  0.84819396  0.74999996  1
  Zn  Zn1  1  0.92409698  0.15180599  0.24999999  1
  Cd  Cd2  1  0.50000002  0.49999998  0.49999997  1
  Zn  Zn3  1  0.00000003  0.49999998  -0.00000002  1
  Sn  Sn4  1  0.66325003  0.79355396  0.47591696  1
  Cd  Cd5  1  0.45680400  0.20644599  0.97591698  1
  F  F6  1  0.94504299  0.18642499  0.44999898  1
  F  F7  1  0.86853199  0.18642499  0.05000099  1
  F  F8  1  0.33675000  0.20644599  0.52408298  1
  F  F9  1  0.77371503  0.85552996  0.28413896  1
  F  F10  1  0.62924499  0.14446999  0.78413898  1
  F  F11  1  0.13146804  0.81357496  0.94999896  1
  F  F12  1  0.93401401  0.53576698  0.79302997  1
  F  F13  1  0.22628500  0.14446999  0.71586098  1
  F  F14  1  0.54319603  0.79355396  0.02408297  1
  F  F15  1  0.37075504  0.85552996  0.21586097  1
  F  F16  1  0.46978102  0.46423298  0.29302998  1
  F  F17  1  0.05495705  0.81357496  0.55000096  1
  F  F18  1  0.53021902  0.53576698  0.70696997  1
  F  F19  1  0.06598603  0.46423298  0.20696998  1
