# generated using pymatgen
data_Cu2P(SO2)3
_symmetry_space_group_name_H-M   'P 1'
_cell_length_a   4.80481100
_cell_length_b   4.80481100
_cell_length_c   7.51359606
_cell_angle_alpha   87.04418945
_cell_angle_beta   87.04418945
_cell_angle_gamma   65.49035645
_symmetry_Int_Tables_number   1
_chemical_formula_structural   Cu2P(SO2)3
_chemical_formula_sum   'Cu2 P1 S3 O6'
_cell_volume   157.53327822
_cell_formula_units_Z   1
loop_
 _symmetry_equiv_pos_site_id
 _symmetry_equiv_pos_as_xyz
  1  'x, y, z'
loop_
 _atom_site_type_symbol
 _atom_site_label
 _atom_site_symmetry_multiplicity
 _atom_site_fract_x
 _atom_site_fract_y
 _atom_site_fract_z
 _atom_site_occupancy
  Cu  Cu0  1  0.00000000  0.00000000  0.50000001  1
  Cu  Cu1  1  0.00000000  0.00000000  0.00000000  1
  P  P2  1  0.63365398  0.63365399  0.21152699  1
  S  S3  1  0.36634599  0.36634600  0.78847301  1
  S  S4  1  0.70767798  0.70767799  0.38267600  1
  S  S5  1  0.29232199  0.29232200  0.61732401  1
  O  O6  1  0.75916498  0.28566100  0.20378200  1
  O  O7  1  0.24083498  0.71433899  0.79621801  1
  O  O8  1  0.71433898  0.24083500  0.79621801  1
  O  O9  1  0.28566098  0.75916499  0.20378200  1
  O  O10  1  0.74791597  0.74791599  0.04817999  1
  O  O11  1  0.25208399  0.25208400  0.95182002  1
