# generated using pymatgen
data_AlCr4AgO8
_symmetry_space_group_name_H-M   'P 1'
_cell_length_a   5.13490820
_cell_length_b   5.13490820
_cell_length_c   8.75324821
_cell_angle_alpha   90.00000000
_cell_angle_beta   90.00000000
_cell_angle_gamma   120.00000000
_symmetry_Int_Tables_number   1
_chemical_formula_structural   AlCr4AgO8
_chemical_formula_sum   'Al1 Cr4 Ag1 O8'
_cell_volume   199.87811411
_cell_formula_units_Z   1
loop_
 _symmetry_equiv_pos_site_id
 _symmetry_equiv_pos_as_xyz
  1  'x, y, z'
loop_
 _atom_site_type_symbol
 _atom_site_label
 _atom_site_symmetry_multiplicity
 _atom_site_fract_x
 _atom_site_fract_y
 _atom_site_fract_z
 _atom_site_occupancy
  Al  Al0  1  0.66666665  0.33333334  0.94451498  1
  Cr  Cr1  1  0.33333334  0.66666668  0.44451499  1
  Cr  Cr2  1  0.66666665  0.33333334  0.54599699  1
  Cr  Cr3  1  0.33333334  0.66666668  0.04599700  1
  Cr  Cr4  1  0.00000000  0.00000000  0.82527698  1
  Ag  Ag5  1  0.00000000  0.00000000  0.32527699  1
  O  O6  1  0.95231698  0.65080501  0.48081699  1
  O  O7  1  0.66666665  0.33333334  0.73029998  1
  O  O8  1  0.34919499  0.30151200  0.48081699  1
  O  O9  1  0.69848797  0.04768300  0.48081699  1
  O  O10  1  0.65080500  0.95231701  0.98081698  1
  O  O11  1  0.33333334  0.66666668  0.23029999  1
  O  O12  1  0.30151200  0.34919500  0.98081698  1
  O  O13  1  0.04768302  0.69848801  0.98081698  1
