# generated using pymatgen
data_ZnInAg2(SbO3)4
_symmetry_space_group_name_H-M   'P 1'
_cell_length_a   5.41899109
_cell_length_b   5.64055014
_cell_length_c   7.99040222
_cell_angle_alpha   90.00000000
_cell_angle_beta   89.64077759
_cell_angle_gamma   90.00000000
_symmetry_Int_Tables_number   1
_chemical_formula_structural   ZnInAg2(SbO3)4
_chemical_formula_sum   'Zn1 In1 Ag2 Sb4 O12'
_cell_volume   244.23056065
_cell_formula_units_Z   1
loop_
 _symmetry_equiv_pos_site_id
 _symmetry_equiv_pos_as_xyz
  1  'x, y, z'
loop_
 _atom_site_type_symbol
 _atom_site_label
 _atom_site_symmetry_multiplicity
 _atom_site_fract_x
 _atom_site_fract_y
 _atom_site_fract_z
 _atom_site_occupancy
  Ag  Ag0  1  0.01340200  0.31291799  0.75103198  1
  Ag  Ag1  1  0.51340199  0.68708198  0.25103198  1
  In  In2  1  0.50549599  0.75410398  0.74947697  1
  Zn  Zn3  1  0.00549600  0.24589599  0.24947699  1
  Sb  Sb4  1  0.99985498  0.76446898  0.00189597  1
  Sb  Sb5  1  0.99906498  0.75994698  0.49864795  1
  Sb  Sb6  1  0.49985499  0.23553099  0.50189597  1
  Sb  Sb7  1  0.49906499  0.24005299  0.99864796  1
  O  O8  1  0.13044600  0.82743598  0.24657299  1
  O  O9  1  0.16798600  0.06565700  0.93380597  1
  O  O10  1  0.18286800  0.07389100  0.56796098  1
  O  O11  1  0.30875300  0.56771499  0.92936597  1
  O  O12  1  0.32694799  0.55901999  0.56871898  1
  O  O13  1  0.36518099  0.30953699  0.25378398  1
  O  O14  1  0.63044599  0.17256400  0.74657296  1
  O  O15  1  0.66798599  0.93434298  0.43380597  1
  O  O16  1  0.68286799  0.92610898  0.06796097  1
  O  O17  1  0.82694799  0.44097999  0.06871897  1
  O  O18  1  0.80875299  0.43228499  0.42936596  1
  O  O19  1  0.86518099  0.69046298  0.75378395  1
