# generated using pymatgen
data_Y4LuGe2W(N3O2)2
_symmetry_space_group_name_H-M   'P 1'
_cell_length_a   5.44660378
_cell_length_b   5.46401787
_cell_length_c   8.87768078
_cell_angle_alpha   90.00000000
_cell_angle_beta   107.86397552
_cell_angle_gamma   90.00000000
_symmetry_Int_Tables_number   1
_chemical_formula_structural   Y4LuGe2W(N3O2)2
_chemical_formula_sum   'Y4 Lu1 Ge2 W1 N6 O4'
_cell_volume   251.46491463
_cell_formula_units_Z   1
loop_
 _symmetry_equiv_pos_site_id
 _symmetry_equiv_pos_as_xyz
  1  'x, y, z'
loop_
 _atom_site_type_symbol
 _atom_site_label
 _atom_site_symmetry_multiplicity
 _atom_site_fract_x
 _atom_site_fract_y
 _atom_site_fract_z
 _atom_site_occupancy
  Lu  Lu0  1  0.17338201  0.52465501  0.34676399  1
  Y  Y1  1  0.82661803  0.47534501  0.65323597  1
  Y  Y2  1  0.32661801  0.02465500  0.65323598  1
  Y  Y3  1  0.67338202  0.97534502  0.34676398  1
  Y  Y4  1  0.00000000  0.00000000  0.00000000  1
  Ge  Ge5  1  0.50000002  0.50000001  -0.00000001  1
  W  W6  1  0.89028103  0.08087600  0.78056196  1
  Ge  Ge7  1  0.60971902  0.58087601  0.21943798  1
  N  N8  1  0.99886403  0.25000001  0.49772797  1
  N  N9  1  0.77024302  0.25000001  0.04048598  1
  O  O10  1  0.00113600  0.75000002  0.50227199  1
  N  N11  1  0.72975702  0.75000002  0.95951396  1
  O  O12  1  0.39028101  0.41912401  0.78056197  1
  N  N13  1  0.22975701  0.75000002  0.95951397  1
  N  N14  1  0.27024301  0.25000001  0.04048599  1
  N  N15  1  0.10971900  0.91912402  0.21943799  1
  O  O16  1  0.50113602  0.75000002  0.50227198  1
  O  O17  1  0.49886402  0.25000001  0.49772798  1
