# generated using pymatgen
data_K5RbH5ClO7F
_symmetry_space_group_name_H-M   'P 1'
_cell_length_a   6.46849918
_cell_length_b   6.77730751
_cell_length_c   7.29667664
_cell_angle_alpha   96.29127502
_cell_angle_beta   101.42269135
_cell_angle_gamma   91.60701752
_symmetry_Int_Tables_number   1
_chemical_formula_structural   K5RbH5ClO7F
_chemical_formula_sum   'K5 Rb1 H5 Cl1 O7 F1'
_cell_volume   311.24838354
_cell_formula_units_Z   1
loop_
 _symmetry_equiv_pos_site_id
 _symmetry_equiv_pos_as_xyz
  1  'x, y, z'
loop_
 _atom_site_type_symbol
 _atom_site_label
 _atom_site_symmetry_multiplicity
 _atom_site_fract_x
 _atom_site_fract_y
 _atom_site_fract_z
 _atom_site_occupancy
  K  K0  1  0.76157599  0.09139700  0.02888803  1
  K  K1  1  0.23842403  0.90860301  0.97111197  1
  K  K2  1  0.65408700  0.19918600  0.48271202  1
  Rb  Rb3  1  0.34591303  0.80081401  0.51728798  1
  K  K4  1  0.71682901  0.52322300  0.87003601  1
  K  K5  1  0.28317101  0.47677700  0.12996399  1
  H  H6  1  0.78582201  0.70225401  0.30320000  1
  H  H7  1  0.21417801  0.29774600  0.69680000  1
  H  H8  1  0.88575902  0.89045801  0.62504100  1
  H  H9  1  0.11424100  0.10954200  0.37495900  1
  Cl  Cl10  1  0.96790501  0.66447301  0.63073601  1
  O  O11  1  0.03209501  0.33552700  0.36926399  1
  H  H12  1  0.84024701  0.74318701  0.57699400  1
  O  O13  1  0.15975301  0.25681300  0.42300600  1
  O  O14  1  0.56638302  0.85021201  0.23729099  1
  F  F15  1  0.43361700  0.14978800  0.76270901  1
  O  O16  1  0.99589499  0.21955700  0.79226903  1
  O  O17  1  0.00410503  0.78044301  0.20773097  1
  O  O18  1  0.72263400  0.44530500  0.23894101  1
  O  O19  1  0.27736602  0.55469500  0.76105899  1
