# generated using pymatgen
data_SrTiAlCN3
_symmetry_space_group_name_H-M   'P 1'
_cell_length_a   4.36380291
_cell_length_b   5.12723780
_cell_length_c   5.12723875
_cell_angle_alpha   60.00000381
_cell_angle_beta   90.00000000
_cell_angle_gamma   90.00000000
_symmetry_Int_Tables_number   1
_chemical_formula_structural   SrTiAlCN3
_chemical_formula_sum   'Sr1 Ti1 Al1 C1 N3'
_cell_volume   99.34883458
_cell_formula_units_Z   1
loop_
 _symmetry_equiv_pos_site_id
 _symmetry_equiv_pos_as_xyz
  1  'x, y, z'
loop_
 _atom_site_type_symbol
 _atom_site_label
 _atom_site_symmetry_multiplicity
 _atom_site_fract_x
 _atom_site_fract_y
 _atom_site_fract_z
 _atom_site_occupancy
  Sr  Sr0  1  0.50000001  0.00000000  -0.00000000  1
  Ti  Ti1  1  1.00000002  0.33333335  0.33333332  1
  Al  Al2  1  0.00000000  0.66666669  0.66666664  1
  C  C3  1  0.00000000  0.69100503  0.92451997  1
  N  N4  1  1.00000002  0.92452103  0.38447399  1
  N  N5  1  1.00000002  0.38447501  0.69100397  1
  N  N6  1  0.50000001  0.33333335  0.33333332  1
