# generated using pymatgen
data_BaBiPbI7Br5O
_symmetry_space_group_name_H-M   'P 1'
_cell_length_a   4.52368593
_cell_length_b   7.74378490
_cell_length_c   16.48976707
_cell_angle_alpha   90.00000000
_cell_angle_beta   90.00000000
_cell_angle_gamma   106.98281860
_symmetry_Int_Tables_number   1
_chemical_formula_structural   BaBiPbI7Br5O
_chemical_formula_sum   'Ba1 Bi1 Pb1 I7 Br5 O1'
_cell_volume   552.45429989
_cell_formula_units_Z   1
loop_
 _symmetry_equiv_pos_site_id
 _symmetry_equiv_pos_as_xyz
  1  'x, y, z'
loop_
 _atom_site_type_symbol
 _atom_site_label
 _atom_site_symmetry_multiplicity
 _atom_site_fract_x
 _atom_site_fract_y
 _atom_site_fract_z
 _atom_site_occupancy
  Ba  Ba0  1  0.34466998  0.68934001  0.98321606  1
  Pb  Pb1  1  0.65533000  0.31066000  0.48321603  1
  Bi  Bi2  1  0.69568700  0.39137400  0.76090704  1
  I  I3  1  0.30431298  0.60862601  0.26090701  1
  I  I4  1  0.62449600  0.24899200  0.02857900  1
  I  I5  1  0.37550398  0.75100801  0.52857903  1
  O  O6  1  0.22562399  0.45124800  0.08562700  1
  Br  Br7  1  0.77657999  0.55316001  0.92403305  1
  I  I8  1  0.22341999  0.44684000  0.42403302  1
  Br  Br9  1  0.77437599  0.54875201  0.58562703  1
  Br  Br10  1  0.34551098  0.69102201  0.75272404  1
  I  I11  1  0.65448900  0.30897800  0.25272401  1
  I  I12  1  0.06516800  0.13033600  0.87529505  1
  Br  Br13  1  0.94102098  0.88204201  0.10981801  1
  Br  Br14  1  0.05897900  0.11795800  0.60981803  1
  I  I15  1  0.93483198  0.86966401  0.37529502  1
