# generated using pymatgen
data_BaEuFePbO2
_symmetry_space_group_name_H-M   'P 1'
_cell_length_a   4.19379807
_cell_length_b   4.19379759
_cell_length_c   9.80711365
_cell_angle_alpha   90.00000000
_cell_angle_beta   90.00000000
_cell_angle_gamma   120.00000763
_symmetry_Int_Tables_number   1
_chemical_formula_structural   BaEuFePbO2
_chemical_formula_sum   'Ba1 Eu1 Fe1 Pb1 O2'
_cell_volume   149.37805040
_cell_formula_units_Z   1
loop_
 _symmetry_equiv_pos_site_id
 _symmetry_equiv_pos_as_xyz
  1  'x, y, z'
loop_
 _atom_site_type_symbol
 _atom_site_label
 _atom_site_symmetry_multiplicity
 _atom_site_fract_x
 _atom_site_fract_y
 _atom_site_fract_z
 _atom_site_occupancy
  Eu  Eu0  1  0.00000000  0.00000000  0.00000000  1
  Ba  Ba1  1  0.00000000  0.00000000  0.50000002  1
  Pb  Pb2  1  0.66666668  0.33333334  0.25000001  1
  Fe  Fe3  1  0.33333337  0.66666667  0.75000003  1
  O  O4  1  0.66666668  0.33333334  0.75000003  1
  O  O5  1  0.33333337  0.66666667  0.25000001  1
