# generated using pymatgen
data_LiV(CO3)2
_symmetry_space_group_name_H-M   'P 1'
_cell_length_a   4.69259357
_cell_length_b   4.69259357
_cell_length_c   5.76796150
_cell_angle_alpha   65.99722290
_cell_angle_beta   65.99722290
_cell_angle_gamma   60.00000381
_symmetry_Int_Tables_number   1
_chemical_formula_structural   LiV(CO3)2
_chemical_formula_sum   'Li1 V1 C2 O6'
_cell_volume   97.10718987
_cell_formula_units_Z   1
loop_
 _symmetry_equiv_pos_site_id
 _symmetry_equiv_pos_as_xyz
  1  'x, y, z'
loop_
 _atom_site_type_symbol
 _atom_site_label
 _atom_site_symmetry_multiplicity
 _atom_site_fract_x
 _atom_site_fract_y
 _atom_site_fract_z
 _atom_site_occupancy
  Li  Li0  1  0.00000000  0.00000000  0.00000000  1
  V  V1  1  0.50000000  0.50000001  0.50000003  1
  C  C2  1  0.24490900  0.24490901  0.26527301  1
  C  C3  1  0.75509100  0.75509102  0.73472704  1
  O  O4  1  0.03678199  0.74245102  0.73584301  1
  O  O5  1  0.51507599  0.96321803  0.26415705  1
  O  O6  1  0.25754899  0.51507601  0.26415702  1
  O  O7  1  0.74245100  0.48492401  0.73584303  1
  O  O8  1  0.48492401  0.03678200  0.73584300  1
  O  O9  1  0.96321801  0.25754901  0.26415704  1
