# generated using pymatgen
data_Li3CuAg4F12
_symmetry_space_group_name_H-M   'P 1'
_cell_length_a   5.32223415
_cell_length_b   5.40324593
_cell_length_c   7.60305882
_cell_angle_alpha   90.00000000
_cell_angle_beta   90.00000000
_cell_angle_gamma   90.00000000
_symmetry_Int_Tables_number   1
_chemical_formula_structural   Li3CuAg4F12
_chemical_formula_sum   'Li3 Cu1 Ag4 F12'
_cell_volume   218.64374744
_cell_formula_units_Z   1
loop_
 _symmetry_equiv_pos_site_id
 _symmetry_equiv_pos_as_xyz
  1  'x, y, z'
loop_
 _atom_site_type_symbol
 _atom_site_label
 _atom_site_symmetry_multiplicity
 _atom_site_fract_x
 _atom_site_fract_y
 _atom_site_fract_z
 _atom_site_occupancy
  Li  Li0  1  0.49999999  0.00000000  0.50000001  1
  Li  Li1  1  -0.00000000  0.50000001  0.50000001  1
  Li  Li2  1  -0.00000000  0.50000001  0.00000000  1
  Cu  Cu3  1  0.49999999  0.00000000  0.00000000  1
  Ag  Ag4  1  0.00887300  0.96509301  0.75000002  1
  Ag  Ag5  1  0.50887299  0.53490701  0.25000001  1
  Ag  Ag6  1  0.49112699  0.46509301  0.75000002  1
  Ag  Ag7  1  0.99112697  0.03490700  0.25000001  1
  F  F8  1  0.70668698  0.28889700  0.45567801  1
  F  F9  1  0.20668699  0.21110300  0.54432201  1
  F  F10  1  0.79331298  0.78889701  0.04432200  1
  F  F11  1  0.29331299  0.71110301  0.95567802  1
  F  F12  1  0.29331299  0.71110301  0.54432201  1
  F  F13  1  0.79331298  0.78889701  0.45567801  1
  F  F14  1  0.20668699  0.21110300  0.95567802  1
  F  F15  1  0.70668698  0.28889700  0.04432200  1
  F  F16  1  0.08697700  0.47898801  0.25000001  1
  F  F17  1  0.58697698  0.02101200  0.75000002  1
  F  F18  1  0.41302299  0.97898801  0.25000001  1
  F  F19  1  0.91302297  0.52101201  0.75000002  1
