# generated using pymatgen
data_BaCaI3
_symmetry_space_group_name_H-M   'P 1'
_cell_length_a   6.20769310
_cell_length_b   6.21013784
_cell_length_c   6.21013784
_cell_angle_alpha   89.94564056
_cell_angle_beta   89.95899200
_cell_angle_gamma   89.95899200
_symmetry_Int_Tables_number   1
_chemical_formula_structural   BaCaI3
_chemical_formula_sum   'Ba1 Ca1 I3'
_cell_volume   239.40449504
_cell_formula_units_Z   1
loop_
 _symmetry_equiv_pos_site_id
 _symmetry_equiv_pos_as_xyz
  1  'x, y, z'
loop_
 _atom_site_type_symbol
 _atom_site_label
 _atom_site_symmetry_multiplicity
 _atom_site_fract_x
 _atom_site_fract_y
 _atom_site_fract_z
 _atom_site_occupancy
  Ba  Ba0  1  0.00000096  0.99897698  0.99897694  1
  Ca  Ca1  1  0.48192999  0.49352299  0.49352295  1
  I  I2  1  0.48645499  0.49570399  0.99833994  1
  I  I3  1  0.98303199  0.50832099  0.50832093  1
  I  I4  1  0.48645496  0.99833998  0.49570393  1
