# generated using pymatgen
data_Bi3PbSe5S
_symmetry_space_group_name_H-M   'P 1'
_cell_length_a   4.33528614
_cell_length_b   4.33528614
_cell_length_c   18.14034462
_cell_angle_alpha   83.13716888
_cell_angle_beta   83.13716888
_cell_angle_gamma   59.99999619
_symmetry_Int_Tables_number   1
_chemical_formula_structural   Bi3PbSe5S
_chemical_formula_sum   'Bi3 Pb1 Se5 S1'
_cell_volume   292.44066792
_cell_formula_units_Z   1
loop_
 _symmetry_equiv_pos_site_id
 _symmetry_equiv_pos_as_xyz
  1  'x, y, z'
loop_
 _atom_site_type_symbol
 _atom_site_label
 _atom_site_symmetry_multiplicity
 _atom_site_fract_x
 _atom_site_fract_y
 _atom_site_fract_z
 _atom_site_occupancy
  Bi  Bi0  1  0.41175302  0.41175301  0.76474097  1
  Bi  Bi1  1  0.78668005  0.78668002  0.63995998  1
  Bi  Bi2  1  0.00563700  0.00563700  0.98308897  1
  Pb  Pb3  1  0.19570201  0.19570201  0.41289399  1
  Se  Se4  1  0.60258204  0.60258202  0.19225399  1
  Se  Se5  1  0.30140202  0.30140201  0.09579400  1
  Se  Se6  1  0.49693303  0.49693301  0.50920098  1
  Se  Se7  1  0.89967705  0.89967703  0.30096899  1
  Se  Se8  1  0.69876804  0.69876802  0.90369597  1
  S  S9  1  0.10086701  0.10086700  0.69739898  1
