# generated using pymatgen
data_RbTl(SeO3)4
_symmetry_space_group_name_H-M   'P 1'
_cell_length_a   7.28223658
_cell_length_b   7.28223658
_cell_length_c   7.62872458
_cell_angle_alpha   100.98486328
_cell_angle_beta   111.74234009
_cell_angle_gamma   114.35101318
_symmetry_Int_Tables_number   1
_chemical_formula_structural   RbTl(SeO3)4
_chemical_formula_sum   'Rb1 Tl1 Se4 O12'
_cell_volume   312.91214459
_cell_formula_units_Z   1
loop_
 _symmetry_equiv_pos_site_id
 _symmetry_equiv_pos_as_xyz
  1  'x, y, z'
loop_
 _atom_site_type_symbol
 _atom_site_label
 _atom_site_symmetry_multiplicity
 _atom_site_fract_x
 _atom_site_fract_y
 _atom_site_fract_z
 _atom_site_occupancy
  Rb  Rb0  1  0.40570403  0.15570401  0.25000001  1
  Tl  Tl1  1  0.59429609  0.84429605  0.75000002  1
  Se  Se2  1  0.49068004  0.29622902  0.81006901  1
  Se  Se3  1  0.01384003  0.31938902  0.31006900  1
  Se  Se4  1  0.98616009  0.68061104  0.68993103  1
  Se  Se5  1  0.50932008  0.70377104  0.18993103  1
  O  O6  1  0.56479304  0.19270201  0.64797301  1
  O  O7  1  0.67821407  0.57274204  0.91467702  1
  O  O8  1  0.59206804  0.21802201  0.00325202  1
  O  O9  1  0.95527105  0.08318001  0.14797303  1
  O  O10  1  0.84193505  0.23646301  0.41467703  1
  O  O11  1  0.28523004  0.41118403  0.50325201  1
  O  O12  1  0.71477007  0.58881604  0.49674803  1
  O  O13  1  0.15806507  0.76353705  0.58532301  1
  O  O14  1  0.04472907  0.91682006  0.85202700  1
  O  O15  1  0.40793208  0.78197805  0.99674801  1
  O  O16  1  0.32178605  0.42725803  0.08532302  1
  O  O17  1  0.43520708  0.80729805  0.35202702  1
