# generated using pymatgen
data_LiMg2(TiN2)3
_symmetry_space_group_name_H-M   'P 1'
_cell_length_a   5.31545210
_cell_length_b   5.90857697
_cell_length_c   5.90857697
_cell_angle_alpha   119.20002747
_cell_angle_beta   90.00000000
_cell_angle_gamma   90.00000000
_symmetry_Int_Tables_number   1
_chemical_formula_structural   LiMg2(TiN2)3
_chemical_formula_sum   'Li1 Mg2 Ti3 N6'
_cell_volume   161.98744819
_cell_formula_units_Z   1
loop_
 _symmetry_equiv_pos_site_id
 _symmetry_equiv_pos_as_xyz
  1  'x, y, z'
loop_
 _atom_site_type_symbol
 _atom_site_label
 _atom_site_symmetry_multiplicity
 _atom_site_fract_x
 _atom_site_fract_y
 _atom_site_fract_z
 _atom_site_occupancy
  Li  Li0  1  0.01361000  0.33073598  0.99169095  1
  Mg  Mg1  1  0.01361000  0.99169094  0.33073594  1
  Mg  Mg2  1  0.51360999  0.66926396  0.00830897  1
  Ti  Ti3  1  0.51360999  0.00830900  0.66926398  1
  Ti  Ti4  1  0.01456100  0.66704296  0.66704294  1
  Ti  Ti5  1  0.51456099  0.33295698  0.33295697  1
  N  N6  1  0.61539699  0.33175198  0.02037398  1
  N  N7  1  0.61539699  0.02037400  0.33175199  1
  N  N8  1  0.11539700  0.66824796  0.97962593  1
  N  N9  1  0.11539700  0.97962594  0.66824793  1
  N  N10  1  0.63942499  0.65040796  0.65040794  1
  N  N11  1  0.13942500  0.34959198  0.34959197  1
