# generated using pymatgen
data_Al2CuBrO6
_symmetry_space_group_name_H-M   'P 1'
_cell_length_a   4.80773592
_cell_length_b   5.26558781
_cell_length_c   5.62877703
_cell_angle_alpha   90.00000000
_cell_angle_beta   90.00000000
_cell_angle_gamma   90.00000000
_symmetry_Int_Tables_number   1
_chemical_formula_structural   Al2CuBrO6
_chemical_formula_sum   'Al2 Cu1 Br1 O6'
_cell_volume   142.49561800
_cell_formula_units_Z   1
loop_
 _symmetry_equiv_pos_site_id
 _symmetry_equiv_pos_as_xyz
  1  'x, y, z'
loop_
 _atom_site_type_symbol
 _atom_site_label
 _atom_site_symmetry_multiplicity
 _atom_site_fract_x
 _atom_site_fract_y
 _atom_site_fract_z
 _atom_site_occupancy
  Al  Al0  1  0.00000000  0.00000000  0.50000000  1
  Al  Al1  1  0.50000001  0.00000000  0.00000000  1
  Cu  Cu2  1  0.80768701  0.28665101  0.50000000  1
  O  O3  1  0.75000001  0.86902803  0.75000000  1
  Br  Br4  1  0.75000001  0.86902803  0.25000000  1
  O  O5  1  0.69231301  0.28665101  -0.00000000  1
  O  O6  1  0.30768701  0.71334903  0.00000000  1
  O  O7  1  0.25000000  0.13097200  0.25000000  1
  O  O8  1  0.25000000  0.13097200  0.75000000  1
  O  O9  1  0.19231300  0.71334903  0.50000000  1
