# generated using pymatgen
data_RbCu2AgPPbAuS7
_symmetry_space_group_name_H-M   'P 1'
_cell_length_a   5.93514490
_cell_length_b   5.93514490
_cell_length_c   8.60021114
_cell_angle_alpha   90.00000000
_cell_angle_beta   90.00000000
_cell_angle_gamma   90.00000000
_symmetry_Int_Tables_number   1
_chemical_formula_structural   RbCu2AgPPbAuS7
_chemical_formula_sum   'Rb1 Cu2 Ag1 P1 Pb1 Au1 S7'
_cell_volume   302.95056472
_cell_formula_units_Z   1
loop_
 _symmetry_equiv_pos_site_id
 _symmetry_equiv_pos_as_xyz
  1  'x, y, z'
loop_
 _atom_site_type_symbol
 _atom_site_label
 _atom_site_symmetry_multiplicity
 _atom_site_fract_x
 _atom_site_fract_y
 _atom_site_fract_z
 _atom_site_occupancy
  Rb  Rb0  1  -0.00000000  0.50000001  0.25000000  1
  Pb  Pb1  1  0.50000001  0.00000000  0.74999999  1
  P  P2  1  -0.00000000  0.50000001  0.74999999  1
  Ag  Ag3  1  0.50000001  0.00000000  0.25000000  1
  Cu  Cu4  1  0.50000001  0.50000001  0.30664799  1
  Cu  Cu5  1  0.00000000  0.00000000  0.80664799  1
  S  S6  1  0.50000001  0.50000001  0.69335199  1
  Au  Au7  1  0.00000000  0.00000000  0.19335200  1
  S  S8  1  0.30126001  0.69874001  0.49999999  1
  S  S9  1  0.69874001  0.30126001  0.49999999  1
  S  S10  1  0.19874000  0.19874000  0.00000000  1
  S  S11  1  0.80126001  0.80126001  0.00000000  1
  S  S12  1  0.50000001  0.50000001  0.49999999  1
  S  S13  1  0.00000000  0.00000000  0.00000000  1
