# generated using pymatgen
data_KAgI2
_symmetry_space_group_name_H-M   'P 1'
_cell_length_a   4.47338200
_cell_length_b   5.06230688
_cell_length_c   6.71707439
_cell_angle_alpha   90.00000000
_cell_angle_beta   109.45011139
_cell_angle_gamma   90.00000000
_symmetry_Int_Tables_number   1
_chemical_formula_structural   KAgI2
_chemical_formula_sum   'K1 Ag1 I2'
_cell_volume   143.43161509
_cell_formula_units_Z   1
loop_
 _symmetry_equiv_pos_site_id
 _symmetry_equiv_pos_as_xyz
  1  'x, y, z'
loop_
 _atom_site_type_symbol
 _atom_site_label
 _atom_site_symmetry_multiplicity
 _atom_site_fract_x
 _atom_site_fract_y
 _atom_site_fract_z
 _atom_site_occupancy
  Ag  Ag0  1  0.38570401  0.75000002  0.77140801  1
  K  K1  1  0.61429601  0.25000001  0.22859202  1
  I  I2  1  0.86760202  0.25000001  0.73520403  1
  I  I3  1  0.13239800  0.75000002  0.26479600  1
