# generated using pymatgen
data_Cu5SbS8
_symmetry_space_group_name_H-M   'P 1'
_cell_length_a   7.24026299
_cell_length_b   7.24037170
_cell_length_c   7.24031734
_cell_angle_alpha   60.00147629
_cell_angle_beta   90.00091553
_cell_angle_gamma   120.00005341
_symmetry_Int_Tables_number   1
_chemical_formula_structural   Cu5SbS8
_chemical_formula_sum   'Cu5 Sb1 S8'
_cell_volume   268.39264911
_cell_formula_units_Z   1
loop_
 _symmetry_equiv_pos_site_id
 _symmetry_equiv_pos_as_xyz
  1  'x, y, z'
loop_
 _atom_site_type_symbol
 _atom_site_label
 _atom_site_symmetry_multiplicity
 _atom_site_fract_x
 _atom_site_fract_y
 _atom_site_fract_z
 _atom_site_occupancy
  Sb  Sb0  1  0.62501132  0.75000668  0.12498318  1
  Cu  Cu1  1  0.37500415  0.25000800  0.87500203  1
  Cu  Cu2  1  0.49997943  0.99991937  0.50007895  1
  Cu  Cu3  1  0.99996823  0.49997697  0.00002202  1
  Cu  Cu4  1  0.00001982  0.50004993  0.49994331  1
  Cu  Cu5  1  0.00000315  0.00000558  0.49998985  1
  S  S6  1  0.21347986  0.47565668  0.26217885  1
  S  S7  1  0.23782475  0.97564755  0.28652412  1
  S  S8  1  0.23782521  0.52435343  0.73781247  1
  S  S9  1  0.23783028  0.97565899  0.73782248  1
  S  S10  1  0.76216109  0.47563575  0.26219024  1
  S  S11  1  0.76216843  0.02434898  0.26217505  1
  S  S12  1  0.78653138  0.52436618  0.73780417  1
  S  S13  1  0.76219335  0.02437116  0.71347220  1
