# generated using pymatgen
data_CdInCl4
_symmetry_space_group_name_H-M   'P 1'
_cell_length_a   7.08815813
_cell_length_b   7.11174154
_cell_length_c   8.97733879
_cell_angle_alpha   90.00000000
_cell_angle_beta   90.00000000
_cell_angle_gamma   104.31628418
_symmetry_Int_Tables_number   1
_chemical_formula_structural   CdInCl4
_chemical_formula_sum   'Cd2 In2 Cl8'
_cell_volume   438.48659830
_cell_formula_units_Z   2
loop_
 _symmetry_equiv_pos_site_id
 _symmetry_equiv_pos_as_xyz
  1  'x, y, z'
loop_
 _atom_site_type_symbol
 _atom_site_label
 _atom_site_symmetry_multiplicity
 _atom_site_fract_x
 _atom_site_fract_y
 _atom_site_fract_z
 _atom_site_occupancy
  Cd  Cd0  1  0.77784699  0.00135700  0.63090401  1
  Cd  Cd1  1  0.22215298  0.49864301  0.13090400  1
  In  In2  1  0.22215296  0.99864301  0.36909601  1
  In  In3  1  0.77784697  0.50135701  0.86909602  1
  Cl  Cl4  1  0.98629695  0.72401401  0.07735600  1
  Cl  Cl5  1  0.01370297  0.77598601  0.57735601  1
  Cl  Cl6  1  0.01370299  0.27598600  0.92264402  1
  Cl  Cl7  1  0.98629697  0.22401400  0.42264401  1
  Cl  Cl8  1  0.43403396  0.74316401  0.32610801  1
  Cl  Cl9  1  0.56596596  0.75683601  0.82610802  1
  Cl  Cl10  1  0.56596598  0.25683600  0.67389202  1
  Cl  Cl11  1  0.43403398  0.24316400  0.17389200  1
