# generated using pymatgen
data_ZnGa3(WO7)2
_symmetry_space_group_name_H-M   'P 1'
_cell_length_a   5.19147205
_cell_length_b   5.55086994
_cell_length_c   10.30716228
_cell_angle_alpha   100.22042084
_cell_angle_beta   90.00000000
_cell_angle_gamma   90.00000000
_symmetry_Int_Tables_number   1
_chemical_formula_structural   ZnGa3(WO7)2
_chemical_formula_sum   'Zn1 Ga3 W2 O14'
_cell_volume   292.31037484
_cell_formula_units_Z   1
loop_
 _symmetry_equiv_pos_site_id
 _symmetry_equiv_pos_as_xyz
  1  'x, y, z'
loop_
 _atom_site_type_symbol
 _atom_site_label
 _atom_site_symmetry_multiplicity
 _atom_site_fract_x
 _atom_site_fract_y
 _atom_site_fract_z
 _atom_site_occupancy
  Zn  Zn0  1  0.93999699  0.50000000  0.75000002  1
  Ga  Ga1  1  0.06000300  0.50000000  0.25000000  1
  Ga  Ga2  1  0.24935800  0.07083300  0.92660104  1
  Ga  Ga3  1  0.75064199  0.07083300  0.42660102  1
  W  W4  1  0.24935800  0.92916700  0.57339900  1
  W  W5  1  0.75064199  0.92916700  0.07339898  1
  O  O6  1  0.42082700  0.00000000  0.75000003  1
  O  O7  1  0.57917299  0.00000000  0.25000001  1
  O  O8  1  0.94806499  0.15376800  0.60555702  1
  O  O9  1  0.05193500  0.15376800  0.10555700  1
  O  O10  1  0.44114600  0.21771000  0.51640002  1
  O  O11  1  0.55885399  0.21771000  0.01640000  1
  O  O12  1  0.08688400  0.33346200  0.87001903  1
  O  O13  1  0.91311599  0.33346200  0.37001901  1
  O  O14  1  0.08688400  0.66653800  0.62998101  1
  O  O15  1  0.91311599  0.66653800  0.12998099  1
  O  O16  1  0.44114600  0.78229000  0.98360002  1
  O  O17  1  0.55885399  0.78229000  0.48360000  1
  O  O18  1  0.94806499  0.84623200  0.89444302  1
  O  O19  1  0.05193500  0.84623200  0.39444300  1
