# generated using pymatgen
data_La2Y(PO4)3
_symmetry_space_group_name_H-M   'P 1'
_cell_length_a   6.50230503
_cell_length_b   7.26527596
_cell_length_c   7.26527548
_cell_angle_alpha   120.00000000
_cell_angle_beta   90.00000000
_cell_angle_gamma   90.00000000
_symmetry_Int_Tables_number   1
_chemical_formula_structural   La2Y(PO4)3
_chemical_formula_sum   'La2 Y1 P3 O12'
_cell_volume   297.23652232
_cell_formula_units_Z   1
loop_
 _symmetry_equiv_pos_site_id
 _symmetry_equiv_pos_as_xyz
  1  'x, y, z'
loop_
 _atom_site_type_symbol
 _atom_site_label
 _atom_site_symmetry_multiplicity
 _atom_site_fract_x
 _atom_site_fract_y
 _atom_site_fract_z
 _atom_site_occupancy
  Y  Y0  1  0.33333333  0.00000000  0.50000000  1
  La  La1  1  0.66666666  0.49999999  -0.00000002  1
  La  La2  1  0.00000000  0.49999999  0.49999998  1
  P  P3  1  0.83333300  0.00000000  0.50000000  1
  P  P4  1  0.16666700  0.49999999  -0.00000002  1
  P  P5  1  0.50000000  0.49999999  0.49999998  1
  O  O6  1  0.02048500  0.55288999  0.86371798  1
  O  O7  1  0.35381800  0.31082799  0.44710999  1
  O  O8  1  0.68715100  0.13628200  0.68917200  1
  O  O9  1  0.68715100  0.86371799  0.31082796  1
  O  O10  1  0.64618200  0.44710999  0.31082798  1
  O  O11  1  0.02048500  0.44710999  0.13628198  1
  O  O12  1  0.64618200  0.55288999  0.68917198  1
  O  O13  1  0.31284900  0.68917199  0.13628197  1
  O  O14  1  0.97951500  0.86371799  0.55288996  1
  O  O15  1  0.97951500  0.13628200  0.44711000  1
  O  O16  1  0.31284900  0.31082799  0.86371799  1
  O  O17  1  0.35381800  0.68917199  0.55288997  1
