# generated using pymatgen
data_LiNbF6
_symmetry_space_group_name_H-M   'P 1'
_cell_length_a   5.03020239
_cell_length_b   5.03020239
_cell_length_c   5.53006840
_cell_angle_alpha   62.94762802
_cell_angle_beta   62.94762802
_cell_angle_gamma   59.99999619
_symmetry_Int_Tables_number   1
_chemical_formula_structural   LiNbF6
_chemical_formula_sum   'Li1 Nb1 F6'
_cell_volume   103.12461875
_cell_formula_units_Z   1
loop_
 _symmetry_equiv_pos_site_id
 _symmetry_equiv_pos_as_xyz
  1  'x, y, z'
loop_
 _atom_site_type_symbol
 _atom_site_label
 _atom_site_symmetry_multiplicity
 _atom_site_fract_x
 _atom_site_fract_y
 _atom_site_fract_z
 _atom_site_occupancy
  Li  Li0  1  0.00000000  0.00000000  0.00000000  1
  Nb  Nb1  1  0.49999997  0.49999999  0.49999999  1
  F  F2  1  0.08943099  0.41056899  0.74999999  1
  F  F3  1  0.91056896  0.58943098  0.25000000  1
  F  F4  1  0.41056897  0.74999998  0.74999999  1
  F  F5  1  0.74999997  0.08943100  0.74999999  1
  F  F6  1  0.24999998  0.91056898  0.25000000  1
  F  F7  1  0.58943098  0.24999999  0.25000000  1
