# generated using pymatgen
data_CsSeI5Br4O7
_symmetry_space_group_name_H-M   'P 1'
_cell_length_a   6.85995722
_cell_length_b   7.33009100
_cell_length_c   8.68997383
_cell_angle_alpha   86.36492157
_cell_angle_beta   83.75668335
_cell_angle_gamma   70.21503448
_symmetry_Int_Tables_number   1
_chemical_formula_structural   CsSeI5Br4O7
_chemical_formula_sum   'Cs1 Se1 I5 Br4 O7'
_cell_volume   408.56940499
_cell_formula_units_Z   1
loop_
 _symmetry_equiv_pos_site_id
 _symmetry_equiv_pos_as_xyz
  1  'x, y, z'
loop_
 _atom_site_type_symbol
 _atom_site_label
 _atom_site_symmetry_multiplicity
 _atom_site_fract_x
 _atom_site_fract_y
 _atom_site_fract_z
 _atom_site_occupancy
  I  I0  1  0.73710397  0.66494800  0.32055204  1
  Cs  Cs1  1  0.26289599  0.33505200  0.67944803  1
  I  I2  1  0.47667598  0.66885000  0.79717104  1
  I  I3  1  0.52332398  0.33115000  0.20282902  1
  I  I4  1  0.01308900  0.04196100  0.61805502  1
  O  O5  1  0.98691096  0.95803901  0.38194505  1
  I  I6  1  0.09029600  0.18343900  0.24162201  1
  Br  Br7  1  0.90970397  0.81656101  0.75837805  1
  Br  Br8  1  0.14146099  0.04892200  0.00278600  1
  O  O9  1  0.85853897  0.95107801  0.99721406  1
  O  O10  1  0.23615799  0.67674600  0.39380702  1
  Se  Se11  1  0.76384197  0.32325400  0.60619304  1
  O  O12  1  0.23654999  0.57937800  0.15654102  1
  O  O13  1  0.76344997  0.42062200  0.84345905  1
  O  O14  1  0.39587199  0.12224200  0.32748302  1
  Br  Br15  1  0.60412798  0.87775801  0.67251704  1
  O  O16  1  0.40184598  0.77368501  0.03975602  1
  Br  Br17  1  0.59815398  0.22631500  0.96024404  1
