# generated using pymatgen
data_KBa2NaV2O8
_symmetry_space_group_name_H-M   'P 1'
_cell_length_a   6.44006395
_cell_length_b   6.44006300
_cell_length_c   8.46381664
_cell_angle_alpha   90.00000000
_cell_angle_beta   90.00000000
_cell_angle_gamma   120.00000763
_symmetry_Int_Tables_number   1
_chemical_formula_structural   KBa2NaV2O8
_chemical_formula_sum   'K1 Ba2 Na1 V2 O8'
_cell_volume   304.00248993
_cell_formula_units_Z   1
loop_
 _symmetry_equiv_pos_site_id
 _symmetry_equiv_pos_as_xyz
  1  'x, y, z'
loop_
 _atom_site_type_symbol
 _atom_site_label
 _atom_site_symmetry_multiplicity
 _atom_site_fract_x
 _atom_site_fract_y
 _atom_site_fract_z
 _atom_site_occupancy
  K  K0  1  0.66666669  0.33333335  0.18626301  1
  Na  Na1  1  0.33333338  0.66666670  0.81373703  1
  Ba  Ba2  1  0.00000000  0.00000000  0.50000002  1
  Ba  Ba3  1  0.00000000  0.00000000  0.00000000  1
  V  V4  1  0.66666669  0.33333335  0.68729003  1
  V  V5  1  0.33333338  0.66666670  0.31271001  1
  O  O6  1  0.18001702  0.36003402  0.23927801  1
  O  O7  1  0.18001705  0.81998204  0.23927801  1
  O  O8  1  0.63996506  0.81998204  0.23927801  1
  O  O9  1  0.36003501  0.18001801  0.76072203  1
  O  O10  1  0.81998302  0.18001801  0.76072203  1
  O  O11  1  0.81998305  0.63996603  0.76072203  1
  O  O12  1  0.33333338  0.66666670  0.52796502  1
  O  O13  1  0.66666669  0.33333335  0.47203502  1
