# generated using pymatgen
data_Li2YLuF8
_symmetry_space_group_name_H-M   'P 1'
_cell_length_a   5.25346613
_cell_length_b   5.25346613
_cell_length_c   6.57882261
_cell_angle_alpha   113.53260803
_cell_angle_beta   113.53260803
_cell_angle_gamma   90.00000000
_symmetry_Int_Tables_number   1
_chemical_formula_structural   Li2YLuF8
_chemical_formula_sum   'Li2 Y1 Lu1 F8'
_cell_volume   149.85331703
_cell_formula_units_Z   1
loop_
 _symmetry_equiv_pos_site_id
 _symmetry_equiv_pos_as_xyz
  1  'x, y, z'
loop_
 _atom_site_type_symbol
 _atom_site_label
 _atom_site_symmetry_multiplicity
 _atom_site_fract_x
 _atom_site_fract_y
 _atom_site_fract_z
 _atom_site_occupancy
  Li  Li0  1  0.24999994  0.74999995  0.49999995  1
  Li  Li1  1  0.49999994  0.49999997  -0.00000006  1
  Lu  Lu2  1  0.00000000  0.00000000  0.00000000  1
  Y  Y3  1  0.74999995  0.24999998  0.49999996  1
  F  F4  1  0.13651196  0.58510296  0.83763198  1
  F  F5  1  0.33510192  0.95111894  0.33763092  1
  F  F6  1  0.04887993  0.99747094  0.66236895  1
  F  F7  1  0.74747091  0.86348795  0.16236790  1
  F  F8  1  0.41489796  0.29888098  0.16236896  1
  F  F9  1  0.61348793  0.66489696  0.66236794  1
  F  F10  1  0.70111995  0.25252898  0.83763097  1
  F  F11  1  0.00252898  0.38651198  0.33763198  1
