# generated using pymatgen
data_Li3MgFeCoF12
_symmetry_space_group_name_H-M   'P 1'
_cell_length_a   5.08317804
_cell_length_b   5.08317852
_cell_length_c   9.74955463
_cell_angle_alpha   90.00000000
_cell_angle_beta   90.00000000
_cell_angle_gamma   119.99999237
_symmetry_Int_Tables_number   1
_chemical_formula_structural   Li3MgFeCoF12
_chemical_formula_sum   'Li3 Mg1 Fe1 Co1 F12'
_cell_volume   218.16552639
_cell_formula_units_Z   1
loop_
 _symmetry_equiv_pos_site_id
 _symmetry_equiv_pos_as_xyz
  1  'x, y, z'
loop_
 _atom_site_type_symbol
 _atom_site_label
 _atom_site_symmetry_multiplicity
 _atom_site_fract_x
 _atom_site_fract_y
 _atom_site_fract_z
 _atom_site_occupancy
  Mg  Mg0  1  0.66666664  0.33333333  0.75000003  1
  Li  Li1  1  0.33333328  0.66666666  0.25000001  1
  Li  Li2  1  0.00000000  0.00000000  0.00000000  1
  Li  Li3  1  0.00000000  0.00000000  0.50000002  1
  Co  Co4  1  0.33333328  0.66666666  0.75000003  1
  Fe  Fe5  1  0.66666664  0.33333333  0.25000001  1
  F  F6  1  0.62418195  0.65550599  0.85687103  1
  F  F7  1  0.37581799  0.03132400  0.35687101  1
  F  F8  1  0.65550595  0.62418199  0.35687101  1
  F  F9  1  0.96867597  0.34449399  0.35687101  1
  F  F10  1  0.03132395  0.65550599  0.64312902  1
  F  F11  1  0.03132397  0.37581799  0.85687103  1
  F  F12  1  0.34449393  0.96867598  0.85687103  1
  F  F13  1  0.34449397  0.37581799  0.64312902  1
  F  F14  1  0.96867595  0.62418199  0.14312901  1
  F  F15  1  0.62418192  0.96867598  0.64312902  1
  F  F16  1  0.37581797  0.34449399  0.14312901  1
  F  F17  1  0.65550599  0.03132400  0.14312901  1
