# generated using pymatgen
data_Li3MnV2O8
_symmetry_space_group_name_H-M   'P 1'
_cell_length_a   5.71350479
_cell_length_b   5.71350479
_cell_length_c   5.77824640
_cell_angle_alpha   60.36995316
_cell_angle_beta   60.36995316
_cell_angle_gamma   59.99999237
_symmetry_Int_Tables_number   1
_chemical_formula_structural   Li3MnV2O8
_chemical_formula_sum   'Li3 Mn1 V2 O8'
_cell_volume   134.11959466
_cell_formula_units_Z   1
loop_
 _symmetry_equiv_pos_site_id
 _symmetry_equiv_pos_as_xyz
  1  'x, y, z'
loop_
 _atom_site_type_symbol
 _atom_site_label
 _atom_site_symmetry_multiplicity
 _atom_site_fract_x
 _atom_site_fract_y
 _atom_site_fract_z
 _atom_site_occupancy
  Li  Li0  1  0.87860302  0.87860299  0.36419094  1
  Li  Li1  1  0.49997701  0.49997699  0.50006897  1
  V  V2  1  0.99433001  0.50140399  0.00286195  1
  Li  Li3  1  0.50140402  0.99432999  0.00286195  1
  V  V4  1  0.50140401  0.50140399  0.00286196  1
  Mn  Mn5  1  0.12135100  0.12135100  0.63594700  1
  O  O6  1  0.73687302  0.73687299  0.78938096  1
  O  O7  1  0.75006802  0.75006799  0.20644795  1
  O  O8  1  0.75006800  0.29341600  0.20644797  1
  O  O9  1  0.29341602  0.75006799  0.20644796  1
  O  O10  1  0.70979500  0.25111900  0.78796698  1
  O  O11  1  0.25111902  0.70979499  0.78796697  1
  O  O12  1  0.25111901  0.25111900  0.78796699  1
  O  O13  1  0.26047501  0.26047500  0.21857498  1
