# generated using pymatgen
data_RbDySeS
_symmetry_space_group_name_H-M   'P 1'
_cell_length_a   4.12674809
_cell_length_b   4.12674809
_cell_length_c   8.40948772
_cell_angle_alpha   75.79673767
_cell_angle_beta   75.79673767
_cell_angle_gamma   60.00000000
_symmetry_Int_Tables_number   1
_chemical_formula_structural   RbDySeS
_chemical_formula_sum   'Rb1 Dy1 Se1 S1'
_cell_volume   118.94499492
_cell_formula_units_Z   1
loop_
 _symmetry_equiv_pos_site_id
 _symmetry_equiv_pos_as_xyz
  1  'x, y, z'
loop_
 _atom_site_type_symbol
 _atom_site_label
 _atom_site_symmetry_multiplicity
 _atom_site_fract_x
 _atom_site_fract_y
 _atom_site_fract_z
 _atom_site_occupancy
  Rb  Rb0  1  0.00000000  0.00000000  0.00000000  1
  Dy  Dy1  1  0.49999996  0.49999998  0.50000001  1
  Se  Se2  1  0.77263994  0.77263998  0.68208002  1
  S  S3  1  0.22735998  0.22735999  0.31792000  1
