# generated using pymatgen
data_TbYbOF2
_symmetry_space_group_name_H-M   'P 1'
_cell_length_a   3.63483596
_cell_length_b   3.63483572
_cell_length_c   5.83274221
_cell_angle_alpha   90.00000000
_cell_angle_beta   90.00000000
_cell_angle_gamma   120.00000000
_symmetry_Int_Tables_number   1
_chemical_formula_structural   TbYbOF2
_chemical_formula_sum   'Yb1 Tb1 O1 F2'
_cell_volume   66.73797384
_cell_formula_units_Z   1
loop_
 _symmetry_equiv_pos_site_id
 _symmetry_equiv_pos_as_xyz
  1  'x, y, z'
loop_
 _atom_site_type_symbol
 _atom_site_label
 _atom_site_symmetry_multiplicity
 _atom_site_fract_x
 _atom_site_fract_y
 _atom_site_fract_z
 _atom_site_occupancy
  Yb  Yb0  1  0.33333330  0.66666665  0.25010299  1
  Tb  Tb1  1  0.66666666  0.33333333  0.74989697  1
  F  F2  1  0.33333330  0.66666665  0.64574098  1
  O  O3  1  0.66666666  0.33333333  0.35425899  1
  F  F4  1  0.00000000  0.00000000  0.00000000  1
