# generated using pymatgen
data_Tl5Cu2AgI5Br7
_symmetry_space_group_name_H-M   'P 1'
_cell_length_a   7.77369499
_cell_length_b   8.86961365
_cell_length_c   9.82996178
_cell_angle_alpha   90.00000000
_cell_angle_beta   90.00000000
_cell_angle_gamma   106.03916931
_symmetry_Int_Tables_number   1
_chemical_formula_structural   Tl5Cu2AgI5Br7
_chemical_formula_sum   'Tl5 Cu2 Ag1 I5 Br7'
_cell_volume   651.38900176
_cell_formula_units_Z   1
loop_
 _symmetry_equiv_pos_site_id
 _symmetry_equiv_pos_as_xyz
  1  'x, y, z'
loop_
 _atom_site_type_symbol
 _atom_site_label
 _atom_site_symmetry_multiplicity
 _atom_site_fract_x
 _atom_site_fract_y
 _atom_site_fract_z
 _atom_site_occupancy
  Tl  Tl0  1  0.60339001  0.47966103  0.33609201  1
  Tl  Tl1  1  0.89661001  0.52033903  0.83609202  1
  Cu  Cu2  1  0.39661001  0.52033903  0.66390802  1
  Tl  Tl3  1  0.10339001  0.47966103  0.16390800  1
  Tl  Tl4  1  0.24401401  0.99720406  0.13876100  1
  Ag  Ag5  1  0.25598600  0.00279600  0.63876101  1
  Tl  Tl6  1  0.75598600  0.00279600  0.86123902  1
  Cu  Cu7  1  0.74401401  0.99720406  0.36123901  1
  Br  Br8  1  0.97754901  0.35982702  0.53537301  1
  I  I9  1  0.47754900  0.35982702  0.96462702  1
  Br  Br10  1  0.02245101  0.64017304  0.46462701  1
  I  I11  1  0.52245101  0.64017304  0.03537300  1
  I  I12  1  0.33333334  0.75596104  0.40026501  1
  I  I13  1  0.83598701  0.76428204  0.60022801  1
  Br  Br14  1  0.16401300  0.23571801  0.39977201  1
  Br  Br15  1  0.33598701  0.76428204  0.89977202  1
  Br  Br16  1  0.16671300  0.24403901  0.90026502  1
  Br  Br17  1  0.66671300  0.24403901  0.59973501  1
  I  I18  1  0.83328701  0.75596104  0.09973500  1
  Br  Br19  1  0.66401300  0.23571801  0.10022800  1
