# generated using pymatgen
data_TlAgTeS2
_symmetry_space_group_name_H-M   'P 1'
_cell_length_a   5.51827335
_cell_length_b   5.51827335
_cell_length_c   5.51827383
_cell_angle_alpha   89.84400177
_cell_angle_beta   89.84400177
_cell_angle_gamma   89.84400177
_symmetry_Int_Tables_number   1
_chemical_formula_structural   TlAgTeS2
_chemical_formula_sum   'Tl1 Ag1 Te1 S2'
_cell_volume   168.03697194
_cell_formula_units_Z   1
loop_
 _symmetry_equiv_pos_site_id
 _symmetry_equiv_pos_as_xyz
  1  'x, y, z'
loop_
 _atom_site_type_symbol
 _atom_site_label
 _atom_site_symmetry_multiplicity
 _atom_site_fract_x
 _atom_site_fract_y
 _atom_site_fract_z
 _atom_site_occupancy
  Tl  Tl0  1  0.00007400  0.00007400  0.00007400  1
  Te  Te1  1  0.48676202  0.48676201  0.48676200  1
  S  S2  1  0.50327901  0.05060600  0.50327900  1
  Ag  Ag3  1  0.50327902  0.50327901  0.05060600  1
  S  S4  1  0.05060601  0.50327901  0.50327900  1
