# generated using pymatgen
data_K2NbTlS6
_symmetry_space_group_name_H-M   'P 1'
_cell_length_a   7.67655039
_cell_length_b   7.69002867
_cell_length_c   7.72592592
_cell_angle_alpha   102.92658997
_cell_angle_beta   103.30579376
_cell_angle_gamma   103.03824615
_symmetry_Int_Tables_number   1
_chemical_formula_structural   K2NbTlS6
_chemical_formula_sum   'K2 Nb1 Tl1 S6'
_cell_volume   413.72176589
_cell_formula_units_Z   1
loop_
 _symmetry_equiv_pos_site_id
 _symmetry_equiv_pos_as_xyz
  1  'x, y, z'
loop_
 _atom_site_type_symbol
 _atom_site_label
 _atom_site_symmetry_multiplicity
 _atom_site_fract_x
 _atom_site_fract_y
 _atom_site_fract_z
 _atom_site_occupancy
  K  K0  1  0.00000000  0.00000000  0.50000000  1
  K  K1  1  -0.00000002  0.50000000  0.99999996  1
  Tl  Tl2  1  0.50000002  0.00000000  1.00000001  1
  Nb  Nb3  1  0.00000000  0.00000000  0.00000000  1
  S  S4  1  0.78017102  0.05126100  0.77797402  1
  S  S5  1  0.21982897  0.94873900  0.22202594  1
  S  S6  1  0.06661897  0.78030300  0.79313994  1
  S  S7  1  0.93338102  0.21969700  0.20686001  1
  S  S8  1  0.78700699  0.78643100  0.06870297  1
  S  S9  1  0.21299300  0.21356900  0.93129699  1
