# generated using pymatgen
data_NaLi4Zn2SbF12
_symmetry_space_group_name_H-M   'P 1'
_cell_length_a   5.27535248
_cell_length_b   5.27535248
_cell_length_c   10.04535198
_cell_angle_alpha   91.95050049
_cell_angle_beta   91.95050049
_cell_angle_gamma   114.93731689
_symmetry_Int_Tables_number   1
_chemical_formula_structural   NaLi4Zn2SbF12
_chemical_formula_sum   'Na1 Li4 Zn2 Sb1 F12'
_cell_volume   252.98423460
_cell_formula_units_Z   1
loop_
 _symmetry_equiv_pos_site_id
 _symmetry_equiv_pos_as_xyz
  1  'x, y, z'
loop_
 _atom_site_type_symbol
 _atom_site_label
 _atom_site_symmetry_multiplicity
 _atom_site_fract_x
 _atom_site_fract_y
 _atom_site_fract_z
 _atom_site_occupancy
  Li  Li0  1  0.62900197  0.37099799  0.25000001  1
  Na  Na1  1  0.74339097  0.25660899  0.74999998  1
  Li  Li2  1  0.25660896  0.74339097  0.25000001  1
  Li  Li3  1  0.37099796  0.62900198  0.74999998  1
  Li  Li4  1  0.32296099  0.17620799  0.51236999  1
  Zn  Zn5  1  0.82379195  0.67703897  0.98762998  1
  Zn  Zn6  1  0.67703895  0.82379197  0.48763000  1
  Sb  Sb7  1  0.17620798  0.32296099  0.01237001  1
  F  F8  1  0.99696594  0.84001397  0.39953301  1
  F  F9  1  0.15998600  0.00303400  0.10046700  1
  F  F10  1  0.48223197  0.39221498  0.88274497  1
  F  F11  1  0.60778496  0.51776798  0.61725499  1
  F  F12  1  0.44573894  0.94647296  0.62408300  1
  F  F13  1  0.55426099  0.05352700  0.37591699  1
  F  F14  1  0.94647296  0.44573898  0.12408302  1
  F  F15  1  0.05352697  0.55426098  0.87591697  1
  F  F16  1  0.84001393  0.99696596  0.89953299  1
  F  F17  1  0.00303399  0.15998599  0.60046698  1
  F  F18  1  0.39221497  0.48223198  0.38274500  1
  F  F19  1  0.51776796  0.60778498  0.11725501  1
