# generated using pymatgen
data_Li2TmMnNiAg3F12
_symmetry_space_group_name_H-M   'P 1'
_cell_length_a   5.65351677
_cell_length_b   5.65357113
_cell_length_c   9.94671440
_cell_angle_alpha   73.56642151
_cell_angle_beta   73.56356812
_cell_angle_gamma   61.59757233
_symmetry_Int_Tables_number   1
_chemical_formula_structural   Li2TmMnNiAg3F12
_chemical_formula_sum   'Li2 Tm1 Mn1 Ni1 Ag3 F12'
_cell_volume   264.04826539
_cell_formula_units_Z   1
loop_
 _symmetry_equiv_pos_site_id
 _symmetry_equiv_pos_as_xyz
  1  'x, y, z'
loop_
 _atom_site_type_symbol
 _atom_site_label
 _atom_site_symmetry_multiplicity
 _atom_site_fract_x
 _atom_site_fract_y
 _atom_site_fract_z
 _atom_site_occupancy
  Tm  Tm0  1  0.77521597  0.22476001  0.25000502  1
  Li  Li1  1  0.20982297  0.79019002  0.74997798  1
  Li  Li2  1  0.50649398  0.00437500  0.00137202  1
  Mn  Mn3  1  0.99550795  0.49384001  0.49864602  1
  Ag  Ag4  1  0.64518498  0.07060400  0.62788601  1
  Ag  Ag5  1  0.92944596  0.35469101  0.87214401  1
  Ag  Ag6  1  0.34650396  0.91598602  0.38048699  1
  Ni  Ni7  1  0.08406097  0.65340801  0.11950299  1
  F  F8  1  0.28722998  0.42854101  0.87007098  1
  F  F9  1  0.57147496  0.71273502  0.62992400  1
  F  F10  1  0.72491796  0.59191201  0.12078702  1
  F  F11  1  0.40803998  0.27509701  0.37925700  1
  F  F12  1  0.09978899  0.19182500  0.66391598  1
  F  F13  1  0.80829295  0.90008402  0.83601700  1
  F  F14  1  0.89773295  0.78814802  0.33526502  1
  F  F15  1  0.21185699  0.10227500  0.16472600  1
  F  F16  1  0.74313998  0.08721600  0.07910103  1
  F  F17  1  0.91274196  0.25686901  0.42090902  1
  F  F18  1  0.27495196  0.93236002  0.91706898  1
  F  F19  1  0.06759397  0.72508402  0.58293498  1
