# generated using pymatgen
data_BaSr(H4O3)2
_symmetry_space_group_name_H-M   'P 1'
_cell_length_a   3.93720198
_cell_length_b   5.68021917
_cell_length_c   7.57648230
_cell_angle_alpha   90.32009888
_cell_angle_beta   92.46811676
_cell_angle_gamma   93.91384125
_symmetry_Int_Tables_number   1
_chemical_formula_structural   BaSr(H4O3)2
_chemical_formula_sum   'Ba1 Sr1 H8 O6'
_cell_volume   168.88357367
_cell_formula_units_Z   1
loop_
 _symmetry_equiv_pos_site_id
 _symmetry_equiv_pos_as_xyz
  1  'x, y, z'
loop_
 _atom_site_type_symbol
 _atom_site_label
 _atom_site_symmetry_multiplicity
 _atom_site_fract_x
 _atom_site_fract_y
 _atom_site_fract_z
 _atom_site_occupancy
  Sr  Sr0  1  0.98528899  0.36373001  0.29406202  1
  Ba  Ba1  1  0.99413297  0.63497001  0.77556302  1
  H  H2  1  0.31136295  0.96283102  0.14931999  1
  H  H3  1  0.77701396  0.85203902  0.13712901  1
  H  H4  1  0.78637900  0.09889700  0.65608902  1
  H  H5  1  0.20016300  0.10739400  0.65648601  1
  H  H6  1  0.48159798  0.40162101  0.55417601  1
  H  H7  1  0.49149096  0.81626602  0.57586500  1
  H  H8  1  0.45424599  0.27181901  0.02114801  1
  H  H9  1  0.60348397  0.54980201  0.02335401  1
  O  O10  1  0.91166297  0.72131202  0.10130901  1
  O  O11  1  0.00103599  0.20958400  0.63113600  1
  O  O12  1  0.45494100  0.10848700  0.17735401  1
  O  O13  1  0.49231795  0.91391002  0.68568100  1
  O  O14  1  0.51942597  0.53221201  0.47339001  1
  O  O15  1  0.46609598  0.42645501  0.94391701  1
