# generated using pymatgen
data_CsHg2TeAuSeSCl13
_symmetry_space_group_name_H-M   'P 1'
_cell_length_a   7.25870800
_cell_length_b   7.33611584
_cell_length_c   12.65355778
_cell_angle_alpha   82.04048157
_cell_angle_beta   73.74575043
_cell_angle_gamma   60.34843445
_symmetry_Int_Tables_number   1
_chemical_formula_structural   CsHg2TeAuSeSCl13
_chemical_formula_sum   'Cs1 Hg2 Te1 Au1 Se1 S1 Cl13'
_cell_volume   562.16957357
_cell_formula_units_Z   1
loop_
 _symmetry_equiv_pos_site_id
 _symmetry_equiv_pos_as_xyz
  1  'x, y, z'
loop_
 _atom_site_type_symbol
 _atom_site_label
 _atom_site_symmetry_multiplicity
 _atom_site_fract_x
 _atom_site_fract_y
 _atom_site_fract_z
 _atom_site_occupancy
  Cs  Cs0  1  0.76406698  0.58415103  0.09121702  1
  Au  Au1  1  0.34821798  0.41584902  0.59121703  1
  Hg  Hg2  1  0.50212299  0.24992601  0.99961705  1
  Hg  Hg3  1  0.75204897  0.75007403  0.49961704  1
  Te  Te4  1  0.78828596  0.99392504  0.22339903  1
  Cl  Cl5  1  0.75692498  0.49832902  0.77657104  1
  S  S6  1  0.78221099  0.00607500  0.72339904  1
  Se  Se7  1  0.25525398  0.50167102  0.27657102  1
  Cl  Cl8  1  0.64379598  0.36425802  0.26163802  1
  Cl  Cl9  1  0.02067700  0.13516301  0.74055403  1
  Cl  Cl10  1  0.00805298  0.63574303  0.76163803  1
  Cl  Cl11  1  0.15583997  0.86483704  0.24055402  1
  Cl  Cl12  1  0.10564398  0.42938202  0.46093202  1
  Cl  Cl13  1  0.74550499  0.07060500  0.53907003  1
  Cl  Cl14  1  0.53502598  0.57061902  0.96093205  1
  Cl  Cl15  1  0.81610996  0.92939504  0.03907002  1
  Cl  Cl16  1  0.17664299  0.34281201  0.15350201  1
  Cl  Cl17  1  0.42779499  0.15342701  0.84529904  1
  Cl  Cl18  1  0.51945497  0.65718803  0.65350204  1
  Cl  Cl19  1  0.58122197  0.84657304  0.34529903  1
