# generated using pymatgen
data_CdAg2Cl3
_symmetry_space_group_name_H-M   'P 1'
_cell_length_a   4.26396847
_cell_length_b   6.01884317
_cell_length_c   7.39532614
_cell_angle_alpha   114.00847626
_cell_angle_beta   106.75549316
_cell_angle_gamma   90.00000000
_symmetry_Int_Tables_number   1
_chemical_formula_structural   CdAg2Cl3
_chemical_formula_sum   'Cd1 Ag2 Cl3'
_cell_volume   164.51448440
_cell_formula_units_Z   1
loop_
 _symmetry_equiv_pos_site_id
 _symmetry_equiv_pos_as_xyz
  1  'x, y, z'
loop_
 _atom_site_type_symbol
 _atom_site_label
 _atom_site_symmetry_multiplicity
 _atom_site_fract_x
 _atom_site_fract_y
 _atom_site_fract_z
 _atom_site_occupancy
  Ag  Ag0  1  0.00086902  0.99011798  0.00173802  1
  Cd  Cd1  1  0.66332501  0.66496299  0.32665103  1
  Ag  Ag2  1  0.33561501  0.34575099  0.67123003  1
  Cl  Cl3  1  0.49965002  0.77567798  0.99930105  1
  Cl  Cl4  1  0.15818001  0.39331199  0.31636202  1
  Cl  Cl5  1  0.84235900  0.08018000  0.68471703  1
