# generated using pymatgen
data_KBa2LaTi3N8F3
_symmetry_space_group_name_H-M   'P 1'
_cell_length_a   7.46336651
_cell_length_b   7.50243950
_cell_length_c   7.48645830
_cell_angle_alpha   60.57846069
_cell_angle_beta   89.11257172
_cell_angle_gamma   119.31879425
_symmetry_Int_Tables_number   1
_chemical_formula_structural   KBa2LaTi3N8F3
_chemical_formula_sum   'K1 Ba2 La1 Ti3 N8 F3'
_cell_volume   299.72300268
_cell_formula_units_Z   1
loop_
 _symmetry_equiv_pos_site_id
 _symmetry_equiv_pos_as_xyz
  1  'x, y, z'
loop_
 _atom_site_type_symbol
 _atom_site_label
 _atom_site_symmetry_multiplicity
 _atom_site_fract_x
 _atom_site_fract_y
 _atom_site_fract_z
 _atom_site_occupancy
  K  K0  1  0.87607501  0.25215000  0.37392503  1
  Ba  Ba1  1  0.12130899  0.74261800  0.62869100  1
  Ba  Ba2  1  0.47281300  0.48106500  0.51631101  1
  La  La3  1  0.50825200  0.48106500  0.00262402  1
  Ti  Ti4  1  0.00145400  0.00277700  0.99775899  1
  Ti  Ti5  1  0.50132301  0.00277700  0.99946401  1
  N  N6  1  0.55339200  0.24352100  0.06399102  1
  N  N7  1  0.19012900  0.24352100  0.69248800  1
  Ti  Ti8  1  0.45267100  0.40534400  0.29732801  1
  N  N9  1  0.56162599  0.62325200  0.68837401  1
  F  F10  1  0.17895000  0.25585900  0.07484101  1
  F  F11  1  0.17933899  0.85867800  0.07066101  1
  N  N12  1  0.42731099  0.75255100  0.32646201  1
  F  F13  1  0.57690800  0.25585900  0.66930002  1
  N  N14  1  0.43568999  0.75227700  0.92822501  1
  N  N15  1  0.81658700  0.75227700  0.31949803  1
  N  N16  1  0.82092701  0.14185400  0.92907302  1
  N  N17  1  0.82524100  0.75255100  0.92098702  1
