# generated using pymatgen
data_CsRb3CoCuF8
_symmetry_space_group_name_H-M   'P 1'
_cell_length_a   6.24521685
_cell_length_b   7.23917580
_cell_length_c   7.86554575
_cell_angle_alpha   107.76536560
_cell_angle_beta   90.00000000
_cell_angle_gamma   115.55317688
_symmetry_Int_Tables_number   1
_chemical_formula_structural   CsRb3CoCuF8
_chemical_formula_sum   'Cs1 Rb3 Co1 Cu1 F8'
_cell_volume   301.91524958
_cell_formula_units_Z   1
loop_
 _symmetry_equiv_pos_site_id
 _symmetry_equiv_pos_as_xyz
  1  'x, y, z'
loop_
 _atom_site_type_symbol
 _atom_site_label
 _atom_site_symmetry_multiplicity
 _atom_site_fract_x
 _atom_site_fract_y
 _atom_site_fract_z
 _atom_site_occupancy
  Rb  Rb0  1  0.49223410  0.98446804  0.20541505  1
  Rb  Rb1  1  0.50776601  0.01553200  0.79458498  1
  Rb  Rb2  1  0.17374804  0.34749501  0.72977200  1
  Cs  Cs3  1  0.82625208  0.65250503  0.27022803  1
  Co  Co4  1  0.15053503  0.30107101  0.20844601  1
  Cu  Cu5  1  0.84946508  0.69892903  0.79155401  1
  F  F6  1  0.32115307  0.64230503  0.41246902  1
  F  F7  1  0.67884705  0.35769502  0.58753100  1
  F  F8  1  0.05225201  0.10450400  0.32025300  1
  F  F9  1  0.94774810  0.89549604  0.67974703  1
  F  F10  1  0.89786205  0.26760101  0.07207201  1
  F  F11  1  0.36973903  0.26760101  0.07207201  1
  F  F12  1  0.10213807  0.73239903  0.92792801  1
  F  F13  1  0.63026108  0.73239903  0.92792801  1
