# generated using pymatgen
data_Rb2MnF4
_symmetry_space_group_name_H-M   'P 1'
_cell_length_a   4.42602396
_cell_length_b   4.42602396
_cell_length_c   8.28285027
_cell_angle_alpha   105.49652863
_cell_angle_beta   105.49652863
_cell_angle_gamma   90.00000000
_symmetry_Int_Tables_number   1
_chemical_formula_structural   Rb2MnF4
_chemical_formula_sum   'Rb2 Mn1 F4'
_cell_volume   150.22974749
_cell_formula_units_Z   1
loop_
 _symmetry_equiv_pos_site_id
 _symmetry_equiv_pos_as_xyz
  1  'x, y, z'
loop_
 _atom_site_type_symbol
 _atom_site_label
 _atom_site_symmetry_multiplicity
 _atom_site_fract_x
 _atom_site_fract_y
 _atom_site_fract_z
 _atom_site_occupancy
  Rb  Rb0  1  0.34588100  0.34588100  0.69176202  1
  Rb  Rb1  1  0.65411900  0.65411900  0.30823801  1
  Mn  Mn2  1  0.00000000  0.00000000  0.00000000  1
  F  F3  1  0.87298700  0.87298701  0.74597402  1
  F  F4  1  0.12701300  0.12701300  0.25402601  1
  F  F5  1  0.50000000  1.00000001  1.00000003  1
  F  F6  1  -0.00000000  0.50000000  1.00000004  1
