# generated using pymatgen
data_KMnTlAgS4
_symmetry_space_group_name_H-M   'P 1'
_cell_length_a   4.40595484
_cell_length_b   5.57450914
_cell_length_c   7.14066315
_cell_angle_alpha   90.00000000
_cell_angle_beta   90.00000000
_cell_angle_gamma   90.00000000
_symmetry_Int_Tables_number   1
_chemical_formula_structural   KMnTlAgS4
_chemical_formula_sum   'K1 Mn1 Tl1 Ag1 S4'
_cell_volume   175.38208126
_cell_formula_units_Z   1
loop_
 _symmetry_equiv_pos_site_id
 _symmetry_equiv_pos_as_xyz
  1  'x, y, z'
loop_
 _atom_site_type_symbol
 _atom_site_label
 _atom_site_symmetry_multiplicity
 _atom_site_fract_x
 _atom_site_fract_y
 _atom_site_fract_z
 _atom_site_occupancy
  Mn  Mn0  1  0.25000001  0.13910100  0.18402400  1
  K  K1  1  0.75000003  0.63910098  0.31597599  1
  Tl  Tl2  1  0.75000003  0.86089898  0.81597598  1
  Ag  Ag3  1  0.25000001  0.36089899  0.68402399  1
  S  S4  1  0.75000003  0.14887300  0.46076899  1
  S  S5  1  0.25000001  0.85112698  0.53923099  1
  S  S6  1  0.25000001  0.64887298  0.03923100  1
  S  S7  1  0.75000003  0.35112699  0.96076898  1
