# generated using pymatgen
data_SrCaAs
_symmetry_space_group_name_H-M   'P 1'
_cell_length_a   4.78976202
_cell_length_b   8.18241596
_cell_length_c   8.68869972
_cell_angle_alpha   90.00000000
_cell_angle_beta   90.00000000
_cell_angle_gamma   90.00000000
_symmetry_Int_Tables_number   1
_chemical_formula_structural   SrCaAs
_chemical_formula_sum   'Sr4 Ca4 As4'
_cell_volume   340.52600081
_cell_formula_units_Z   4
loop_
 _symmetry_equiv_pos_site_id
 _symmetry_equiv_pos_as_xyz
  1  'x, y, z'
loop_
 _atom_site_type_symbol
 _atom_site_label
 _atom_site_symmetry_multiplicity
 _atom_site_fract_x
 _atom_site_fract_y
 _atom_site_fract_z
 _atom_site_occupancy
  Sr  Sr0  1  0.25000000  0.51462300  0.31854201  1
  Sr  Sr1  1  0.25000000  0.01462300  0.18145801  1
  Sr  Sr2  1  0.75000000  0.48537700  0.68145802  1
  Sr  Sr3  1  0.75000000  0.98537700  0.81854203  1
  Ca  Ca4  1  0.25000000  0.63947700  0.93680803  1
  Ca  Ca5  1  0.25000000  0.13947700  0.56319202  1
  Ca  Ca6  1  0.75000000  0.36052300  0.06319200  1
  Ca  Ca7  1  0.75000000  0.86052300  0.43680801  1
  As  As8  1  0.25000000  0.29571100  0.89292403  1
  As  As9  1  0.25000000  0.79571100  0.60707602  1
  As  As10  1  0.75000000  0.70428900  0.10707600  1
  As  As11  1  0.75000000  0.20428900  0.39292401  1
