# generated using pymatgen
data_BaYTh2SbPb4
_symmetry_space_group_name_H-M   'P 1'
_cell_length_a   5.07947016
_cell_length_b   9.22999001
_cell_length_c   9.22998905
_cell_angle_alpha   120.00000000
_cell_angle_beta   90.00000000
_cell_angle_gamma   90.00000000
_symmetry_Int_Tables_number   1
_chemical_formula_structural   BaYTh2SbPb4
_chemical_formula_sum   'Ba1 Y1 Th2 Sb1 Pb4'
_cell_volume   374.75847368
_cell_formula_units_Z   1
loop_
 _symmetry_equiv_pos_site_id
 _symmetry_equiv_pos_as_xyz
  1  'x, y, z'
loop_
 _atom_site_type_symbol
 _atom_site_label
 _atom_site_symmetry_multiplicity
 _atom_site_fract_x
 _atom_site_fract_y
 _atom_site_fract_z
 _atom_site_occupancy
  Th  Th0  1  0.49999998  0.66666665  0.33333331  1
  Th  Th1  1  0.49999998  0.33333332  0.66666667  1
  Y  Y2  1  0.00000000  0.00000000  0.00000000  1
  Ba  Ba3  1  0.99999997  0.99999997  0.59722096  1
  Pb  Pb4  1  0.49999998  0.99999997  0.25094096  1
  Pb  Pb5  1  0.00000000  0.59722098  1.00000000  1
  Pb  Pb6  1  0.49999998  0.74905898  0.74905898  1
  Pb  Pb7  1  0.49999998  0.25094099  -0.00000001  1
  Sb  Sb8  1  0.00000000  0.40277899  0.40277899  1
