# generated using pymatgen
data_Na5Li2Zn4GaO8
_symmetry_space_group_name_H-M   'P 1'
_cell_length_a   5.79045105
_cell_length_b   5.82857275
_cell_length_c   6.89955187
_cell_angle_alpha   90.00000000
_cell_angle_beta   90.00000000
_cell_angle_gamma   89.73602295
_symmetry_Int_Tables_number   1
_chemical_formula_structural   Na5Li2Zn4GaO8
_chemical_formula_sum   'Na5 Li2 Zn4 Ga1 O8'
_cell_volume   232.85785396
_cell_formula_units_Z   1
loop_
 _symmetry_equiv_pos_site_id
 _symmetry_equiv_pos_as_xyz
  1  'x, y, z'
loop_
 _atom_site_type_symbol
 _atom_site_label
 _atom_site_symmetry_multiplicity
 _atom_site_fract_x
 _atom_site_fract_y
 _atom_site_fract_z
 _atom_site_occupancy
  Na  Na0  1  0.63189404  0.90843002  0.59831301  1
  Li  Li1  1  0.36810603  0.59157001  0.09831300  1
  Na  Na2  1  0.36810600  0.09157000  0.40168701  1
  Na  Na3  1  0.63189402  0.40843001  0.90168702  1
  Na  Na4  1  0.97261703  0.74101601  0.87178902  1
  Na  Na5  1  0.02738304  0.75898401  0.37178901  1
  Zn  Zn6  1  0.02738301  0.25898400  0.12821100  1
  Li  Li7  1  0.97261700  0.24101600  0.62821101  1
  Zn  Zn8  1  0.37918103  0.57328301  0.63975701  1
  Zn  Zn9  1  0.62081904  0.92671702  0.13975700  1
  Zn  Zn10  1  0.62081902  0.42671701  0.36024301  1
  Ga  Ga11  1  0.37918100  0.07328300  0.86024302  1
  O  O12  1  0.73222902  0.60706301  0.14704800  1
  O  O13  1  0.26777104  0.89293702  0.64704801  1
  O  O14  1  0.26777102  0.39293701  0.85295202  1
  O  O15  1  0.73222900  0.10706300  0.35295201  1
  O  O16  1  0.71198702  0.56497101  0.60662001  1
  O  O17  1  0.28801304  0.93502902  0.10662000  1
  O  O18  1  0.28801302  0.43502901  0.39338001  1
  O  O19  1  0.71198700  0.06497100  0.89338002  1
