# generated using pymatgen
data_Mg4Ni3O7
_symmetry_space_group_name_H-M   'P 1'
_cell_length_a   6.11774635
_cell_length_b   6.11774635
_cell_length_c   6.11774635
_cell_angle_alpha   60.00000000
_cell_angle_beta   60.00000000
_cell_angle_gamma   60.00000000
_symmetry_Int_Tables_number   1
_chemical_formula_structural   Mg4Ni3O7
_chemical_formula_sum   'Mg4 Ni3 O7'
_cell_volume   161.90468000
_cell_formula_units_Z   1
loop_
 _symmetry_equiv_pos_site_id
 _symmetry_equiv_pos_as_xyz
  1  'x, y, z'
loop_
 _atom_site_type_symbol
 _atom_site_label
 _atom_site_symmetry_multiplicity
 _atom_site_fract_x
 _atom_site_fract_y
 _atom_site_fract_z
 _atom_site_occupancy
  Mg  Mg0  1  0.50000001  0.50000001  0.50000001  1
  Mg  Mg1  1  0.25000000  0.25000000  0.25000000  1
  Mg  Mg2  1  0.87500001  0.87500001  0.37500001  1
  Ni  Ni3  1  0.37500001  0.87500001  0.87500001  1
  Ni  Ni4  1  0.87500001  0.87500001  0.87500001  1
  Mg  Mg5  1  0.87500001  0.37500001  0.87500001  1
  O  O6  1  0.09362000  0.63546001  0.63546001  1
  Ni  Ni7  1  0.11454100  0.11454000  0.65637901  1
  O  O8  1  0.11454100  0.65637901  0.11454000  1
  O  O9  1  0.11454100  0.11454000  0.11454000  1
  O  O10  1  0.63545901  0.09362100  0.63546001  1
  O  O11  1  0.63545901  0.63546001  0.63546001  1
  O  O12  1  0.65638001  0.11454000  0.11454000  1
  O  O13  1  0.63545901  0.63546001  0.09362100  1
