# generated using pymatgen
data_SrTl2VF12
_symmetry_space_group_name_H-M   'P 1'
_cell_length_a   6.43957853
_cell_length_b   6.43957853
_cell_length_c   7.51786900
_cell_angle_alpha   90.00000000
_cell_angle_beta   90.00000000
_cell_angle_gamma   96.43241119
_symmetry_Int_Tables_number   1
_chemical_formula_structural   SrTl2VF12
_chemical_formula_sum   'Sr1 Tl2 V1 F12'
_cell_volume   309.78970938
_cell_formula_units_Z   1
loop_
 _symmetry_equiv_pos_site_id
 _symmetry_equiv_pos_as_xyz
  1  'x, y, z'
loop_
 _atom_site_type_symbol
 _atom_site_label
 _atom_site_symmetry_multiplicity
 _atom_site_fract_x
 _atom_site_fract_y
 _atom_site_fract_z
 _atom_site_occupancy
  Sr  Sr0  1  0.00000000  0.00000000  0.50000000  1
  V  V1  1  0.00000000  0.00000000  0.00000000  1
  Tl  Tl2  1  0.93478495  0.52312998  0.75000000  1
  Tl  Tl3  1  0.06521498  0.47686998  0.25000000  1
  F  F4  1  0.52312995  0.93478497  0.25000000  1
  F  F5  1  0.47686998  0.06521500  0.75000000  1
  F  F6  1  0.21159099  0.21159099  0.50000000  1
  F  F7  1  0.78840895  0.78840897  1.00000000  1
  F  F8  1  0.78840895  0.78840897  0.50000000  1
  F  F9  1  0.21159099  0.21159099  1.00000000  1
  F  F10  1  0.96932397  0.03067600  0.75000000  1
  F  F11  1  0.03067596  0.96932397  0.25000000  1
  F  F12  1  0.81313397  0.18686599  0.46208900  1
  F  F13  1  0.18686596  0.81313397  0.96208900  1
  F  F14  1  0.18686596  0.81313397  0.53791100  1
  F  F15  1  0.81313397  0.18686599  0.03791100  1
