# generated using pymatgen
data_Y3Lu(MgS4)2
_symmetry_space_group_name_H-M   'P 1'
_cell_length_a   7.87432575
_cell_length_b   7.87432575
_cell_length_c   7.87432575
_cell_angle_alpha   60.00000000
_cell_angle_beta   60.00000000
_cell_angle_gamma   60.00000000
_symmetry_Int_Tables_number   1
_chemical_formula_structural   Y3Lu(MgS4)2
_chemical_formula_sum   'Y3 Lu1 Mg2 S8'
_cell_volume   345.24320012
_cell_formula_units_Z   1
loop_
 _symmetry_equiv_pos_site_id
 _symmetry_equiv_pos_as_xyz
  1  'x, y, z'
loop_
 _atom_site_type_symbol
 _atom_site_label
 _atom_site_symmetry_multiplicity
 _atom_site_fract_x
 _atom_site_fract_y
 _atom_site_fract_z
 _atom_site_occupancy
  Lu  Lu0  1  0.37499999  0.37499999  0.37499999  1
  Y  Y1  1  0.37499999  0.87499998  0.37499999  1
  Y  Y2  1  0.37499999  0.37499999  0.87499998  1
  Y  Y3  1  0.87499998  0.37499999  0.37499999  1
  Mg  Mg4  1  0.00000000  0.00000000  0.00000000  1
  Mg  Mg5  1  0.74999998  0.74999998  0.74999998  1
  S  S6  1  0.13955900  0.62014698  0.62014698  1
  S  S7  1  0.62014698  0.62014698  0.13955900  1
  S  S8  1  0.62014698  0.62014698  0.62014698  1
  S  S9  1  0.62014698  0.13955900  0.62014698  1
  S  S10  1  0.12985300  0.61044099  0.12985300  1
  S  S11  1  0.12985300  0.12985300  0.12985300  1
  S  S12  1  0.12985300  0.12985300  0.61044099  1
  S  S13  1  0.61044099  0.12985300  0.12985300  1
