# generated using pymatgen
data_InS
_symmetry_space_group_name_H-M   'P 1'
_cell_length_a   7.33500576
_cell_length_b   7.35718679
_cell_length_c   7.96406364
_cell_angle_alpha   116.64014435
_cell_angle_beta   90.00000000
_cell_angle_gamma   119.90032196
_symmetry_Int_Tables_number   1
_chemical_formula_structural   InS
_chemical_formula_sum   'In6 S6'
_cell_volume   318.86592130
_cell_formula_units_Z   6
loop_
 _symmetry_equiv_pos_site_id
 _symmetry_equiv_pos_as_xyz
  1  'x, y, z'
loop_
 _atom_site_type_symbol
 _atom_site_label
 _atom_site_symmetry_multiplicity
 _atom_site_fract_x
 _atom_site_fract_y
 _atom_site_fract_z
 _atom_site_occupancy
  In  In0  1  0.62398403  0.11839801  0.65607700  1
  In  In1  1  0.49441402  0.11839801  0.15607700  1
  In  In2  1  0.96901108  0.75674305  0.61445302  1
  In  In3  1  0.78773208  0.75674305  0.11445302  1
  In  In4  1  0.32424504  0.48415203  0.65597101  1
  In  In5  1  0.15990704  0.48415203  0.15597101  1
  S  S6  1  0.02519401  0.20309201  0.76766300  1
  S  S7  1  0.17789802  0.20309201  0.26766300  1
  S  S8  1  0.33426707  0.87011705  0.77891202  1
  S  S9  1  0.53585008  0.87011705  0.27891202  1
  S  S10  1  0.67998006  0.52895803  0.74512401  1
  S  S11  1  0.84897806  0.52895803  0.24512401  1
