# generated using pymatgen
data_Si2PO8
_symmetry_space_group_name_H-M   'P 1'
_cell_length_a   5.51773405
_cell_length_b   5.51773405
_cell_length_c   5.84426117
_cell_angle_alpha   90.00000000
_cell_angle_beta   90.00000000
_cell_angle_gamma   120.00000000
_symmetry_Int_Tables_number   1
_chemical_formula_structural   Si2PO8
_chemical_formula_sum   'Si2 P1 O8'
_cell_volume   154.09259728
_cell_formula_units_Z   1
loop_
 _symmetry_equiv_pos_site_id
 _symmetry_equiv_pos_as_xyz
  1  'x, y, z'
loop_
 _atom_site_type_symbol
 _atom_site_label
 _atom_site_symmetry_multiplicity
 _atom_site_fract_x
 _atom_site_fract_y
 _atom_site_fract_z
 _atom_site_occupancy
  P  P0  1  0.00000000  0.00000000  0.00000000  1
  Si  Si1  1  0.33333334  0.66666669  0.28215799  1
  Si  Si2  1  0.66666667  0.33333334  0.71784198  1
  O  O3  1  0.33333334  0.66666669  0.52239598  1
  O  O4  1  0.66666667  0.33333334  0.47760399  1
  O  O5  1  0.64069801  0.82034902  0.20618899  1
  O  O6  1  0.82034900  0.64069802  0.79381098  1
  O  O7  1  0.82034900  0.17965101  0.79381098  1
  O  O8  1  0.35930200  0.17965101  0.79381098  1
  O  O9  1  0.17965101  0.35930201  0.20618899  1
  O  O10  1  0.17965101  0.82034902  0.20618899  1
