# generated using pymatgen
data_LiYb7ZnSb3
_symmetry_space_group_name_H-M   'P 1'
_cell_length_a   4.79517317
_cell_length_b   7.46338606
_cell_length_c   8.96938896
_cell_angle_alpha   90.00000000
_cell_angle_beta   90.00000000
_cell_angle_gamma   90.00000000
_symmetry_Int_Tables_number   1
_chemical_formula_structural   LiYb7ZnSb3
_chemical_formula_sum   'Li1 Yb7 Zn1 Sb3'
_cell_volume   320.99854232
_cell_formula_units_Z   1
loop_
 _symmetry_equiv_pos_site_id
 _symmetry_equiv_pos_as_xyz
  1  'x, y, z'
loop_
 _atom_site_type_symbol
 _atom_site_label
 _atom_site_symmetry_multiplicity
 _atom_site_fract_x
 _atom_site_fract_y
 _atom_site_fract_z
 _atom_site_occupancy
  Yb  Yb0  1  0.24999999  0.65493499  0.57473900  1
  Yb  Yb1  1  0.74999997  0.34506500  0.42526100  1
  Yb  Yb2  1  0.74999997  0.84506499  0.07473900  1
  Li  Li3  1  0.24999999  0.15493500  0.92526100  1
  Yb  Yb4  1  0.24999999  0.52008900  0.17985400  1
  Yb  Yb5  1  0.74999997  0.47991100  0.82014600  1
  Yb  Yb6  1  0.74999997  0.97991099  0.67985400  1
  Yb  Yb7  1  0.24999999  0.02008900  0.32014600  1
  Sb  Sb8  1  0.24999999  0.75204999  0.89450500  1
  Zn  Zn9  1  0.74999997  0.24795000  0.10549500  1
  Sb  Sb10  1  0.74999997  0.74794999  0.39450500  1
  Sb  Sb11  1  0.24999999  0.25205000  0.60549500  1
