# generated using pymatgen
data_Ba2SrBr6
_symmetry_space_group_name_H-M   'P 1'
_cell_length_a   7.65846491
_cell_length_b   8.49120903
_cell_length_c   11.65360069
_cell_angle_alpha   90.00000000
_cell_angle_beta   90.66442871
_cell_angle_gamma   90.00000000
_symmetry_Int_Tables_number   1
_chemical_formula_structural   Ba2SrBr6
_chemical_formula_sum   'Ba4 Sr2 Br12'
_cell_volume   757.77834399
_cell_formula_units_Z   2
loop_
 _symmetry_equiv_pos_site_id
 _symmetry_equiv_pos_as_xyz
  1  'x, y, z'
loop_
 _atom_site_type_symbol
 _atom_site_label
 _atom_site_symmetry_multiplicity
 _atom_site_fract_x
 _atom_site_fract_y
 _atom_site_fract_z
 _atom_site_occupancy
  Ba  Ba0  1  0.05107200  0.39252400  0.75243799  1
  Ba  Ba1  1  0.44892801  0.89252400  0.74756201  1
  Ba  Ba2  1  0.55107201  0.10747600  0.25243802  1
  Ba  Ba3  1  0.94892801  0.60747600  0.24756203  1
  Sr  Sr4  1  0.00000000  0.00000000  0.00000000  1
  Sr  Sr5  1  0.50000001  0.50000000  0.50000001  1
  Br  Br6  1  0.17549600  0.68186900  0.93232799  1
  Br  Br7  1  0.32959600  0.18057100  0.92435300  1
  Br  Br8  1  0.64904301  0.54686000  0.74981501  1
  Br  Br9  1  0.85095701  0.04686000  0.75018502  1
  Br  Br10  1  0.17040400  0.68057100  0.57564700  1
  Br  Br11  1  0.32450400  0.18186900  0.56767200  1
  Br  Br12  1  0.67549601  0.81813100  0.43232802  1
  Br  Br13  1  0.82959601  0.31942900  0.42435302  1
  Br  Br14  1  0.14904300  0.95314000  0.24981500  1
  Br  Br15  1  0.35095700  0.45314000  0.25018501  1
  Br  Br16  1  0.67040401  0.81942900  0.07564702  1
  Br  Br17  1  0.82450401  0.31813100  0.06767203  1
