# generated using pymatgen
data_AgSnHgO5
_symmetry_space_group_name_H-M   'P 1'
_cell_length_a   4.30199003
_cell_length_b   4.30199003
_cell_length_c   6.17135859
_cell_angle_alpha   110.39833069
_cell_angle_beta   110.39833069
_cell_angle_gamma   90.00000000
_symmetry_Int_Tables_number   1
_chemical_formula_structural   AgSnHgO5
_chemical_formula_sum   'Ag1 Sn1 Hg1 O5'
_cell_volume   99.37497308
_cell_formula_units_Z   1
loop_
 _symmetry_equiv_pos_site_id
 _symmetry_equiv_pos_as_xyz
  1  'x, y, z'
loop_
 _atom_site_type_symbol
 _atom_site_label
 _atom_site_symmetry_multiplicity
 _atom_site_fract_x
 _atom_site_fract_y
 _atom_site_fract_z
 _atom_site_occupancy
  Sn  Sn0  1  0.74999996  0.24999999  0.49999997  1
  Ag  Ag1  1  0.00000000  0.00000000  0.00000000  1
  Hg  Hg2  1  0.49999996  0.49999998  -0.00000005  1
  O  O3  1  0.24999995  0.74999997  0.49999996  1
  O  O4  1  0.12178999  0.12500000  0.75000001  1
  O  O5  1  0.62820995  0.62499998  0.74999996  1
  O  O6  1  0.37499997  0.37178999  0.24999997  1
  O  O7  1  0.87499993  0.87820997  0.24999991  1
