# generated using pymatgen
data_Sr3Ca(BiO3)4
_symmetry_space_group_name_H-M   'P 1'
_cell_length_a   5.92319345
_cell_length_b   5.92319345
_cell_length_c   8.59899139
_cell_angle_alpha   90.00000000
_cell_angle_beta   90.00000000
_cell_angle_gamma   90.00000000
_symmetry_Int_Tables_number   1
_chemical_formula_structural   Sr3Ca(BiO3)4
_chemical_formula_sum   'Sr3 Ca1 Bi4 O12'
_cell_volume   301.68891189
_cell_formula_units_Z   1
loop_
 _symmetry_equiv_pos_site_id
 _symmetry_equiv_pos_as_xyz
  1  'x, y, z'
loop_
 _atom_site_type_symbol
 _atom_site_label
 _atom_site_symmetry_multiplicity
 _atom_site_fract_x
 _atom_site_fract_y
 _atom_site_fract_z
 _atom_site_occupancy
  Sr  Sr0  1  0.50000000  0.00000000  0.25000001  1
  Sr  Sr1  1  -0.00000000  0.50000000  0.75000003  1
  Ca  Ca2  1  -0.00000000  0.50000000  0.25000001  1
  Sr  Sr3  1  0.50000000  0.00000000  0.75000003  1
  Bi  Bi4  1  0.00000000  0.00000000  0.50000002  1
  Bi  Bi5  1  0.50000000  0.50000000  0.00000000  1
  Bi  Bi6  1  0.00000000  0.00000000  0.00000000  1
  Bi  Bi7  1  0.50000000  0.50000000  0.50000002  1
  O  O8  1  0.00000000  0.00000000  0.24503989  1
  O  O9  1  0.50000000  0.50000000  0.25496013  1
  O  O10  1  0.00000000  0.00000000  0.75496015  1
  O  O11  1  0.50000000  0.50000000  0.74503991  1
  O  O12  1  0.31936198  0.16485242  0.98949955  1
  O  O13  1  0.68063803  0.83514759  0.98949955  1
  O  O14  1  0.83514759  0.31936198  0.01050048  1
  O  O15  1  0.16485242  0.68063803  0.01050048  1
  O  O16  1  0.81936199  0.33514758  0.48949954  1
  O  O17  1  0.18063802  0.66485243  0.48949954  1
  O  O18  1  0.33514758  0.18063802  0.51050050  1
  O  O19  1  0.66485243  0.81936199  0.51050050  1
