# generated using pymatgen
data_RbSO4
_symmetry_space_group_name_H-M   'P 1'
_cell_length_a   5.55748701
_cell_length_b   5.99040413
_cell_length_c   7.43560171
_cell_angle_alpha   90.00000000
_cell_angle_beta   77.16282654
_cell_angle_gamma   90.00000000
_symmetry_Int_Tables_number   1
_chemical_formula_structural   RbSO4
_chemical_formula_sum   'Rb2 S2 O8'
_cell_volume   241.35579008
_cell_formula_units_Z   2
loop_
 _symmetry_equiv_pos_site_id
 _symmetry_equiv_pos_as_xyz
  1  'x, y, z'
loop_
 _atom_site_type_symbol
 _atom_site_label
 _atom_site_symmetry_multiplicity
 _atom_site_fract_x
 _atom_site_fract_y
 _atom_site_fract_z
 _atom_site_occupancy
  Rb  Rb0  1  0.53169601  0.24999999  0.77106198  1
  Rb  Rb1  1  0.46830400  0.74999998  0.22893798  1
  S  S2  1  0.95180001  0.24999999  0.26402296  1
  S  S3  1  0.04820000  0.74999998  0.73597700  1
  O  O4  1  0.22145700  0.24999999  0.19531799  1
  O  O5  1  0.77854301  0.74999998  0.80468197  1
  O  O6  1  0.81999901  0.24999999  0.10983897  1
  O  O7  1  0.18000100  0.74999998  0.89016100  1
  O  O8  1  0.86968201  0.04353500  0.37367097  1
  O  O9  1  0.13031800  0.95646498  0.62632900  1
  O  O10  1  0.13031800  0.54353499  0.62632900  1
  O  O11  1  0.86968201  0.45646499  0.37367097  1
