# generated using pymatgen
data_KHgSeSO8
_symmetry_space_group_name_H-M   'P 1'
_cell_length_a   4.81948709
_cell_length_b   4.81948709
_cell_length_c   7.08934689
_cell_angle_alpha   90.00000000
_cell_angle_beta   90.00000000
_cell_angle_gamma   94.69510651
_symmetry_Int_Tables_number   1
_chemical_formula_structural   KHgSeSO8
_chemical_formula_sum   'K1 Hg1 Se1 S1 O8'
_cell_volume   164.11493054
_cell_formula_units_Z   1
loop_
 _symmetry_equiv_pos_site_id
 _symmetry_equiv_pos_as_xyz
  1  'x, y, z'
loop_
 _atom_site_type_symbol
 _atom_site_label
 _atom_site_symmetry_multiplicity
 _atom_site_fract_x
 _atom_site_fract_y
 _atom_site_fract_z
 _atom_site_occupancy
  K  K0  1  0.33805099  0.33805101  0.75000001  1
  Hg  Hg1  1  0.66194898  0.66194902  0.25000000  1
  S  S2  1  0.83192298  0.83192302  0.75000001  1
  Se  Se3  1  0.16807700  0.16807700  0.25000000  1
  O  O4  1  0.20838296  0.84276302  0.25000000  1
  O  O5  1  0.79161701  0.15723700  0.75000001  1
  O  O6  1  0.84276301  0.20838300  0.25000000  1
  O  O7  1  0.15723696  0.79161702  0.75000001  1
  O  O8  1  0.68510498  0.68510502  0.56995601  1
  O  O9  1  0.31489499  0.31489501  0.06995600  1
  O  O10  1  0.68510498  0.68510502  0.93004401  1
  O  O11  1  0.31489499  0.31489501  0.43004401  1
