# generated using pymatgen
data_GaAgAsSe3
_symmetry_space_group_name_H-M   'P 1'
_cell_length_a   4.67476654
_cell_length_b   4.67476654
_cell_length_c   5.01550388
_cell_angle_alpha   103.86162567
_cell_angle_beta   103.86162567
_cell_angle_gamma   119.07271576
_symmetry_Int_Tables_number   1
_chemical_formula_structural   GaAgAsSe3
_chemical_formula_sum   'Ga1 Ag1 As1 Se3'
_cell_volume   84.42554914
_cell_formula_units_Z   1
loop_
 _symmetry_equiv_pos_site_id
 _symmetry_equiv_pos_as_xyz
  1  'x, y, z'
loop_
 _atom_site_type_symbol
 _atom_site_label
 _atom_site_symmetry_multiplicity
 _atom_site_fract_x
 _atom_site_fract_y
 _atom_site_fract_z
 _atom_site_occupancy
  Ga  Ga0  1  0.57907099  0.42092900  0.49999995  1
  Ag  Ag1  1  0.92092901  0.07907100  0.49999996  1
  Se  Se2  1  0.67092900  0.32907100  -0.00000005  1
  As  As3  1  0.32907099  0.67092900  -0.00000005  1
  Se  Se4  1  0.24999998  0.75000000  0.49999995  1
  Se  Se5  1  0.00000000  0.00000000  0.00000000  1
