# generated using pymatgen
data_NaLiCeEuPuTaTiCdFeCoTeW
_symmetry_space_group_name_H-M   'P 1'
_cell_length_a   3.43671107
_cell_length_b   5.84318304
_cell_length_c   6.75156879
_cell_angle_alpha   90.00000000
_cell_angle_beta   90.00000000
_cell_angle_gamma   90.00000000
_symmetry_Int_Tables_number   1
_chemical_formula_structural   NaLiCeEuPuTaTiCdFeCoTeW
_chemical_formula_sum
'Na1 Li1 Ce1 Eu1 Pu1 Ta1 Ti1 Cd1 Fe1 Co1 Te1 W1'
_cell_volume   135.58049351
_cell_formula_units_Z   1
loop_
 _symmetry_equiv_pos_site_id
 _symmetry_equiv_pos_as_xyz
  1  'x, y, z'
loop_
 _atom_site_type_symbol
 _atom_site_label
 _atom_site_symmetry_multiplicity
 _atom_site_fract_x
 _atom_site_fract_y
 _atom_site_fract_z
 _atom_site_occupancy
  Na  Na0  1  0.74999998  0.96862899  0.84123603  1
  Li  Li1  1  0.74999998  0.46862900  0.65876402  1
  Te  Te2  1  0.24999999  0.03137100  0.15876400  1
  Ta  Ta3  1  0.24999999  0.53137100  0.34123601  1
  Fe  Fe4  1  0.74999998  0.86071499  0.43547501  1
  W  W5  1  0.74999998  0.36071500  0.06452500  1
  Pu  Pu6  1  0.24999999  0.13928500  0.56452502  1
  Eu  Eu7  1  0.24999999  0.63928500  0.93547503  1
  Cd  Cd8  1  0.74999998  0.24099500  0.37046801  1
  Co  Co9  1  0.74999998  0.74099499  0.12953200  1
  Ti  Ti10  1  0.24999999  0.75900499  0.62953202  1
  Ce  Ce11  1  0.24999999  0.25900500  0.87046803  1
