# generated using pymatgen
data_LiPr2MgNiBHCSeXe
_symmetry_space_group_name_H-M   'P 1'
_cell_length_a   3.77920008
_cell_length_b   7.33039474
_cell_length_c   9.62513828
_cell_angle_alpha   94.51826477
_cell_angle_beta   90.00000000
_cell_angle_gamma   104.93814087
_symmetry_Int_Tables_number   1
_chemical_formula_structural   LiPr2MgNiBHCSeXe
_chemical_formula_sum   'Li1 Pr2 Mg1 Ni1 B1 H1 Se1 C1 Xe1'
_cell_volume   256.77637281
_cell_formula_units_Z   1
loop_
 _symmetry_equiv_pos_site_id
 _symmetry_equiv_pos_as_xyz
  1  'x, y, z'
loop_
 _atom_site_type_symbol
 _atom_site_label
 _atom_site_symmetry_multiplicity
 _atom_site_fract_x
 _atom_site_fract_y
 _atom_site_fract_z
 _atom_site_occupancy
  Pr  Pr0  1  0.79506301  0.59012602  0.86119600  1
  Li  Li1  1  0.20493701  0.40987401  0.13880401  1
  Se  Se2  1  0.37974202  0.75948402  0.56526101  1
  B  B3  1  0.62025800  0.24051601  0.43473900  1
  H  H4  1  0.95974502  0.91949003  0.70942102  1
  C  C5  1  0.04025500  0.08051000  0.29057899  1
  Mg  Mg6  1  0.22627701  0.45255401  0.66507900  1
  Pr  Pr7  1  0.77372301  0.54744602  0.33492101  1
  Ni  Ni8  1  0.63440000  0.26880001  0.96933298  1
  Xe  Xe9  1  0.36560002  0.73120002  0.03066703  1
