# generated using pymatgen
data_Na2TbCeTaMnGeHAuBr
_symmetry_space_group_name_H-M   'P 1'
_cell_length_a   5.80917215
_cell_length_b   5.80917215
_cell_length_c   5.80917215
_cell_angle_alpha   60.00000000
_cell_angle_beta   60.00000000
_cell_angle_gamma   60.00000000
_symmetry_Int_Tables_number   1
_chemical_formula_structural   Na2TbCeTaMnGeHAuBr
_chemical_formula_sum   'Na2 Tb1 Ce1 Ta1 Mn1 Ge1 H1 Au1 Br1'
_cell_volume   138.62058995
_cell_formula_units_Z   1
loop_
 _symmetry_equiv_pos_site_id
 _symmetry_equiv_pos_as_xyz
  1  'x, y, z'
loop_
 _atom_site_type_symbol
 _atom_site_label
 _atom_site_symmetry_multiplicity
 _atom_site_fract_x
 _atom_site_fract_y
 _atom_site_fract_z
 _atom_site_occupancy
  Ge  Ge0  1  0.50000000  0.50000000  0.50000000  1
  Tb  Tb1  1  0.75000000  0.75000000  0.75000000  1
  Ce  Ce2  1  0.25000000  0.25000000  0.25000000  1
  Na  Na3  1  0.00000000  0.00000000  0.00000000  1
  Ta  Ta4  1  0.23062600  0.76937400  0.23062600  1
  Au  Au5  1  0.76937400  0.23062600  0.76937400  1
  H  H6  1  0.23062600  0.76937400  0.76937400  1
  Br  Br7  1  0.76937400  0.23062600  0.23062600  1
  Na  Na8  1  0.23062600  0.23062600  0.76937400  1
  Mn  Mn9  1  0.76937400  0.76937400  0.23062600  1
