# generated using pymatgen
data_EuTmThPaTlZnInReMoNeTcSnIrW2Kr
_symmetry_space_group_name_H-M   'P 1'
_cell_length_a   6.08292294
_cell_length_b   6.14683104
_cell_length_c   6.14190578
_cell_angle_alpha   90.00000000
_cell_angle_beta   61.28533554
_cell_angle_gamma   90.00000000
_symmetry_Int_Tables_number   1
_chemical_formula_structural   EuTmThPaTlZnInReMoNeTcSnIrW2Kr
_chemical_formula_sum
'Eu1 Tm1 Th1 Pa1 Tl1 Zn1 In1 Re1 Mo1 Ne1 Tc1 Sn1 Ir1 W2 Kr1'
_cell_volume   201.40851824
_cell_formula_units_Z   1
loop_
 _symmetry_equiv_pos_site_id
 _symmetry_equiv_pos_as_xyz
  1  'x, y, z'
loop_
 _atom_site_type_symbol
 _atom_site_label
 _atom_site_symmetry_multiplicity
 _atom_site_fract_x
 _atom_site_fract_y
 _atom_site_fract_z
 _atom_site_occupancy
  Tl  Tl0  1  0.28412801  0.84905000  0.44738898  1
  Re  Re1  1  0.71587202  0.34905000  0.05261097  1
  Mo  Mo2  1  0.28412801  0.65095000  0.94738897  1
  Ne  Ne3  1  0.71587202  0.15095000  0.55261096  1
  Tc  Tc4  1  0.23699601  0.12962100  0.01703499  1
  Th  Th5  1  0.23699601  0.37037900  0.51703498  1
  Zn  Zn6  1  0.76300402  0.62962100  0.48296496  1
  W  W7  1  0.76300402  0.87037899  0.98296495  1
  Eu  Eu8  1  0.00404500  0.83685600  0.16847500  1
  In  In9  1  0.00404500  0.66314400  0.66847499  1
  Kr  Kr10  1  0.45555801  0.11008800  0.23588098  1
  Tm  Tm11  1  0.54444202  0.61008800  0.26411897  1
  Sn  Sn12  1  0.45555801  0.38991200  0.73588097  1
  W  W13  1  0.54444202  0.88991199  0.76411896  1
  Pa  Pa14  1  0.99595503  0.33685600  0.33152496  1
  Ir  Ir15  1  0.99595503  0.16314400  0.83152495  1
