# generated using pymatgen
data_KRbCaPrErPuThAlTlCrReNiOsPt2RhPbClFHe
_symmetry_space_group_name_H-M   'P 1'
_cell_length_a   5.36185694
_cell_length_b   5.46731806
_cell_length_c   7.66461182
_cell_angle_alpha   90.00000000
_cell_angle_beta   90.00000000
_cell_angle_gamma   90.00000000
_symmetry_Int_Tables_number   1
_chemical_formula_structural   KRbCaPrErPuThAlTlCrReNiOsPt2RhPbClFHe
_chemical_formula_sum
;
Rb1 K1 Ca1 Pr1 Er1 Pu1 Th1 Al1 Tl1 Cr1 Re1 Ni1 Os1 Rh1 Pt2 Pb1 Cl1 F1
He1
;
_cell_volume   224.68792109
_cell_formula_units_Z   1
loop_
 _symmetry_equiv_pos_site_id
 _symmetry_equiv_pos_as_xyz
  1  'x, y, z'
loop_
 _atom_site_type_symbol
 _atom_site_label
 _atom_site_symmetry_multiplicity
 _atom_site_fract_x
 _atom_site_fract_y
 _atom_site_fract_z
 _atom_site_occupancy
  Ni  Ni0  1  0.00997200  0.45156800  0.25000001  1
  Rh  Rh1  1  0.99002801  0.54843199  0.75000002  1
  Pt  Pt2  1  0.50997201  0.04843200  0.75000002  1
  Pb  Pb3  1  0.49002801  0.95156799  0.25000001  1
  Re  Re4  1  0.00000000  0.00000000  0.00000000  1
  Ca  Ca5  1  0.50000001  0.49999999  0.00000000  1
  Rb  Rb6  1  0.00000000  0.00000000  0.50000001  1
  Th  Th7  1  0.50000001  0.49999999  0.50000001  1
  Cr  Cr8  1  0.29336100  0.20402800  0.03870400  1
  Cl  Cl9  1  0.70663901  0.79597199  0.96129602  1
  F  F10  1  0.79336101  0.29597200  0.96129602  1
  Pt  Pt11  1  0.70663901  0.79597199  0.53870401  1
  Pr  Pr12  1  0.20663900  0.70402799  0.03870400  1
  Er  Er13  1  0.29336100  0.20402800  0.46129601  1
  Al  Al14  1  0.20663900  0.70402799  0.46129601  1
  Pu  Pu15  1  0.79336101  0.29597200  0.53870401  1
  Tl  Tl16  1  0.57324301  0.51462899  0.25000001  1
  Os  Os17  1  0.42675700  0.48537099  0.75000002  1
  K  K18  1  0.07324300  0.98537099  0.75000002  1
  He  He19  1  0.92675701  0.01462900  0.25000001  1
