# generated using pymatgen
data_NaLiPrMnNbMoOsWCN
_symmetry_space_group_name_H-M   'P 1'
_cell_length_a   5.98338509
_cell_length_b   5.98338509
_cell_length_c   5.98338509
_cell_angle_alpha   60.00000000
_cell_angle_beta   60.00000000
_cell_angle_gamma   60.00000000
_symmetry_Int_Tables_number   1
_chemical_formula_structural   NaLiPrMnNbMoOsWCN
_chemical_formula_sum   'Na1 Li1 Pr1 Mn1 Nb1 Mo1 Os1 W1 C1 N1'
_cell_volume   151.46973513
_cell_formula_units_Z   1
loop_
 _symmetry_equiv_pos_site_id
 _symmetry_equiv_pos_as_xyz
  1  'x, y, z'
loop_
 _atom_site_type_symbol
 _atom_site_label
 _atom_site_symmetry_multiplicity
 _atom_site_fract_x
 _atom_site_fract_y
 _atom_site_fract_z
 _atom_site_occupancy
  Nb  Nb0  1  0.74999997  0.74999997  0.74999997  1
  Mo  Mo1  1  0.24999999  0.24999999  0.24999999  1
  W  W2  1  0.49999998  0.49999998  0.49999998  1
  Os  Os3  1  0.00000000  0.00000000  0.00000000  1
  Li  Li4  1  0.23688399  0.76311597  0.23688399  1
  Mn  Mn5  1  0.76311597  0.23688399  0.76311597  1
  Pr  Pr6  1  0.23688399  0.76311597  0.76311597  1
  C  C7  1  0.76311597  0.23688399  0.23688399  1
  Na  Na8  1  0.23688399  0.23688399  0.76311597  1
  N  N9  1  0.76311597  0.76311597  0.23688399  1
