# generated using pymatgen
data_BaNdLuZrFeTcNiSb2H
_symmetry_space_group_name_H-M   'P 1'
_cell_length_a   4.46316814
_cell_length_b   4.46316814
_cell_length_c   10.38165760
_cell_angle_alpha   90.00000000
_cell_angle_beta   90.00000000
_cell_angle_gamma   90.00000000
_symmetry_Int_Tables_number   1
_chemical_formula_structural   BaNdLuZrFeTcNiSb2H
_chemical_formula_sum   'Ba1 Nd1 Lu1 Zr1 Fe1 Tc1 Ni1 Sb2 H1'
_cell_volume   206.80126858
_cell_formula_units_Z   1
loop_
 _symmetry_equiv_pos_site_id
 _symmetry_equiv_pos_as_xyz
  1  'x, y, z'
loop_
 _atom_site_type_symbol
 _atom_site_label
 _atom_site_symmetry_multiplicity
 _atom_site_fract_x
 _atom_site_fract_y
 _atom_site_fract_z
 _atom_site_occupancy
  Fe  Fe0  1  -0.00000000  0.49999998  0.24860701  1
  Nd  Nd1  1  0.49999998  0.00000000  0.75139303  1
  Lu  Lu2  1  0.00000000  0.00000000  0.50000002  1
  H  H3  1  0.49999998  0.49999998  0.50000002  1
  Ni  Ni4  1  -0.00000000  0.49999998  0.87131803  1
  Sb  Sb5  1  0.49999998  0.00000000  0.12868200  1
  Tc  Tc6  1  0.00000000  0.00000000  0.00000000  1
  Zr  Zr7  1  0.49999998  0.49999998  -0.00000000  1
  Sb  Sb8  1  -0.00000000  0.49999998  0.62987602  1
  Ba  Ba9  1  0.49999998  0.00000000  0.37012401  1
