# generated using pymatgen
data_DyPuThTc2SnCSNe
_symmetry_space_group_name_H-M   'P 1'
_cell_length_a   3.85540509
_cell_length_b   3.85540509
_cell_length_c   7.94957209
_cell_angle_alpha   90.00000000
_cell_angle_beta   90.00000000
_cell_angle_gamma   90.00000000
_symmetry_Int_Tables_number   1
_chemical_formula_structural   DyPuThTc2SnCSNe
_chemical_formula_sum   'Dy1 Pu1 Th1 Tc2 Sn1 C1 S1 Ne1'
_cell_volume   118.16361941
_cell_formula_units_Z   1
loop_
 _symmetry_equiv_pos_site_id
 _symmetry_equiv_pos_as_xyz
  1  'x, y, z'
loop_
 _atom_site_type_symbol
 _atom_site_label
 _atom_site_symmetry_multiplicity
 _atom_site_fract_x
 _atom_site_fract_y
 _atom_site_fract_z
 _atom_site_occupancy
  Dy  Dy0  1  0.00000000  0.00000000  0.97936899  1
  Tc  Tc1  1  0.00000000  0.00000000  0.51461499  1
  Th  Th2  1  0.49999999  0.49999999  0.27921700  1
  C  C3  1  0.49999999  0.49999999  0.72096599  1
  S  S4  1  0.49999999  0.49999999  0.04282400  1
  Pu  Pu5  1  0.49999999  0.00000000  0.69838399  1
  Tc  Tc6  1  0.49999999  0.00000000  0.35312100  1
  Sn  Sn7  1  -0.00000000  0.49999999  0.69838399  1
  Ne  Ne8  1  -0.00000000  0.49999999  0.35312100  1
