# generated using pymatgen
data_LaTmThScNbVCoHgBSbTePPtSe
_symmetry_space_group_name_H-M   'P 1'
_cell_length_a   5.75783634
_cell_length_b   5.75783634
_cell_length_c   5.75783634
_cell_angle_alpha   60.00000000
_cell_angle_beta   60.00000000
_cell_angle_gamma   60.00000000
_symmetry_Int_Tables_number   1
_chemical_formula_structural   LaTmThScNbVCoHgBSbTePPtSe
_chemical_formula_sum
'La1 Tm1 Th1 Sc1 Nb1 V1 Co1 Hg1 B1 Sb1 Te1 P1 Pt1 Se1'
_cell_volume   134.97798848
_cell_formula_units_Z   1
loop_
 _symmetry_equiv_pos_site_id
 _symmetry_equiv_pos_as_xyz
  1  'x, y, z'
loop_
 _atom_site_type_symbol
 _atom_site_label
 _atom_site_symmetry_multiplicity
 _atom_site_fract_x
 _atom_site_fract_y
 _atom_site_fract_z
 _atom_site_occupancy
  Th  Th0  1  0.24999999  0.24999999  0.24999999  1
  Sb  Sb1  1  0.49999999  0.49999999  0.49999999  1
  Nb  Nb2  1  0.37499999  0.87499997  0.87499997  1
  B  B3  1  0.87499997  0.37499999  0.87499997  1
  Se  Se4  1  0.87499997  0.87499997  0.87499997  1
  V  V5  1  0.87499997  0.87499997  0.37499999  1
  Tm  Tm6  1  0.63828798  0.63828898  0.08513400  1
  Hg  Hg7  1  0.08513300  0.63828898  0.63828898  1
  P  P8  1  0.11171200  0.11171100  0.66486598  1
  La  La9  1  0.11171200  0.66486598  0.11171100  1
  Sc  Sc10  1  0.66486698  0.11171100  0.11171100  1
  Te  Te11  1  0.11171200  0.11171100  0.11171100  1
  Pt  Pt12  1  0.63828798  0.08513400  0.63828898  1
  Co  Co13  1  0.63828798  0.63828898  0.63828898  1
