# generated using pymatgen
data_BaCaPmGd2YHoErPuMgScU2CoTcNiSbPdXe
_symmetry_space_group_name_H-M   'P 1'
_cell_length_a   5.81169319
_cell_length_b   5.81169319
_cell_length_c   9.89948463
_cell_angle_alpha   72.93028259
_cell_angle_beta   72.93028259
_cell_angle_gamma   60.00001144
_symmetry_Int_Tables_number   1
_chemical_formula_structural   BaCaPmGd2YHoErPuMgScU2CoTcNiSbPdXe
_chemical_formula_sum
'Ba1 Ca1 Pm1 Gd2 Y1 Ho1 Er1 Pu1 Mg1 Sc1 U2 Co1 Tc1 Ni1 Sb1 Pd1 Xe1'
_cell_volume   272.42613089
_cell_formula_units_Z   1
loop_
 _symmetry_equiv_pos_site_id
 _symmetry_equiv_pos_as_xyz
  1  'x, y, z'
loop_
 _atom_site_type_symbol
 _atom_site_label
 _atom_site_symmetry_multiplicity
 _atom_site_fract_x
 _atom_site_fract_y
 _atom_site_fract_z
 _atom_site_occupancy
  Ba  Ba0  1  0.71036298  0.71036298  0.86891099  1
  U  U1  1  0.28801999  0.28801999  0.13594000  1
  U  U2  1  0.13314000  0.13314000  0.60057999  1
  Pm  Pm3  1  0.85393797  0.85393797  0.43818601  1
  Gd  Gd4  1  0.57636198  0.57636198  0.27091401  1
  Co  Co5  1  0.42338499  0.42338499  0.72984499  1
  Mg  Mg6  1  0.99931497  0.99931497  0.00205502  1
  Tc  Tc7  1  0.71123098  0.20833099  0.87210699  1
  Xe  Xe8  1  0.20833099  0.20833099  0.87210698  1
  Pd  Pd9  1  0.20833099  0.71123098  0.87210699  1
  Sb  Sb10  1  0.28844599  0.79583097  0.11989201  1
  Ca  Ca11  1  0.79583098  0.79583097  0.11989201  1
  Sc  Sc12  1  0.79583097  0.28844599  0.11989201  1
  Ni  Ni13  1  0.87463897  0.37954899  0.36626300  1
  Er  Er14  1  0.37954899  0.37954899  0.36626300  1
  Ho  Ho15  1  0.37954899  0.87463897  0.36626300  1
  Gd  Gd16  1  0.12621000  0.62376498  0.62625999  1
  Pu  Pu17  1  0.62376498  0.62376498  0.62626000  1
  Y  Y18  1  0.62376498  0.12621000  0.62625999  1
