# generated using pymatgen
data_RbCePmPrHfUPaInCuNiAsIrRu2PbS2Br2O
_symmetry_space_group_name_H-M   'P 1'
_cell_length_a   4.44776201
_cell_length_b   14.86979198
_cell_length_c   14.86979103
_cell_angle_alpha   120.00000000
_cell_angle_beta   90.00000000
_cell_angle_gamma   90.00000000
_symmetry_Int_Tables_number   1
_chemical_formula_structural   RbCePmPrHfUPaInCuNiAsIrRu2PbS2Br2O
_chemical_formula_sum
'Rb1 Ce1 Pr1 Pm1 Hf1 U1 Pa1 In1 Cu1 Ni1 As1 Ru2 Ir1 Pb1 S2 Br2 O1'
_cell_volume   851.69075187
_cell_formula_units_Z   1
loop_
 _symmetry_equiv_pos_site_id
 _symmetry_equiv_pos_as_xyz
  1  'x, y, z'
loop_
 _atom_site_type_symbol
 _atom_site_label
 _atom_site_symmetry_multiplicity
 _atom_site_fract_x
 _atom_site_fract_y
 _atom_site_fract_z
 _atom_site_occupancy
  Pb  Pb0  1  0.50000000  0.28329500  0.28329500  1
  S  S1  1  0.50000000  0.71670499  1.00000001  1
  Hf  Hf2  1  0.50000000  0.00000000  0.71670502  1
  Ni  Ni3  1  0.50000000  0.33333333  0.66666668  1
  S  S4  1  0.50000000  0.66666666  0.33333333  1
  Ce  Ce5  1  1.00000000  0.67605399  0.67605400  1
  O  O6  1  -0.00000000  0.00000000  0.32394601  1
  Pr  Pr7  1  -0.00000000  0.32394600  -0.00000001  1
  Br  Br8  1  0.50000000  0.82409899  0.82409900  1
  U  U9  1  -0.00000000  0.76101299  0.20502699  1
  Ru  Ru10  1  -0.00000000  0.44401400  0.23898700  1
  Ru  Ru11  1  0.50000000  0.00000000  0.17590101  1
  Pm  Pm12  1  0.50000000  0.17590100  -0.00000000  1
  In  In13  1  0.50000000  0.00000000  0.46829701  1
  Cu  Cu14  1  0.50000000  0.53170299  0.53170300  1
  Pa  Pa15  1  0.50000000  0.46829699  -0.00000001  1
  Br  Br16  1  -0.00000000  0.23898700  0.44401401  1
  Ir  Ir17  1  1.00000000  0.55598599  0.79497301  1
  Rb  Rb18  1  1.00000000  0.20502700  0.76101302  1
  As  As19  1  -0.00000000  0.79497299  0.55598600  1
