# generated using pymatgen
data_NaZnBMoPb2WSeONe
_symmetry_space_group_name_H-M   'P 1'
_cell_length_a   5.51846981
_cell_length_b   5.51846981
_cell_length_c   6.09204721
_cell_angle_alpha   105.20982361
_cell_angle_beta   105.20982361
_cell_angle_gamma   114.88217163
_symmetry_Int_Tables_number   1
_chemical_formula_structural   NaZnBMoPb2WSeONe
_chemical_formula_sum   'Na1 Zn1 B1 Mo1 Pb2 W1 Se1 O1 Ne1'
_cell_volume   146.94942545
_cell_formula_units_Z   1
loop_
 _symmetry_equiv_pos_site_id
 _symmetry_equiv_pos_as_xyz
  1  'x, y, z'
loop_
 _atom_site_type_symbol
 _atom_site_label
 _atom_site_symmetry_multiplicity
 _atom_site_fract_x
 _atom_site_fract_y
 _atom_site_fract_z
 _atom_site_occupancy
  O  O0  1  0.50000000  0.50000000  -0.00000006  1
  Mo  Mo1  1  0.75000001  0.25000000  0.49999994  1
  B  B2  1  0.82430401  0.17569600  -0.00000006  1
  Pb  Pb3  1  0.07430400  0.92569601  0.49999994  1
  Na  Na4  1  0.17569600  0.82430401  -0.00000006  1
  W  W5  1  0.42569600  0.57430400  0.49999994  1
  Ne  Ne6  1  0.13015600  0.13015600  0.26031199  1
  Pb  Pb7  1  0.38015600  0.88015601  0.76031193  1
  Zn  Zn8  1  0.11984400  0.61984400  0.23968796  1
  Se  Se9  1  0.86984401  0.86984401  0.73968790  1
