# generated using pymatgen
data_SrSmHo3ErLuThNpTiIrPb2XeKrCl
_symmetry_space_group_name_H-M   'P 1'
_cell_length_a   5.38846684
_cell_length_b   6.74964857
_cell_length_c   6.74964857
_cell_angle_alpha   110.63050842
_cell_angle_beta   90.00000000
_cell_angle_gamma   90.00000000
_symmetry_Int_Tables_number   1
_chemical_formula_structural   SrSmHo3ErLuThNpTiIrPb2XeKrCl
_chemical_formula_sum
'Sr1 Sm1 Ho3 Er1 Lu1 Th1 Np1 Ti1 Ir1 Pb2 Xe1 Kr1 Cl1'
_cell_volume   229.74391492
_cell_formula_units_Z   1
loop_
 _symmetry_equiv_pos_site_id
 _symmetry_equiv_pos_as_xyz
  1  'x, y, z'
loop_
 _atom_site_type_symbol
 _atom_site_label
 _atom_site_symmetry_multiplicity
 _atom_site_fract_x
 _atom_site_fract_y
 _atom_site_fract_z
 _atom_site_occupancy
  Kr  Kr0  1  0.53851902  0.74999997  0.24999997  1
  Th  Th1  1  0.46148101  0.24999999  0.74999997  1
  Ho  Ho2  1  -0.00000000  0.74999997  0.74999996  1
  Sm  Sm3  1  -0.00000000  0.24999999  0.24999999  1
  Ti  Ti4  1  0.73853202  0.94004896  0.68334196  1
  Sr  Sr5  1  0.26146801  0.05995100  0.31665799  1
  Ho  Ho6  1  0.73853202  0.55995098  0.81665796  1
  Pb  Pb7  1  0.26146801  0.81665797  0.55995096  1
  Xe  Xe8  1  0.26146801  0.44004898  0.18334198  1
  Cl  Cl9  1  0.73853202  0.18334199  0.44004898  1
  Np  Np10  1  0.26146801  0.68334197  0.94004895  1
  Pb  Pb11  1  0.73853202  0.31665799  0.05995099  1
  Er  Er12  1  0.84232903  0.57595998  0.42403997  1
  Ho  Ho13  1  0.15767100  0.42403998  0.57595997  1
  Ir  Ir14  1  0.84232903  0.92403996  0.07595998  1
  Lu  Lu15  1  0.15767100  0.07596000  0.92403997  1
