# generated using pymatgen
data_CsPmNdTiBeTlTePdCN
_symmetry_space_group_name_H-M   'P 1'
_cell_length_a   3.61683297
_cell_length_b   7.56436110
_cell_length_c   7.56436110
_cell_angle_alpha   90.00000000
_cell_angle_beta   90.00000000
_cell_angle_gamma   90.00000000
_symmetry_Int_Tables_number   1
_chemical_formula_structural   CsPmNdTiBeTlTePdCN
_chemical_formula_sum   'Cs1 Pm1 Nd1 Ti1 Be1 Tl1 Te1 Pd1 C1 N1'
_cell_volume   206.95358682
_cell_formula_units_Z   1
loop_
 _symmetry_equiv_pos_site_id
 _symmetry_equiv_pos_as_xyz
  1  'x, y, z'
loop_
 _atom_site_type_symbol
 _atom_site_label
 _atom_site_symmetry_multiplicity
 _atom_site_fract_x
 _atom_site_fract_y
 _atom_site_fract_z
 _atom_site_occupancy
  Pd  Pd0  1  0.50000000  0.67744499  0.17744500  1
  Tl  Tl1  1  0.50000000  0.32255500  0.82255499  1
  Cs  Cs2  1  0.50000000  0.17744500  0.32255500  1
  Ti  Ti3  1  0.50000000  0.82255499  0.67744499  1
  Be  Be4  1  0.00000000  0.00000000  0.00000000  1
  Te  Te5  1  0.00000000  0.49999999  0.49999999  1
  N  N6  1  0.00000000  0.11696300  0.61696299  1
  Pm  Pm7  1  0.00000000  0.88303699  0.38303700  1
  Nd  Nd8  1  0.00000000  0.61696299  0.88303699  1
  C  C9  1  0.00000000  0.38303700  0.11696300  1
