# generated using pymatgen
data_AcCeErLuTaMnCoTePbSeSNe
_symmetry_space_group_name_H-M   'P 1'
_cell_length_a   3.52730989
_cell_length_b   3.91367698
_cell_length_c   13.46979618
_cell_angle_alpha   90.00000000
_cell_angle_beta   90.00000000
_cell_angle_gamma   90.00000000
_symmetry_Int_Tables_number   1
_chemical_formula_structural   AcCeErLuTaMnCoTePbSeSNe
_chemical_formula_sum
'Ac1 Ce1 Er1 Lu1 Ta1 Mn1 Co1 Te1 Pb1 Se1 S1 Ne1'
_cell_volume   185.94718938
_cell_formula_units_Z   1
loop_
 _symmetry_equiv_pos_site_id
 _symmetry_equiv_pos_as_xyz
  1  'x, y, z'
loop_
 _atom_site_type_symbol
 _atom_site_label
 _atom_site_symmetry_multiplicity
 _atom_site_fract_x
 _atom_site_fract_y
 _atom_site_fract_z
 _atom_site_occupancy
  Ce  Ce0  1  0.50000001  0.50000000  0.25000000  1
  Lu  Lu1  1  0.50000001  0.50000000  0.74999999  1
  Er  Er2  1  0.00000000  0.00000000  0.37352699  1
  Te  Te3  1  0.00000000  0.00000000  0.87352699  1
  Se  Se4  1  0.00000000  0.00000000  0.12647300  1
  Pb  Pb5  1  0.00000000  0.00000000  0.62647299  1
  S  S6  1  0.50000001  0.50000000  0.00000000  1
  Co  Co7  1  0.50000001  0.50000000  0.49999999  1
  Ac  Ac8  1  0.50000001  0.00000000  0.25000000  1
  Mn  Mn9  1  0.50000001  0.00000000  0.74999999  1
  Ne  Ne10  1  -0.00000000  0.50000000  0.00000000  1
  Ta  Ta11  1  -0.00000000  0.50000000  0.49999999  1
