# generated using pymatgen
data_KDy2Th
_symmetry_space_group_name_H-M   'P 1'
_cell_length_a   4.37483025
_cell_length_b   4.37483025
_cell_length_c   4.37483025
_cell_angle_alpha   60.00000000
_cell_angle_beta   60.00000000
_cell_angle_gamma   60.00000000
_symmetry_Int_Tables_number   1
_chemical_formula_structural   KDy2Th
_chemical_formula_sum   'K1 Dy2 Th1'
_cell_volume   59.20639526
_cell_formula_units_Z   1
loop_
 _symmetry_equiv_pos_site_id
 _symmetry_equiv_pos_as_xyz
  1  'x, y, z'
loop_
 _atom_site_type_symbol
 _atom_site_label
 _atom_site_symmetry_multiplicity
 _atom_site_fract_x
 _atom_site_fract_y
 _atom_site_fract_z
 _atom_site_occupancy
  Dy  Dy0  1  0.00000000  0.00000000  0.00000000  1
  Th  Th1  1  0.74999997  0.74999997  0.74999997  1
  Dy  Dy2  1  0.24999999  0.24999999  0.24999999  1
  K  K3  1  0.49999998  0.49999998  0.49999998  1
