# generated using pymatgen
data_KPrYPdCHe
_symmetry_space_group_name_H-M   'P 1'
_cell_length_a   3.91249704
_cell_length_b   4.88855982
_cell_length_c   4.88855886
_cell_angle_alpha   120.00000763
_cell_angle_beta   90.00000000
_cell_angle_gamma   90.00000000
_symmetry_Int_Tables_number   1
_chemical_formula_structural   KPrYPdCHe
_chemical_formula_sum   'K1 Pr1 Y1 Pd1 C1 He1'
_cell_volume   80.97415105
_cell_formula_units_Z   1
loop_
 _symmetry_equiv_pos_site_id
 _symmetry_equiv_pos_as_xyz
  1  'x, y, z'
loop_
 _atom_site_type_symbol
 _atom_site_label
 _atom_site_symmetry_multiplicity
 _atom_site_fract_x
 _atom_site_fract_y
 _atom_site_fract_z
 _atom_site_occupancy
  C  C0  1  0.99999999  0.33333335  0.66666669  1
  Pr  Pr1  1  0.99999999  0.66666670  0.33333336  1
  Pd  Pd2  1  0.00000000  0.00000000  0.00000000  1
  K  K3  1  0.49999999  0.83352004  0.66704004  1
  Y  Y4  1  0.49999999  0.83352004  0.16647902  1
  He  He5  1  0.49999999  0.33295902  0.16647901  1
