# generated using pymatgen
data_CsPmEuErPuThZrTiAlTlGaReSiAgGe2BC
_symmetry_space_group_name_H-M   'P 1'
_cell_length_a   5.73761511
_cell_length_b   5.73761511
_cell_length_c   5.73761511
_cell_angle_alpha   94.81232452
_cell_angle_beta   94.81232452
_cell_angle_gamma   94.81233978
_symmetry_Int_Tables_number   1
_chemical_formula_structural   CsPmEuErPuThZrTiAlTlGaReSiAgGe2BC
_chemical_formula_sum
'Cs1 Pm1 Eu1 Er1 Pu1 Th1 Zr1 Ti1 Al1 Tl1 Ga1 Re1 Si1 Ag1 Ge2 B1 C1'
_cell_volume   186.76618258
_cell_formula_units_Z   1
loop_
 _symmetry_equiv_pos_site_id
 _symmetry_equiv_pos_as_xyz
  1  'x, y, z'
loop_
 _atom_site_type_symbol
 _atom_site_label
 _atom_site_symmetry_multiplicity
 _atom_site_fract_x
 _atom_site_fract_y
 _atom_site_fract_z
 _atom_site_occupancy
  Al  Al0  1  0.00000000  0.00000000  0.00000000  1
  Ge  Ge1  1  0.33031200  0.33031200  0.33031200  1
  Ag  Ag2  1  0.66968800  0.66968800  0.66968800  1
  Ge  Ge3  1  0.00000000  0.00000000  0.50000001  1
  Eu  Eu4  1  -0.00000000  0.50000000  -0.00000001  1
  B  B5  1  0.50000000  0.00000000  -0.00000001  1
  Pm  Pm6  1  0.80422800  0.30674000  0.30673999  1
  Tl  Tl7  1  0.30674000  0.30674000  0.80422801  1
  Pu  Pu8  1  0.30674000  0.80422801  0.30673999  1
  C  C9  1  0.19577200  0.69326001  0.69326001  1
  Th  Th10  1  0.69326000  0.69326001  0.19577199  1
  Ti  Ti11  1  0.69326000  0.19577200  0.69326001  1
  Cs  Cs12  1  0.62449400  0.37550600  -0.00000001  1
  Re  Re13  1  0.37550600  0.00000000  0.62449401  1
  Si  Si14  1  -0.00000000  0.62449400  0.37550600  1
  Zr  Zr15  1  0.62449400  0.00000000  0.37550600  1
  Er  Er16  1  -0.00000000  0.37550600  0.62449401  1
  Ga  Ga17  1  0.37550600  0.62449400  1.00000001  1
