# generated using pymatgen
data_KRbSrCeNdYNpU2NbCdFeSiNiHgGeRuHe
_symmetry_space_group_name_H-M   'P 1'
_cell_length_a   7.17384386
_cell_length_b   7.39094257
_cell_length_c   7.39094257
_cell_angle_alpha   60.26233673
_cell_angle_beta   60.96700668
_cell_angle_gamma   60.96700668
_symmetry_Int_Tables_number   1
_chemical_formula_structural   KRbSrCeNdYNpU2NbCdFeSiNiHgGeRuHe
_chemical_formula_sum
'Rb1 K1 Sr1 Ce1 Nd1 Y1 Np1 U2 Nb1 Cd1 Fe1 Si1 Ni1 Hg1 Ge1 Ru1 He1'
_cell_volume   281.65020077
_cell_formula_units_Z   1
loop_
 _symmetry_equiv_pos_site_id
 _symmetry_equiv_pos_as_xyz
  1  'x, y, z'
loop_
 _atom_site_type_symbol
 _atom_site_label
 _atom_site_symmetry_multiplicity
 _atom_site_fract_x
 _atom_site_fract_y
 _atom_site_fract_z
 _atom_site_occupancy
  Cd  Cd0  1  0.61966601  0.13033400  0.63033402  1
  Hg  Hg1  1  0.38033400  0.86966602  0.36966603  1
  Ce  Ce2  1  0.00000000  0.00000000  0.00000000  1
  Ni  Ni3  1  1.00000002  0.50000001  0.50000003  1
  Ru  Ru4  1  0.50000001  0.50000001  1.00000004  1
  Nd  Nd5  1  -0.00000000  0.50000001  0.00000001  1
  Rb  Rb6  1  0.06232700  0.18767300  0.68767302  1
  Nb  Nb7  1  0.68121401  0.56878601  0.06878602  1
  Y  Y8  1  0.07405500  0.57729501  0.66600903  1
  Ge  Ge9  1  0.68264001  0.16601000  0.07729601  1
  He  He10  1  0.68264101  0.57729601  0.66600903  1
  Sr  Sr11  1  0.07405400  0.16600900  0.07729601  1
  U  U12  1  0.93767301  0.81232702  0.31232703  1
  Si  Si13  1  0.31878600  0.43121401  0.93121404  1
  Np  Np14  1  0.92594501  0.42270501  0.33399102  1
  U  U15  1  0.31736000  0.83399002  0.92270404  1
  Fe  Fe16  1  0.31735900  0.42270401  0.33399102  1
  K  K17  1  0.92594601  0.83399102  0.92270405  1
