# generated using pymatgen
data_BaAcPmPuHfThZrReRh
_symmetry_space_group_name_H-M   'P 1'
_cell_length_a   5.10960865
_cell_length_b   5.10960865
_cell_length_c   5.10960865
_cell_angle_alpha   60.00000000
_cell_angle_beta   60.00000000
_cell_angle_gamma   60.00000000
_symmetry_Int_Tables_number   1
_chemical_formula_structural   BaAcPmPuHfThZrReRh
_chemical_formula_sum   'Ba1 Ac1 Pm1 Pu1 Th1 Hf1 Zr1 Re1 Rh1'
_cell_volume   94.32958359
_cell_formula_units_Z   1
loop_
 _symmetry_equiv_pos_site_id
 _symmetry_equiv_pos_as_xyz
  1  'x, y, z'
loop_
 _atom_site_type_symbol
 _atom_site_label
 _atom_site_symmetry_multiplicity
 _atom_site_fract_x
 _atom_site_fract_y
 _atom_site_fract_z
 _atom_site_occupancy
  Pu  Pu0  1  0.75000002  0.75000002  0.75000002  1
  Pm  Pm1  1  0.25000001  0.25000001  0.25000001  1
  Ba  Ba2  1  0.23261600  0.76738402  0.23261600  1
  Th  Th3  1  0.23261600  0.76738402  0.76738402  1
  Zr  Zr4  1  0.76738402  0.76738402  0.23261600  1
  Re  Re5  1  0.76738402  0.23261600  0.76738402  1
  Ac  Ac6  1  0.76738402  0.23261600  0.23261600  1
  Hf  Hf7  1  0.23261600  0.23261600  0.76738402  1
  Rh  Rh8  1  0.00000000  0.00000000  0.00000000  1
