# generated using pymatgen
data_SmCdMoAuXe
_symmetry_space_group_name_H-M   'P 1'
_cell_length_a   4.06777811
_cell_length_b   5.39567327
_cell_length_c   5.39567327
_cell_angle_alpha   61.05075073
_cell_angle_beta   67.85523224
_cell_angle_gamma   67.85523224
_symmetry_Int_Tables_number   1
_chemical_formula_structural   SmCdMoAuXe
_chemical_formula_sum   'Sm1 Cd1 Mo1 Au1 Xe1'
_cell_volume   93.18009838
_cell_formula_units_Z   1
loop_
 _symmetry_equiv_pos_site_id
 _symmetry_equiv_pos_as_xyz
  1  'x, y, z'
loop_
 _atom_site_type_symbol
 _atom_site_label
 _atom_site_symmetry_multiplicity
 _atom_site_fract_x
 _atom_site_fract_y
 _atom_site_fract_z
 _atom_site_occupancy
  Xe  Xe0  1  0.20495000  0.29505001  0.29505001  1
  Au  Au1  1  0.79505000  0.70495001  0.70495003  1
  Mo  Mo2  1  0.00000000  0.00000000  0.00000000  1
  Cd  Cd3  1  0.49999999  0.27362101  0.72637903  1
  Sm  Sm4  1  0.50000001  0.72637901  0.27362101  1
