# generated using pymatgen
data_EuLuInAgSnHgBPXe
_symmetry_space_group_name_H-M   'P 1'
_cell_length_a   4.07185507
_cell_length_b   7.56291199
_cell_length_c   7.56291294
_cell_angle_alpha   119.99999237
_cell_angle_beta   90.00000000
_cell_angle_gamma   90.00000000
_symmetry_Int_Tables_number   1
_chemical_formula_structural   EuLuInAgSnHgBPXe
_chemical_formula_sum   'Eu1 Lu1 In1 Ag1 Sn1 Hg1 B1 P1 Xe1'
_cell_volume   201.69778276
_cell_formula_units_Z   1
loop_
 _symmetry_equiv_pos_site_id
 _symmetry_equiv_pos_as_xyz
  1  'x, y, z'
loop_
 _atom_site_type_symbol
 _atom_site_label
 _atom_site_symmetry_multiplicity
 _atom_site_fract_x
 _atom_site_fract_y
 _atom_site_fract_z
 _atom_site_occupancy
  B  B0  1  0.49999999  0.58981598  0.99999996  1
  Lu  Lu1  1  0.49999999  0.41018399  0.41018397  1
  In  In2  1  0.49999999  0.99999997  0.58981593  1
  Eu  Eu3  1  -0.00000000  0.25537599  0.99999998  1
  Sn  Sn4  1  -0.00000000  0.74462398  0.74462395  1
  Xe  Xe5  1  0.99999998  0.99999997  0.25537593  1
  Ag  Ag6  1  -0.00000000  0.33333332  0.66666664  1
  P  P7  1  -0.00000000  0.66666664  0.33333329  1
  Hg  Hg8  1  0.49999999  0.00000000  -0.00000000  1
