# generated using pymatgen
data_TbTiCdGeRh
_symmetry_space_group_name_H-M   'P 1'
_cell_length_a   3.48265791
_cell_length_b   3.48265791
_cell_length_c   5.30619860
_cell_angle_alpha   109.15766907
_cell_angle_beta   109.15766907
_cell_angle_gamma   90.00000000
_symmetry_Int_Tables_number   1
_chemical_formula_structural   TbTiCdGeRh
_chemical_formula_sum   'Tb1 Ti1 Cd1 Ge1 Rh1'
_cell_volume   57.00752317
_cell_formula_units_Z   1
loop_
 _symmetry_equiv_pos_site_id
 _symmetry_equiv_pos_as_xyz
  1  'x, y, z'
loop_
 _atom_site_type_symbol
 _atom_site_label
 _atom_site_symmetry_multiplicity
 _atom_site_fract_x
 _atom_site_fract_y
 _atom_site_fract_z
 _atom_site_occupancy
  Ge  Ge0  1  0.00000000  0.00000000  0.00000000  1
  Ti  Ti1  1  0.75000001  0.25000001  0.49999997  1
  Rh  Rh2  1  0.25000000  0.75000002  0.49999997  1
  Cd  Cd3  1  0.62402701  0.62402701  0.24805398  1
  Tb  Tb4  1  0.37597301  0.37597301  0.75194596  1
