# generated using pymatgen
data_KLiYbPmNdSmHoTi2NbVZnCdPt
_symmetry_space_group_name_H-M   'P 1'
_cell_length_a   5.08910418
_cell_length_b   5.08910418
_cell_length_c   6.39651823
_cell_angle_alpha   90.00000000
_cell_angle_beta   90.00000000
_cell_angle_gamma   110.41617584
_symmetry_Int_Tables_number   1
_chemical_formula_structural   KLiYbPmNdSmHoTi2NbVZnCdPt
_chemical_formula_sum
'K1 Li1 Yb1 Pm1 Nd1 Sm1 Ho1 Ti2 Nb1 V1 Zn1 Cd1 Pt1'
_cell_volume   155.25692410
_cell_formula_units_Z   1
loop_
 _symmetry_equiv_pos_site_id
 _symmetry_equiv_pos_as_xyz
  1  'x, y, z'
loop_
 _atom_site_type_symbol
 _atom_site_label
 _atom_site_symmetry_multiplicity
 _atom_site_fract_x
 _atom_site_fract_y
 _atom_site_fract_z
 _atom_site_occupancy
  Cd  Cd0  1  0.33085201  0.66914803  0.24999999  1
  Ho  Ho1  1  0.66914803  0.33085201  0.74999997  1
  Nb  Nb2  1  0.34832502  0.65167503  0.74999997  1
  Yb  Yb3  1  0.65167503  0.34832502  0.24999999  1
  Nd  Nd4  1  0.00000000  0.00000000  0.00000000  1
  V  V5  1  0.00000000  0.00000000  0.49999998  1
  Li  Li6  1  0.23063701  0.76936303  0.97371596  1
  Zn  Zn7  1  0.23063701  0.76936303  0.52628398  1
  Ti  Ti8  1  0.24212601  0.28162601  0.74999997  1
  K  K9  1  0.28162601  0.24212601  0.24999999  1
  Pm  Pm10  1  0.71837403  0.75787403  0.74999997  1
  Sm  Sm11  1  0.75787403  0.71837403  0.24999999  1
  Pt  Pt12  1  0.76936303  0.23063701  0.02628400  1
  Ti  Ti13  1  0.76936303  0.23063701  0.47371598  1
