# generated using pymatgen
data_NaCaLaCdBPt
_symmetry_space_group_name_H-M   'P 1'
_cell_length_a   4.82857800
_cell_length_b   4.82857847
_cell_length_c   7.46827507
_cell_angle_alpha   90.00000000
_cell_angle_beta   90.00000000
_cell_angle_gamma   119.99999237
_symmetry_Int_Tables_number   1
_chemical_formula_structural   NaCaLaCdBPt
_chemical_formula_sum   'Na1 Ca1 La1 Cd1 B1 Pt1'
_cell_volume   150.79589359
_cell_formula_units_Z   1
loop_
 _symmetry_equiv_pos_site_id
 _symmetry_equiv_pos_as_xyz
  1  'x, y, z'
loop_
 _atom_site_type_symbol
 _atom_site_label
 _atom_site_symmetry_multiplicity
 _atom_site_fract_x
 _atom_site_fract_y
 _atom_site_fract_z
 _atom_site_occupancy
  Na  Na0  1  0.00000000  0.00000000  0.50000000  1
  Ca  Ca1  1  0.00000000  0.00000000  0.00000000  1
  La  La2  1  0.66666665  0.33333334  0.74999999  1
  Cd  Cd3  1  0.33333329  0.66666668  0.25000000  1
  B  B4  1  0.66666665  0.33333334  0.25000000  1
  Pt  Pt5  1  0.33333329  0.66666668  0.74999999  1
