# generated using pymatgen
data_PrSnMoC
_symmetry_space_group_name_H-M   'P 1'
_cell_length_a   3.38951969
_cell_length_b   3.38951969
_cell_length_c   11.21520710
_cell_angle_alpha   81.30859375
_cell_angle_beta   81.30859375
_cell_angle_gamma   60.00000381
_symmetry_Int_Tables_number   1
_chemical_formula_structural   PrSnMoC
_chemical_formula_sum   'Pr1 Sn1 Mo1 C1'
_cell_volume   109.87531142
_cell_formula_units_Z   1
loop_
 _symmetry_equiv_pos_site_id
 _symmetry_equiv_pos_as_xyz
  1  'x, y, z'
loop_
 _atom_site_type_symbol
 _atom_site_label
 _atom_site_symmetry_multiplicity
 _atom_site_fract_x
 _atom_site_fract_y
 _atom_site_fract_z
 _atom_site_occupancy
  Mo  Mo0  1  0.24984100  0.24984101  0.25047700  1
  Sn  Sn1  1  0.49999999  0.50000001  0.50000001  1
  C  C2  1  0.75015899  0.75015902  0.74952301  1
  Pr  Pr3  1  0.00000000  0.00000000  0.00000000  1
