# generated using pymatgen
data_HeEuNbGaNiMoPtSe
_symmetry_space_group_name_H-M   'P 1'
_cell_length_a   6.00606680
_cell_length_b   7.34831381
_cell_length_c   7.34831429
_cell_angle_alpha   60.00000000
_cell_angle_beta   90.00000000
_cell_angle_gamma   90.00000000
_symmetry_Int_Tables_number   1
_chemical_formula_structural   HeEuNbGaNiMoPtSe
_chemical_formula_sum   'He1 Eu1 Nb1 Ga1 Ni1 Mo1 Pt1 Se1'
_cell_volume   280.86408426
_cell_formula_units_Z   1
loop_
 _symmetry_equiv_pos_site_id
 _symmetry_equiv_pos_as_xyz
  1  'x, y, z'
loop_
 _atom_site_type_symbol
 _atom_site_label
 _atom_site_symmetry_multiplicity
 _atom_site_fract_x
 _atom_site_fract_y
 _atom_site_fract_z
 _atom_site_occupancy
  He  He0  1  0.75000003  0.66008603  0.16995698  1
  Se  Se1  1  0.75000003  0.16995701  0.66008600  1
  Nb  Nb2  1  0.75000003  0.16995701  0.16995700  1
  Ga  Ga3  1  0.25000001  0.83004303  0.83004298  1
  Pt  Pt4  1  0.25000001  0.83004303  0.33991398  1
  Eu  Eu5  1  0.25000001  0.33991401  0.83004300  1
  Ni  Ni6  1  0.75000003  0.66666669  0.66666665  1
  Mo  Mo7  1  0.25000001  0.33333335  0.33333333  1
