# generated using pymatgen
data_Ca2EuYLuThNpScBiPSN
_symmetry_space_group_name_H-M   'P 1'
_cell_length_a   5.72246265
_cell_length_b   5.72246265
_cell_length_c   5.72246313
_cell_angle_alpha   61.25249481
_cell_angle_beta   61.25249481
_cell_angle_gamma   61.25250244
_symmetry_Int_Tables_number   1
_chemical_formula_structural   Ca2EuYLuThNpScBiPSN
_chemical_formula_sum   'Ca2 Eu1 Y1 Lu1 Th1 Sc1 Np1 Bi1 P1 S1 N1'
_cell_volume   136.23736183
_cell_formula_units_Z   1
loop_
 _symmetry_equiv_pos_site_id
 _symmetry_equiv_pos_as_xyz
  1  'x, y, z'
loop_
 _atom_site_type_symbol
 _atom_site_label
 _atom_site_symmetry_multiplicity
 _atom_site_fract_x
 _atom_site_fract_y
 _atom_site_fract_z
 _atom_site_occupancy
  N  N0  1  0.50000002  0.50000001  0.99999993  1
  Th  Th1  1  0.00000001  0.50000001  0.49999996  1
  Y  Y2  1  0.50000002  0.00000000  0.49999996  1
  Lu  Lu3  1  0.50000002  0.50000001  0.49999995  1
  S  S4  1  0.73676403  0.73676402  0.73676392  1
  Sc  Sc5  1  0.73256803  0.29478201  0.73256794  1
  Ca  Ca6  1  0.73256803  0.73256802  0.29478194  1
  Ca  Ca7  1  0.29478202  0.73256802  0.73256794  1
  P  P8  1  0.70521802  0.26743201  0.26743196  1
  Eu  Eu9  1  0.26743201  0.26743201  0.70521796  1
  Np  Np10  1  0.26743202  0.70521802  0.26743195  1
  Bi  Bi11  1  0.26323601  0.26323601  0.26323597  1
