# generated using pymatgen
data_DyHePrSmBeCrFeHOs
_symmetry_space_group_name_H-M   'P 1'
_cell_length_a   5.88206720
_cell_length_b   5.88206720
_cell_length_c   7.93044519
_cell_angle_alpha   101.03074646
_cell_angle_beta   101.03074646
_cell_angle_gamma   118.95133209
_symmetry_Int_Tables_number   1
_chemical_formula_structural   DyHePrSmBeCrFeHOs
_chemical_formula_sum   'Dy1 He1 Pr1 Sm1 Be1 Cr1 Fe1 Os1 H1'
_cell_volume   222.40585173
_cell_formula_units_Z   1
loop_
 _symmetry_equiv_pos_site_id
 _symmetry_equiv_pos_as_xyz
  1  'x, y, z'
loop_
 _atom_site_type_symbol
 _atom_site_label
 _atom_site_symmetry_multiplicity
 _atom_site_fract_x
 _atom_site_fract_y
 _atom_site_fract_z
 _atom_site_occupancy
  Dy  Dy0  1  0.33885200  0.33885199  0.67770297  1
  He  He1  1  0.66114800  0.66114799  0.32229697  1
  Fe  Fe2  1  0.00000000  0.00000000  0.00000000  1
  Be  Be3  1  0.49999998  0.00000000  -0.00000001  1
  Pr  Pr4  1  0.00000002  0.49999999  -0.00000001  1
  Sm  Sm5  1  0.26410503  0.92865498  0.19275998  1
  Os  Os6  1  0.07134503  0.73589499  0.80723996  1
  Cr  Cr7  1  0.92865497  0.26410499  0.19275997  1
  H  H8  1  0.73589497  0.07134500  0.80723996  1
