# generated using pymatgen
data_CsLaTb2CeDyPuFeCuBSbIrOsPbIBrKrHe
_symmetry_space_group_name_H-M   'P 1'
_cell_length_a   7.33071804
_cell_length_b   8.39488983
_cell_length_c   7.57699585
_cell_angle_alpha   116.82623291
_cell_angle_beta   90.00000000
_cell_angle_gamma   115.88828278
_symmetry_Int_Tables_number   1
_chemical_formula_structural   CsLaTb2CeDyPuFeCuBSbIrOsPbIBrKrHe
_chemical_formula_sum
'Cs1 Tb2 La1 Ce1 Dy1 Pu1 Fe1 Cu1 B1 Sb1 Ir1 Os1 Pb1 I1 Br1 Kr1 He1'
_cell_volume   362.90202329
_cell_formula_units_Z   1
loop_
 _symmetry_equiv_pos_site_id
 _symmetry_equiv_pos_as_xyz
  1  'x, y, z'
loop_
 _atom_site_type_symbol
 _atom_site_label
 _atom_site_symmetry_multiplicity
 _atom_site_fract_x
 _atom_site_fract_y
 _atom_site_fract_z
 _atom_site_occupancy
  B  B0  1  0.54958199  0.09916400  0.32340100  1
  Kr  Kr1  1  0.45041794  0.90083601  0.67659897  1
  Ir  Ir2  1  0.95041793  0.90083601  0.72423697  1
  Tb  Tb3  1  0.04958199  0.09916400  0.27576300  1
  Br  Br4  1  0.74999996  0.50000000  0.88235100  1
  Ce  Ce5  1  0.24999996  0.50000000  0.11764898  1
  Dy  Dy6  1  0.74999996  0.50000000  0.28254298  1
  Tb  Tb7  1  0.24999996  0.50000000  0.71745699  1
  I  I8  1  0.19243795  0.78986701  0.95781298  1
  Fe  Fe9  1  0.40257098  0.21013300  0.04218699  1
  Cs  Cs10  1  0.30756198  0.21013300  0.66794600  1
  Os  Os11  1  0.09742895  0.78986701  0.33205397  1
  Pb  Pb12  1  -0.00000003  0.50000000  0.49999999  1
  Cu  Cu13  1  0.49999996  0.50000000  0.49999999  1
  He  He14  1  0.90257098  0.21013300  0.66794600  1
  Pu  Pu15  1  0.69243794  0.78986701  0.33205397  1
  La  La16  1  0.59742894  0.78986701  0.95781298  1
  Sb  Sb17  1  0.80756198  0.21013300  0.04218699  1
