# generated using pymatgen
data_CsSr2AcYbEuZrVInAgHgTeRuRhSeXe
_symmetry_space_group_name_H-M   'P 1'
_cell_length_a   3.98149395
_cell_length_b   3.98149395
_cell_length_c   17.19284630
_cell_angle_alpha   90.00000000
_cell_angle_beta   90.00000000
_cell_angle_gamma   90.00000000
_symmetry_Int_Tables_number   1
_chemical_formula_structural   CsSr2AcYbEuZrVInAgHgTeRuRhSeXe
_chemical_formula_sum
'Cs1 Sr2 Yb1 Ac1 Eu1 Zr1 V1 In1 Ag1 Hg1 Te1 Ru1 Rh1 Se1 Xe1'
_cell_volume   272.54605547
_cell_formula_units_Z   1
loop_
 _symmetry_equiv_pos_site_id
 _symmetry_equiv_pos_as_xyz
  1  'x, y, z'
loop_
 _atom_site_type_symbol
 _atom_site_label
 _atom_site_symmetry_multiplicity
 _atom_site_fract_x
 _atom_site_fract_y
 _atom_site_fract_z
 _atom_site_occupancy
  Sr  Sr0  1  0.00000000  0.00000000  0.88109104  1
  Sr  Sr1  1  0.00000000  0.00000000  0.12310001  1
  Eu  Eu2  1  0.50000001  0.50000001  0.61648003  1
  Ag  Ag3  1  0.50000001  0.50000001  0.38139502  1
  V  V4  1  0.50000001  0.00000000  0.00122700  1
  Hg  Hg5  1  0.00000000  0.50000001  0.49661902  1
  Cs  Cs6  1  0.00000000  0.50000001  0.00122700  1
  In  In7  1  0.50000001  0.00000000  0.49661902  1
  Xe  Xe8  1  0.50000001  0.50000001  0.12423301  1
  Yb  Yb9  1  0.00000000  0.00000000  0.62368503  1
  Te  Te10  1  0.00000000  0.00000000  0.37397102  1
  Ac  Ac11  1  0.50000001  0.50000001  0.87468204  1
  Zr  Zr12  1  0.00000000  0.50000001  0.25379101  1
  Se  Se13  1  0.50000001  0.00000000  0.74904503  1
  Rh  Rh14  1  0.50000001  0.00000000  0.25379101  1
  Ru  Ru15  1  0.00000000  0.50000001  0.74904503  1
