# generated using pymatgen
data_RbPr2DyZrScMoIrRhXe
_symmetry_space_group_name_H-M   'P 1'
_cell_length_a   4.23169565
_cell_length_b   5.83086634
_cell_length_c   5.83086634
_cell_angle_alpha   90.18668365
_cell_angle_beta   90.00000000
_cell_angle_gamma   90.00000000
_symmetry_Int_Tables_number   1
_chemical_formula_structural   RbPr2DyZrScMoIrRhXe
_chemical_formula_sum   'Rb1 Pr2 Dy1 Zr1 Sc1 Mo1 Ir1 Rh1 Xe1'
_cell_volume   143.87266625
_cell_formula_units_Z   1
loop_
 _symmetry_equiv_pos_site_id
 _symmetry_equiv_pos_as_xyz
  1  'x, y, z'
loop_
 _atom_site_type_symbol
 _atom_site_label
 _atom_site_symmetry_multiplicity
 _atom_site_fract_x
 _atom_site_fract_y
 _atom_site_fract_z
 _atom_site_occupancy
  Zr  Zr0  1  0.49999999  0.49999999  0.50000001  1
  Sc  Sc1  1  0.49999999  0.00000000  -0.00000000  1
  Pr  Pr2  1  0.00000000  0.00000000  0.49999999  1
  Pr  Pr3  1  -0.00000000  0.49999999  0.00000002  1
  Xe  Xe4  1  0.49999999  0.00000000  0.49999999  1
  Mo  Mo5  1  0.49999999  0.49999999  0.00000002  1
  Rb  Rb6  1  -0.00000000  0.30989052  0.69010948  1
  Dy  Dy7  1  -0.00000000  0.69010947  0.30989054  1
  Ir  Ir8  1  -0.00000000  0.81058632  0.81058635  1
  Rh  Rh9  1  -0.00000000  0.18941367  0.18941368  1
