# generated using pymatgen
data_RbPmNdEuGdDyYScTaVGaFeSiBAsIrPtRhAuI
_symmetry_space_group_name_H-M   'P 1'
_cell_length_a   6.14434481
_cell_length_b   6.27985811
_cell_length_c   12.93642712
_cell_angle_alpha   90.00000000
_cell_angle_beta   90.00000000
_cell_angle_gamma   90.00000000
_symmetry_Int_Tables_number   1
_chemical_formula_structural   RbPmNdEuGdDyYScTaVGaFeSiBAsIrPtRhAuI
_chemical_formula_sum
;
Rb1 Pm1 Nd1 Eu1 Gd1 Dy1 Y1 Sc1 Ta1 V1 Ga1 Fe1 Si1 B1 As1 Ir1 Pt1 Rh1
Au1 I1
;
_cell_volume   499.15997781
_cell_formula_units_Z   1
loop_
 _symmetry_equiv_pos_site_id
 _symmetry_equiv_pos_as_xyz
  1  'x, y, z'
loop_
 _atom_site_type_symbol
 _atom_site_label
 _atom_site_symmetry_multiplicity
 _atom_site_fract_x
 _atom_site_fract_y
 _atom_site_fract_z
 _atom_site_occupancy
  Ir  Ir0  1  0.25000001  0.50341599  0.30774500  1
  Eu  Eu1  1  0.75000002  0.49658399  0.69225499  1
  Ga  Ga2  1  0.25000001  0.00341600  0.69225499  1
  V  V3  1  0.75000002  0.99658398  0.30774500  1
  Dy  Dy4  1  0.00000000  0.74999999  0.90582299  1
  Au  Au5  1  0.00000000  0.25000000  0.09417700  1
  Pt  Pt6  1  0.50000002  0.25000000  0.09417700  1
  B  B7  1  0.50000002  0.74999999  0.90582299  1
  Rh  Rh8  1  0.00000000  0.74999999  0.50113800  1
  I  I9  1  0.00000000  0.25000000  0.49886200  1
  Sc  Sc10  1  0.50000002  0.25000000  0.49886200  1
  Ta  Ta11  1  0.50000002  0.74999999  0.50113800  1
  Y  Y12  1  0.25000001  0.59944599  0.06271900  1
  Rb  Rb13  1  0.75000002  0.40055399  0.93728099  1
  Nd  Nd14  1  0.25000001  0.09944600  0.93728099  1
  Pm  Pm15  1  0.75000002  0.90055398  0.06271900  1
  Si  Si16  1  0.25000001  0.00205600  0.22629400  1
  Gd  Gd17  1  0.75000002  0.99794398  0.77370599  1
  Fe  Fe18  1  0.25000001  0.50205599  0.77370599  1
  As  As19  1  0.75000002  0.49794399  0.22629400  1
