# generated using pymatgen
data_BaSrTbTmMnInSnRhNCl
_symmetry_space_group_name_H-M   'P 1'
_cell_length_a   5.07720947
_cell_length_b   5.07720947
_cell_length_c   5.79815722
_cell_angle_alpha   64.03452301
_cell_angle_beta   64.03452301
_cell_angle_gamma   60.00000381
_symmetry_Int_Tables_number   1
_chemical_formula_structural   BaSrTbTmMnInSnRhNCl
_chemical_formula_sum   'Ba1 Sr1 Tb1 Tm1 Mn1 In1 Sn1 Rh1 N1 Cl1'
_cell_volume   111.68016528
_cell_formula_units_Z   1
loop_
 _symmetry_equiv_pos_site_id
 _symmetry_equiv_pos_as_xyz
  1  'x, y, z'
loop_
 _atom_site_type_symbol
 _atom_site_label
 _atom_site_symmetry_multiplicity
 _atom_site_fract_x
 _atom_site_fract_y
 _atom_site_fract_z
 _atom_site_occupancy
  Ba  Ba0  1  0.63296904  0.63296903  0.10109299  1
  Tb  Tb1  1  0.36703102  0.36703102  0.89890700  1
  N  N2  1  0.83707305  0.83707304  0.48878099  1
  Tm  Tm3  1  0.16292701  0.16292701  0.51121900  1
  Cl  Cl4  1  0.96751105  0.55862403  0.29036899  1
  Rh  Rh5  1  0.44137603  0.81650404  0.70963099  1
  Sn  Sn6  1  0.81650404  0.03248900  0.70963100  1
  Mn  Mn7  1  0.18349602  0.96751105  0.29036899  1
  Sr  Sr8  1  0.55862403  0.18349601  0.29036899  1
  In  In9  1  0.03248900  0.44137602  0.70963100  1
