# generated using pymatgen
data_RbCaEuScUMn2CrCdGaFeRuHeInMoCl
_symmetry_space_group_name_H-M   'P 1'
_cell_length_a   4.40156317
_cell_length_b   8.90755272
_cell_length_c   9.48810577
_cell_angle_alpha   117.99576569
_cell_angle_beta   103.41200256
_cell_angle_gamma   90.00000000
_symmetry_Int_Tables_number   1
_chemical_formula_structural   RbCaEuScUMn2CrCdGaFeRuHeInMoCl
_chemical_formula_sum
'Rb1 Ca1 Eu1 Sc1 U1 Mn2 Cr1 Cd1 Ga1 Fe1 Ru1 He1 In1 Mo1 Cl1'
_cell_volume   316.93495012
_cell_formula_units_Z   1
loop_
 _symmetry_equiv_pos_site_id
 _symmetry_equiv_pos_as_xyz
  1  'x, y, z'
loop_
 _atom_site_type_symbol
 _atom_site_label
 _atom_site_symmetry_multiplicity
 _atom_site_fract_x
 _atom_site_fract_y
 _atom_site_fract_z
 _atom_site_occupancy
  Ru  Ru0  1  0.20298699  0.20297500  0.40594897  1
  Fe  Fe1  1  0.79703894  0.79702500  0.59405092  1
  Eu  Eu2  1  0.00158997  0.75779100  0.99999991  1
  He  He3  1  0.00158999  0.24220900  -0.00000002  1
  Mn  Mn4  1  0.57489398  0.07494100  0.14988199  1
  Ca  Ca5  1  0.42501195  0.92505900  0.85011790  1
  Mo  Mo6  1  0.19877196  0.84664700  0.39559193  1
  Cr  Cr7  1  0.80317996  0.15335300  0.60440796  1
  Ga  Ga8  1  0.80317995  0.45105400  0.60440794  1
  Mn  Mn9  1  0.19877197  0.54894600  0.39559195  1
  Cd  Cd10  1  0.44148597  0.42272400  0.84544794  1
  Sc  Sc11  1  0.59603796  0.57727600  0.15455196  1
  Rb  Rb12  1  0.35136798  0.09978600  0.70360696  1
  Cl  Cl13  1  0.64776094  0.90021400  0.29639293  1
  U  U14  1  0.64776096  0.39617900  0.29639296  1
  In  In15  1  0.35136797  0.60382100  0.70360693  1
