# generated using pymatgen
data_BaCaAcYbCePrSmEuYErCrCu2HgTe2PCKr2
_symmetry_space_group_name_H-M   'P 1'
_cell_length_a   6.11115599
_cell_length_b   8.56296921
_cell_length_c   8.56296921
_cell_angle_alpha   73.66133881
_cell_angle_beta   69.09397125
_cell_angle_gamma   69.09397125
_symmetry_Int_Tables_number   1
_chemical_formula_structural   BaCaAcYbCePrSmEuYErCrCu2HgTe2PCKr2
_chemical_formula_sum
'Ba1 Ca1 Yb1 Ac1 Ce1 Pr1 Sm1 Eu1 Y1 Er1 Cr1 Cu2 Hg1 Te2 P1 C1 Kr2'
_cell_volume   384.90437352
_cell_formula_units_Z   1
loop_
 _symmetry_equiv_pos_site_id
 _symmetry_equiv_pos_as_xyz
  1  'x, y, z'
loop_
 _atom_site_type_symbol
 _atom_site_label
 _atom_site_symmetry_multiplicity
 _atom_site_fract_x
 _atom_site_fract_y
 _atom_site_fract_z
 _atom_site_occupancy
  Cu  Cu0  1  0.13261400  0.09940300  0.63536898  1
  Sm  Sm1  1  0.86738599  0.90059698  0.36463098  1
  Ca  Ca2  1  0.36738600  0.36463099  0.90059697  1
  Kr  Kr3  1  0.63261399  0.63536899  0.09940299  1
  Ce  Ce4  1  0.75000001  0.00000000  -0.00000001  1
  Yb  Yb5  1  0.24999998  0.99999998  -0.00000000  1
  Eu  Eu6  1  0.47491100  0.27508899  0.27508899  1
  Cr  Cr7  1  0.02508898  0.72491098  0.72491098  1
  Pr  Pr8  1  0.52508899  0.72491098  0.72491098  1
  Ba  Ba9  1  0.97491100  0.27508899  0.27508898  1
  P  P10  1  0.39959999  0.75767998  0.44311999  1
  Hg  Hg11  1  0.89960000  0.44311999  0.75767997  1
  C  C12  1  0.10039999  0.55687999  0.24231999  1
  Er  Er13  1  0.60040000  0.24231999  0.55687998  1
  Cu  Cu14  1  0.86012700  0.24807799  0.03166799  1
  Te  Te15  1  0.24999999  0.49999999  0.49999998  1
  Te  Te16  1  0.36012600  0.03166800  0.24807899  1
  Ac  Ac17  1  0.63987398  0.96833198  0.75192097  1
  Kr  Kr18  1  0.13987298  0.75192198  0.96833197  1
  Y  Y19  1  0.75000000  0.49999999  0.49999998  1
