# generated using pymatgen
data_K2LiPmNdErMgTiMnCdInHg3MoPtRhKr2Cl
_symmetry_space_group_name_H-M   'P 1'
_cell_length_a   7.10699749
_cell_length_b   7.10699749
_cell_length_c   7.10699749
_cell_angle_alpha   109.47122192
_cell_angle_beta   109.47122192
_cell_angle_gamma   109.47122192
_symmetry_Int_Tables_number   1
_chemical_formula_structural   K2LiPmNdErMgTiMnCdInHg3MoPtRhKr2Cl
_chemical_formula_sum
'K2 Li1 Pm1 Nd1 Er1 Mg1 Ti1 Mn1 Cd1 In1 Hg3 Mo1 Pt1 Rh1 Kr2 Cl1'
_cell_volume   276.33543234
_cell_formula_units_Z   1
loop_
 _symmetry_equiv_pos_site_id
 _symmetry_equiv_pos_as_xyz
  1  'x, y, z'
loop_
 _atom_site_type_symbol
 _atom_site_label
 _atom_site_symmetry_multiplicity
 _atom_site_fract_x
 _atom_site_fract_y
 _atom_site_fract_z
 _atom_site_occupancy
  Pm  Pm0  1  1.00000006  0.50000003  1.00000007  1
  Pt  Pt1  1  0.00000000  0.00000000  0.50000001  1
  Hg  Hg2  1  0.50000005  0.50000003  0.50000005  1
  Hg  Hg3  1  0.50000001  0.00000000  0.00000001  1
  K  K4  1  0.00000000  0.00000000  0.00000000  1
  Cd  Cd5  1  0.50000005  0.50000003  0.00000004  1
  Mg  Mg6  1  0.50000001  0.00000000  0.50000002  1
  Rh  Rh7  1  0.00000003  0.50000003  0.50000004  1
  Li  Li8  1  0.50000003  0.25000002  0.75000004  1
  Mo  Mo9  1  0.75000004  0.25000002  0.50000004  1
  Ti  Ti10  1  0.25000005  0.75000005  0.50000006  1
  Er  Er11  1  0.75000005  0.50000003  0.25000005  1
  Nd  Nd12  1  0.25000004  0.50000003  0.75000005  1
  Cl  Cl13  1  0.50000006  0.75000005  0.25000006  1
  Hg  Hg14  1  0.00000005  0.72587804  0.72587806  1
  K  K15  1  0.72587807  0.72587804  0.00000006  1
  Mn  Mn16  1  0.00000002  0.27412202  0.27412202  1
  In  In17  1  0.72587808  1.00000006  0.72587809  1
  Kr  Kr18  1  0.27412207  1.00000006  0.27412207  1
  Kr  Kr19  1  0.27412203  0.27412202  0.00000002  1
