# generated using pymatgen
data_Nd2SmDyUBeInGeTeIrCS
_symmetry_space_group_name_H-M   'P 1'
_cell_length_a   3.57908392
_cell_length_b   5.93455791
_cell_length_c   6.71124315
_cell_angle_alpha   90.79188538
_cell_angle_beta   90.00000000
_cell_angle_gamma   90.00000000
_symmetry_Int_Tables_number   1
_chemical_formula_structural   Nd2SmDyUBeInGeTeIrCS
_chemical_formula_sum   'Nd2 Sm1 Dy1 U1 Be1 In1 Ge1 Te1 Ir1 C1 S1'
_cell_volume   142.53507447
_cell_formula_units_Z   1
loop_
 _symmetry_equiv_pos_site_id
 _symmetry_equiv_pos_as_xyz
  1  'x, y, z'
loop_
 _atom_site_type_symbol
 _atom_site_label
 _atom_site_symmetry_multiplicity
 _atom_site_fract_x
 _atom_site_fract_y
 _atom_site_fract_z
 _atom_site_occupancy
  Nd  Nd0  1  -0.00000000  0.02090000  0.31694799  1
  Be  Be1  1  0.50000001  0.47630501  0.82809199  1
  U  U2  1  0.50000001  0.97159901  0.67750001  1
  Dy  Dy3  1  -0.00000000  0.64509301  0.55802400  1
  C  C4  1  0.00000000  0.14957000  0.94166098  1
  Nd  Nd5  1  0.50000001  0.35700401  0.43859700  1
  Ge  Ge6  1  0.50000001  0.85426401  0.06205802  1
  S  S7  1  -0.00000000  0.53199601  0.17437201  1
  Ir  Ir8  1  0.00000000  0.27150500  0.62230799  1
  In  In9  1  0.00000000  0.77129801  0.88786000  1
  Sm  Sm10  1  0.50000001  0.71593801  0.36605201  1
  Te  Te11  1  0.50000001  0.23452800  0.12652800  1
