# generated using pymatgen
data_NaSrCaAc2TbYbEuErPuZrNp2CrFeNiPtBrClNe
_symmetry_space_group_name_H-M   'P 1'
_cell_length_a   5.37049484
_cell_length_b   5.63323784
_cell_length_c   7.67716742
_cell_angle_alpha   90.00000000
_cell_angle_beta   89.75695801
_cell_angle_gamma   90.00000000
_symmetry_Int_Tables_number   1
_chemical_formula_structural   NaSrCaAc2TbYbEuErPuZrNp2CrFeNiPtBrClNe
_chemical_formula_sum
;
Na1 Sr1 Ca1 Tb1 Ac2 Yb1 Eu1 Er1 Pu1 Zr1 Np2 Cr1 Fe1 Ni1 Pt1 Br1 Cl1
Ne1
;
_cell_volume   232.25736562
_cell_formula_units_Z   1
loop_
 _symmetry_equiv_pos_site_id
 _symmetry_equiv_pos_as_xyz
  1  'x, y, z'
loop_
 _atom_site_type_symbol
 _atom_site_label
 _atom_site_symmetry_multiplicity
 _atom_site_fract_x
 _atom_site_fract_y
 _atom_site_fract_z
 _atom_site_occupancy
  Tb  Tb0  1  0.51641702  0.56416602  0.25088900  1
  Cr  Cr1  1  0.01641700  0.93583403  0.75088898  1
  Np  Np2  1  0.48358302  0.43583401  0.74911098  1
  Ac  Ac3  1  0.98358304  0.06416600  0.24911100  1
  Fe  Fe4  1  0.00000000  0.50000001  0.49999999  1
  Sr  Sr5  1  0.50000002  0.00000000  0.00000000  1
  Eu  Eu6  1  0.50000002  0.00000000  0.49999999  1
  Ac  Ac7  1  0.00000000  0.50000001  -0.00000000  1
  Ni  Ni8  1  0.59654702  0.02907900  0.75890798  1
  Cl  Cl9  1  0.20886001  0.19097001  0.95200898  1
  Na  Na10  1  0.29114001  0.69097002  0.54799099  1
  Yb  Yb11  1  0.09654700  0.47092101  0.25890799  1
  Er  Er12  1  0.40345302  0.97092103  0.24109200  1
  Ca  Ca13  1  0.79114003  0.80903002  0.04799000  1
  Pt  Pt14  1  0.90345304  0.52907902  0.74109198  1
  Ne  Ne15  1  0.81222103  0.78749502  0.44780899  1
  Pu  Pu16  1  0.18777901  0.21250501  0.55219099  1
  Np  Np17  1  0.31222101  0.71250502  0.94780898  1
  Br  Br18  1  0.70886003  0.30903001  0.45200999  1
  Zr  Zr19  1  0.68777903  0.28749501  0.05219100  1
