# generated using pymatgen
data_SrYbEuGdDyMgVReTcNiAsRu2AuI
_symmetry_space_group_name_H-M   'P 1'
_cell_length_a   3.83327699
_cell_length_b   3.83327699
_cell_length_c   17.43610001
_cell_angle_alpha   90.00000000
_cell_angle_beta   90.00000000
_cell_angle_gamma   90.00000000
_symmetry_Int_Tables_number   1
_chemical_formula_structural   SrYbEuGdDyMgVReTcNiAsRu2AuI
_chemical_formula_sum
'Sr1 Yb1 Eu1 Gd1 Dy1 Mg1 V1 Re1 Tc1 Ni1 As1 Ru2 Au1 I1'
_cell_volume   256.20627074
_cell_formula_units_Z   1
loop_
 _symmetry_equiv_pos_site_id
 _symmetry_equiv_pos_as_xyz
  1  'x, y, z'
loop_
 _atom_site_type_symbol
 _atom_site_label
 _atom_site_symmetry_multiplicity
 _atom_site_fract_x
 _atom_site_fract_y
 _atom_site_fract_z
 _atom_site_occupancy
  Mg  Mg0  1  0.50000000  0.00000000  0.12730600  1
  Eu  Eu1  1  0.50000000  0.00000000  0.62998100  1
  As  As2  1  0.00000000  0.50000000  0.87269400  1
  Gd  Gd3  1  0.00000000  0.50000000  0.37001900  1
  Sr  Sr4  1  0.00000000  0.00000000  0.50000000  1
  Ni  Ni5  1  0.50000000  0.50000000  0.00000000  1
  Dy  Dy6  1  0.50000000  0.50000000  0.50000000  1
  Ru  Ru7  1  0.50000000  0.00000000  0.92609600  1
  I  I8  1  0.50000000  0.00000000  0.41748200  1
  Re  Re9  1  0.00000000  0.50000000  0.07390400  1
  V  V10  1  0.00000000  0.50000000  0.58251800  1
  Ru  Ru11  1  0.00000000  0.00000000  0.75104600  1
  Yb  Yb12  1  0.00000000  0.00000000  0.24895400  1
  Au  Au13  1  0.50000000  0.50000000  0.75087600  1
  Tc  Tc14  1  0.50000000  0.50000000  0.24912400  1
