# generated using pymatgen
data_LaBeAlFeGePdRuSINCl3
_symmetry_space_group_name_H-M   'P 1'
_cell_length_a   4.68341398
_cell_length_b   6.39559412
_cell_length_c   6.39559412
_cell_angle_alpha   81.93719482
_cell_angle_beta   68.52201080
_cell_angle_gamma   68.52201080
_symmetry_Int_Tables_number   1
_chemical_formula_structural   LaBeAlFeGePdRuSINCl3
_chemical_formula_sum   'La1 Be1 Al1 Fe1 Ge1 Ru1 Pd1 S1 I1 N1 Cl3'
_cell_volume   165.88242842
_cell_formula_units_Z   1
loop_
 _symmetry_equiv_pos_site_id
 _symmetry_equiv_pos_as_xyz
  1  'x, y, z'
loop_
 _atom_site_type_symbol
 _atom_site_label
 _atom_site_symmetry_multiplicity
 _atom_site_fract_x
 _atom_site_fract_y
 _atom_site_fract_z
 _atom_site_occupancy
  S  S0  1  0.00000000  0.00000000  0.00000000  1
  Be  Be1  1  0.63161900  0.36838099  0.36838102  1
  Fe  Fe2  1  0.36838100  0.63161899  0.63161902  1
  Ru  Ru3  1  1.00000000  0.00000000  0.50000001  1
  Pd  Pd4  1  0.50000000  0.00000000  0.50000000  1
  Ge  Ge5  1  0.50000000  0.49999999  1.00000001  1
  Al  Al6  1  1.00000000  0.49999999  0.00000003  1
  N  N7  1  0.50000000  0.77408598  0.22591404  1
  Cl  Cl8  1  0.50000000  0.22591400  0.77408601  1
  Cl  Cl9  1  0.72833200  0.77166798  0.77166803  1
  Cl  Cl10  1  0.27166800  0.22833200  0.22833201  1
  La  La11  1  1.00000000  0.35945399  0.64054602  1
  I  I12  1  0.00000000  0.64054599  0.35945402  1
