# generated using pymatgen
data_KLiYbCeEuYNpBi2Os
_symmetry_space_group_name_H-M   'P 1'
_cell_length_a   8.79875755
_cell_length_b   8.79875755
_cell_length_c   8.79875755
_cell_angle_alpha   60.00000000
_cell_angle_beta   60.00000000
_cell_angle_gamma   60.00000000
_symmetry_Int_Tables_number   1
_chemical_formula_structural   KLiYbCeEuYNpBi2Os
_chemical_formula_sum   'K1 Li1 Yb1 Ce1 Eu1 Y1 Np1 Bi2 Os1'
_cell_volume   481.66939818
_cell_formula_units_Z   1
loop_
 _symmetry_equiv_pos_site_id
 _symmetry_equiv_pos_as_xyz
  1  'x, y, z'
loop_
 _atom_site_type_symbol
 _atom_site_label
 _atom_site_symmetry_multiplicity
 _atom_site_fract_x
 _atom_site_fract_y
 _atom_site_fract_z
 _atom_site_occupancy
  Os  Os0  1  0.24999999  0.24999999  0.24999999  1
  Yb  Yb1  1  0.74999998  0.74999998  0.74999998  1
  Ce  Ce2  1  0.49999999  0.49999999  0.49999999  1
  Bi  Bi3  1  0.00000000  0.00000000  0.00000000  1
  Eu  Eu4  1  0.24743099  0.75256898  0.24743099  1
  Li  Li5  1  0.24743099  0.24743099  0.75256898  1
  Bi  Bi6  1  0.75256898  0.24743099  0.75256898  1
  Np  Np7  1  0.24743099  0.75256898  0.75256898  1
  K  K8  1  0.75256898  0.24743099  0.24743099  1
  Y  Y9  1  0.75256898  0.75256898  0.24743099  1
