# generated using pymatgen
data_KRbSrCaAcPr3SmGaCoSiPtRhNe
_symmetry_space_group_name_H-M   'P 1'
_cell_length_a   5.58342981
_cell_length_b   5.67402267
_cell_length_c   5.71751261
_cell_angle_alpha   118.23184204
_cell_angle_beta   118.30903625
_cell_angle_gamma   91.46070862
_symmetry_Int_Tables_number   1
_chemical_formula_structural   KRbSrCaAcPr3SmGaCoSiPtRhNe
_chemical_formula_sum
'K1 Rb1 Sr1 Ca1 Ac1 Pr3 Sm1 Ga1 Co1 Si1 Pt1 Rh1 Ne1'
_cell_volume   133.01365312
_cell_formula_units_Z   1
loop_
 _symmetry_equiv_pos_site_id
 _symmetry_equiv_pos_as_xyz
  1  'x, y, z'
loop_
 _atom_site_type_symbol
 _atom_site_label
 _atom_site_symmetry_multiplicity
 _atom_site_fract_x
 _atom_site_fract_y
 _atom_site_fract_z
 _atom_site_occupancy
  Pr  Pr0  1  0.00000000  0.50000001  0.00000000  1
  K  K1  1  0.50000003  0.00000000  0.00000003  1
  Pr  Pr2  1  0.50000003  0.00000000  0.50000003  1
  Ga  Ga3  1  0.50000003  0.50000001  0.00000003  1
  Ac  Ac4  1  0.50000003  0.50000001  0.50000003  1
  Sr  Sr5  1  0.00000000  0.00000000  0.00000000  1
  Pt  Pt6  1  0.00000000  0.50000001  0.50000000  1
  Rh  Rh7  1  0.76475105  0.28436501  0.04776804  1
  Pr  Pr8  1  0.75701205  0.72543902  0.50760604  1
  Rb  Rb9  1  0.28734402  0.28933201  0.05611702  1
  Sm  Sm10  1  0.25843802  0.72234602  0.49937802  1
  Ca  Ca11  1  0.74156204  0.27765401  0.50062204  1
  Si  Si12  1  0.71265604  0.71066802  0.94388304  1
  Co  Co13  1  0.24298801  0.27456101  0.49239402  1
  Ne  Ne14  1  0.23524902  0.71563502  0.95223202  1
