# generated using pymatgen
data_Gd2PuReAgSnOsKrOF
_symmetry_space_group_name_H-M   'P 1'
_cell_length_a   5.99751949
_cell_length_b   5.99751949
_cell_length_c   5.99751949
_cell_angle_alpha   60.00000000
_cell_angle_beta   60.00000000
_cell_angle_gamma   60.00000000
_symmetry_Int_Tables_number   1
_chemical_formula_structural   Gd2PuReAgSnOsKrOF
_chemical_formula_sum   'Gd2 Pu1 Re1 Ag1 Sn1 Os1 Kr1 O1 F1'
_cell_volume   152.54571285
_cell_formula_units_Z   1
loop_
 _symmetry_equiv_pos_site_id
 _symmetry_equiv_pos_as_xyz
  1  'x, y, z'
loop_
 _atom_site_type_symbol
 _atom_site_label
 _atom_site_symmetry_multiplicity
 _atom_site_fract_x
 _atom_site_fract_y
 _atom_site_fract_z
 _atom_site_occupancy
  Ag  Ag0  1  0.75000001  0.75000001  0.75000001  1
  O  O1  1  0.25000000  0.25000000  0.25000000  1
  Os  Os2  1  0.50000001  0.50000001  0.50000001  1
  Sn  Sn3  1  0.00000000  0.00000000  0.00000000  1
  Pu  Pu4  1  0.21723612  0.78276389  0.21723612  1
  Gd  Gd5  1  0.78276389  0.21723612  0.78276389  1
  Gd  Gd6  1  0.78276389  0.21723612  0.21723612  1
  Re  Re7  1  0.21723612  0.78276389  0.78276389  1
  F  F8  1  0.78276389  0.78276389  0.21723612  1
  Kr  Kr9  1  0.21723612  0.21723612  0.78276389  1
