# generated using pymatgen
data_AcTbPr2FeMoHF
_symmetry_space_group_name_H-M   'P 1'
_cell_length_a   5.71395016
_cell_length_b   5.71395016
_cell_length_c   5.71395016
_cell_angle_alpha   100.80387878
_cell_angle_beta   113.97112274
_cell_angle_gamma   113.97112274
_symmetry_Int_Tables_number   1
_chemical_formula_structural   AcTbPr2FeMoHF
_chemical_formula_sum   'Ac1 Tb1 Pr2 Fe1 Mo1 H1 F1'
_cell_volume   141.19992283
_cell_formula_units_Z   1
loop_
 _symmetry_equiv_pos_site_id
 _symmetry_equiv_pos_as_xyz
  1  'x, y, z'
loop_
 _atom_site_type_symbol
 _atom_site_label
 _atom_site_symmetry_multiplicity
 _atom_site_fract_x
 _atom_site_fract_y
 _atom_site_fract_z
 _atom_site_occupancy
  Pr  Pr0  1  0.00000011  0.75000007  0.75000009  1
  Mo  Mo1  1  0.00000004  0.25000002  0.25000003  1
  Ac  Ac2  1  0.50000017  1.00000009  0.50000015  1
  F  F3  1  0.50000009  0.50000005  1.00000010  1
  Fe  Fe4  1  0.23022614  0.86511308  0.36511311  1
  Pr  Pr5  1  0.76977405  0.13488701  0.63488707  1
  H  H6  1  0.50000007  0.36511303  0.13488707  1
  Tb  Tb7  1  0.50000011  0.63488706  0.86511311  1
