# generated using pymatgen
data_CeGdHo2ErBeCdInTeIrPtAuOF
_symmetry_space_group_name_H-M   'P 1'
_cell_length_a   6.64454222
_cell_length_b   6.80092621
_cell_length_c   9.29523468
_cell_angle_alpha   108.52885437
_cell_angle_beta   90.00000000
_cell_angle_gamma   90.00000000
_symmetry_Int_Tables_number   1
_chemical_formula_structural   CeGdHo2ErBeCdInTeIrPtAuOF
_chemical_formula_sum
'Ce1 Gd1 Ho2 Er1 Be1 Cd1 In1 Te1 Ir1 Pt1 Au1 O1 F1'
_cell_volume   398.26929869
_cell_formula_units_Z   1
loop_
 _symmetry_equiv_pos_site_id
 _symmetry_equiv_pos_as_xyz
  1  'x, y, z'
loop_
 _atom_site_type_symbol
 _atom_site_label
 _atom_site_symmetry_multiplicity
 _atom_site_fract_x
 _atom_site_fract_y
 _atom_site_fract_z
 _atom_site_occupancy
  Er  Er0  1  0.24957499  0.76788397  0.56385497  1
  Cd  Cd1  1  0.74957498  0.23211599  0.43614498  1
  Au  Au2  1  0.23345099  0.73402898  0.05247599  1
  Pt  Pt3  1  0.73345098  0.26597099  0.94752395  1
  F  F4  1  0.26384999  0.27983699  0.17298899  1
  Ho  Ho5  1  0.76384998  0.72016298  0.82701095  1
  In  In6  1  0.25415799  0.09096300  0.32583698  1
  Ce  Ce7  1  0.75415798  0.90903697  0.67416296  1
  Be  Be8  1  0.50810098  0.51869298  0.21743699  1
  Gd  Gd9  1  0.00810100  0.48130698  0.78256296  1
  Ir  Ir10  1  0.49836698  0.50866598  0.79702996  1
  Te  Te11  1  0.99836697  0.49133398  0.20296999  1
  O  O12  1  0.31559899  0.07524600  0.93615695  1
  Ho  Ho13  1  0.81559897  0.92475397  0.06384299  1
