# generated using pymatgen
data_BaSmLuHfScBeSnHg2AuSCl
_symmetry_space_group_name_H-M   'P 1'
_cell_length_a   6.94901085
_cell_length_b   6.94901085
_cell_length_c   9.00790977
_cell_angle_alpha   90.00000000
_cell_angle_beta   90.00000000
_cell_angle_gamma   90.00000000
_symmetry_Int_Tables_number   1
_chemical_formula_structural   BaSmLuHfScBeSnHg2AuSCl
_chemical_formula_sum   'Ba1 Sm1 Lu1 Hf1 Sc1 Be1 Sn1 Hg2 Au1 S1 Cl1'
_cell_volume   434.98071917
_cell_formula_units_Z   1
loop_
 _symmetry_equiv_pos_site_id
 _symmetry_equiv_pos_as_xyz
  1  'x, y, z'
loop_
 _atom_site_type_symbol
 _atom_site_label
 _atom_site_symmetry_multiplicity
 _atom_site_fract_x
 _atom_site_fract_y
 _atom_site_fract_z
 _atom_site_occupancy
  Hf  Hf0  1  0.50000001  0.50000001  0.00000000  1
  Lu  Lu1  1  0.00000000  0.00000000  0.00000000  1
  Be  Be2  1  0.50000001  0.50000001  0.50000001  1
  Ba  Ba3  1  0.00000000  0.00000000  0.50000001  1
  Hg  Hg4  1  0.35588501  0.85588502  0.28681101  1
  Sc  Sc5  1  0.14411500  0.35588501  0.28681101  1
  Cl  Cl6  1  0.85588502  0.64411501  0.28681101  1
  Au  Au7  1  0.35588501  0.14411500  0.71318902  1
  Sm  Sm8  1  0.64411501  0.85588502  0.71318902  1
  S  S9  1  0.64411501  0.14411500  0.28681101  1
  Hg  Hg10  1  0.85588502  0.35588501  0.71318902  1
  Sn  Sn11  1  0.14411500  0.64411501  0.71318902  1
