# generated using pymatgen
data_LaTbCeNdDyThU2BeTlVCoCuTePHPdRuPtBr
_symmetry_space_group_name_H-M   'P 1'
_cell_length_a   5.65469313
_cell_length_b   5.69262791
_cell_length_c   8.00222015
_cell_angle_alpha   90.00000000
_cell_angle_beta   90.00000000
_cell_angle_gamma   90.00000000
_symmetry_Int_Tables_number   1
_chemical_formula_structural   LaTbCeNdDyThU2BeTlVCoCuTePHPdRuPtBr
_chemical_formula_sum
;
Tb1 La1 Ce1 Nd1 Dy1 Th1 U2 Be1 Tl1 V1 Co1 Cu1 Te1 P1 H1 Pd1 Ru1 Pt1
Br1
;
_cell_volume   257.59197807
_cell_formula_units_Z   1
loop_
 _symmetry_equiv_pos_site_id
 _symmetry_equiv_pos_as_xyz
  1  'x, y, z'
loop_
 _atom_site_type_symbol
 _atom_site_label
 _atom_site_symmetry_multiplicity
 _atom_site_fract_x
 _atom_site_fract_y
 _atom_site_fract_z
 _atom_site_occupancy
  Tb  Tb0  1  0.01767600  0.99799502  0.25000000  1
  H  H1  1  0.98232398  0.00200500  0.74999999  1
  Pt  Pt2  1  0.51767599  0.50200501  0.25000000  1
  Dy  Dy3  1  0.48232399  0.49799501  0.74999999  1
  U  U4  1  0.49999999  0.00000000  0.00000000  1
  Br  Br5  1  0.00000000  0.50000001  0.49999999  1
  Pd  Pd6  1  0.00000000  0.50000001  0.00000000  1
  Te  Te7  1  0.49999999  0.00000000  0.49999999  1
  Tl  Tl8  1  0.72735698  0.27073400  0.96952098  1
  Ce  Ce9  1  0.77264298  0.77073401  0.46952099  1
  Th  Th10  1  0.77264298  0.77073401  0.03047900  1
  U  U11  1  0.72735698  0.27073400  0.53047899  1
  Be  Be12  1  0.22735699  0.22926600  0.96952098  1
  Cu  Cu13  1  0.27264299  0.72926601  0.46952099  1
  Nd  Nd14  1  0.00510500  0.55866101  0.74999999  1
  Co  Co15  1  0.99489498  0.44133901  0.25000000  1
  V  V16  1  0.49489499  0.05866100  0.25000000  1
  La  La17  1  0.27264299  0.72926601  0.03047900  1
  P  P18  1  0.22735699  0.22926600  0.53047899  1
  Ru  Ru19  1  0.50510499  0.94133902  0.74999999  1
