# generated using pymatgen
data_CsYb2HoPuUTaAlOsSXeIN
_symmetry_space_group_name_H-M   'P 1'
_cell_length_a   7.49635029
_cell_length_b   7.49635029
_cell_length_c   7.49635029
_cell_angle_alpha   60.00000000
_cell_angle_beta   60.00000000
_cell_angle_gamma   60.00000000
_symmetry_Int_Tables_number   1
_chemical_formula_structural   CsYb2HoPuUTaAlOsSXeIN
_chemical_formula_sum   'Cs1 Yb2 Ho1 Pu1 U1 Ta1 Al1 Os1 S1 Xe1 I1 N1'
_cell_volume   297.87538603
_cell_formula_units_Z   1
loop_
 _symmetry_equiv_pos_site_id
 _symmetry_equiv_pos_as_xyz
  1  'x, y, z'
loop_
 _atom_site_type_symbol
 _atom_site_label
 _atom_site_symmetry_multiplicity
 _atom_site_fract_x
 _atom_site_fract_y
 _atom_site_fract_z
 _atom_site_occupancy
  Cs  Cs0  1  0.49999999  0.49999999  0.49999999  1
  N  N1  1  0.36449699  0.87850098  0.87850098  1
  Pu  Pu2  1  0.87849998  0.87850098  0.87850098  1
  Al  Al3  1  0.87849998  0.87850098  0.36449799  1
  Ho  Ho4  1  0.87849998  0.36449799  0.87850098  1
  Ta  Ta5  1  0.62707399  0.62707299  0.62707299  1
  Xe  Xe6  1  0.62707399  0.11878000  0.62707299  1
  S  S7  1  0.62707399  0.62707299  0.11878000  1
  Os  Os8  1  0.62832699  0.12389100  0.12389100  1
  Yb  Yb9  1  0.11878100  0.62707299  0.62707299  1
  I  I10  1  0.12389000  0.12389100  0.12389100  1
  U  U11  1  0.12389000  0.12389100  0.62832799  1
  Yb  Yb12  1  0.12389000  0.62832799  0.12389100  1
