# generated using pymatgen
data_LiCaLaCeThPaBeNbCuReBiTeMoOsCBrNCl
_symmetry_space_group_name_H-M   'P 1'
_cell_length_a   7.29168224
_cell_length_b   7.37603664
_cell_length_c   7.37603664
_cell_angle_alpha   60.31018829
_cell_angle_beta   60.37759399
_cell_angle_gamma   60.37759399
_symmetry_Int_Tables_number   1
_chemical_formula_structural   LiCaLaCeThPaBeNbCuReBiTeMoOsCBrNCl
_chemical_formula_sum
'Li1 Ca1 La1 Ce1 Th1 Pa1 Be1 Nb1 Cu1 Re1 Bi1 Te1 Mo1 Os1 C1 Br1 N1 Cl1'
_cell_volume   282.77002778
_cell_formula_units_Z   1
loop_
 _symmetry_equiv_pos_site_id
 _symmetry_equiv_pos_as_xyz
  1  'x, y, z'
loop_
 _atom_site_type_symbol
 _atom_site_label
 _atom_site_symmetry_multiplicity
 _atom_site_fract_x
 _atom_site_fract_y
 _atom_site_fract_z
 _atom_site_occupancy
  Cu  Cu0  1  0.61574101  0.63886500  0.62965400  1
  Te  Te1  1  0.38425901  0.37034600  0.36113500  1
  Re  Re2  1  0.50000000  0.00417000  0.99583001  1
  Cl  Cl3  1  0.00000000  0.00417000  0.99583000  1
  C  C4  1  0.00002501  0.50420800  0.99574099  1
  Ce  Ce5  1  0.99997500  0.00425900  0.49579202  1
  Pa  Pa6  1  0.67492400  0.07921700  0.07093601  1
  Li  Li7  1  0.05867301  0.69551200  0.68714199  1
  Os  Os8  1  0.06607700  0.07089700  0.67529600  1
  Nb  Nb9  1  0.68773001  0.68363000  0.06256500  1
  Th  Th10  1  0.06607501  0.68363000  0.06256499  1
  Ca  Ca11  1  0.68773000  0.07089700  0.67529601  1
  La  La12  1  0.32507602  0.92906501  0.92078199  1
  Be  Be13  1  0.94132701  0.31285800  0.30448801  1
  Br  Br14  1  0.93392502  0.93743501  0.31637000  1
  Bi  Bi15  1  0.31227001  0.32470200  0.92910500  1
  N  N16  1  0.93392301  0.32470200  0.92910501  1
  Mo  Mo17  1  0.31227002  0.93743501  0.31636999  1
