# generated using pymatgen
data_BaSrTbCeThScUPaNbTlVCoCuTcIrAuCSBrHe
_symmetry_space_group_name_H-M   'P 1'
_cell_length_a   3.96835208
_cell_length_b   3.96835208
_cell_length_c   15.87641525
_cell_angle_alpha   90.00000000
_cell_angle_beta   90.00000000
_cell_angle_gamma   90.00000000
_symmetry_Int_Tables_number   1
_chemical_formula_structural   BaSrTbCeThScUPaNbTlVCoCuTcIrAuCSBrHe
_chemical_formula_sum
;
Ba1 Sr1 Tb1 Ce1 Th1 Sc1 U1 Pa1 Nb1 Tl1 V1 Co1 Cu1 Tc1 Ir1 Au1 C1 S1
Br1 He1
;
_cell_volume   250.01890148
_cell_formula_units_Z   1
loop_
 _symmetry_equiv_pos_site_id
 _symmetry_equiv_pos_as_xyz
  1  'x, y, z'
loop_
 _atom_site_type_symbol
 _atom_site_label
 _atom_site_symmetry_multiplicity
 _atom_site_fract_x
 _atom_site_fract_y
 _atom_site_fract_z
 _atom_site_occupancy
  Ba  Ba0  1  0.00000000  0.00000000  0.00000000  1
  Co  Co1  1  0.00000000  0.00000000  0.25092000  1
  Sc  Sc2  1  0.00000000  0.00000000  0.49999999  1
  Tb  Tb3  1  0.00000000  0.00000000  0.74907999  1
  Tl  Tl4  1  0.49999999  0.49999999  0.12817500  1
  S  S5  1  0.49999999  0.49999999  0.37543899  1
  Th  Th6  1  0.49999999  0.49999999  0.62456099  1
  Sr  Sr7  1  0.49999999  0.49999999  0.87182499  1
  Au  Au8  1  -0.00000000  0.49999999  0.12973800  1
  Ir  Ir9  1  -0.00000000  0.49999999  0.37519199  1
  Ce  Ce10  1  -0.00000000  0.49999999  0.62480799  1
  Cu  Cu11  1  -0.00000000  0.49999999  0.87026199  1
  Tc  Tc12  1  0.49999999  0.49999999  0.00000000  1
  U  U13  1  0.49999999  0.49999999  0.25143300  1
  V  V14  1  0.49999999  0.49999999  0.49999999  1
  Nb  Nb15  1  0.49999999  0.49999999  0.74856699  1
  Pa  Pa16  1  0.49999999  0.00000000  0.12973800  1
  Br  Br17  1  0.49999999  0.00000000  0.37519199  1
  C  C18  1  0.49999999  0.00000000  0.62480799  1
  He  He19  1  0.49999999  0.00000000  0.87026199  1
