# generated using pymatgen
data_Rb2Ac2LaTbPrDyLuTaZnReAsPOsPbSe2INe
_symmetry_space_group_name_H-M   'P 1'
_cell_length_a   5.61606407
_cell_length_b   5.73522806
_cell_length_c   7.94543028
_cell_angle_alpha   90.00000000
_cell_angle_beta   89.93923187
_cell_angle_gamma   90.00000000
_symmetry_Int_Tables_number   1
_chemical_formula_structural   Rb2Ac2LaTbPrDyLuTaZnReAsPOsPbSe2INe
_chemical_formula_sum
'Rb2 Ac2 Tb1 La1 Pr1 Dy1 Lu1 Ta1 Zn1 Re1 As1 P1 Os1 Pb1 Se2 I1 Ne1'
_cell_volume   255.91746371
_cell_formula_units_Z   1
loop_
 _symmetry_equiv_pos_site_id
 _symmetry_equiv_pos_as_xyz
  1  'x, y, z'
loop_
 _atom_site_type_symbol
 _atom_site_label
 _atom_site_symmetry_multiplicity
 _atom_site_fract_x
 _atom_site_fract_y
 _atom_site_fract_z
 _atom_site_occupancy
  I  I0  1  0.49365599  0.21183900  0.74969002  1
  Se  Se1  1  0.99365599  0.78816099  0.24969001  1
  Ta  Ta2  1  0.51467899  0.30642500  0.24827201  1
  Zn  Zn3  1  0.01467900  0.69357499  0.74827202  1
  Dy  Dy4  1  0.50131999  0.75998699  0.99829903  1
  Os  Os5  1  0.00132000  0.24001300  0.49829901  1
  Ac  Ac6  1  0.50031799  0.75221899  0.50025501  1
  Ac  Ac7  1  0.00031800  0.24778100  0.00025500  1
  Se  Se8  1  0.59357399  0.76593799  0.74243802  1
  Rb  Rb9  1  0.09357400  0.23406200  0.24243801  1
  Rb  Rb10  1  0.43011299  0.72466699  0.25747901  1
  Pb  Pb11  1  0.93011299  0.27533300  0.75747902  1
  As  As12  1  0.21130900  0.94500799  0.54611701  1
  P  P13  1  0.71130899  0.05499200  0.04611700  1
  Ne  Ne14  1  0.77439099  0.53979499  0.46090101  1
  Lu  Lu15  1  0.27439100  0.46020500  0.96090102  1
  Pr  Pr16  1  0.68984599  0.03917500  0.45352601  1
  Tb  Tb17  1  0.18984600  0.96082499  0.95352602  1
  La  La18  1  0.29079400  0.47697999  0.54302201  1
  Re  Re19  1  0.79079399  0.52301999  0.04302200  1
