# generated using pymatgen
data_BaCaTbPmEr2HfUCdSiGeMoI
_symmetry_space_group_name_H-M   'P 1'
_cell_length_a   5.10474300
_cell_length_b   6.66415834
_cell_length_c   6.66415834
_cell_angle_alpha   81.06356812
_cell_angle_beta   67.48037720
_cell_angle_gamma   67.48036957
_symmetry_Int_Tables_number   1
_chemical_formula_structural   BaCaTbPmEr2HfUCdSiGeMoI
_chemical_formula_sum
'Ba1 Ca1 Tb1 Pm1 Er2 Hf1 U1 Cd1 Si1 Ge1 Mo1 I1'
_cell_volume   193.44146570
_cell_formula_units_Z   1
loop_
 _symmetry_equiv_pos_site_id
 _symmetry_equiv_pos_as_xyz
  1  'x, y, z'
loop_
 _atom_site_type_symbol
 _atom_site_label
 _atom_site_symmetry_multiplicity
 _atom_site_fract_x
 _atom_site_fract_y
 _atom_site_fract_z
 _atom_site_occupancy
  Hf  Hf0  1  1.00000003  0.00007800  0.99992192  1
  U  U1  1  0.99999998  0.34870502  0.65129496  1
  Er  Er2  1  0.99999995  0.65472404  0.34527599  1
  Ca  Ca3  1  0.65295497  0.35413602  0.33995398  1
  Ge  Ge4  1  0.34704493  0.66004604  0.64586401  1
  Si  Si5  1  0.49999999  0.22262501  0.77737497  1
  Er  Er6  1  0.70953692  0.78410005  0.79682500  1
  Ba  Ba7  1  0.29046198  0.20317501  0.21589999  1
  I  I8  1  0.99668903  0.00036600  0.50262493  1
  Pm  Pm9  1  0.50032001  0.00036600  0.50262496  1
  Mo  Mo10  1  0.49967995  0.49737503  0.99963399  1
  Tb  Tb11  1  0.00331094  0.49737503  0.99963401  1
  Cd  Cd12  1  0.49999992  0.77693005  0.22307002  1
