# generated using pymatgen
data_TbDy2TmMgTiZnGaCuHgBSbHPbAu
_symmetry_space_group_name_H-M   'P 1'
_cell_length_a   6.58636665
_cell_length_b   6.58636665
_cell_length_c   6.58636618
_cell_angle_alpha   89.99083710
_cell_angle_beta   89.99083710
_cell_angle_gamma   89.99083710
_symmetry_Int_Tables_number   1
_chemical_formula_structural   TbDy2TmMgTiZnGaCuHgBSbHPbAu
_chemical_formula_sum
'Tb1 Dy2 Tm1 Mg1 Ti1 Zn1 Ga1 Cu1 Hg1 B1 Sb1 H1 Pb1 Au1'
_cell_volume   285.71804028
_cell_formula_units_Z   1
loop_
 _symmetry_equiv_pos_site_id
 _symmetry_equiv_pos_as_xyz
  1  'x, y, z'
loop_
 _atom_site_type_symbol
 _atom_site_label
 _atom_site_symmetry_multiplicity
 _atom_site_fract_x
 _atom_site_fract_y
 _atom_site_fract_z
 _atom_site_occupancy
  B  B0  1  0.00000000  0.00000000  0.00000000  1
  Ga  Ga1  1  0.41461201  0.22406100  0.55971803  1
  Ti  Ti2  1  0.22406102  0.55971800  0.41461204  1
  Tm  Tm3  1  0.55971802  0.41461200  0.22406105  1
  Dy  Dy4  1  0.58538803  0.77593900  0.44028207  1
  Mg  Mg5  1  0.77593902  0.44028200  0.58538807  1
  Hg  Hg6  1  0.44028202  0.58538800  0.77593906  1
  Zn  Zn7  1  0.24001401  0.24001400  0.24001403  1
  Au  Au8  1  0.75998603  0.75998600  0.75998608  1
  Sb  Sb9  1  0.38036603  0.73620200  0.12773206  1
  H  H10  1  0.73620200  0.12773200  0.38036605  1
  Cu  Cu11  1  0.12773202  0.38036600  0.73620203  1
  Pb  Pb12  1  0.61963401  0.26379800  0.87226805  1
  Tb  Tb13  1  0.26379804  0.87226800  0.61963406  1
  Dy  Dy14  1  0.87226802  0.61963400  0.26379808  1
