# generated using pymatgen
data_CsNaCaLaSmDyPuZrUPaFeIrCBr
_symmetry_space_group_name_H-M   'P 1'
_cell_length_a   7.76307964
_cell_length_b   7.76307964
_cell_length_c   7.76307964
_cell_angle_alpha   109.47122192
_cell_angle_beta   109.47122192
_cell_angle_gamma   109.47122192
_symmetry_Int_Tables_number   1
_chemical_formula_structural   CsNaCaLaSmDyPuZrUPaFeIrCBr
_chemical_formula_sum
'Cs1 Na1 Ca1 La1 Sm1 Dy1 Pu1 Zr1 U1 Pa1 Fe1 Ir1 C1 Br1'
_cell_volume   360.14734181
_cell_formula_units_Z   1
loop_
 _symmetry_equiv_pos_site_id
 _symmetry_equiv_pos_as_xyz
  1  'x, y, z'
loop_
 _atom_site_type_symbol
 _atom_site_label
 _atom_site_symmetry_multiplicity
 _atom_site_fract_x
 _atom_site_fract_y
 _atom_site_fract_z
 _atom_site_occupancy
  Sm  Sm0  1  0.53067799  0.00000000  0.00000001  1
  Na  Na1  1  0.00000003  0.50000001  0.03067803  1
  Dy  Dy2  1  0.50000002  0.53067801  0.50000003  1
  Fe  Fe3  1  0.96932204  0.96932201  0.46932206  1
  Ir  Ir4  1  0.99017298  0.00000000  0.00000002  1
  Pu  Pu5  1  0.00000003  0.50000001  0.49017301  1
  Br  Br6  1  0.50000005  0.99017301  0.50000005  1
  Pa  Pa7  1  0.50982702  0.50982701  0.00982704  1
  Cs  Cs8  1  0.75000003  0.72459201  0.97459203  1
  La  La9  1  0.25000004  0.77540801  0.52540803  1
  Zr  Zr10  1  0.77540799  0.02540800  0.75000000  1
  U  U11  1  0.72459202  0.47459201  0.25000004  1
  Ca  Ca12  1  0.02540802  0.25000000  0.27540801  1
  C  C13  1  0.47459204  0.75000001  0.22459205  1
