# generated using pymatgen
data_AcTm
_symmetry_space_group_name_H-M   'P 1'
_cell_length_a   4.11600208
_cell_length_b   4.11600161
_cell_length_c   6.58181381
_cell_angle_alpha   90.00000000
_cell_angle_beta   90.00000000
_cell_angle_gamma   120.00000000
_symmetry_Int_Tables_number   1
_chemical_formula_structural   AcTm
_chemical_formula_sum   'Ac1 Tm1'
_cell_volume   96.56669009
_cell_formula_units_Z   1
loop_
 _symmetry_equiv_pos_site_id
 _symmetry_equiv_pos_as_xyz
  1  'x, y, z'
loop_
 _atom_site_type_symbol
 _atom_site_label
 _atom_site_symmetry_multiplicity
 _atom_site_fract_x
 _atom_site_fract_y
 _atom_site_fract_z
 _atom_site_occupancy
  Ac  Ac0  1  0.33333330  0.66666668  0.50000001  1
  Tm  Tm1  1  0.00000000  0.00000000  0.00000000  1
