# generated using pymatgen
data_GdTaH
_symmetry_space_group_name_H-M   'P 1'
_cell_length_a   3.84137797
_cell_length_b   4.03829622
_cell_length_c   4.03829527
_cell_angle_alpha   120.00000763
_cell_angle_beta   90.00000000
_cell_angle_gamma   90.00000000
_symmetry_Int_Tables_number   1
_chemical_formula_structural   GdTaH
_chemical_formula_sum   'Gd1 Ta1 H1'
_cell_volume   54.25176640
_cell_formula_units_Z   1
loop_
 _symmetry_equiv_pos_site_id
 _symmetry_equiv_pos_as_xyz
  1  'x, y, z'
loop_
 _atom_site_type_symbol
 _atom_site_label
 _atom_site_symmetry_multiplicity
 _atom_site_fract_x
 _atom_site_fract_y
 _atom_site_fract_z
 _atom_site_occupancy
  Gd  Gd0  1  0.50000000  0.66666664  0.33333334  1
  Ta  Ta1  1  1.00000001  0.33333332  0.66666666  1
  H  H2  1  0.00000000  0.00000000  0.00000000  1
