# generated using pymatgen
data_K2RbBaCaYMgPaNbZnFeAgGeHRhBrClO
_symmetry_space_group_name_H-M   'P 1'
_cell_length_a   6.03626728
_cell_length_b   6.03626728
_cell_length_c   10.67514324
_cell_angle_alpha   98.08169556
_cell_angle_beta   98.08169556
_cell_angle_gamma   91.33126068
_symmetry_Int_Tables_number   1
_chemical_formula_structural   K2RbBaCaYMgPaNbZnFeAgGeHRhBrClO
_chemical_formula_sum
'Rb1 K2 Ba1 Ca1 Y1 Mg1 Pa1 Nb1 Zn1 Fe1 Ag1 Ge1 H1 Rh1 Br1 Cl1 O1'
_cell_volume   380.91057133
_cell_formula_units_Z   1
loop_
 _symmetry_equiv_pos_site_id
 _symmetry_equiv_pos_as_xyz
  1  'x, y, z'
loop_
 _atom_site_type_symbol
 _atom_site_label
 _atom_site_symmetry_multiplicity
 _atom_site_fract_x
 _atom_site_fract_y
 _atom_site_fract_z
 _atom_site_occupancy
  Mg  Mg0  1  0.16378698  0.66638800  0.66356698  1
  Y  Y1  1  0.66638800  0.16378700  0.66356698  1
  Ba  Ba2  1  0.83621299  0.33361200  0.33643299  1
  Rh  Rh3  1  0.33361198  0.83621300  0.33643299  1
  Br  Br4  1  0.19962199  0.19962200  0.80136498  1
  Nb  Nb5  1  0.80037798  0.80037800  0.19863499  1
  O  O6  1  0.85283098  0.85283100  0.43778099  1
  Ge  Ge7  1  0.14716900  0.14716900  0.56221898  1
  Rb  Rb8  1  0.63855798  0.63855800  0.58445798  1
  Ca  Ca9  1  0.36144199  0.36144200  0.41554199  1
  K  K10  1  0.93499099  0.50577800  0.88392797  1
  Cl  Cl11  1  0.50577797  0.93499100  0.88392797  1
  Fe  Fe12  1  0.06500899  0.49422200  0.11607200  1
  Ag  Ag13  1  0.49422200  0.06500900  0.11607200  1
  Zn  Zn14  1  0.93274298  0.93274300  0.88394097  1
  Pa  Pa15  1  0.06725700  0.06725700  0.11605900  1
  K  K16  1  0.50817299  0.50817300  0.88362897  1
  H  H17  1  0.49182699  0.49182700  0.11637100  1
