# generated using pymatgen
data_TbYLuPuPaMnAgHgTeC
_symmetry_space_group_name_H-M   'P 1'
_cell_length_a   4.54087114
_cell_length_b   4.54087114
_cell_length_c   10.55881691
_cell_angle_alpha   90.00000000
_cell_angle_beta   90.00000000
_cell_angle_gamma   90.00000000
_symmetry_Int_Tables_number   1
_chemical_formula_structural   TbYLuPuPaMnAgHgTeC
_chemical_formula_sum   'Tb1 Y1 Lu1 Pu1 Pa1 Mn1 Ag1 Hg1 Te1 C1'
_cell_volume   217.71763868
_cell_formula_units_Z   1
loop_
 _symmetry_equiv_pos_site_id
 _symmetry_equiv_pos_as_xyz
  1  'x, y, z'
loop_
 _atom_site_type_symbol
 _atom_site_label
 _atom_site_symmetry_multiplicity
 _atom_site_fract_x
 _atom_site_fract_y
 _atom_site_fract_z
 _atom_site_occupancy
  Pa  Pa0  1  0.49999998  0.00000000  0.76061201  1
  Tb  Tb1  1  0.00000000  0.49999998  0.23938800  1
  Y  Y2  1  0.00000000  0.49999998  0.63320901  1
  Lu  Lu3  1  0.49999998  0.00000000  0.36679100  1
  Te  Te4  1  0.00000000  0.00000000  0.00000000  1
  C  C5  1  0.49999998  0.49999998  0.00000000  1
  Mn  Mn6  1  0.49999998  0.49999998  0.50000000  1
  Ag  Ag7  1  0.00000000  0.49999998  0.87470701  1
  Pu  Pu8  1  0.49999998  0.00000000  0.12529300  1
  Hg  Hg9  1  0.00000000  0.00000000  0.50000000  1
