# generated using pymatgen
data_PmSmGdYLuHfNpScCoBiSb2TeOsPdWAuKrNCl
_symmetry_space_group_name_H-M   'P 1'
_cell_length_a   5.48859215
_cell_length_b   5.83676386
_cell_length_c   7.83860683
_cell_angle_alpha   90.00000000
_cell_angle_beta   90.52420044
_cell_angle_gamma   90.00000000
_symmetry_Int_Tables_number   1
_chemical_formula_structural   PmSmGdYLuHfNpScCoBiSb2TeOsPdWAuKrNCl
_chemical_formula_sum
;
Pm1 Sm1 Gd1 Y1 Lu1 Hf1 Sc1 Np1 Co1 Bi1 Sb2 Te1 Pd1 Os1 W1 Au1 Kr1 N1
Cl1
;
_cell_volume   251.10409109
_cell_formula_units_Z   1
loop_
 _symmetry_equiv_pos_site_id
 _symmetry_equiv_pos_as_xyz
  1  'x, y, z'
loop_
 _atom_site_type_symbol
 _atom_site_label
 _atom_site_symmetry_multiplicity
 _atom_site_fract_x
 _atom_site_fract_y
 _atom_site_fract_z
 _atom_site_occupancy
  Hf  Hf0  1  0.00000000  0.00000000  0.00000000  1
  N  N1  1  0.49999999  0.50000001  0.50000000  1
  Pd  Pd2  1  0.48324099  0.92973802  0.25176399  1
  Pm  Pm3  1  0.01675900  0.42973801  0.24823601  1
  Cl  Cl4  1  0.98324097  0.57026201  0.75176399  1
  Gd  Gd5  1  0.51675899  0.07026200  0.74823600  1
  Sc  Sc6  1  0.49999999  0.50000001  -0.00000002  1
  Te  Te7  1  0.00000000  0.00000000  0.50000001  1
  Np  Np8  1  0.18229400  0.71293902  0.44942501  1
  Os  Os9  1  0.31770599  0.21293901  0.05057499  1
  Co  Co10  1  0.81770598  0.28706101  0.55057499  1
  Sb  Sb11  1  0.68229398  0.78706102  0.94942500  1
  Sm  Sm12  1  0.09331300  0.97335302  0.74565402  1
  Sb  Sb13  1  0.40668699  0.47335301  0.75434601  1
  Y  Y14  1  0.20303799  0.68924302  0.04660799  1
  Lu  Lu15  1  0.29696199  0.18924300  0.45339200  1
  Kr  Kr16  1  0.79696198  0.31075701  0.95339200  1
  Au  Au17  1  0.70303798  0.81075702  0.54660799  1
  W  W18  1  0.59331298  0.52664701  0.24565399  1
  Bi  Bi19  1  0.90668698  0.02664700  0.25434598  1
