# generated using pymatgen
data_NpScP
_symmetry_space_group_name_H-M   'P 1'
_cell_length_a   4.29726601
_cell_length_b   4.29726601
_cell_length_c   9.65940189
_cell_angle_alpha   77.14764404
_cell_angle_beta   77.14764404
_cell_angle_gamma   59.99999619
_symmetry_Int_Tables_number   1
_chemical_formula_structural   NpScP
_chemical_formula_sum   'Sc1 Np1 P1'
_cell_volume   149.29496975
_cell_formula_units_Z   1
loop_
 _symmetry_equiv_pos_site_id
 _symmetry_equiv_pos_as_xyz
  1  'x, y, z'
loop_
 _atom_site_type_symbol
 _atom_site_label
 _atom_site_symmetry_multiplicity
 _atom_site_fract_x
 _atom_site_fract_y
 _atom_site_fract_z
 _atom_site_occupancy
  P  P0  1  0.00000000  0.00000000  0.00000000  1
  Sc  Sc1  1  0.61492401  0.61492403  0.15522803  1
  Np  Np2  1  0.38507601  0.38507602  0.84477201  1
