# generated using pymatgen
data_NpPaGaReNiGeRuPtPbS
_symmetry_space_group_name_H-M   'P 1'
_cell_length_a   8.10815620
_cell_length_b   8.10815620
_cell_length_c   8.10815620
_cell_angle_alpha   60.00000000
_cell_angle_beta   60.00000000
_cell_angle_gamma   60.00000000
_symmetry_Int_Tables_number   1
_chemical_formula_structural   NpPaGaReNiGeRuPtPbS
_chemical_formula_sum   'Np1 Pa1 Ga1 Re1 Ni1 Ge1 Ru1 Pt1 Pb1 S1'
_cell_volume   376.92185744
_cell_formula_units_Z   1
loop_
 _symmetry_equiv_pos_site_id
 _symmetry_equiv_pos_as_xyz
  1  'x, y, z'
loop_
 _atom_site_type_symbol
 _atom_site_label
 _atom_site_symmetry_multiplicity
 _atom_site_fract_x
 _atom_site_fract_y
 _atom_site_fract_z
 _atom_site_occupancy
  Ga  Ga0  1  0.24999999  0.24999999  0.24999999  1
  Re  Re1  1  0.74999997  0.74999997  0.74999997  1
  Ge  Ge2  1  0.49999998  0.49999998  0.49999998  1
  Pt  Pt3  1  0.00000000  0.00000000  0.00000000  1
  Ru  Ru4  1  0.22541199  0.77458797  0.22541199  1
  Pa  Pa5  1  0.22541199  0.22541199  0.77458797  1
  S  S6  1  0.77458797  0.22541199  0.77458797  1
  Ni  Ni7  1  0.22541199  0.77458797  0.77458797  1
  Np  Np8  1  0.77458797  0.22541199  0.22541199  1
  Pb  Pb9  1  0.77458797  0.77458797  0.22541199  1
