# generated using pymatgen
data_PrGdYHoCdPOs
_symmetry_space_group_name_H-M   'P 1'
_cell_length_a   3.37485194
_cell_length_b   5.81202221
_cell_length_c   8.69309235
_cell_angle_alpha   109.52935028
_cell_angle_beta   101.19280243
_cell_angle_gamma   90.00000000
_symmetry_Int_Tables_number   1
_chemical_formula_structural   PrGdYHoCdPOs
_chemical_formula_sum   'Pr1 Gd1 Y1 Ho1 Cd1 P1 Os1'
_cell_volume   157.25759836
_cell_formula_units_Z   1
loop_
 _symmetry_equiv_pos_site_id
 _symmetry_equiv_pos_as_xyz
  1  'x, y, z'
loop_
 _atom_site_type_symbol
 _atom_site_label
 _atom_site_symmetry_multiplicity
 _atom_site_fract_x
 _atom_site_fract_y
 _atom_site_fract_z
 _atom_site_occupancy
  Ho  Ho0  1  0.24920000  0.24969299  0.49840000  1
  Y  Y1  1  0.75080001  0.75129298  0.50160001  1
  Gd  Gd2  1  0.50000001  0.49419499  0.00000000  1
  Pr  Pr3  1  0.84653101  0.51487799  0.69306200  1
  P  P4  1  0.34750001  0.01577700  0.69500000  1
  Cd  Cd5  1  0.65250001  0.32077699  0.30500000  1
  Os  Os6  1  0.15346900  0.82181598  0.30693801  1
