# generated using pymatgen
data_ErUAlCdCoSiMoWHeC
_symmetry_space_group_name_H-M   'P 1'
_cell_length_a   8.57594776
_cell_length_b   8.57594776
_cell_length_c   8.57594776
_cell_angle_alpha   60.00000000
_cell_angle_beta   60.00000000
_cell_angle_gamma   60.00000000
_symmetry_Int_Tables_number   1
_chemical_formula_structural   ErUAlCdCoSiMoWHeC
_chemical_formula_sum   'Er1 U1 Al1 Cd1 Co1 Si1 Mo1 W1 He1 C1'
_cell_volume   445.99643064
_cell_formula_units_Z   1
loop_
 _symmetry_equiv_pos_site_id
 _symmetry_equiv_pos_as_xyz
  1  'x, y, z'
loop_
 _atom_site_type_symbol
 _atom_site_label
 _atom_site_symmetry_multiplicity
 _atom_site_fract_x
 _atom_site_fract_y
 _atom_site_fract_z
 _atom_site_occupancy
  Al  Al0  1  0.25000001  0.25000001  0.25000001  1
  Cd  Cd1  1  0.75000002  0.75000002  0.75000002  1
  Mo  Mo2  1  0.50000002  0.50000002  0.50000002  1
  U  U3  1  0.00000000  0.00000000  0.00000000  1
  W  W4  1  0.25389901  0.74610102  0.25389901  1
  He  He5  1  0.25389901  0.25389901  0.74610102  1
  Er  Er6  1  0.74610102  0.25389901  0.74610102  1
  Co  Co7  1  0.25389901  0.74610102  0.74610102  1
  Si  Si8  1  0.74610102  0.25389901  0.25389901  1
  C  C9  1  0.74610102  0.74610102  0.25389901  1
