# generated using pymatgen
data_BaAcPrDyErTmHfMgScPaVCrReTcGeTeAsC2S
_symmetry_space_group_name_H-M   'P 1'
_cell_length_a   5.90570259
_cell_length_b   5.91535425
_cell_length_c   8.40456009
_cell_angle_alpha   89.59020233
_cell_angle_beta   89.57633972
_cell_angle_gamma   90.96804047
_symmetry_Int_Tables_number   1
_chemical_formula_structural   BaAcPrDyErTmHfMgScPaVCrReTcGeTeAsC2S
_chemical_formula_sum
;
Ba1 Ac1 Pr1 Dy1 Er1 Tm1 Hf1 Mg1 Sc1 Pa1 V1 Cr1 Tc1 Re1 Ge1 Te1 As1 C2
S1
;
_cell_volume   293.54990986
_cell_formula_units_Z   1
loop_
 _symmetry_equiv_pos_site_id
 _symmetry_equiv_pos_as_xyz
  1  'x, y, z'
loop_
 _atom_site_type_symbol
 _atom_site_label
 _atom_site_symmetry_multiplicity
 _atom_site_fract_x
 _atom_site_fract_y
 _atom_site_fract_z
 _atom_site_occupancy
  Ge  Ge0  1  0.51478605  0.50455759  0.75057552  1
  Te  Te1  1  0.48521401  0.49544241  0.24942449  1
  Er  Er2  1  0.02415093  0.99994460  0.74829588  1
  As  As3  1  0.97584912  0.00005540  0.25170414  1
  Mg  Mg4  1  0.50000002  0.00000000  0.00000002  1
  Cr  Cr5  1  0.00000001  0.50000000  0.49999999  1
  S  S6  1  0.00000001  0.50000000  -0.00000002  1
  Tm  Tm7  1  0.50000002  0.00000000  0.50000003  1
  Ac  Ac8  1  0.21311293  0.23551032  0.02998344  1
  Hf  Hf9  1  0.70432874  0.24900797  0.47842932  1
  Pa  Pa10  1  0.78688712  0.76448968  0.97001658  1
  C  C11  1  0.29567132  0.75099203  0.52157070  1
  Tc  Tc12  1  0.75321541  0.29384721  0.02556628  1
  Pr  Pr13  1  0.23036887  0.20832706  0.47151114  1
  C  C14  1  0.24678464  0.70615279  0.97443373  1
  Sc  Sc15  1  0.76963118  0.79167294  0.52848888  1
  V  V16  1  0.00115134  0.44001094  0.76137810  1
  Dy  Dy17  1  0.48067850  0.04140696  0.73839905  1
  Re  Re18  1  0.99884872  0.55998906  0.23862191  1
  Ba  Ba19  1  0.51932156  0.95859304  0.26160096  1
