# generated using pymatgen
data_RbBaEuDyHoTmPu2HfNpScUTiTc2TeAs2PCl
_symmetry_space_group_name_H-M   'P 1'
_cell_length_a   5.21557999
_cell_length_b   6.50422907
_cell_length_c   7.28392696
_cell_angle_alpha   90.00000000
_cell_angle_beta   90.00000000
_cell_angle_gamma   90.00000000
_symmetry_Int_Tables_number   1
_chemical_formula_structural   RbBaEuDyHoTmPu2HfNpScUTiTc2TeAs2PCl
_chemical_formula_sum
'Rb1 Ba1 Eu1 Dy1 Ho1 Tm1 Pu2 Hf1 Np1 Sc1 U1 Ti1 Tc2 Te1 As2 P1 Cl1'
_cell_volume   247.09503594
_cell_formula_units_Z   1
loop_
 _symmetry_equiv_pos_site_id
 _symmetry_equiv_pos_as_xyz
  1  'x, y, z'
loop_
 _atom_site_type_symbol
 _atom_site_label
 _atom_site_symmetry_multiplicity
 _atom_site_fract_x
 _atom_site_fract_y
 _atom_site_fract_z
 _atom_site_occupancy
  Ho  Ho0  1  0.50000000  0.01730000  0.70254900  1
  Ba  Ba1  1  0.50000000  0.98269999  0.20254900  1
  Cl  Cl2  1  0.00000000  0.63230299  0.50297900  1
  Tm  Tm3  1  0.00000000  0.36769700  0.00297900  1
  Np  Np4  1  0.50000000  0.53388599  0.17402600  1
  Hf  Hf5  1  0.00000000  0.91866799  0.91742500  1
  As  As6  1  0.50000000  0.46611400  0.67402600  1
  P  P7  1  0.00000000  0.08133200  0.41742500  1
  Dy  Dy8  1  0.50000000  0.35898900  0.08888600  1
  U  U9  1  0.50000000  0.64101099  0.58888600  1
  As  As10  1  0.78818000  0.98638099  0.45436300  1
  Sc  Sc11  1  0.71808600  0.37881700  0.71081300  1
  Pu  Pu12  1  0.71808600  0.62118299  0.21081300  1
  Ti  Ti13  1  0.21182000  0.98638099  0.45436300  1
  Te  Te14  1  0.00000000  0.73774199  0.83978500  1
  Pu  Pu15  1  0.21182000  0.01361900  0.95436300  1
  Eu  Eu16  1  0.28191400  0.37881700  0.71081300  1
  Rb  Rb17  1  0.28191400  0.62118299  0.21081300  1
  Tc  Tc18  1  0.00000000  0.26225800  0.33978500  1
  Tc  Tc19  1  0.78818000  0.01361900  0.95436300  1
