# generated using pymatgen
data_CsNaThScCuBiTePdPtN
_symmetry_space_group_name_H-M   'P 1'
_cell_length_a   5.70557165
_cell_length_b   5.70557165
_cell_length_c   6.01484060
_cell_angle_alpha   61.68678665
_cell_angle_beta   61.68678665
_cell_angle_gamma   60.00000000
_symmetry_Int_Tables_number   1
_chemical_formula_structural   CsNaThScCuBiTePdPtN
_chemical_formula_sum   'Cs1 Na1 Th1 Sc1 Cu1 Bi1 Te1 Pd1 Pt1 N1'
_cell_volume   141.88022752
_cell_formula_units_Z   1
loop_
 _symmetry_equiv_pos_site_id
 _symmetry_equiv_pos_as_xyz
  1  'x, y, z'
loop_
 _atom_site_type_symbol
 _atom_site_label
 _atom_site_symmetry_multiplicity
 _atom_site_fract_x
 _atom_site_fract_y
 _atom_site_fract_z
 _atom_site_occupancy
  Cu  Cu0  1  0.85136299  0.85136304  0.44591105  1
  N  N1  1  0.14863700  0.14863701  0.55408902  1
  Pd  Pd2  1  0.63694899  0.63694903  0.08915303  1
  Pt  Pt3  1  0.36305100  0.36305102  0.91084704  1
  Sc  Sc4  1  0.97710701  0.55337703  0.26326103  1
  Cs  Cs5  1  0.44662298  0.79374504  0.73673905  1
  Te  Te6  1  0.79374502  0.02289300  0.73673903  1
  Th  Th7  1  0.20625496  0.97710705  0.26326104  1
  Na  Na8  1  0.55337701  0.20625501  0.26326102  1
  Bi  Bi9  1  0.02289298  0.44662302  0.73673903  1
