# generated using pymatgen
data_BeFeCuTcTeMoRh
_symmetry_space_group_name_H-M   'P 1'
_cell_length_a   4.69880199
_cell_length_b   4.72000504
_cell_length_c   8.67136288
_cell_angle_alpha   105.79287720
_cell_angle_beta   90.00000000
_cell_angle_gamma   90.00000000
_symmetry_Int_Tables_number   1
_chemical_formula_structural   BeFeCuTcTeMoRh
_chemical_formula_sum   'Be1 Fe1 Tc1 Cu1 Te1 Mo1 Rh1'
_cell_volume   185.05708425
_cell_formula_units_Z   1
loop_
 _symmetry_equiv_pos_site_id
 _symmetry_equiv_pos_as_xyz
  1  'x, y, z'
loop_
 _atom_site_type_symbol
 _atom_site_label
 _atom_site_symmetry_multiplicity
 _atom_site_fract_x
 _atom_site_fract_y
 _atom_site_fract_z
 _atom_site_occupancy
  Tc  Tc0  1  0.25000000  0.10087900  0.20175900  1
  Cu  Cu1  1  0.75000000  0.90009401  0.80018703  1
  Te  Te2  1  0.25000000  0.45700001  0.91400102  1
  Rh  Rh3  1  0.75000000  0.57849301  0.15698602  1
  Fe  Fe4  1  0.25000000  0.73558101  0.47116103  1
  Mo  Mo5  1  0.75000000  0.24040100  0.48080201  1
  Be  Be6  1  0.25000000  0.30255200  0.60510401  1
