# generated using pymatgen
data_Sr2AcLaPmLuPuAlVCrFeSiXeBrClF
_symmetry_space_group_name_H-M   'P 1'
_cell_length_a   5.36452389
_cell_length_b   5.42466116
_cell_length_c   7.62658405
_cell_angle_alpha   90.00000000
_cell_angle_beta   90.02730560
_cell_angle_gamma   90.00000000
_symmetry_Int_Tables_number   1
_chemical_formula_structural   Sr2AcLaPmLuPuAlVCrFeSiXeBrClF
_chemical_formula_sum
'Sr2 La1 Ac1 Pm1 Lu1 Pu1 Al1 V1 Cr1 Fe1 Si1 Xe1 Br1 Cl1 F1'
_cell_volume   221.93909523
_cell_formula_units_Z   1
loop_
 _symmetry_equiv_pos_site_id
 _symmetry_equiv_pos_as_xyz
  1  'x, y, z'
loop_
 _atom_site_type_symbol
 _atom_site_label
 _atom_site_symmetry_multiplicity
 _atom_site_fract_x
 _atom_site_fract_y
 _atom_site_fract_z
 _atom_site_occupancy
  Lu  Lu0  1  0.50000001  0.00000000  0.99999996  1
  Cr  Cr1  1  0.00000000  0.49999999  0.49999999  1
  Pm  Pm2  1  0.50000001  0.00000000  0.49999997  1
  F  F3  1  0.00000000  0.49999999  -0.00000000  1
  Si  Si4  1  0.27715201  0.27724399  0.47236098  1
  Xe  Xe5  1  0.22284800  0.77724398  0.02763899  1
  V  V6  1  0.72284802  0.72275598  0.52763896  1
  Pu  Pu7  1  0.77715202  0.22275599  0.97236095  1
  Sr  Sr8  1  0.77789902  0.22367899  0.52845696  1
  Fe  Fe9  1  0.72210102  0.72367898  0.97154295  1
  Br  Br10  1  0.22210100  0.77632098  0.47154298  1
  La  La11  1  0.27789901  0.27632099  0.02845699  1
  Cl  Cl12  1  0.94419302  0.49398899  0.25050696  1
  Al  Al13  1  0.55580701  0.99398897  0.24949297  1
  Ac  Ac14  1  0.44419301  0.00601100  0.75050697  1
  Sr  Sr15  1  0.05580700  0.50601099  0.74949298  1
