# generated using pymatgen
data_RbBaCaErSnHgTeCl
_symmetry_space_group_name_H-M   'P 1'
_cell_length_a   6.22315788
_cell_length_b   6.22315788
_cell_length_c   6.22315788
_cell_angle_alpha   60.00000000
_cell_angle_beta   60.00000000
_cell_angle_gamma   60.00000000
_symmetry_Int_Tables_number   1
_chemical_formula_structural   RbBaCaErSnHgTeCl
_chemical_formula_sum   'Rb1 Ba1 Ca1 Er1 Sn1 Hg1 Te1 Cl1'
_cell_volume   170.41878314
_cell_formula_units_Z   1
loop_
 _symmetry_equiv_pos_site_id
 _symmetry_equiv_pos_as_xyz
  1  'x, y, z'
loop_
 _atom_site_type_symbol
 _atom_site_label
 _atom_site_symmetry_multiplicity
 _atom_site_fract_x
 _atom_site_fract_y
 _atom_site_fract_z
 _atom_site_occupancy
  Te  Te0  1  0.49999998  0.49999998  0.49999998  1
  Ca  Ca1  1  0.00000000  0.00000000  0.00000000  1
  Cl  Cl2  1  0.72860698  0.72860698  0.27139299  1
  Ba  Ba3  1  0.72860698  0.27139299  0.27139299  1
  Sn  Sn4  1  0.27139299  0.27139299  0.72860698  1
  Er  Er5  1  0.72860698  0.27139299  0.72860698  1
  Rb  Rb6  1  0.27139299  0.72860698  0.27139299  1
  Hg  Hg7  1  0.27139299  0.72860698  0.72860698  1
