# generated using pymatgen
data_RbNaEu2TaVGeBSbMoCKr
_symmetry_space_group_name_H-M   'P 1'
_cell_length_a   4.15275192
_cell_length_b   6.62327385
_cell_length_c   7.46483612
_cell_angle_alpha   90.00000000
_cell_angle_beta   90.00000000
_cell_angle_gamma   90.00000000
_symmetry_Int_Tables_number   1
_chemical_formula_structural   RbNaEu2TaVGeBSbMoCKr
_chemical_formula_sum   'Rb1 Na1 Eu2 Ta1 V1 Ge1 B1 Sb1 Mo1 C1 Kr1'
_cell_volume   205.31892316
_cell_formula_units_Z   1
loop_
 _symmetry_equiv_pos_site_id
 _symmetry_equiv_pos_as_xyz
  1  'x, y, z'
loop_
 _atom_site_type_symbol
 _atom_site_label
 _atom_site_symmetry_multiplicity
 _atom_site_fract_x
 _atom_site_fract_y
 _atom_site_fract_z
 _atom_site_occupancy
  Ge  Ge0  1  0.25000000  0.35241201  0.49352399  1
  Kr  Kr1  1  0.25000000  0.14758800  0.99352398  1
  Eu  Eu2  1  0.75000001  0.64758801  0.50647599  1
  Ta  Ta3  1  0.75000001  0.85241202  0.00647600  1
  Na  Na4  1  0.25000000  0.88421802  0.30263400  1
  B  B5  1  0.25000000  0.61578201  0.80263399  1
  Eu  Eu6  1  0.75000001  0.11578200  0.69736599  1
  Rb  Rb7  1  0.75000001  0.38421801  0.19736600  1
  V  V8  1  0.25000000  0.93279702  0.63018999  1
  C  C9  1  0.25000000  0.56720301  0.13019000  1
  Mo  Mo10  1  0.75000001  0.06720300  0.36980999  1
  Sb  Sb11  1  0.75000001  0.43279701  0.86980999  1
