# generated using pymatgen
data_PmHfCuSe
_symmetry_space_group_name_H-M   'P 1'
_cell_length_a   4.38520002
_cell_length_b   4.38520050
_cell_length_c   4.96789980
_cell_angle_alpha   90.00000000
_cell_angle_beta   90.00000000
_cell_angle_gamma   120.00000000
_symmetry_Int_Tables_number   1
_chemical_formula_structural   PmHfCuSe
_chemical_formula_sum   'Pm1 Hf1 Cu1 Se1'
_cell_volume   82.73367618
_cell_formula_units_Z   1
loop_
 _symmetry_equiv_pos_site_id
 _symmetry_equiv_pos_as_xyz
  1  'x, y, z'
loop_
 _atom_site_type_symbol
 _atom_site_label
 _atom_site_symmetry_multiplicity
 _atom_site_fract_x
 _atom_site_fract_y
 _atom_site_fract_z
 _atom_site_occupancy
  Se  Se0  1  0.00000000  0.00000000  0.00000000  1
  Hf  Hf1  1  0.33333337  0.66666666  0.38360002  1
  Pm  Pm2  1  0.66666668  0.33333333  0.55350002  1
  Cu  Cu3  1  0.33333337  0.66666666  0.03600000  1
