# generated using pymatgen
data_Pr2NdNpFeCo2RhSeO
_symmetry_space_group_name_H-M   'P 1'
_cell_length_a   8.80951977
_cell_length_b   8.80951977
_cell_length_c   8.80951977
_cell_angle_alpha   60.00000000
_cell_angle_beta   60.00000000
_cell_angle_gamma   60.00000000
_symmetry_Int_Tables_number   1
_chemical_formula_structural   Pr2NdNpFeCo2RhSeO
_chemical_formula_sum   'Pr2 Nd1 Np1 Fe1 Co2 Rh1 Se1 O1'
_cell_volume   483.43902507
_cell_formula_units_Z   1
loop_
 _symmetry_equiv_pos_site_id
 _symmetry_equiv_pos_as_xyz
  1  'x, y, z'
loop_
 _atom_site_type_symbol
 _atom_site_label
 _atom_site_symmetry_multiplicity
 _atom_site_fract_x
 _atom_site_fract_y
 _atom_site_fract_z
 _atom_site_occupancy
  Fe  Fe0  1  0.24999999  0.24999999  0.24999999  1
  Nd  Nd1  1  0.74999998  0.74999998  0.74999998  1
  Pr  Pr2  1  0.49999999  0.49999999  0.49999999  1
  O  O3  1  0.00000000  0.00000000  0.00000000  1
  Co  Co4  1  0.23159899  0.76840098  0.23159899  1
  Co  Co5  1  0.23159899  0.23159899  0.76840098  1
  Pr  Pr6  1  0.76840098  0.23159899  0.76840098  1
  Np  Np7  1  0.23159899  0.76840098  0.76840098  1
  Rh  Rh8  1  0.76840098  0.23159899  0.23159899  1
  Se  Se9  1  0.76840098  0.76840098  0.23159899  1
