# generated using pymatgen
data_AcYbNdLuThTl2VCdFeSnHgTeNe2HPtPbAuI
_symmetry_space_group_name_H-M   'P 1'
_cell_length_a   5.42584133
_cell_length_b   5.54370213
_cell_length_c   7.73231316
_cell_angle_alpha   90.00003815
_cell_angle_beta   90.02866364
_cell_angle_gamma   89.99997711
_symmetry_Int_Tables_number   1
_chemical_formula_structural   AcYbNdLuThTl2VCdFeSnHgTeNe2HPtPbAuI
_chemical_formula_sum
'Yb1 Ac1 Nd1 Lu1 Th1 Tl2 V1 Cd1 Fe1 Sn1 Hg1 Te1 Ne2 H1 Pt1 Pb1 Au1 I1'
_cell_volume   232.58213688
_cell_formula_units_Z   1
loop_
 _symmetry_equiv_pos_site_id
 _symmetry_equiv_pos_as_xyz
  1  'x, y, z'
loop_
 _atom_site_type_symbol
 _atom_site_label
 _atom_site_symmetry_multiplicity
 _atom_site_fract_x
 _atom_site_fract_y
 _atom_site_fract_z
 _atom_site_occupancy
  Th  Th0  1  0.50941797  0.54645299  0.25013200  1
  Hg  Hg1  1  0.00941697  0.95354698  0.75013304  1
  Te  Te2  1  0.99973495  0.50102199  0.49946399  1
  Ne  Ne3  1  0.49973495  0.99897998  0.99946303  1
  I  I4  1  0.00018598  0.50256299  0.00075802  1
  Nd  Nd5  1  0.50018595  0.99743498  0.50075602  1
  Fe  Fe6  1  0.99269897  0.04850600  0.24926197  1
  Tl  Tl7  1  0.49269797  0.45149399  0.74926201  1
  Tl  Tl8  1  0.78972995  0.79791998  0.04061200  1
  Pb  Pb9  1  0.71005297  0.29814599  0.45956299  1
  Yb  Yb10  1  0.20022399  0.21209700  0.54177901  1
  Pt  Pt11  1  0.30014697  0.71126098  0.95847702  1
  Ne  Ne12  1  0.21005399  0.20185400  0.95956301  1
  H  H13  1  0.28972997  0.70207998  0.54061402  1
  V  V14  1  0.80014895  0.78873898  0.45847701  1
  Cd  Cd15  1  0.70022497  0.28790099  0.04177799  1
  Sn  Sn16  1  0.41865395  0.97669298  0.24516202  1
  Ac  Ac17  1  0.07915498  0.47942099  0.25479202  1
  Lu  Lu18  1  0.57915398  0.02057800  0.75479099  1
  Au  Au19  1  0.91865196  0.52330699  0.74516300  1
