# generated using pymatgen
data_CsDyTiAl2VTcPCF
_symmetry_space_group_name_H-M   'P 1'
_cell_length_a   8.33986092
_cell_length_b   8.33986092
_cell_length_c   8.33986092
_cell_angle_alpha   60.00000000
_cell_angle_beta   60.00000000
_cell_angle_gamma   60.00000000
_symmetry_Int_Tables_number   1
_chemical_formula_structural   CsDyTiAl2VTcPCF
_chemical_formula_sum   'Cs1 Dy1 Ti1 Al2 V1 Tc1 P1 C1 F1'
_cell_volume   410.16767038
_cell_formula_units_Z   1
loop_
 _symmetry_equiv_pos_site_id
 _symmetry_equiv_pos_as_xyz
  1  'x, y, z'
loop_
 _atom_site_type_symbol
 _atom_site_label
 _atom_site_symmetry_multiplicity
 _atom_site_fract_x
 _atom_site_fract_y
 _atom_site_fract_z
 _atom_site_occupancy
  Cs  Cs0  1  0.24999999  0.24999999  0.24999999  1
  Tc  Tc1  1  0.74999997  0.74999997  0.74999997  1
  Ti  Ti2  1  0.00000000  0.00000000  0.00000000  1
  C  C3  1  0.49999998  0.49999998  0.49999998  1
  Al  Al4  1  0.24772399  0.75227597  0.24772399  1
  Dy  Dy5  1  0.24772399  0.24772399  0.75227597  1
  V  V6  1  0.75227597  0.24772399  0.75227597  1
  Al  Al7  1  0.24772399  0.75227597  0.75227597  1
  F  F8  1  0.75227597  0.24772399  0.24772399  1
  P  P9  1  0.75227597  0.75227597  0.24772399  1
