# generated using pymatgen
data_Cs2CaPmPrSmPu2NbAlGaCoCuReHOsPdRuAuKr
_symmetry_space_group_name_H-M   'P 1'
_cell_length_a   5.76927280
_cell_length_b   5.79113388
_cell_length_c   8.16229534
_cell_angle_alpha   90.00000000
_cell_angle_beta   89.76383209
_cell_angle_gamma   90.00000000
_symmetry_Int_Tables_number   1
_chemical_formula_structural   Cs2CaPmPrSmPu2NbAlGaCoCuReHOsPdRuAuKr
_chemical_formula_sum
'Cs2 Ca1 Pm1 Pr1 Sm1 Pu2 Nb1 Al1 Ga1 Co1 Re1 Cu1 Pd1 Os1 Ru1 H1 Au1 Kr1'
_cell_volume   272.70512276
_cell_formula_units_Z   1
loop_
 _symmetry_equiv_pos_site_id
 _symmetry_equiv_pos_as_xyz
  1  'x, y, z'
loop_
 _atom_site_type_symbol
 _atom_site_label
 _atom_site_symmetry_multiplicity
 _atom_site_fract_x
 _atom_site_fract_y
 _atom_site_fract_z
 _atom_site_occupancy
  Al  Al0  1  0.50577902  0.03335600  0.75066099  1
  Pu  Pu1  1  0.00577900  0.46664401  0.25066100  1
  Re  Re2  1  0.49422102  0.96664402  0.24933899  1
  Pd  Pd3  1  0.99422103  0.53335601  0.74933899  1
  Os  Os4  1  0.50000002  0.50000001  0.49999999  1
  Nb  Nb5  1  0.00000000  0.00000000  0.00000000  1
  Cu  Cu6  1  0.00000000  0.00000000  0.50000000  1
  Ga  Ga7  1  0.50000002  0.50000001  -0.00000001  1
  Co  Co8  1  0.42738501  0.48470701  0.76182999  1
  Pm  Pm9  1  0.92738503  0.01529300  0.26182999  1
  Au  Au10  1  0.57261502  0.51529301  0.23816999  1
  Ca  Ca11  1  0.07261500  0.98470702  0.73817000  1
  Ru  Ru12  1  0.27607301  0.20111100  0.46201200  1
  Pr  Pr13  1  0.77607303  0.29888901  0.96201199  1
  Pu  Pu14  1  0.72392702  0.79888902  0.53798799  1
  Kr  Kr15  1  0.22392701  0.70111101  0.03798800  1
  Sm  Sm16  1  0.19895901  0.72283501  0.46201500  1
  H  H17  1  0.69895902  0.77716502  0.96201499  1
  Cs  Cs18  1  0.80104103  0.27716501  0.53798499  1
  Cs  Cs19  1  0.30104101  0.22283500  0.03798500  1
