# generated using pymatgen
data_BaLaPmNdEu2DyPuAlGaSiSnBi2B2MoCKrO
_symmetry_space_group_name_H-M   'P 1'
_cell_length_a   3.88806391
_cell_length_b   9.50640869
_cell_length_c   12.39987946
_cell_angle_alpha   90.00000000
_cell_angle_beta   90.00000000
_cell_angle_gamma   90.00000000
_symmetry_Int_Tables_number   1
_chemical_formula_structural   BaLaPmNdEu2DyPuAlGaSiSnBi2B2MoCKrO
_chemical_formula_sum
'Ba1 La1 Pm1 Nd1 Eu2 Dy1 Pu1 Al1 Ga1 Si1 Sn1 Bi2 B2 Mo1 C1 Kr1 O1'
_cell_volume   458.31844859
_cell_formula_units_Z   1
loop_
 _symmetry_equiv_pos_site_id
 _symmetry_equiv_pos_as_xyz
  1  'x, y, z'
loop_
 _atom_site_type_symbol
 _atom_site_label
 _atom_site_symmetry_multiplicity
 _atom_site_fract_x
 _atom_site_fract_y
 _atom_site_fract_z
 _atom_site_occupancy
  C  C0  1  0.75000002  0.00564100  0.25964899  1
  Al  Al1  1  0.25000001  0.99435903  0.74035097  1
  Mo  Mo2  1  0.25000001  0.49435902  0.75964897  1
  Bi  Bi3  1  0.75000002  0.50564102  0.24035099  1
  B  B4  1  0.75000002  0.30146501  0.53062098  1
  Bi  Bi5  1  0.25000001  0.69853502  0.46937898  1
  Si  Si6  1  0.75000002  0.80146503  0.96937896  1
  Sn  Sn7  1  0.25000001  0.19853501  0.03062100  1
  Eu  Eu8  1  0.25000001  0.74899902  0.82219597  1
  La  La9  1  0.75000002  0.05176600  0.88054197  1
  Nd  Nd10  1  0.25000001  0.24899901  0.67780398  1
  Ba  Ba11  1  0.75000002  0.55176602  0.61945798  1
  Ga  Ga12  1  0.25000001  0.44823401  0.38054199  1
  Kr  Kr13  1  0.75000002  0.25100101  0.17780399  1
  Dy  Dy14  1  0.25000001  0.94823403  0.11945800  1
  O  O15  1  0.75000002  0.75100102  0.32219599  1
  Pu  Pu16  1  0.25000001  0.56559802  0.11328500  1
  Pm  Pm17  1  0.75000002  0.93440203  0.61328498  1
  Eu  Eu18  1  0.75000002  0.43440201  0.88671497  1
  B  B19  1  0.25000001  0.06559800  0.38671499  1
