# generated using pymatgen
data_CaPrErThTiVZn2NiSnBTeOs2RhSeKr2ClNe
_symmetry_space_group_name_H-M   'P 1'
_cell_length_a   5.45648384
_cell_length_b   5.55056906
_cell_length_c   7.75343895
_cell_angle_alpha   90.00000000
_cell_angle_beta   90.07083130
_cell_angle_gamma   90.00000000
_symmetry_Int_Tables_number   1
_chemical_formula_structural   CaPrErThTiVZn2NiSnBTeOs2RhSeKr2ClNe
_chemical_formula_sum
'Ca1 Pr1 Er1 Th1 Ti1 V1 Zn2 Ni1 Sn1 B1 Te1 Os2 Rh1 Se1 Kr2 Cl1 Ne1'
_cell_volume   234.82504999
_cell_formula_units_Z   1
loop_
 _symmetry_equiv_pos_site_id
 _symmetry_equiv_pos_as_xyz
  1  'x, y, z'
loop_
 _atom_site_type_symbol
 _atom_site_label
 _atom_site_symmetry_multiplicity
 _atom_site_fract_x
 _atom_site_fract_y
 _atom_site_fract_z
 _atom_site_occupancy
  Zn  Zn0  1  0.99558603  0.22613000  0.75007101  1
  Rh  Rh1  1  0.49558601  0.77386999  0.25007100  1
  Kr  Kr2  1  0.51281701  0.70496299  0.74999300  1
  Sn  Sn3  1  0.01281700  0.29503700  0.24999300  1
  Ti  Ti4  1  0.50597201  0.24396900  0.00022400  1
  Os  Os5  1  0.00597200  0.75603099  0.50022400  1
  Er  Er6  1  0.50637601  0.24497900  0.50304400  1
  Se  Se7  1  0.00637600  0.75502099  0.00304400  1
  Cl  Cl8  1  0.92521003  0.73230199  0.24805301  1
  Th  Th9  1  0.77685002  0.46989000  0.53785501  1
  Te  Te10  1  0.78012202  0.46902200  0.96101000  1
  Ca  Ca11  1  0.70607202  0.96225199  0.54319000  1
  Zn  Zn12  1  0.70816502  0.95730999  0.95564300  1
  Ne  Ne13  1  0.58283202  0.23327000  0.25091500  1
  Os  Os14  1  0.42521001  0.26769800  0.74805300  1
  Pr  Pr15  1  0.27685001  0.53010999  0.03785500  1
  B  B16  1  0.28012201  0.53097799  0.46101000  1
  Kr  Kr17  1  0.20607201  0.03774800  0.04319000  1
  Ni  Ni18  1  0.20816501  0.04269000  0.45564300  1
  V  V19  1  0.08283200  0.76672999  0.75091500  1
