# generated using pymatgen
data_PrGdDyHfNpTaBeAlTlGaTeMoAsCNePd
_symmetry_space_group_name_H-M   'P 1'
_cell_length_a   7.15555143
_cell_length_b   7.15555143
_cell_length_c   7.15555143
_cell_angle_alpha   60.00000000
_cell_angle_beta   60.00000000
_cell_angle_gamma   60.00000000
_symmetry_Int_Tables_number   1
_chemical_formula_structural   PrGdDyHfNpTaBeAlTlGaTeMoAsCNePd
_chemical_formula_sum
'Pr1 Gd1 Dy1 Hf1 Np1 Ta1 Be1 Al1 Tl1 Ga1 Te1 Mo1 As1 C1 Ne1 Pd1'
_cell_volume   259.06832989
_cell_formula_units_Z   1
loop_
 _symmetry_equiv_pos_site_id
 _symmetry_equiv_pos_as_xyz
  1  'x, y, z'
loop_
 _atom_site_type_symbol
 _atom_site_label
 _atom_site_symmetry_multiplicity
 _atom_site_fract_x
 _atom_site_fract_y
 _atom_site_fract_z
 _atom_site_occupancy
  C  C0  1  0.11299500  0.11299500  0.11299500  1
  Mo  Mo1  1  0.63700501  0.08898500  0.63700501  1
  Al  Al2  1  0.08898500  0.63700501  0.63700501  1
  Dy  Dy3  1  0.63700501  0.63700501  0.08898500  1
  Pr  Pr4  1  0.66101501  0.11299500  0.11299500  1
  Ta  Ta5  1  0.11299500  0.11299500  0.66101501  1
  Ne  Ne6  1  0.11299500  0.66101501  0.11299500  1
  Be  Be7  1  0.63700501  0.63700501  0.63700501  1
  Np  Np8  1  0.87500001  0.37500000  0.37500000  1
  Hf  Hf9  1  0.37500000  0.37500000  0.87500001  1
  As  As10  1  0.37500000  0.87500001  0.37500000  1
  Te  Te11  1  0.37500000  0.37500000  0.37500000  1
  Ga  Ga12  1  0.37500000  0.87500001  0.87500001  1
  Pd  Pd13  1  0.87500001  0.87500001  0.37500000  1
  Gd  Gd14  1  0.87500001  0.37500000  0.87500001  1
  Tl  Tl15  1  0.87500001  0.87500001  0.87500001  1
