# generated using pymatgen
data_LiTb2YbBeVOsAuCBrClO
_symmetry_space_group_name_H-M   'P 1'
_cell_length_a   4.48971415
_cell_length_b   7.10765219
_cell_length_c   7.43512011
_cell_angle_alpha   90.00000000
_cell_angle_beta   90.00000000
_cell_angle_gamma   90.00000000
_symmetry_Int_Tables_number   1
_chemical_formula_structural   LiTb2YbBeVOsAuCBrClO
_chemical_formula_sum   'Li1 Yb1 Tb2 Be1 V1 Os1 Au1 C1 Br1 Cl1 O1'
_cell_volume   237.26454577
_cell_formula_units_Z   1
loop_
 _symmetry_equiv_pos_site_id
 _symmetry_equiv_pos_as_xyz
  1  'x, y, z'
loop_
 _atom_site_type_symbol
 _atom_site_label
 _atom_site_symmetry_multiplicity
 _atom_site_fract_x
 _atom_site_fract_y
 _atom_site_fract_z
 _atom_site_occupancy
  Cl  Cl0  1  0.74999998  0.01415400  0.20812300  1
  Au  Au1  1  0.74999998  0.51415399  0.29187700  1
  Yb  Yb2  1  0.24999999  0.98584597  0.79187699  1
  Tb  Tb3  1  0.24999999  0.48584599  0.70812299  1
  Be  Be4  1  0.74999998  0.84417198  0.56300699  1
  V  V5  1  0.74999998  0.34417199  0.93699299  1
  Li  Li6  1  0.24999999  0.15582800  0.43699299  1
  Br  Br7  1  0.24999999  0.65582798  0.06300700  1
  Tb  Tb8  1  0.74999998  0.21057899  0.60357499  1
  Os  Os9  1  0.74999998  0.71057898  0.89642499  1
  C  C10  1  0.24999999  0.78942098  0.39642499  1
  O  O11  1  0.24999999  0.28942099  0.10357500  1
