# generated using pymatgen
data_Ba2LaNdGdErPuTcGeSb
_symmetry_space_group_name_H-M   'P 1'
_cell_length_a   7.54934359
_cell_length_b   7.54934359
_cell_length_c   7.54934359
_cell_angle_alpha   60.00000000
_cell_angle_beta   60.00000000
_cell_angle_gamma   60.00000000
_symmetry_Int_Tables_number   1
_chemical_formula_structural   Ba2LaNdGdErPuTcGeSb
_chemical_formula_sum   'Ba2 La1 Nd1 Gd1 Er1 Pu1 Tc1 Ge1 Sb1'
_cell_volume   304.23738287
_cell_formula_units_Z   1
loop_
 _symmetry_equiv_pos_site_id
 _symmetry_equiv_pos_as_xyz
  1  'x, y, z'
loop_
 _atom_site_type_symbol
 _atom_site_label
 _atom_site_symmetry_multiplicity
 _atom_site_fract_x
 _atom_site_fract_y
 _atom_site_fract_z
 _atom_site_occupancy
  Ba  Ba0  1  0.50000000  0.50000000  0.50000000  1
  La  La1  1  0.25000000  0.25000000  0.25000000  1
  Gd  Gd2  1  0.74999999  0.74999999  0.74999999  1
  Pu  Pu3  1  0.00000000  0.00000000  0.00000000  1
  Sb  Sb4  1  0.21976300  0.78023699  0.21976300  1
  Tc  Tc5  1  0.21976300  0.21976300  0.78023699  1
  Nd  Nd6  1  0.78023699  0.21976300  0.78023699  1
  Er  Er7  1  0.21976300  0.78023699  0.78023699  1
  Ge  Ge8  1  0.78023699  0.21976300  0.21976300  1
  Ba  Ba9  1  0.78023699  0.78023699  0.21976300  1
