# generated using pymatgen
data_CePmErZnCrGaFeCoCuTeCXeKrNe
_symmetry_space_group_name_H-M   'P 1'
_cell_length_a   5.90429497
_cell_length_b   5.90429497
_cell_length_c   5.90429497
_cell_angle_alpha   60.00000000
_cell_angle_beta   60.00000000
_cell_angle_gamma   60.00000000
_symmetry_Int_Tables_number   1
_chemical_formula_structural   CePmErZnCrGaFeCoCuTeCXeKrNe
_chemical_formula_sum
'Ce1 Pm1 Er1 Zn1 Cr1 Ga1 Fe1 Co1 Cu1 Te1 C1 Xe1 Kr1 Ne1'
_cell_volume   145.54226853
_cell_formula_units_Z   1
loop_
 _symmetry_equiv_pos_site_id
 _symmetry_equiv_pos_as_xyz
  1  'x, y, z'
loop_
 _atom_site_type_symbol
 _atom_site_label
 _atom_site_symmetry_multiplicity
 _atom_site_fract_x
 _atom_site_fract_y
 _atom_site_fract_z
 _atom_site_occupancy
  C  C0  1  0.87500000  0.37500000  0.37500000  1
  Zn  Zn1  1  0.37500000  0.37500000  0.87500000  1
  Er  Er2  1  0.37500000  0.87500000  0.37500000  1
  Cr  Cr3  1  0.37500000  0.37500000  0.37500000  1
  Pm  Pm4  1  0.75000000  0.75000000  0.75000000  1
  Cu  Cu5  1  0.00000000  0.00000000  0.00000000  1
  Te  Te6  1  0.62517000  0.12449200  0.62516900  1
  Kr  Kr7  1  0.12483000  0.12483100  0.12483100  1
  Ga  Ga8  1  0.62550700  0.12483100  0.12483100  1
  Xe  Xe9  1  0.12483000  0.12483100  0.62550800  1
  Ne  Ne10  1  0.62517000  0.62516900  0.12449200  1
  Fe  Fe11  1  0.62517000  0.62516900  0.62516900  1
  Co  Co12  1  0.12483000  0.62550800  0.12483100  1
  Ce  Ce13  1  0.12449300  0.62516900  0.62516900  1
