# generated using pymatgen
data_HeLaPmScBeVHgIrAuI
_symmetry_space_group_name_H-M   'P 1'
_cell_length_a   8.02595043
_cell_length_b   8.02595043
_cell_length_c   8.02595043
_cell_angle_alpha   60.00000000
_cell_angle_beta   60.00000000
_cell_angle_gamma   60.00000000
_symmetry_Int_Tables_number   1
_chemical_formula_structural   HeLaPmScBeVHgIrAuI
_chemical_formula_sum   'He1 La1 Pm1 Sc1 Be1 V1 Hg1 Ir1 Au1 I1'
_cell_volume   365.57326018
_cell_formula_units_Z   1
loop_
 _symmetry_equiv_pos_site_id
 _symmetry_equiv_pos_as_xyz
  1  'x, y, z'
loop_
 _atom_site_type_symbol
 _atom_site_label
 _atom_site_symmetry_multiplicity
 _atom_site_fract_x
 _atom_site_fract_y
 _atom_site_fract_z
 _atom_site_occupancy
  He  He0  1  0.25000000  0.25000000  0.25000000  1
  I  I1  1  0.75000000  0.75000000  0.75000000  1
  Hg  Hg2  1  0.50000000  0.50000000  0.50000000  1
  Sc  Sc3  1  0.00000000  0.00000000  0.00000000  1
  V  V4  1  0.23400400  0.76599600  0.23400400  1
  Au  Au5  1  0.23400400  0.23400400  0.76599600  1
  Pm  Pm6  1  0.76599600  0.23400400  0.76599600  1
  La  La7  1  0.23400400  0.76599600  0.76599600  1
  Ir  Ir8  1  0.76599600  0.23400400  0.23400400  1
  Be  Be9  1  0.76599600  0.76599600  0.23400400  1
