# generated using pymatgen
data_KBaLaGd2Ho2LuMgCrSiHgBAs2CHeSeXe
_symmetry_space_group_name_H-M   'P 1'
_cell_length_a   6.00896215
_cell_length_b   6.55026960
_cell_length_c   7.95639372
_cell_angle_alpha   111.39242554
_cell_angle_beta   96.77130127
_cell_angle_gamma   109.07338715
_symmetry_Int_Tables_number   1
_chemical_formula_structural   KBaLaGd2Ho2LuMgCrSiHgBAs2CHeSeXe
_chemical_formula_sum
'K1 Ba1 La1 Gd2 Ho2 Lu1 Mg1 Cr1 Si1 Hg1 B1 As2 C1 He1 Se1 Xe1'
_cell_volume   265.39073882
_cell_formula_units_Z   1
loop_
 _symmetry_equiv_pos_site_id
 _symmetry_equiv_pos_as_xyz
  1  'x, y, z'
loop_
 _atom_site_type_symbol
 _atom_site_label
 _atom_site_symmetry_multiplicity
 _atom_site_fract_x
 _atom_site_fract_y
 _atom_site_fract_z
 _atom_site_occupancy
  B  B0  1  0.33066327  0.70285289  0.24630801  1
  Lu  Lu1  1  0.66933675  0.29714707  0.75369195  1
  As  As2  1  0.00000000  0.00000000  0.00000000  1
  Hg  Hg3  1  0.33274891  0.66534977  0.76077631  1
  Mg  Mg4  1  0.66725111  0.33465018  0.23922365  1
  As  As5  1  0.92202883  0.86654801  0.28439071  1
  La  La6  1  0.07797119  0.13345194  0.71560925  1
  C  C7  1  0.12465733  0.12755968  0.37626560  1
  K  K8  1  0.87534269  0.87244027  0.62373436  1
  He  He9  1  0.36066563  0.82312196  0.62054960  1
  Gd  Gd10  1  0.63933439  0.17687799  0.37945036  1
  Gd  Gd11  1  0.23666938  0.34989123  0.61648938  1
  Ba  Ba12  1  0.76333064  0.65010872  0.38351058  1
  Si  Si13  1  0.62693463  0.76248815  0.92136501  1
  Se  Se14  1  0.37306539  0.23751180  0.07863496  1
  Xe  Xe15  1  0.10929346  0.70888611  0.89009385  1
  Cr  Cr16  1  0.89070656  0.29111385  0.10990611  1
  Ho  Ho17  1  0.05337461  0.97851333  0.25767832  1
  Ho  Ho18  1  0.94662541  0.02148662  0.74232165  1
