# generated using pymatgen
data_YbGdSc2AlZnNi2AgSn2HgMoKrClF
_symmetry_space_group_name_H-M   'P 1'
_cell_length_a   7.89523792
_cell_length_b   7.89523792
_cell_length_c   9.46775723
_cell_angle_alpha   114.64242554
_cell_angle_beta   114.64242554
_cell_angle_gamma   90.00000000
_symmetry_Int_Tables_number   1
_chemical_formula_structural   YbGdSc2AlZnNi2AgSn2HgMoKrClF
_chemical_formula_sum
'Yb1 Gd1 Sc2 Al1 Zn1 Ni2 Ag1 Sn2 Hg1 Mo1 Kr1 Cl1 F1'
_cell_volume   476.65138259
_cell_formula_units_Z   1
loop_
 _symmetry_equiv_pos_site_id
 _symmetry_equiv_pos_as_xyz
  1  'x, y, z'
loop_
 _atom_site_type_symbol
 _atom_site_label
 _atom_site_symmetry_multiplicity
 _atom_site_fract_x
 _atom_site_fract_y
 _atom_site_fract_z
 _atom_site_occupancy
  Cl  Cl0  1  0.00000000  0.00000000  0.00000000  1
  Ni  Ni1  1  0.49999998  0.50000000  1.00000001  1
  Mo  Mo2  1  0.81753697  0.97664899  0.29418596  1
  Ni  Ni3  1  0.31753698  0.81753699  0.29418698  1
  Yb  Yb4  1  0.97664998  0.47665000  0.29418697  1
  Gd  Gd5  1  0.68246299  0.18246300  0.70581300  1
  F  F6  1  0.02334999  0.52335000  0.70581301  1
  Kr  Kr7  1  0.52334998  0.68246199  0.70581199  1
  Sc  Sc8  1  0.18246300  0.02335100  0.70581402  1
  Sc  Sc9  1  0.47664999  0.31753800  0.29418799  1
  Al  Al10  1  0.24999999  0.25000000  0.50000000  1
  Zn  Zn11  1  0.74999998  0.74999999  0.49999998  1
  Sn  Sn12  1  0.88269398  0.61730500  0.99999900  1
  Ag  Ag13  1  0.38269397  0.88269399  -0.00000004  1
  Sn  Sn14  1  0.61730600  0.11730600  1.00000002  1
  Hg  Hg15  1  0.11730599  0.38269500  0.00000098  1
