# generated using pymatgen
data_YbBeNbBi2RuINe
_symmetry_space_group_name_H-M   'P 1'
_cell_length_a   5.72337580
_cell_length_b   5.72337580
_cell_length_c   5.72337580
_cell_angle_alpha   60.00000000
_cell_angle_beta   60.00000000
_cell_angle_gamma   60.00000000
_symmetry_Int_Tables_number   1
_chemical_formula_structural   YbBeNbBi2RuINe
_chemical_formula_sum   'Yb1 Be1 Nb1 Bi2 Ru1 I1 Ne1'
_cell_volume   132.56894195
_cell_formula_units_Z   1
loop_
 _symmetry_equiv_pos_site_id
 _symmetry_equiv_pos_as_xyz
  1  'x, y, z'
loop_
 _atom_site_type_symbol
 _atom_site_label
 _atom_site_symmetry_multiplicity
 _atom_site_fract_x
 _atom_site_fract_y
 _atom_site_fract_z
 _atom_site_occupancy
  Bi  Bi0  1  0.50000002  0.50000002  0.50000002  1
  Bi  Bi1  1  0.00000000  0.00000000  0.00000000  1
  Yb  Yb2  1  0.25216501  0.74783503  0.25216501  1
  I  I3  1  0.74783503  0.25216501  0.74783503  1
  Ru  Ru4  1  0.25216501  0.74783503  0.74783503  1
  Nb  Nb5  1  0.74783503  0.25216501  0.25216501  1
  Ne  Ne6  1  0.25216501  0.25216501  0.74783503  1
  Be  Be7  1  0.74783503  0.74783503  0.25216501  1
