# generated using pymatgen
data_DyLuSnTeRuF
_symmetry_space_group_name_H-M   'P 1'
_cell_length_a   5.03680801
_cell_length_b   5.03680801
_cell_length_c   5.03680801
_cell_angle_alpha   60.00000000
_cell_angle_beta   60.00000000
_cell_angle_gamma   60.00000000
_symmetry_Int_Tables_number   1
_chemical_formula_structural   DyLuSnTeRuF
_chemical_formula_sum   'Dy1 Lu1 Sn1 Te1 Ru1 F1'
_cell_volume   90.35479277
_cell_formula_units_Z   1
loop_
 _symmetry_equiv_pos_site_id
 _symmetry_equiv_pos_as_xyz
  1  'x, y, z'
loop_
 _atom_site_type_symbol
 _atom_site_label
 _atom_site_symmetry_multiplicity
 _atom_site_fract_x
 _atom_site_fract_y
 _atom_site_fract_z
 _atom_site_occupancy
  Dy  Dy0  1  0.74999998  0.74999998  0.74999998  1
  Ru  Ru1  1  0.00000000  0.00000000  0.00000000  1
  Te  Te2  1  0.37499999  0.87499997  0.37499999  1
  F  F3  1  0.37499999  0.37499999  0.37499999  1
  Lu  Lu4  1  0.37499999  0.37499999  0.87499997  1
  Sn  Sn5  1  0.87499997  0.37499999  0.37499999  1
