# generated using pymatgen
data_RbBaLaTbEuHoErLuPuThPaTlCrSiSnXe
_symmetry_space_group_name_H-M   'P 1'
_cell_length_a   5.83887100
_cell_length_b   5.83887100
_cell_length_c   5.83887100
_cell_angle_alpha   90.00000000
_cell_angle_beta   90.00000000
_cell_angle_gamma   90.00000000
_symmetry_Int_Tables_number   1
_chemical_formula_structural   RbBaLaTbEuHoErLuPuThPaTlCrSiSnXe
_chemical_formula_sum
'Rb1 Ba1 La1 Tb1 Eu1 Ho1 Er1 Lu1 Pu1 Th1 Pa1 Tl1 Cr1 Si1 Sn1 Xe1'
_cell_volume   199.06121089
_cell_formula_units_Z   1
loop_
 _symmetry_equiv_pos_site_id
 _symmetry_equiv_pos_as_xyz
  1  'x, y, z'
loop_
 _atom_site_type_symbol
 _atom_site_label
 _atom_site_symmetry_multiplicity
 _atom_site_fract_x
 _atom_site_fract_y
 _atom_site_fract_z
 _atom_site_occupancy
  Sn  Sn0  1  0.50000000  0.50000000  0.50000000  1
  Th  Th1  1  0.00000000  0.00000000  0.00000000  1
  Ho  Ho2  1  -0.00000000  0.50000000  0.75000000  1
  La  La3  1  0.50000000  0.25000000  -0.00000000  1
  Ba  Ba4  1  0.75000000  0.00000000  0.50000000  1
  Tb  Tb5  1  -0.00000000  0.50000000  0.25000000  1
  Si  Si6  1  0.50000000  0.75000000  -0.00000000  1
  Pu  Pu7  1  0.25000000  0.00000000  0.50000000  1
  Eu  Eu8  1  0.75000000  0.25000000  0.75000000  1
  Tl  Tl9  1  0.25000000  0.75000000  0.25000000  1
  Pa  Pa10  1  0.75000000  0.75000000  0.25000000  1
  Er  Er11  1  0.25000000  0.25000000  0.75000000  1
  Rb  Rb12  1  0.25000000  0.75000000  0.75000000  1
  Cr  Cr13  1  0.75000000  0.25000000  0.25000000  1
  Lu  Lu14  1  0.25000000  0.25000000  0.25000000  1
  Xe  Xe15  1  0.75000000  0.75000000  0.75000000  1
