# generated using pymatgen
data_CsKUCoSiTcTeC
_symmetry_space_group_name_H-M   'P 1'
_cell_length_a   3.85968995
_cell_length_b   3.86677194
_cell_length_c   7.72025204
_cell_angle_alpha   90.00000000
_cell_angle_beta   90.00000000
_cell_angle_gamma   90.00000000
_symmetry_Int_Tables_number   1
_chemical_formula_structural   CsKUCoSiTcTeC
_chemical_formula_sum   'Cs1 K1 U1 Co1 Tc1 Si1 Te1 C1'
_cell_volume   115.22121640
_cell_formula_units_Z   1
loop_
 _symmetry_equiv_pos_site_id
 _symmetry_equiv_pos_as_xyz
  1  'x, y, z'
loop_
 _atom_site_type_symbol
 _atom_site_label
 _atom_site_symmetry_multiplicity
 _atom_site_fract_x
 _atom_site_fract_y
 _atom_site_fract_z
 _atom_site_occupancy
  C  C0  1  -0.00000000  0.01077500  0.75000000  1
  U  U1  1  0.00000000  0.98922502  0.25000000  1
  K  K2  1  0.50000001  0.01033800  0.25000000  1
  Tc  Tc3  1  0.50000001  0.98966202  0.75000000  1
  Te  Te4  1  -0.00000000  0.49664401  0.75000000  1
  Cs  Cs5  1  -0.00000000  0.50335601  0.25000000  1
  Co  Co6  1  0.00000000  0.00000000  0.50000000  1
  Si  Si7  1  0.00000000  0.00000000  0.00000000  1
