# generated using pymatgen
data_LaTbNdEuLuThNbFeRe2PPdRuHeBr
_symmetry_space_group_name_H-M   'P 1'
_cell_length_a   6.78437185
_cell_length_b   6.78437185
_cell_length_c   6.78437185
_cell_angle_alpha   89.23844910
_cell_angle_beta   89.23844910
_cell_angle_gamma   89.23844910
_symmetry_Int_Tables_number   1
_chemical_formula_structural   LaTbNdEuLuThNbFeRe2PPdRuHeBr
_chemical_formula_sum
'Tb1 La1 Nd1 Eu1 Lu1 Th1 Nb1 Fe1 Re2 P1 Ru1 He1 Pd1 Br1'
_cell_volume   312.18701847
_cell_formula_units_Z   1
loop_
 _symmetry_equiv_pos_site_id
 _symmetry_equiv_pos_as_xyz
  1  'x, y, z'
loop_
 _atom_site_type_symbol
 _atom_site_label
 _atom_site_symmetry_multiplicity
 _atom_site_fract_x
 _atom_site_fract_y
 _atom_site_fract_z
 _atom_site_occupancy
  P  P0  1  0.00000000  0.00000000  0.00000000  1
  Tb  Tb1  1  0.42268602  0.23403800  0.55910102  1
  Nb  Nb2  1  0.23403802  0.55910101  0.42268602  1
  Ru  Ru3  1  0.55910102  0.42268601  0.23403802  1
  Fe  Fe4  1  0.57731403  0.76596201  0.44089903  1
  He  He5  1  0.76596203  0.44089901  0.57731403  1
  Th  Th6  1  0.44089903  0.57731401  0.76596203  1
  Lu  Lu7  1  0.23690801  0.23690800  0.23690801  1
  La  La8  1  0.76309204  0.76309201  0.76309204  1
  Re  Re9  1  0.37181203  0.75559801  0.12237903  1
  Eu  Eu10  1  0.75559802  0.12237900  0.37181202  1
  Br  Br11  1  0.12237901  0.37181201  0.75559801  1
  Nd  Nd12  1  0.62818802  0.24440200  0.87762102  1
  Re  Re13  1  0.24440203  0.87762102  0.62818803  1
  Pd  Pd14  1  0.87762104  0.62818801  0.24440204  1
