# generated using pymatgen
data_PmLuHfNpUCoReBiSb2OsPdPtS2BrN2NeHe
_symmetry_space_group_name_H-M   'P 1'
_cell_length_a   4.41952085
_cell_length_b   9.84674835
_cell_length_c   16.38402557
_cell_angle_alpha   90.00000000
_cell_angle_beta   90.00000000
_cell_angle_gamma   90.00000000
_symmetry_Int_Tables_number   1
_chemical_formula_structural   PmLuHfNpUCoReBiSb2OsPdPtS2BrN2NeHe
_chemical_formula_sum
'Pm1 Lu1 Hf1 Np1 U1 Co1 Re1 Bi1 Sb2 Pd1 Os1 Pt1 S2 Br1 N2 Ne1 He1'
_cell_volume   712.99854536
_cell_formula_units_Z   1
loop_
 _symmetry_equiv_pos_site_id
 _symmetry_equiv_pos_as_xyz
  1  'x, y, z'
loop_
 _atom_site_type_symbol
 _atom_site_label
 _atom_site_symmetry_multiplicity
 _atom_site_fract_x
 _atom_site_fract_y
 _atom_site_fract_z
 _atom_site_occupancy
  Sb  Sb0  1  0.25000001  0.56974898  0.67872298  1
  Pt  Pt1  1  0.75000002  0.43025098  0.32127699  1
  S  S2  1  0.25000001  0.06974900  0.82127697  1
  Np  Np3  1  0.75000002  0.93025097  0.17872299  1
  N  N4  1  0.75000002  0.66912398  0.94466897  1
  Pd  Pd5  1  0.25000001  0.33087599  0.05533100  1
  Hf  Hf6  1  0.75000002  0.16912399  0.55533098  1
  Co  Co7  1  0.25000001  0.83087597  0.44466898  1
  Ne  Ne8  1  0.25000001  0.83249897  0.00879200  1
  Sb  Sb9  1  0.75000002  0.16750099  0.99120797  1
  S  S10  1  0.25000001  0.33249899  0.49120798  1
  Os  Os11  1  0.75000002  0.66750098  0.50879198  1
  Lu  Lu12  1  0.75000002  0.51818098  0.10114300  1
  N  N13  1  0.25000001  0.48181898  0.89885697  1
  U  U14  1  0.75000002  0.01818100  0.39885699  1
  He  He15  1  0.25000001  0.98181896  0.60114298  1
  Br  Br16  1  0.75000002  0.79040697  0.78850097  1
  Pm  Pm17  1  0.25000001  0.20959299  0.21149899  1
  Re  Re18  1  0.75000002  0.29040699  0.71149898  1
  Bi  Bi19  1  0.25000001  0.70959297  0.28850099  1
