# generated using pymatgen
data_NdHeBaNa2DyHfTaVSiSbMoOsPdNO2
_symmetry_space_group_name_H-M   'P 1'
_cell_length_a   7.51012039
_cell_length_b   7.51012039
_cell_length_c   7.51012039
_cell_angle_alpha   109.47122192
_cell_angle_beta   109.47122192
_cell_angle_gamma   109.47122192
_symmetry_Int_Tables_number   1
_chemical_formula_structural   NdHeBaNa2DyHfTaVSiSbMoOsPdNO2
_chemical_formula_sum
'Nd1 He1 Ba1 Na2 Dy1 Hf1 Ta1 V1 Si1 Sb1 Mo1 Pd1 Os1 N1 O2'
_cell_volume   326.07596312
_cell_formula_units_Z   1
loop_
 _symmetry_equiv_pos_site_id
 _symmetry_equiv_pos_as_xyz
  1  'x, y, z'
loop_
 _atom_site_type_symbol
 _atom_site_label
 _atom_site_symmetry_multiplicity
 _atom_site_fract_x
 _atom_site_fract_y
 _atom_site_fract_z
 _atom_site_occupancy
  Nd  Nd0  1  0.50000003  0.50000002  0.50000004  1
  He  He1  1  0.00000003  0.50000002  1.00000002  1
  Pd  Pd2  1  0.00000000  0.00000000  0.50000000  1
  O  O3  1  0.50000000  0.00000000  0.00000001  1
  Sb  Sb4  1  0.50000005  0.75000002  0.25000005  1
  Mo  Mo5  1  0.75000002  0.25000001  0.50000003  1
  Ba  Ba6  1  0.25000003  0.50000002  0.75000003  1
  N  N7  1  0.25000005  0.75000002  0.50000004  1
  Na  Na8  1  0.50000002  0.25000001  0.75000002  1
  Dy  Dy9  1  0.75000003  0.50000002  0.25000004  1
  V  V10  1  0.00000000  0.00000000  0.00000000  1
  Na  Na11  1  1.00000005  0.71163902  0.71163906  1
  Ta  Ta12  1  0.71163905  0.71163902  0.00000006  1
  O  O13  1  0.71163900  0.00000000  0.71163901  1
  Os  Os14  1  1.00000002  0.28836101  0.28836104  1
  Si  Si15  1  0.28836102  0.28836101  0.00000002  1
  Hf  Hf16  1  0.28836100  0.00000000  0.28836100  1
