# generated using pymatgen
data_AcTaMnCuAgGeBiPdSN
_symmetry_space_group_name_H-M   'P 1'
_cell_length_a   8.24168873
_cell_length_b   8.24168873
_cell_length_c   8.24168873
_cell_angle_alpha   60.00000000
_cell_angle_beta   60.00000000
_cell_angle_gamma   60.00000000
_symmetry_Int_Tables_number   1
_chemical_formula_structural   AcTaMnCuAgGeBiPdSN
_chemical_formula_sum   'Ac1 Ta1 Mn1 Cu1 Ag1 Ge1 Bi1 Pd1 S1 N1'
_cell_volume   395.85271362
_cell_formula_units_Z   1
loop_
 _symmetry_equiv_pos_site_id
 _symmetry_equiv_pos_as_xyz
  1  'x, y, z'
loop_
 _atom_site_type_symbol
 _atom_site_label
 _atom_site_symmetry_multiplicity
 _atom_site_fract_x
 _atom_site_fract_y
 _atom_site_fract_z
 _atom_site_occupancy
  Ag  Ag0  1  0.25000000  0.25000000  0.25000000  1
  Ac  Ac1  1  0.75000000  0.75000000  0.75000000  1
  N  N2  1  0.50000000  0.50000000  0.50000000  1
  Mn  Mn3  1  0.00000000  0.00000000  0.00000000  1
  S  S4  1  0.23298500  0.76701500  0.23298500  1
  Ge  Ge5  1  0.23298500  0.23298500  0.76701500  1
  Cu  Cu6  1  0.76701500  0.23298500  0.76701500  1
  Bi  Bi7  1  0.23298500  0.76701500  0.76701500  1
  Ta  Ta8  1  0.76701500  0.23298500  0.23298500  1
  Pd  Pd9  1  0.76701500  0.76701500  0.23298500  1
