# generated using pymatgen
data_BaCeYTmThScPaFeReTc2Ag2SnAuINClFHe
_symmetry_space_group_name_H-M   'P 1'
_cell_length_a   4.72006178
_cell_length_b   4.72006273
_cell_length_c   10.21541309
_cell_angle_alpha   79.56117249
_cell_angle_beta   79.56106567
_cell_angle_gamma   102.46392059
_symmetry_Int_Tables_number   1
_chemical_formula_structural   BaCeYTmThScPaFeReTc2Ag2SnAuINClFHe
_chemical_formula_sum
'Ba1 Ce1 Y1 Tm1 Th1 Sc1 Pa1 Fe1 Re1 Tc2 Ag2 Sn1 Au1 I1 N1 Cl1 F1 He1'
_cell_volume   212.71873051
_cell_formula_units_Z   1
loop_
 _symmetry_equiv_pos_site_id
 _symmetry_equiv_pos_as_xyz
  1  'x, y, z'
loop_
 _atom_site_type_symbol
 _atom_site_label
 _atom_site_symmetry_multiplicity
 _atom_site_fract_x
 _atom_site_fract_y
 _atom_site_fract_z
 _atom_site_occupancy
  Au  Au0  1  0.39155697  0.89155596  0.21688497  1
  Y  Y1  1  0.89156001  0.39155898  0.21687899  1
  Ag  Ag2  1  0.14156000  0.14156099  0.71687798  1
  Sn  Sn3  1  0.64155699  0.64155697  0.71688397  1
  Th  Th4  1  0.35844300  0.35844299  0.28311498  1
  Re  Re5  1  0.85843999  0.85843997  0.28312097  1
  Fe  Fe6  1  0.10844398  0.60844198  0.78311496  1
  Ce  Ce7  1  0.60844001  0.10843900  0.78312198  1
  Ag  Ag8  1  0.50001199  0.49998498  0.00000099  1
  Ba  Ba9  1  0.24997997  0.75002397  0.49999897  1
  F  F10  1  0.00001695  0.99997796  0.00000098  1
  Tm  Tm11  1  0.74998401  0.25001999  0.49999998  1
  Tc  Tc12  1  0.07252298  0.57252298  0.35497498  1
  Cl  Cl13  1  0.57250801  0.07251200  0.35497599  1
  N  N14  1  0.82250999  0.82250597  0.85497796  1
  Pa  Pa15  1  0.32252000  0.32251899  0.85497897  1
  I  I16  1  0.67747799  0.67747597  0.14502498  1
  He  He17  1  0.17749300  0.17748699  0.14502399  1
  Sc  Sc18  1  0.42747997  0.92747896  0.64502196  1
  Tc  Tc19  1  0.92749101  0.42749398  0.64502197  1
