# generated using pymatgen
data_SrGdUZnTe2NO
_symmetry_space_group_name_H-M   'P 1'
_cell_length_a   5.98257303
_cell_length_b   5.98257303
_cell_length_c   5.98257303
_cell_angle_alpha   90.00000000
_cell_angle_beta   90.00000000
_cell_angle_gamma   90.00000000
_symmetry_Int_Tables_number   1
_chemical_formula_structural   SrGdUZnTe2NO
_chemical_formula_sum   'Sr1 Gd1 U1 Zn1 Te2 N1 O1'
_cell_volume   214.12334879
_cell_formula_units_Z   1
loop_
 _symmetry_equiv_pos_site_id
 _symmetry_equiv_pos_as_xyz
  1  'x, y, z'
loop_
 _atom_site_type_symbol
 _atom_site_label
 _atom_site_symmetry_multiplicity
 _atom_site_fract_x
 _atom_site_fract_y
 _atom_site_fract_z
 _atom_site_occupancy
  Te  Te0  1  0.00000000  0.00000000  0.00000000  1
  Sr  Sr1  1  0.00000000  0.00000000  0.50000000  1
  O  O2  1  -0.00000000  0.50000000  0.00000000  1
  N  N3  1  0.50000000  0.00000000  0.00000000  1
  Te  Te4  1  0.74198200  0.74198200  0.25801800  1
  Gd  Gd5  1  0.74198200  0.25801800  0.74198200  1
  Zn  Zn6  1  0.25801800  0.74198200  0.74198200  1
  U  U7  1  0.25801800  0.25801800  0.25801800  1
