# generated using pymatgen
data_Ba2PrNdHoThPaFeCuNiAgRuRhSe2NOHe2F
_symmetry_space_group_name_H-M   'P 1'
_cell_length_a   5.37756920
_cell_length_b   6.42439890
_cell_length_c   8.31644630
_cell_angle_alpha   90.00000000
_cell_angle_beta   90.00000000
_cell_angle_gamma   90.00000000
_symmetry_Int_Tables_number   1
_chemical_formula_structural   Ba2PrNdHoThPaFeCuNiAgRuRhSe2NOHe2F
_chemical_formula_sum
'Ba2 Pr1 Nd1 Ho1 Th1 Pa1 Fe1 Cu1 Ni1 Ag1 Ru1 Rh1 Se2 N1 O1 He2 F1'
_cell_volume   287.31367317
_cell_formula_units_Z   1
loop_
 _symmetry_equiv_pos_site_id
 _symmetry_equiv_pos_as_xyz
  1  'x, y, z'
loop_
 _atom_site_type_symbol
 _atom_site_label
 _atom_site_symmetry_multiplicity
 _atom_site_fract_x
 _atom_site_fract_y
 _atom_site_fract_z
 _atom_site_occupancy
  Fe  Fe0  1  0.00000000  0.00000000  0.49999998  1
  Ru  Ru1  1  0.49999998  0.50000001  0.49999998  1
  Nd  Nd2  1  0.49999998  0.50000001  0.00000000  1
  O  O3  1  0.00000000  0.00000000  0.00000000  1
  Se  Se4  1  0.48355298  0.96816202  0.74999997  1
  Pa  Pa5  1  0.98355296  0.53183801  0.24999999  1
  Rh  Rh6  1  0.01644700  0.46816201  0.74999997  1
  Se  Se7  1  0.51644698  0.03183800  0.24999999  1
  He  He8  1  0.63205698  0.17626400  0.41201698  1
  Th  Th9  1  0.13205700  0.32373601  0.58798298  1
  Ni  Ni10  1  0.86794297  0.67626401  0.08798300  1
  Cu  Cu11  1  0.36794299  0.82373601  0.91201697  1
  Ag  Ag12  1  0.36794299  0.82373601  0.58798298  1
  Ba  Ba13  1  0.86794297  0.67626401  0.41201698  1
  He  He14  1  0.13205700  0.32373601  0.91201697  1
  Ho  Ho15  1  0.63205698  0.17626400  0.08798300  1
  Pr  Pr16  1  0.20173299  0.09233700  0.24999999  1
  Ba  Ba17  1  0.70173297  0.40766301  0.74999997  1
  N  N18  1  0.29826699  0.59233701  0.24999999  1
  F  F19  1  0.79826697  0.90766301  0.74999997  1
