# generated using pymatgen
data_SrEuYLuThZrScNbCrCoTcGeRhPbCSeIBrNeN
_symmetry_space_group_name_H-M   'P 1'
_cell_length_a   6.28829718
_cell_length_b   7.65557098
_cell_length_c   7.65557098
_cell_angle_alpha   86.90638733
_cell_angle_beta   77.39251709
_cell_angle_gamma   77.39251709
_symmetry_Int_Tables_number   1
_chemical_formula_structural   SrEuYLuThZrScNbCrCoTcGeRhPbCSeIBrNeN
_chemical_formula_sum
;
Sr1 Eu1 Y1 Lu1 Th1 Zr1 Sc1 Nb1 Cr1 Co1 Tc1 Ge1 Rh1 Pb1 Se1 C1 I1 Br1
Ne1 N1
;
_cell_volume   350.97715068
_cell_formula_units_Z   1
loop_
 _symmetry_equiv_pos_site_id
 _symmetry_equiv_pos_as_xyz
  1  'x, y, z'
loop_
 _atom_site_type_symbol
 _atom_site_label
 _atom_site_symmetry_multiplicity
 _atom_site_fract_x
 _atom_site_fract_y
 _atom_site_fract_z
 _atom_site_occupancy
  Sr  Sr0  1  0.74999999  0.31356399  0.68643602  1
  I  I1  1  0.75000003  0.90798797  0.09201201  1
  Ge  Ge2  1  0.25000000  0.09201200  0.90798799  1
  Tc  Tc3  1  0.25000004  0.68643598  0.31356399  1
  Rh  Rh4  1  0.74650299  0.37516899  0.20412402  1
  Zr  Zr5  1  0.75349702  0.79587598  0.62483101  1
  Co  Co6  1  0.24650300  0.20412399  0.37516900  1
  Cr  Cr7  1  0.25349704  0.62483098  0.79587598  1
  Th  Th8  1  0.33377899  0.01428200  0.23212001  1
  Se  Se9  1  0.33214101  0.40320399  0.86753799  1
  Br  Br10  1  0.01693505  0.64199998  0.66969897  1
  Lu  Lu11  1  0.83214103  0.86753798  0.40320401  1
  C  C12  1  0.66785901  0.59679598  0.13246201  1
  Ne  Ne13  1  0.66622104  0.98571797  0.76787999  1
  Sc  Sc14  1  0.83377898  0.23211999  0.01428203  1
  Eu  Eu15  1  0.51693503  0.66969898  0.64200000  1
  Y  Y16  1  0.48306500  0.33030099  0.35800001  1
  Nb  Nb17  1  0.16622105  0.76787998  0.98571797  1
  N  N18  1  0.16785900  0.13246200  0.59679599  1
  Pb  Pb19  1  0.98306498  0.35799999  0.33030103  1
