# generated using pymatgen
data_Ca2YbPr2SmErUTaCuTcSbRuN
_symmetry_space_group_name_H-M   'P 1'
_cell_length_a   6.68048191
_cell_length_b   6.68747902
_cell_length_c   8.28512287
_cell_angle_alpha   90.00000000
_cell_angle_beta   71.92964935
_cell_angle_gamma   90.00000000
_symmetry_Int_Tables_number   1
_chemical_formula_structural   Ca2YbPr2SmErUTaCuTcSbRuN
_chemical_formula_sum
'Ca2 Yb1 Pr2 Sm1 Er1 U1 Ta1 Cu1 Tc1 Sb1 Ru1 N1'
_cell_volume   351.88591122
_cell_formula_units_Z   1
loop_
 _symmetry_equiv_pos_site_id
 _symmetry_equiv_pos_as_xyz
  1  'x, y, z'
loop_
 _atom_site_type_symbol
 _atom_site_label
 _atom_site_symmetry_multiplicity
 _atom_site_fract_x
 _atom_site_fract_y
 _atom_site_fract_z
 _atom_site_occupancy
  U  U0  1  0.27817600  0.75000000  0.05080800  1
  Ca  Ca1  1  0.72182401  0.25000000  0.94919206  1
  Yb  Yb2  1  0.23268200  0.75000000  0.56825403  1
  Cu  Cu3  1  0.76731801  0.25000000  0.43174603  1
  Ca  Ca4  1  0.72273701  0.75000000  0.20075801  1
  Sm  Sm5  1  0.27726300  0.25000000  0.79924205  1
  Ru  Ru6  1  0.89048101  0.75000000  0.93595306  1
  Ta  Ta7  1  0.10951900  0.25000000  0.06404700  1
  Er  Er8  1  0.91357001  0.75000000  0.36646102  1
  Pr  Pr9  1  0.08643000  0.25000000  0.63353904  1
  Pr  Pr10  1  0.51230301  0.50225300  0.25983702  1
  Tc  Tc11  1  0.48769701  0.00225300  0.74016304  1
  N  N12  1  0.48769701  0.49774700  0.74016304  1
  Sb  Sb13  1  0.51230301  0.99774700  0.25983702  1
