# generated using pymatgen
data_SrGdDy2YZrBeInGaCuBiSbPIrPtPbWC
_symmetry_space_group_name_H-M   'P 1'
_cell_length_a   4.75115824
_cell_length_b   4.75115824
_cell_length_c   9.42056274
_cell_angle_alpha   90.00000000
_cell_angle_beta   90.00000000
_cell_angle_gamma   90.00000000
_symmetry_Int_Tables_number   1
_chemical_formula_structural   SrGdDy2YZrBeInGaCuBiSbPIrPtPbWC
_chemical_formula_sum
'Sr1 Gd1 Dy2 Y1 Zr1 Be1 In1 Ga1 Cu1 Bi1 Sb1 P1 Ir1 Pt1 Pb1 W1 C1'
_cell_volume   212.65511641
_cell_formula_units_Z   1
loop_
 _symmetry_equiv_pos_site_id
 _symmetry_equiv_pos_as_xyz
  1  'x, y, z'
loop_
 _atom_site_type_symbol
 _atom_site_label
 _atom_site_symmetry_multiplicity
 _atom_site_fract_x
 _atom_site_fract_y
 _atom_site_fract_z
 _atom_site_occupancy
  W  W0  1  0.00000000  0.00000000  0.00000000  1
  Sr  Sr1  1  0.49999998  0.49999998  0.50000001  1
  Gd  Gd2  1  0.49999998  0.49999998  0.83218202  1
  P  P3  1  0.00000000  0.00000000  0.33218201  1
  Ga  Ga4  1  0.49999998  0.49999998  0.16781800  1
  Be  Be5  1  0.00000000  0.00000000  0.66781802  1
  Bi  Bi6  1  0.69857797  0.69857797  0.67291302  1
  In  In7  1  0.30142198  0.30142198  0.67291302  1
  Pb  Pb8  1  0.69857797  0.69857797  0.32708701  1
  C  C9  1  0.19857799  0.80142196  0.17291300  1
  Cu  Cu10  1  0.80142196  0.19857799  0.17291300  1
  Sb  Sb11  1  0.80142196  0.19857799  0.82708702  1
  Dy  Dy12  1  0.31163798  0.31163798  0.00000000  1
  Dy  Dy13  1  0.18836199  0.81163796  0.50000001  1
  Ir  Ir14  1  0.81163796  0.18836199  0.50000001  1
  Y  Y15  1  0.68836197  0.68836197  0.00000000  1
  Zr  Zr16  1  0.30142198  0.30142198  0.32708701  1
  Pt  Pt17  1  0.19857799  0.80142196  0.82708702  1
