# generated using pymatgen
data_CsRbPmYMgNpCr2MoAsIrPbSXeN2
_symmetry_space_group_name_H-M   'P 1'
_cell_length_a   5.49019194
_cell_length_b   5.49019194
_cell_length_c   7.18657780
_cell_angle_alpha   104.49230957
_cell_angle_beta   104.49230957
_cell_angle_gamma   103.83534241
_symmetry_Int_Tables_number   1
_chemical_formula_structural   CsRbPmYMgNpCr2MoAsIrPbSXeN2
_chemical_formula_sum
'Cs1 Rb1 Pm1 Y1 Mg1 Np1 Cr2 Mo1 As1 Ir1 Pb1 S1 Xe1 N2'
_cell_volume   192.24450316
_cell_formula_units_Z   1
loop_
 _symmetry_equiv_pos_site_id
 _symmetry_equiv_pos_as_xyz
  1  'x, y, z'
loop_
 _atom_site_type_symbol
 _atom_site_label
 _atom_site_symmetry_multiplicity
 _atom_site_fract_x
 _atom_site_fract_y
 _atom_site_fract_z
 _atom_site_occupancy
  Rb  Rb0  1  0.66924904  0.33075102  0.24999998  1
  Cr  Cr1  1  0.33075104  0.66924903  0.74999999  1
  Mo  Mo2  1  0.00000000  0.00000000  0.00000000  1
  Ir  Ir3  1  0.00000000  0.00000000  0.50000001  1
  Mg  Mg4  1  0.32155704  0.67844303  0.24999998  1
  Pm  Pm5  1  0.67844304  0.32155701  0.74999998  1
  N  N6  1  0.31692105  0.87162704  0.13591397  1
  Xe  Xe7  1  0.12837303  0.68307903  0.36408599  1
  Cs  Cs8  1  0.68307903  0.12837301  0.86408599  1
  S  S9  1  0.87162704  0.31692101  0.63591398  1
  Y  Y10  1  0.25460203  0.40678702  0.10438498  1
  N  N11  1  0.59321305  0.74539803  0.39561497  1
  Cr  Cr12  1  0.74539805  0.59321303  0.89561498  1
  Np  Np13  1  0.40678702  0.25460201  0.60438499  1
  Pb  Pb14  1  0.92217503  0.07782500  0.24999997  1
  As  As15  1  0.07782504  0.92217504  0.74999999  1
