# generated using pymatgen
data_NaCaHoTmThMnNbZnSiHgHIrPbClFHe
_symmetry_space_group_name_H-M   'P 1'
_cell_length_a   3.94141889
_cell_length_b   3.94141889
_cell_length_c   15.31271839
_cell_angle_alpha   90.00000000
_cell_angle_beta   90.00000000
_cell_angle_gamma   90.00000000
_symmetry_Int_Tables_number   1
_chemical_formula_structural   NaCaHoTmThMnNbZnSiHgHIrPbClFHe
_chemical_formula_sum
'Na1 Ca1 Ho1 Tm1 Th1 Mn1 Nb1 Zn1 Si1 Hg1 H1 Ir1 Pb1 Cl1 F1 He1'
_cell_volume   237.87975485
_cell_formula_units_Z   1
loop_
 _symmetry_equiv_pos_site_id
 _symmetry_equiv_pos_as_xyz
  1  'x, y, z'
loop_
 _atom_site_type_symbol
 _atom_site_label
 _atom_site_symmetry_multiplicity
 _atom_site_fract_x
 _atom_site_fract_y
 _atom_site_fract_z
 _atom_site_occupancy
  Cl  Cl0  1  0.50000001  0.50000001  0.49999999  1
  H  H1  1  0.50000001  0.50000001  0.84980498  1
  Si  Si2  1  0.50000001  0.50000001  0.15019500  1
  Hg  Hg3  1  0.00000000  0.00000000  0.00000000  1
  Mn  Mn4  1  0.00000000  0.00000000  0.27995199  1
  Nb  Nb5  1  0.00000000  0.00000000  0.72004798  1
  Pb  Pb6  1  0.00000000  0.00000000  0.60260498  1
  Ca  Ca7  1  0.00000000  0.00000000  0.39739499  1
  Th  Th8  1  0.50000001  0.00000000  0.74736098  1
  F  F9  1  0.00000000  0.50000001  0.74736098  1
  He  He10  1  0.50000001  0.00000000  0.25263899  1
  Na  Na11  1  0.00000000  0.50000001  0.25263899  1
  Ho  Ho12  1  0.00000000  0.50000001  0.00000000  1
  Zn  Zn13  1  0.50000001  0.00000000  0.00000000  1
  Tm  Tm14  1  0.00000000  0.00000000  0.12876200  1
  Ir  Ir15  1  0.00000000  0.00000000  0.87123798  1
