# generated using pymatgen
data_SrCaPrTi2VNiTe
_symmetry_space_group_name_H-M   'P 1'
_cell_length_a   6.04400587
_cell_length_b   6.04400587
_cell_length_c   7.33068419
_cell_angle_alpha   114.34564209
_cell_angle_beta   114.34564209
_cell_angle_gamma   90.00000000
_symmetry_Int_Tables_number   1
_chemical_formula_structural   SrCaPrTi2VNiTe
_chemical_formula_sum   'Sr1 Ca1 Pr1 Ti2 V1 Ni1 Te1'
_cell_volume   217.57268725
_cell_formula_units_Z   1
loop_
 _symmetry_equiv_pos_site_id
 _symmetry_equiv_pos_as_xyz
  1  'x, y, z'
loop_
 _atom_site_type_symbol
 _atom_site_label
 _atom_site_symmetry_multiplicity
 _atom_site_fract_x
 _atom_site_fract_y
 _atom_site_fract_z
 _atom_site_occupancy
  Ti  Ti0  1  0.75000002  0.25000001  0.50000000  1
  Pr  Pr1  1  0.50000002  0.50000001  0.99999999  1
  Ni  Ni2  1  0.00000000  0.00000000  0.00000000  1
  Sr  Sr3  1  0.25000001  0.75000002  0.50000000  1
  V  V4  1  0.11700901  0.64555202  0.76372999  1
  Te  Te5  1  0.64672102  0.11817800  0.76372999  1
  Ca  Ca6  1  0.35444801  0.35327801  0.23626900  1
  Ti  Ti7  1  0.88182203  0.88299202  0.23627101  1
