# generated using pymatgen
data_PmSmDyErLuZrNpUTaTiTlTc2NiAgBiBOHe
_symmetry_space_group_name_H-M   'P 1'
_cell_length_a   5.87253618
_cell_length_b   6.67529154
_cell_length_c   8.19451904
_cell_angle_alpha   73.77540588
_cell_angle_beta   69.05623627
_cell_angle_gamma   89.93393707
_symmetry_Int_Tables_number   1
_chemical_formula_structural   PmSmDyErLuZrNpUTaTiTlTc2NiAgBiBOHe
_chemical_formula_sum
'Pm1 Sm1 Dy1 Er1 Lu1 Zr1 Np1 U1 Ta1 Ti1 Tl1 Tc2 Ni1 Ag1 Bi1 B1 O1 He1'
_cell_volume   286.31007513
_cell_formula_units_Z   1
loop_
 _symmetry_equiv_pos_site_id
 _symmetry_equiv_pos_as_xyz
  1  'x, y, z'
loop_
 _atom_site_type_symbol
 _atom_site_label
 _atom_site_symmetry_multiplicity
 _atom_site_fract_x
 _atom_site_fract_y
 _atom_site_fract_z
 _atom_site_occupancy
  Bi  Bi0  1  0.78589700  0.59622501  0.40473197  1
  U  U1  1  0.60399299  0.22174400  0.78187397  1
  Tc  Tc2  1  0.39600704  0.77825601  0.21812595  1
  Ta  Ta3  1  0.21410302  0.40377500  0.59526795  1
  Er  Er4  1  0.90145198  0.28556200  0.18920500  1
  Ti  Ti5  1  0.71483303  0.90160101  0.60078093  1
  Tc  Tc6  1  0.50000001  0.50000000  -0.00000002  1
  O  O7  1  0.28516699  0.09839900  0.39921898  1
  Ni  Ni8  1  0.09854804  0.71443801  0.81079492  1
  Ag  Ag9  1  0.39062404  0.85549801  0.90235491  1
  Lu  Lu10  1  0.58835299  0.24518100  0.48635298  1
  Dy  Dy11  1  0.98803696  0.05665100  0.70164300  1
  Np  Np12  1  0.17110202  0.44087100  0.30138696  1
  B  B13  1  0.78370301  0.63821201  0.10345498  1
  He  He14  1  0.21629701  0.36178800  0.89654494  1
  Zr  Zr15  1  0.41164703  0.75481901  0.51364694  1
  Sm  Sm16  1  0.82889800  0.55912901  0.69861296  1
  Pm  Pm17  1  0.01196306  0.94334901  0.29835692  1
  Tl  Tl18  1  0.60937598  0.14450200  0.09764501  1
