# generated using pymatgen
data_CsAcCeTlZnAgBSCl
_symmetry_space_group_name_H-M   'P 1'
_cell_length_a   7.96104240
_cell_length_b   7.96104240
_cell_length_c   7.96104240
_cell_angle_alpha   60.00000000
_cell_angle_beta   60.00000000
_cell_angle_gamma   60.00000000
_symmetry_Int_Tables_number   1
_chemical_formula_structural   CsAcCeTlZnAgBSCl
_chemical_formula_sum   'Cs1 Ac1 Ce1 Tl1 Zn1 Ag1 B1 S1 Cl1'
_cell_volume   356.77532769
_cell_formula_units_Z   1
loop_
 _symmetry_equiv_pos_site_id
 _symmetry_equiv_pos_as_xyz
  1  'x, y, z'
loop_
 _atom_site_type_symbol
 _atom_site_label
 _atom_site_symmetry_multiplicity
 _atom_site_fract_x
 _atom_site_fract_y
 _atom_site_fract_z
 _atom_site_occupancy
  B  B0  1  0.25000000  0.25000000  0.25000000  1
  Tl  Tl1  1  0.74999999  0.74999999  0.74999999  1
  Cl  Cl2  1  0.00000000  0.00000000  0.00000000  1
  Cs  Cs3  1  0.75614999  0.24385000  0.24385000  1
  Ag  Ag4  1  0.24385000  0.24385000  0.75614999  1
  Ce  Ce5  1  0.75614999  0.75614999  0.24385000  1
  S  S6  1  0.24385000  0.75614999  0.75614999  1
  Ac  Ac7  1  0.75614999  0.24385000  0.75614999  1
  Zn  Zn8  1  0.24385000  0.75614999  0.24385000  1
