# generated using pymatgen
data_Tb2ErTaAlGaCoNiAgBiTeAsPRuAuCINO2
_symmetry_space_group_name_H-M   'P 1'
_cell_length_a   5.96965313
_cell_length_b   7.36758137
_cell_length_c   10.67979527
_cell_angle_alpha   90.00000000
_cell_angle_beta   90.00000000
_cell_angle_gamma   104.56821442
_symmetry_Int_Tables_number   1
_chemical_formula_structural   Tb2ErTaAlGaCoNiAgBiTeAsPRuAuCINO2
_chemical_formula_sum
'Tb2 Er1 Ta1 Al1 Ga1 Co1 Ni1 Ag1 Bi1 Te1 As1 P1 Ru1 Au1 C1 I1 N1 O2'
_cell_volume   454.61578182
_cell_formula_units_Z   1
loop_
 _symmetry_equiv_pos_site_id
 _symmetry_equiv_pos_as_xyz
  1  'x, y, z'
loop_
 _atom_site_type_symbol
 _atom_site_label
 _atom_site_symmetry_multiplicity
 _atom_site_fract_x
 _atom_site_fract_y
 _atom_site_fract_z
 _atom_site_occupancy
  Al  Al0  1  0.24999999  0.00000000  0.08220900  1
  Te  Te1  1  0.74999998  0.00000000  0.91779098  1
  Tb  Tb2  1  0.24999999  0.00000000  0.43865099  1
  O  O3  1  0.74999998  0.00000000  0.56134899  1
  Ru  Ru4  1  0.20733898  0.84437297  0.75564398  1
  I  I5  1  0.79266098  0.15562699  0.24435599  1
  C  C6  1  0.70733897  0.84437297  0.24435599  1
  N  N7  1  0.29266099  0.15562699  0.75564398  1
  Bi  Bi8  1  0.01588598  0.79581997  0.92572098  1
  Ta  Ta9  1  0.47917999  0.21864499  0.23095199  1
  O  O10  1  0.52081997  0.78135497  0.76904798  1
  Er  Er11  1  0.47593998  0.26300899  0.60693798  1
  Ag  Ag12  1  0.98411397  0.20417999  0.07427900  1
  P  P13  1  0.97917997  0.21864499  0.76904798  1
  Tb  Tb14  1  0.52405997  0.73699098  0.39306199  1
  As  As15  1  0.51588597  0.79581997  0.07427900  1
  Co  Co16  1  0.48411399  0.20417999  0.92572098  1
  Au  Au17  1  0.02405998  0.73699098  0.60693798  1
  Ni  Ni18  1  0.97593997  0.26300899  0.39306199  1
  Ga  Ga19  1  0.02081998  0.78135497  0.23095199  1
