# generated using pymatgen
data_CeErNpMnNbAgPtSeXeO
_symmetry_space_group_name_H-M   'P 1'
_cell_length_a   6.62069464
_cell_length_b   6.62069464
_cell_length_c   6.62069464
_cell_angle_alpha   60.00000000
_cell_angle_beta   60.00000000
_cell_angle_gamma   60.00000000
_symmetry_Int_Tables_number   1
_chemical_formula_structural   CeErNpMnNbAgPtSeXeO
_chemical_formula_sum   'Ce1 Er1 Np1 Mn1 Nb1 Ag1 Pt1 Se1 Xe1 O1'
_cell_volume   205.20865553
_cell_formula_units_Z   1
loop_
 _symmetry_equiv_pos_site_id
 _symmetry_equiv_pos_as_xyz
  1  'x, y, z'
loop_
 _atom_site_type_symbol
 _atom_site_label
 _atom_site_symmetry_multiplicity
 _atom_site_fract_x
 _atom_site_fract_y
 _atom_site_fract_z
 _atom_site_occupancy
  Mn  Mn0  1  0.25000000  0.25000000  0.25000000  1
  Er  Er1  1  0.74999999  0.74999999  0.74999999  1
  Ce  Ce2  1  0.49999999  0.49999999  0.49999999  1
  Np  Np3  1  0.00000000  0.00000000  0.00000000  1
  Nb  Nb4  1  0.22425000  0.77574999  0.22425000  1
  Ag  Ag5  1  0.22425000  0.22425000  0.77574999  1
  Xe  Xe6  1  0.77574999  0.22425000  0.77574999  1
  Pt  Pt7  1  0.22425000  0.77574999  0.77574999  1
  Se  Se8  1  0.77574999  0.22425000  0.22425000  1
  O  O9  1  0.77574999  0.77574999  0.22425000  1
