# generated using pymatgen
data_PmGdZrNpNiTePPbONe
_symmetry_space_group_name_H-M   'P 1'
_cell_length_a   8.55461597
_cell_length_b   8.55461597
_cell_length_c   8.55461597
_cell_angle_alpha   60.00000000
_cell_angle_beta   60.00000000
_cell_angle_gamma   60.00000000
_symmetry_Int_Tables_number   1
_chemical_formula_structural   PmGdZrNpNiTePPbONe
_chemical_formula_sum   'Pm1 Gd1 Zr1 Np1 Ni1 Te1 P1 Pb1 O1 Ne1'
_cell_volume   442.67659150
_cell_formula_units_Z   1
loop_
 _symmetry_equiv_pos_site_id
 _symmetry_equiv_pos_as_xyz
  1  'x, y, z'
loop_
 _atom_site_type_symbol
 _atom_site_label
 _atom_site_symmetry_multiplicity
 _atom_site_fract_x
 _atom_site_fract_y
 _atom_site_fract_z
 _atom_site_occupancy
  Np  Np0  1  0.25000000  0.25000000  0.25000000  1
  Pm  Pm1  1  0.75000000  0.75000000  0.75000000  1
  Gd  Gd2  1  0.50000000  0.50000000  0.50000000  1
  Pb  Pb3  1  0.00000000  0.00000000  0.00000000  1
  Ni  Ni4  1  0.23780200  0.76219800  0.23780200  1
  O  O5  1  0.23780200  0.23780200  0.76219800  1
  Ne  Ne6  1  0.76219800  0.23780200  0.76219800  1
  P  P7  1  0.23780200  0.76219800  0.76219800  1
  Te  Te8  1  0.76219800  0.23780200  0.23780200  1
  Zr  Zr9  1  0.76219800  0.76219800  0.23780200  1
