# generated using pymatgen
data_NaTbPmYNpTaTiPtPbNe
_symmetry_space_group_name_H-M   'P 1'
_cell_length_a   5.71991587
_cell_length_b   5.74935961
_cell_length_c   5.71991587
_cell_angle_alpha   119.83073425
_cell_angle_beta   90.00000000
_cell_angle_gamma   119.83073425
_symmetry_Int_Tables_number   1
_chemical_formula_structural   NaTbPmYNpTaTiPtPbNe
_chemical_formula_sum   'Na1 Tb1 Pm1 Y1 Np1 Ta1 Ti1 Pt1 Pb1 Ne1'
_cell_volume   133.68754277
_cell_formula_units_Z   1
loop_
 _symmetry_equiv_pos_site_id
 _symmetry_equiv_pos_as_xyz
  1  'x, y, z'
loop_
 _atom_site_type_symbol
 _atom_site_label
 _atom_site_symmetry_multiplicity
 _atom_site_fract_x
 _atom_site_fract_y
 _atom_site_fract_z
 _atom_site_occupancy
  Pt  Pt0  1  0.75000000  0.49999999  0.24999998  1
  Pb  Pb1  1  0.24999998  0.49999999  0.75000000  1
  Tb  Tb2  1  0.50000001  0.00000000  0.50000001  1
  Na  Na3  1  0.00000000  0.00000000  0.00000000  1
  Ta  Ta4  1  0.24226198  0.48452399  0.24226199  1
  Ne  Ne5  1  0.75773800  0.51547599  0.75773800  1
  Ti  Ti6  1  0.72185702  0.00000000  0.79469302  1
  Pm  Pm7  1  0.27814301  0.00000000  0.20530700  1
  Np  Np8  1  0.20530700  0.00000000  0.72185702  1
  Y  Y9  1  0.79469302  0.00000000  0.27814301  1
