# generated using pymatgen
data_CaAc2PuMgTaTlVGeTe2RuBrNOF
_symmetry_space_group_name_H-M   'P 1'
_cell_length_a   5.79207611
_cell_length_b   5.82969236
_cell_length_c   9.25935936
_cell_angle_alpha   98.40807343
_cell_angle_beta   108.22616577
_cell_angle_gamma   90.00000000
_symmetry_Int_Tables_number   1
_chemical_formula_structural   CaAc2PuMgTaTlVGeTe2RuBrNOF
_chemical_formula_sum
'Ca1 Ac2 Pu1 Mg1 Ta1 Tl1 V1 Ge1 Te2 Ru1 Br1 N1 O1 F1'
_cell_volume   293.42572834
_cell_formula_units_Z   1
loop_
 _symmetry_equiv_pos_site_id
 _symmetry_equiv_pos_as_xyz
  1  'x, y, z'
loop_
 _atom_site_type_symbol
 _atom_site_label
 _atom_site_symmetry_multiplicity
 _atom_site_fract_x
 _atom_site_fract_y
 _atom_site_fract_z
 _atom_site_occupancy
  Ru  Ru0  1  0.05151699  0.72125798  0.68824699  1
  F  F1  1  0.70696098  0.74999998  -0.00000002  1
  Te  Te2  1  0.63672998  0.22125799  0.68824700  1
  O  O3  1  0.29303899  0.24999999  -0.00000001  1
  Ge  Ge4  1  0.36326998  0.77874198  0.31175298  1
  Mg  Mg5  1  0.94848298  0.27874199  0.31175299  1
  Br  Br6  1  0.36165898  0.89795298  0.85765498  1
  Pu  Pu7  1  0.95303698  0.44361399  0.79984799  1
  Ta  Ta8  1  0.15318900  0.05638600  0.20015200  1
  Ac  Ac9  1  0.49599599  0.39795299  0.85765499  1
  N  N10  1  0.50400398  0.60204699  0.14234499  1
  Ca  Ca11  1  0.84681097  0.94361398  0.79984798  1
  Tl  Tl12  1  0.04696299  0.55638599  0.20015199  1
  Ac  Ac13  1  0.63834099  0.10204700  0.14234500  1
  V  V14  1  0.49999998  0.49999999  0.49999999  1
  Te  Te15  1  -0.00000000  0.00000000  0.50000000  1
