# generated using pymatgen
data_KLiCaTbPrTmReTcAuSF
_symmetry_space_group_name_H-M   'P 1'
_cell_length_a   4.05694103
_cell_length_b   7.02385521
_cell_length_c   7.50966978
_cell_angle_alpha   108.04653931
_cell_angle_beta   90.00000000
_cell_angle_gamma   90.00000000
_symmetry_Int_Tables_number   1
_chemical_formula_structural   KLiCaTbPrTmReTcAuSF
_chemical_formula_sum   'K1 Li1 Ca1 Tb1 Pr1 Tm1 Re1 Tc1 Au1 S1 F1'
_cell_volume   203.46355759
_cell_formula_units_Z   1
loop_
 _symmetry_equiv_pos_site_id
 _symmetry_equiv_pos_as_xyz
  1  'x, y, z'
loop_
 _atom_site_type_symbol
 _atom_site_label
 _atom_site_symmetry_multiplicity
 _atom_site_fract_x
 _atom_site_fract_y
 _atom_site_fract_z
 _atom_site_occupancy
  Li  Li0  1  -0.00000000  0.49917199  0.50367400  1
  Au  Au1  1  0.50000000  0.99959597  0.49949500  1
  Ca  Ca2  1  0.99999999  0.01903200  0.00136000  1
  S  S3  1  0.50000000  0.48800999  0.01101700  1
  Tb  Tb4  1  0.50000000  0.41633799  0.74451899  1
  Tm  Tm5  1  -0.00000000  0.90988998  0.74051400  1
  Re  Re6  1  0.50000000  0.57845698  0.27812100  1
  Pr  Pr7  1  -0.00000000  0.10064800  0.26234800  1
  Tc  Tc8  1  0.50000000  0.15201500  0.97860399  1
  F  F9  1  -0.00000000  0.38709099  0.02353200  1
  K  K10  1  0.50000000  0.80474998  0.02181601  1
