# generated using pymatgen
data_CsKBaSrErMgV2HeSn
_symmetry_space_group_name_H-M   'P 1'
_cell_length_a   8.02260208
_cell_length_b   8.02260208
_cell_length_c   8.02260208
_cell_angle_alpha   60.00000000
_cell_angle_beta   60.00000000
_cell_angle_gamma   60.00000000
_symmetry_Int_Tables_number   1
_chemical_formula_structural   CsKBaSrErMgV2HeSn
_chemical_formula_sum   'Cs1 K1 Ba1 Sr1 Er1 Mg1 V2 He1 Sn1'
_cell_volume   365.11590992
_cell_formula_units_Z   1
loop_
 _symmetry_equiv_pos_site_id
 _symmetry_equiv_pos_as_xyz
  1  'x, y, z'
loop_
 _atom_site_type_symbol
 _atom_site_label
 _atom_site_symmetry_multiplicity
 _atom_site_fract_x
 _atom_site_fract_y
 _atom_site_fract_z
 _atom_site_occupancy
  Cs  Cs0  1  0.24999999  0.24999999  0.24999999  1
  Er  Er1  1  0.74999996  0.74999996  0.74999996  1
  K  K2  1  0.49999997  0.49999997  0.49999997  1
  V  V3  1  0.00000000  0.00000000  0.00000000  1
  Ba  Ba4  1  0.25364699  0.74635296  0.25364699  1
  He  He5  1  0.25364699  0.25364699  0.74635296  1
  Sr  Sr6  1  0.74635296  0.25364699  0.74635296  1
  Mg  Mg7  1  0.25364699  0.74635296  0.74635296  1
  V  V8  1  0.74635296  0.25364699  0.25364699  1
  Sn  Sn9  1  0.74635296  0.74635296  0.25364699  1
