# generated using pymatgen
data_BaSmEuTmMgNbVB2Xe
_symmetry_space_group_name_H-M   'P 1'
_cell_length_a   5.52859354
_cell_length_b   5.52859354
_cell_length_c   5.52859259
_cell_angle_alpha   60.79416275
_cell_angle_beta   60.79416275
_cell_angle_gamma   60.79416275
_symmetry_Int_Tables_number   1
_chemical_formula_structural   BaSmEuTmMgNbVB2Xe
_chemical_formula_sum   'Ba1 Sm1 Eu1 Tm1 Mg1 Nb1 V1 B2 Xe1'
_cell_volume   121.62970364
_cell_formula_units_Z   1
loop_
 _symmetry_equiv_pos_site_id
 _symmetry_equiv_pos_as_xyz
  1  'x, y, z'
loop_
 _atom_site_type_symbol
 _atom_site_label
 _atom_site_symmetry_multiplicity
 _atom_site_fract_x
 _atom_site_fract_y
 _atom_site_fract_z
 _atom_site_occupancy
  Nb  Nb0  1  0.75000004  0.74999999  0.74999997  1
  Sm  Sm1  1  0.25000001  0.25000000  0.24999999  1
  Tm  Tm2  1  0.00000000  0.00000000  0.00000000  1
  B  B3  1  0.50000002  0.49999999  0.49999998  1
  Ba  Ba4  1  0.81914701  0.25000000  0.68085298  1
  B  B5  1  0.25000003  0.68085299  0.81914698  1
  Mg  Mg6  1  0.68085304  0.81914699  0.24999996  1
  V  V7  1  0.18085304  0.74999999  0.31914697  1
  Eu  Eu8  1  0.31914701  0.18085300  0.75000000  1
  Xe  Xe9  1  0.75000002  0.31914699  0.18085298  1
