# generated using pymatgen
data_CsNaAcPrErTm2ZrScTlSnGe2Bi2MoKr2NeO
_symmetry_space_group_name_H-M   'P 1'
_cell_length_a   5.84709120
_cell_length_b   5.91232777
_cell_length_c   8.29829502
_cell_angle_alpha   90.00000000
_cell_angle_beta   90.00000000
_cell_angle_gamma   90.00000000
_symmetry_Int_Tables_number   1
_chemical_formula_structural   CsNaAcPrErTm2ZrScTlSnGe2Bi2MoKr2NeO
_chemical_formula_sum
'Cs1 Na1 Ac1 Pr1 Er1 Tm2 Zr1 Sc1 Tl1 Sn1 Ge2 Bi2 Mo1 Kr2 Ne1 O1'
_cell_volume   286.87139205
_cell_formula_units_Z   1
loop_
 _symmetry_equiv_pos_site_id
 _symmetry_equiv_pos_as_xyz
  1  'x, y, z'
loop_
 _atom_site_type_symbol
 _atom_site_label
 _atom_site_symmetry_multiplicity
 _atom_site_fract_x
 _atom_site_fract_y
 _atom_site_fract_z
 _atom_site_occupancy
  Na  Na0  1  0.00734200  0.53296302  0.25000000  1
  Mo  Mo1  1  0.50734198  0.96703704  0.75000000  1
  Tm  Tm2  1  0.49265798  0.03296300  0.25000000  1
  Bi  Bi3  1  0.99265797  0.46703702  0.75000000  1
  Ac  Ac4  1  0.00000000  0.00000000  0.00000000  1
  Ge  Ge5  1  0.49999998  0.50000002  0.00000000  1
  Kr  Kr6  1  0.49999998  0.50000002  0.50000000  1
  Ge  Ge7  1  0.00000000  0.00000000  0.50000000  1
  Tl  Tl8  1  0.21272499  0.28690401  0.45912400  1
  Bi  Bi9  1  0.71272498  0.21309601  0.54087600  1
  Ne  Ne10  1  0.28727499  0.78690403  0.04087600  1
  Sn  Sn11  1  0.78727497  0.71309603  0.95912400  1
  Zr  Zr12  1  0.78727497  0.71309603  0.54087600  1
  Tm  Tm13  1  0.28727499  0.78690403  0.45912400  1
  Er  Er14  1  0.71272498  0.21309601  0.95912400  1
  Kr  Kr15  1  0.21272499  0.28690401  0.04087600  1
  Sc  Sc16  1  0.92260697  0.97891604  0.25000000  1
  Pr  Pr17  1  0.42260699  0.52108402  0.75000000  1
  Cs  Cs18  1  0.57739298  0.47891602  0.25000000  1
  O  O19  1  0.07739300  0.02108400  0.75000000  1
