# generated using pymatgen
data_EuHfScV2GaFeCuSnGeBIrRuXe
_symmetry_space_group_name_H-M   'P 1'
_cell_length_a   5.50799799
_cell_length_b   5.50799799
_cell_length_c   7.27832890
_cell_angle_alpha   90.00000000
_cell_angle_beta   90.00000000
_cell_angle_gamma   115.20494843
_symmetry_Int_Tables_number   1
_chemical_formula_structural   EuHfScV2GaFeCuSnGeBIrRuXe
_chemical_formula_sum
'Eu1 Hf1 Sc1 V2 Ga1 Fe1 Cu1 Sn1 Ge1 B1 Ru1 Ir1 Xe1'
_cell_volume   199.78696404
_cell_formula_units_Z   1
loop_
 _symmetry_equiv_pos_site_id
 _symmetry_equiv_pos_as_xyz
  1  'x, y, z'
loop_
 _atom_site_type_symbol
 _atom_site_label
 _atom_site_symmetry_multiplicity
 _atom_site_fract_x
 _atom_site_fract_y
 _atom_site_fract_z
 _atom_site_occupancy
  Ru  Ru0  1  0.68136299  0.31863699  0.25000000  1
  Xe  Xe1  1  0.31863697  0.68136299  0.75000001  1
  Fe  Fe2  1  0.00000000  0.00000000  0.50000001  1
  Sn  Sn3  1  0.00000000  0.00000000  0.00000000  1
  Eu  Eu4  1  0.35128298  0.64871699  0.25000000  1
  Ga  Ga5  1  0.64871699  0.35128299  0.75000001  1
  Ge  Ge6  1  0.24697397  0.75302599  0.44262501  1
  V  V7  1  0.75302599  0.24697400  0.55737501  1
  Cu  Cu8  1  0.75302599  0.24697400  0.94262501  1
  Hf  Hf9  1  0.24697397  0.75302599  0.05737500  1
  V  V10  1  0.70011997  0.77325199  0.25000000  1
  B  B11  1  0.29987999  0.22674800  0.75000001  1
  Sc  Sc12  1  0.22674799  0.29987999  0.25000000  1
  Ir  Ir13  1  0.77325197  0.70011899  0.75000001  1
