# generated using pymatgen
data_SrSmBeS
_symmetry_space_group_name_H-M   'P 1'
_cell_length_a   4.31859398
_cell_length_b   4.31859398
_cell_length_c   4.31859398
_cell_angle_alpha   60.00000000
_cell_angle_beta   60.00000000
_cell_angle_gamma   60.00000000
_symmetry_Int_Tables_number   1
_chemical_formula_structural   SrSmBeS
_chemical_formula_sum   'Sr1 Sm1 Be1 S1'
_cell_volume   56.95241269
_cell_formula_units_Z   1
loop_
 _symmetry_equiv_pos_site_id
 _symmetry_equiv_pos_as_xyz
  1  'x, y, z'
loop_
 _atom_site_type_symbol
 _atom_site_label
 _atom_site_symmetry_multiplicity
 _atom_site_fract_x
 _atom_site_fract_y
 _atom_site_fract_z
 _atom_site_occupancy
  S  S0  1  0.00000000  0.00000000  0.00000000  1
  Sr  Sr1  1  0.49999999  0.49999999  0.49999999  1
  Be  Be2  1  0.74999998  0.74999998  0.74999998  1
  Sm  Sm3  1  0.24999999  0.24999999  0.24999999  1
