# generated using pymatgen
data_CaPmPrHoTmBe2FeGeMoOsPdRhKr
_symmetry_space_group_name_H-M   'P 1'
_cell_length_a   5.23599720
_cell_length_b   5.73685789
_cell_length_c   5.81110811
_cell_angle_alpha   118.60854340
_cell_angle_beta   90.00000000
_cell_angle_gamma   90.00000000
_symmetry_Int_Tables_number   1
_chemical_formula_structural   CaPmPrHoTmBe2FeGeMoOsPdRhKr
_chemical_formula_sum
'Ca1 Pr1 Pm1 Ho1 Tm1 Be2 Fe1 Ge1 Mo1 Os1 Pd1 Rh1 Kr1'
_cell_volume   153.24391351
_cell_formula_units_Z   1
loop_
 _symmetry_equiv_pos_site_id
 _symmetry_equiv_pos_as_xyz
  1  'x, y, z'
loop_
 _atom_site_type_symbol
 _atom_site_label
 _atom_site_symmetry_multiplicity
 _atom_site_fract_x
 _atom_site_fract_y
 _atom_site_fract_z
 _atom_site_occupancy
  Be  Be0  1  0.78932097  0.54743400  0.07123898  1
  Mo  Mo1  1  0.21067899  0.54743400  0.57123897  1
  Ge  Ge2  1  0.27050099  0.33772800  0.00778299  1
  Ho  Ho3  1  0.72949897  0.33772800  0.50778298  1
  Pr  Pr4  1  0.25546599  0.98646400  0.46739096  1
  Os  Os5  1  0.74453397  0.98646400  0.96739095  1
  Rh  Rh6  1  0.90570397  0.63923000  0.78418597  1
  Tm  Tm7  1  0.94827696  0.17180400  0.82853098  1
  Kr  Kr8  1  0.05172300  0.17180400  0.32853099  1
  Pm  Pm9  1  0.09429600  0.63923000  0.28418597  1
  Ca  Ca10  1  0.41925598  0.33571200  0.69011098  1
  Pd  Pd11  1  0.42770298  0.85583000  0.67415396  1
  Fe  Fe12  1  0.57229698  0.85583000  0.17415397  1
  Be  Be13  1  0.58074398  0.33571200  0.19011099  1
