# generated using pymatgen
data_LaSmErLuHfZrTiBeAlSiNiAgHgHAu2I2BrN
_symmetry_space_group_name_H-M   'P 1'
_cell_length_a   3.85405397
_cell_length_b   3.85405350
_cell_length_c   31.48751259
_cell_angle_alpha   90.00000000
_cell_angle_beta   90.00000000
_cell_angle_gamma   120.00000763
_symmetry_Int_Tables_number   1
_chemical_formula_structural   LaSmErLuHfZrTiBeAlSiNiAgHgHAu2I2BrN
_chemical_formula_sum
'La1 Sm1 Er1 Lu1 Hf1 Zr1 Ti1 Be1 Al1 Si1 Ni1 Ag1 Hg1 H1 Au2 I2 Br1 N1'
_cell_volume   405.04612676
_cell_formula_units_Z   1
loop_
 _symmetry_equiv_pos_site_id
 _symmetry_equiv_pos_as_xyz
  1  'x, y, z'
loop_
 _atom_site_type_symbol
 _atom_site_label
 _atom_site_symmetry_multiplicity
 _atom_site_fract_x
 _atom_site_fract_y
 _atom_site_fract_z
 _atom_site_occupancy
  Zr  Zr0  1  0.33333337  0.66666667  0.80000501  1
  Ag  Ag1  1  0.00000000  0.00000000  0.20001400  1
  Ni  Ni2  1  0.33333337  0.66666667  0.10001300  1
  Er  Er3  1  0.66666669  0.33333334  0.30000500  1
  La  La4  1  0.66666669  0.33333334  0.90000501  1
  Lu  Lu5  1  0.33333337  0.66666667  0.40000501  1
  Si  Si6  1  0.00000000  0.00000000  0.99998301  1
  Al  Al7  1  0.66666669  0.33333334  0.60001301  1
  Sm  Sm8  1  0.00000000  0.00000000  0.70001401  1
  N  N9  1  0.00000000  0.00000000  0.49998301  1
  Be  Be10  1  0.33333337  0.66666667  0.72499601  1
  Br  Br11  1  0.00000000  0.00000000  0.92499901  1
  H  H12  1  0.33333337  0.66666667  0.32499500  1
  I  I13  1  0.00000000  0.00000000  0.12505400  1
  I  I14  1  0.66666669  0.33333334  0.22499600  1
  Hf  Hf15  1  0.00000000  0.00000000  0.42499901  1
  Hg  Hg16  1  0.66666669  0.33333334  0.82499501  1
  Au  Au17  1  0.66666669  0.33333334  0.52493701  1
  Au  Au18  1  0.33333337  0.66666667  0.02493700  1
  Ti  Ti19  1  0.00000000  0.00000000  0.62505401  1
