# generated using pymatgen
data_SrYbPmEuYScBeNbGaFeSiTcAgHgBPdCSeNNe
_symmetry_space_group_name_H-M   'P 1'
_cell_length_a   5.58586311
_cell_length_b   5.72764015
_cell_length_c   7.90709496
_cell_angle_alpha   90.00000000
_cell_angle_beta   89.99113464
_cell_angle_gamma   90.00000000
_symmetry_Int_Tables_number   1
_chemical_formula_structural   SrYbPmEuYScBeNbGaFeSiTcAgHgBPdCSeNNe
_chemical_formula_sum
;
Sr1 Yb1 Pm1 Eu1 Y1 Sc1 Be1 Nb1 Ga1 Fe1 Tc1 Si1 Ag1 Hg1 B1 Pd1 C1 Se1
N1 Ne1
;
_cell_volume   252.97812108
_cell_formula_units_Z   1
loop_
 _symmetry_equiv_pos_site_id
 _symmetry_equiv_pos_as_xyz
  1  'x, y, z'
loop_
 _atom_site_type_symbol
 _atom_site_label
 _atom_site_symmetry_multiplicity
 _atom_site_fract_x
 _atom_site_fract_y
 _atom_site_fract_z
 _atom_site_occupancy
  Eu  Eu0  1  0.50426799  0.79562398  0.24884398  1
  Y  Y1  1  0.00426800  0.20437599  0.74884401  1
  N  N2  1  0.99150298  0.29994299  0.24766796  1
  C  C3  1  0.49150299  0.70005698  0.74766799  1
  Fe  Fe4  1  0.49845799  0.24644799  0.49988799  1
  Ga  Ga5  1  0.99845798  0.75355198  0.99988798  1
  Se  Se6  1  0.99945198  0.75703098  0.49926297  1
  Ag  Ag7  1  0.49945199  0.24296899  0.99926300  1
  Be  Be8  1  0.91477398  0.78230998  0.74485998  1
  Sc  Sc9  1  0.81051898  0.04697300  0.45701497  1
  Pm  Pm10  1  0.79337298  0.05370300  0.04306397  1
  Tc  Tc11  1  0.70769699  0.56089199  0.45626098  1
  Sr  Sr12  1  0.69250899  0.53545999  0.04810397  1
  Hg  Hg13  1  0.58744499  0.27471399  0.75503399  1
  Ne  Ne14  1  0.41477399  0.21768999  0.24485999  1
  Yb  Yb15  1  0.31051899  0.95302697  0.95701500  1
  Nb  Nb16  1  0.29337299  0.94629697  0.54306400  1
  Si  Si17  1  0.20769700  0.43910799  0.95626101  1
  Pd  Pd18  1  0.19250900  0.46453999  0.54810400  1
  B  B19  1  0.08744500  0.72528598  0.25503400  1
