# generated using pymatgen
data_RbPrSmEuTmNpZnCoNiP
_symmetry_space_group_name_H-M   'P 1'
_cell_length_a   8.84749413
_cell_length_b   8.84749413
_cell_length_c   8.84749413
_cell_angle_alpha   60.00000000
_cell_angle_beta   60.00000000
_cell_angle_gamma   60.00000000
_symmetry_Int_Tables_number   1
_chemical_formula_structural   RbPrSmEuTmNpZnCoNiP
_chemical_formula_sum   'Rb1 Pr1 Sm1 Eu1 Tm1 Np1 Zn1 Co1 Ni1 P1'
_cell_volume   489.71775624
_cell_formula_units_Z   1
loop_
 _symmetry_equiv_pos_site_id
 _symmetry_equiv_pos_as_xyz
  1  'x, y, z'
loop_
 _atom_site_type_symbol
 _atom_site_label
 _atom_site_symmetry_multiplicity
 _atom_site_fract_x
 _atom_site_fract_y
 _atom_site_fract_z
 _atom_site_occupancy
  Np  Np0  1  0.25000000  0.25000000  0.25000000  1
  Pr  Pr1  1  0.74999999  0.74999999  0.74999999  1
  Eu  Eu2  1  0.00000000  0.00000000  0.00000000  1
  P  P3  1  0.49999999  0.49999999  0.49999999  1
  Rb  Rb4  1  0.23143600  0.76856399  0.23143600  1
  Co  Co5  1  0.23143600  0.23143600  0.76856399  1
  Ni  Ni6  1  0.76856399  0.23143600  0.76856399  1
  Tm  Tm7  1  0.23143600  0.76856399  0.76856399  1
  Zn  Zn8  1  0.76856399  0.23143600  0.23143600  1
  Sm  Sm9  1  0.76856399  0.76856399  0.23143600  1
