# generated using pymatgen
data_CsBaNdHoEr2TlFeTePbAuF
_symmetry_space_group_name_H-M   'P 1'
_cell_length_a   5.19798374
_cell_length_b   5.19798374
_cell_length_c   7.35419321
_cell_angle_alpha   90.00000000
_cell_angle_beta   90.00000000
_cell_angle_gamma   93.01534271
_symmetry_Int_Tables_number   1
_chemical_formula_structural   CsBaNdHoEr2TlFeTePbAuF
_chemical_formula_sum   'Cs1 Ba1 Nd1 Ho1 Er2 Tl1 Fe1 Te1 Pb1 Au1 F1'
_cell_volume   198.42809592
_cell_formula_units_Z   1
loop_
 _symmetry_equiv_pos_site_id
 _symmetry_equiv_pos_as_xyz
  1  'x, y, z'
loop_
 _atom_site_type_symbol
 _atom_site_label
 _atom_site_symmetry_multiplicity
 _atom_site_fract_x
 _atom_site_fract_y
 _atom_site_fract_z
 _atom_site_occupancy
  Tl  Tl0  1  0.00000000  0.00000000  0.00000000  1
  Fe  Fe1  1  0.00000000  0.00000000  0.49999999  1
  Nd  Nd2  1  0.54021800  0.45978199  0.24999999  1
  Er  Er3  1  0.45978201  0.54021798  0.74999998  1
  Pb  Pb4  1  0.68884299  0.31115699  0.05801900  1
  Au  Au5  1  0.68884299  0.31115699  0.44198099  1
  F  F6  1  0.31115702  0.68884298  0.94198097  1
  Er  Er7  1  0.31115702  0.68884298  0.55801898  1
  Ba  Ba8  1  0.75576102  0.82333797  0.74999998  1
  Te  Te9  1  0.17666201  0.24423899  0.74999998  1
  Ho  Ho10  1  0.82333801  0.75576098  0.24999999  1
  Cs  Cs11  1  0.24423900  0.17666199  0.24999999  1
