# generated using pymatgen
data_AcGdGaWSHe
_symmetry_space_group_name_H-M   'P 1'
_cell_length_a   4.54489183
_cell_length_b   4.54489136
_cell_length_c   7.89782906
_cell_angle_alpha   90.00000000
_cell_angle_beta   90.00000000
_cell_angle_gamma   120.00000763
_symmetry_Int_Tables_number   1
_chemical_formula_structural   AcGdGaWSHe
_chemical_formula_sum   'Ac1 Gd1 Ga1 W1 S1 He1'
_cell_volume   141.28152877
_cell_formula_units_Z   1
loop_
 _symmetry_equiv_pos_site_id
 _symmetry_equiv_pos_as_xyz
  1  'x, y, z'
loop_
 _atom_site_type_symbol
 _atom_site_label
 _atom_site_symmetry_multiplicity
 _atom_site_fract_x
 _atom_site_fract_y
 _atom_site_fract_z
 _atom_site_occupancy
  Ac  Ac0  1  0.00000000  0.00000000  0.50000000  1
  S  S1  1  0.00000000  0.00000000  0.00000000  1
  Gd  Gd2  1  0.66666670  0.33333333  0.25000000  1
  He  He3  1  0.33333337  0.66666666  0.74999999  1
  W  W4  1  0.66666670  0.33333333  0.74999999  1
  Ga  Ga5  1  0.33333337  0.66666666  0.25000000  1
