# generated using pymatgen
data_CsPuThScCoGeRhWCF
_symmetry_space_group_name_H-M   'P 1'
_cell_length_a   8.43163776
_cell_length_b   8.43163776
_cell_length_c   8.43163776
_cell_angle_alpha   60.00000000
_cell_angle_beta   60.00000000
_cell_angle_gamma   60.00000000
_symmetry_Int_Tables_number   1
_chemical_formula_structural   CsPuThScCoGeRhWCF
_chemical_formula_sum   'Cs1 Pu1 Th1 Sc1 Co1 Ge1 Rh1 W1 C1 F1'
_cell_volume   423.85842802
_cell_formula_units_Z   1
loop_
 _symmetry_equiv_pos_site_id
 _symmetry_equiv_pos_as_xyz
  1  'x, y, z'
loop_
 _atom_site_type_symbol
 _atom_site_label
 _atom_site_symmetry_multiplicity
 _atom_site_fract_x
 _atom_site_fract_y
 _atom_site_fract_z
 _atom_site_occupancy
  Sc  Sc0  1  0.24999999  0.24999999  0.24999999  1
  C  C1  1  0.74999997  0.74999997  0.74999997  1
  Pu  Pu2  1  0.00000000  0.00000000  0.00000000  1
  Rh  Rh3  1  0.49999998  0.49999998  0.49999998  1
  Ge  Ge4  1  0.23474399  0.76525597  0.23474399  1
  Cs  Cs5  1  0.23474399  0.23474399  0.76525597  1
  Th  Th6  1  0.76525597  0.23474399  0.76525597  1
  W  W7  1  0.23474399  0.76525597  0.76525597  1
  Co  Co8  1  0.76525597  0.23474399  0.23474399  1
  F  F9  1  0.76525597  0.76525597  0.23474399  1
