# generated using pymatgen
data_CsLiYErTmLuNpVCrGePPtPbWSF
_symmetry_space_group_name_H-M   'P 1'
_cell_length_a   4.65636396
_cell_length_b   4.65636444
_cell_length_c   23.78258514
_cell_angle_alpha   90.00000000
_cell_angle_beta   90.00000000
_cell_angle_gamma   120.00000000
_symmetry_Int_Tables_number   1
_chemical_formula_structural   CsLiYErTmLuNpVCrGePPtPbWSF
_chemical_formula_sum
'Cs1 Li1 Y1 Er1 Tm1 Lu1 Np1 V1 Cr1 Ge1 P1 Pt1 Pb1 W1 S1 F1'
_cell_volume   446.56386245
_cell_formula_units_Z   1
loop_
 _symmetry_equiv_pos_site_id
 _symmetry_equiv_pos_as_xyz
  1  'x, y, z'
loop_
 _atom_site_type_symbol
 _atom_site_label
 _atom_site_symmetry_multiplicity
 _atom_site_fract_x
 _atom_site_fract_y
 _atom_site_fract_z
 _atom_site_occupancy
  V  V0  1  0.33333338  0.66666668  0.07478800  1
  P  P1  1  0.66666669  0.33333334  0.92521203  1
  Lu  Lu2  1  0.66666669  0.33333334  0.57478802  1
  W  W3  1  0.33333338  0.66666668  0.42521202  1
  Np  Np4  1  0.66666669  0.33333334  0.75000003  1
  Pb  Pb5  1  0.33333338  0.66666668  0.25000001  1
  Ge  Ge6  1  0.66666669  0.33333334  0.34691401  1
  Cs  Cs7  1  0.00000000  0.00000000  0.50000002  1
  Y  Y8  1  0.33333338  0.66666668  0.65308602  1
  Cr  Cr9  1  0.66666669  0.33333334  0.15308601  1
  Tm  Tm10  1  0.33333338  0.66666668  0.84691403  1
  Li  Li11  1  0.00000000  0.00000000  0.00000000  1
  F  F12  1  0.00000000  0.00000000  0.18706001  1
  Pt  Pt13  1  0.00000000  0.00000000  0.81294003  1
  S  S14  1  0.00000000  0.00000000  0.68706002  1
  Er  Er15  1  0.00000000  0.00000000  0.31294001  1
