# generated using pymatgen
data_AgGeMoAsWClO
_symmetry_space_group_name_H-M   'P 1'
_cell_length_a   4.68603611
_cell_length_b   4.68603611
_cell_length_c   7.71568394
_cell_angle_alpha   107.67813873
_cell_angle_beta   107.67813873
_cell_angle_gamma   90.00000000
_symmetry_Int_Tables_number   1
_chemical_formula_structural   AgGeMoAsWClO
_chemical_formula_sum   'Ag1 Ge1 Mo1 As1 W1 Cl1 O1'
_cell_volume   153.00872909
_cell_formula_units_Z   1
loop_
 _symmetry_equiv_pos_site_id
 _symmetry_equiv_pos_as_xyz
  1  'x, y, z'
loop_
 _atom_site_type_symbol
 _atom_site_label
 _atom_site_symmetry_multiplicity
 _atom_site_fract_x
 _atom_site_fract_y
 _atom_site_fract_z
 _atom_site_occupancy
  Ge  Ge0  1  0.35871701  0.35871700  0.71743403  1
  As  As1  1  0.64128301  0.64128299  0.28256604  1
  Cl  Cl2  1  0.00000000  0.00000000  0.00000000  1
  Ag  Ag3  1  0.16323800  0.16323800  0.32647601  1
  W  W4  1  0.83676201  0.83676199  0.67352405  1
  Mo  Mo5  1  1.00000000  0.50000000  0.00000004  1
  O  O6  1  0.49999999  0.00000000  0.00000001  1
