# generated using pymatgen
data_CsLiCeGdDyYPuThNpUMnRe2SiNiAsP2PtCl
_symmetry_space_group_name_H-M   'P 1'
_cell_length_a   5.86400366
_cell_length_b   6.03807116
_cell_length_c   8.41767883
_cell_angle_alpha   89.96695709
_cell_angle_beta   89.80928802
_cell_angle_gamma   89.95900726
_symmetry_Int_Tables_number   1
_chemical_formula_structural   CsLiCeGdDyYPuThNpUMnRe2SiNiAsP2PtCl
_chemical_formula_sum
'Cs1 Li1 Ce1 Gd1 Dy1 Y1 Pu1 Th1 Np1 U1 Mn1 Re2 Si1 Ni1 As1 P2 Pt1 Cl1'
_cell_volume   298.04526203
_cell_formula_units_Z   1
loop_
 _symmetry_equiv_pos_site_id
 _symmetry_equiv_pos_as_xyz
  1  'x, y, z'
loop_
 _atom_site_type_symbol
 _atom_site_label
 _atom_site_symmetry_multiplicity
 _atom_site_fract_x
 _atom_site_fract_y
 _atom_site_fract_z
 _atom_site_occupancy
  Pt  Pt0  1  0.51073444  0.54982514  0.25006633  1
  Ni  Ni1  1  0.48926558  0.45017484  0.74993371  1
  Th  Th2  1  0.98593174  0.04877272  0.24852819  1
  Re  Re3  1  0.01406828  0.95122727  0.75147184  1
  Pu  Pu4  1  0.50000001  0.00000000  0.00000001  1
  Ce  Ce5  1  0.00000000  0.49999999  0.50000001  1
  Mn  Mn6  1  0.00000000  0.49999999  -0.00000001  1
  Cl  Cl7  1  0.50000001  0.00000000  0.50000003  1
  U  U8  1  0.18612776  0.20385424  0.93733313  1
  P  P9  1  0.30971299  0.70760835  0.55395396  1
  Dy  Dy10  1  0.81387225  0.79614575  0.06266691  1
  As  As11  1  0.69028703  0.29239164  0.44604607  1
  Y  Y12  1  0.29421215  0.69598755  0.94978723  1
  Cs  Cs13  1  0.20458019  0.19163696  0.56350111  1
  Np  Np14  1  0.70578787  0.30401244  0.05021281  1
  Re  Re15  1  0.79541982  0.80836303  0.43649892  1
  Si  Si16  1  0.38068452  0.96629139  0.25818189  1
  Gd  Gd17  1  0.09819106  0.44156409  0.24232631  1
  P  P18  1  0.61931550  0.03370860  0.74181815  1
  Li  Li19  1  0.90180895  0.55843589  0.75767372  1
