# generated using pymatgen
data_LiPrGdHo2HfThScNeNb
_symmetry_space_group_name_H-M   'P 1'
_cell_length_a   6.55048466
_cell_length_b   6.55048466
_cell_length_c   6.55048466
_cell_angle_alpha   60.00000000
_cell_angle_beta   60.00000000
_cell_angle_gamma   60.00000000
_symmetry_Int_Tables_number   1
_chemical_formula_structural   LiPrGdHo2HfThScNeNb
_chemical_formula_sum   'Li1 Pr1 Gd1 Ho2 Th1 Hf1 Sc1 Ne1 Nb1'
_cell_volume   198.74916075
_cell_formula_units_Z   1
loop_
 _symmetry_equiv_pos_site_id
 _symmetry_equiv_pos_as_xyz
  1  'x, y, z'
loop_
 _atom_site_type_symbol
 _atom_site_label
 _atom_site_symmetry_multiplicity
 _atom_site_fract_x
 _atom_site_fract_y
 _atom_site_fract_z
 _atom_site_occupancy
  Th  Th0  1  0.24999999  0.24999999  0.24999999  1
  Gd  Gd1  1  0.74999998  0.74999998  0.74999998  1
  Ho  Ho2  1  0.49999999  0.49999999  0.49999999  1
  Pr  Pr3  1  0.00000000  0.00000000  0.00000000  1
  Sc  Sc4  1  0.21817699  0.78182298  0.21817699  1
  Hf  Hf5  1  0.21817699  0.21817699  0.78182298  1
  Ho  Ho6  1  0.78182298  0.21817699  0.78182298  1
  Ne  Ne7  1  0.21817699  0.78182298  0.78182298  1
  Nb  Nb8  1  0.78182298  0.21817699  0.21817699  1
  Li  Li9  1  0.78182298  0.78182298  0.21817699  1
