# generated using pymatgen
data_K2SrTbDyErTmThUVIn2GaAgAsRhSeHe
_symmetry_space_group_name_H-M   'P 1'
_cell_length_a   5.55962610
_cell_length_b   5.55962658
_cell_length_c   12.43273926
_cell_angle_alpha   90.00000000
_cell_angle_beta   90.00000000
_cell_angle_gamma   120.00000000
_symmetry_Int_Tables_number   1
_chemical_formula_structural   K2SrTbDyErTmThUVIn2GaAgAsRhSeHe
_chemical_formula_sum
'K2 Sr1 Tb1 Dy1 Er1 Tm1 Th1 U1 V1 In2 Ga1 Ag1 As1 Rh1 Se1 He1'
_cell_volume   332.80409781
_cell_formula_units_Z   1
loop_
 _symmetry_equiv_pos_site_id
 _symmetry_equiv_pos_as_xyz
  1  'x, y, z'
loop_
 _atom_site_type_symbol
 _atom_site_label
 _atom_site_symmetry_multiplicity
 _atom_site_fract_x
 _atom_site_fract_y
 _atom_site_fract_z
 _atom_site_occupancy
  Rh  Rh0  1  0.00000000  0.00000000  0.00000000  1
  Dy  Dy1  1  0.00000000  0.00000000  0.49999999  1
  K  K2  1  0.33333337  0.66666669  0.74999998  1
  As  As3  1  0.66666668  0.33333334  0.24999999  1
  Sr  Sr4  1  0.66666668  0.33333334  0.74999998  1
  U  U5  1  0.33333337  0.66666669  0.24999999  1
  Tb  Tb6  1  0.36330006  0.96037003  0.34110899  1
  In  In7  1  0.36330002  0.40293001  0.15889100  1
  Tm  Tm8  1  0.03963004  0.63670002  0.15889100  1
  Ag  Ag9  1  0.59707005  0.96037003  0.15889100  1
  V  V10  1  0.96037001  0.36330001  0.65889099  1
  K  K11  1  0.59707003  0.63670002  0.34110899  1
  Se  Se12  1  0.63670003  0.59707002  0.65889099  1
  Er  Er13  1  0.63669999  0.03963000  0.84110898  1
  Ga  Ga14  1  0.03963003  0.40293001  0.34110899  1
  In  In15  1  0.40293002  0.36330001  0.84110898  1
  Th  Th16  1  0.96037002  0.59707002  0.84110898  1
  He  He17  1  0.40293000  0.03963000  0.65889099  1
