# generated using pymatgen
data_LiTbDyMgBe2CrInCoHg(IKr)2
_symmetry_space_group_name_H-M   'P 1'
_cell_length_a   4.15341902
_cell_length_b   6.04554081
_cell_length_c   16.83551407
_cell_angle_alpha   90.00000000
_cell_angle_beta   90.00000000
_cell_angle_gamma   90.00000000
_symmetry_Int_Tables_number   1
_chemical_formula_structural   LiTbDyMgBe2CrInCoHg(IKr)2
_chemical_formula_sum   'Li1 Tb1 Dy1 Mg1 Be2 Cr1 In1 Co1 Hg1 I2 Kr2'
_cell_volume   422.73410442
_cell_formula_units_Z   1
loop_
 _symmetry_equiv_pos_site_id
 _symmetry_equiv_pos_as_xyz
  1  'x, y, z'
loop_
 _atom_site_type_symbol
 _atom_site_label
 _atom_site_symmetry_multiplicity
 _atom_site_fract_x
 _atom_site_fract_y
 _atom_site_fract_z
 _atom_site_occupancy
  Tb  Tb0  1  0.50000000  0.48969902  0.93307505  1
  Be  Be1  1  0.00000000  0.98969903  0.06692500  1
  I  I2  1  0.00000000  0.98314503  0.31579702  1
  Kr  Kr3  1  0.50000000  0.50757202  0.44408802  1
  Mg  Mg4  1  0.00000000  0.00757200  0.55591203  1
  I  I5  1  0.50000000  0.48314502  0.68420304  1
  Dy  Dy6  1  0.00000000  0.77040702  0.92936705  1
  Hg  Hg7  1  0.50000000  0.27040701  0.07063300  1
  Co  Co8  1  0.00000000  0.73345602  0.19004201  1
  Kr  Kr9  1  0.50000000  0.26750001  0.30932502  1
  Cr  Cr10  1  0.00000000  0.76750002  0.69067504  1
  Li  Li11  1  0.50000000  0.23345601  0.80995804  1
  Be  Be12  1  0.00000000  0.74822102  0.43930502  1
  In  In13  1  0.50000000  0.24822101  0.56069503  1
