# generated using pymatgen
data_ScAsKrN
_symmetry_space_group_name_H-M   'P 1'
_cell_length_a   4.08742523
_cell_length_b   4.33835411
_cell_length_c   5.87750244
_cell_angle_alpha   68.34207153
_cell_angle_beta   90.00000000
_cell_angle_gamma   90.00000000
_symmetry_Int_Tables_number   1
_chemical_formula_structural   ScAsKrN
_chemical_formula_sum   'Sc1 As1 Kr1 N1'
_cell_volume   96.86616167
_cell_formula_units_Z   1
loop_
 _symmetry_equiv_pos_site_id
 _symmetry_equiv_pos_as_xyz
  1  'x, y, z'
loop_
 _atom_site_type_symbol
 _atom_site_label
 _atom_site_symmetry_multiplicity
 _atom_site_fract_x
 _atom_site_fract_y
 _atom_site_fract_z
 _atom_site_occupancy
  Sc  Sc0  1  0.24999999  0.86064397  0.27871200  1
  Kr  Kr1  1  0.74999996  0.13935600  0.72128798  1
  As  As2  1  0.24999999  0.57607998  0.84783998  1
  N  N3  1  0.74999996  0.42391999  0.15216000  1
