# generated using pymatgen
data_KRbEuErNpBeTlVInCoGeBiSbTeHIrPtSeNCl
_symmetry_space_group_name_H-M   'P 1'
_cell_length_a   7.68866205
_cell_length_b   9.09494209
_cell_length_c   9.09494209
_cell_angle_alpha   90.00000000
_cell_angle_beta   90.00000000
_cell_angle_gamma   90.00000000
_symmetry_Int_Tables_number   1
_chemical_formula_structural   KRbEuErNpBeTlVInCoGeBiSbTeHIrPtSeNCl
_chemical_formula_sum
;
K1 Rb1 Eu1 Er1 Np1 Be1 Tl1 V1 In1 Co1 Ge1 Bi1 Sb1 Te1 Ir1 H1 Pt1 Se1
N1 Cl1
;
_cell_volume   635.99052983
_cell_formula_units_Z   1
loop_
 _symmetry_equiv_pos_site_id
 _symmetry_equiv_pos_as_xyz
  1  'x, y, z'
loop_
 _atom_site_type_symbol
 _atom_site_label
 _atom_site_symmetry_multiplicity
 _atom_site_fract_x
 _atom_site_fract_y
 _atom_site_fract_z
 _atom_site_occupancy
  Cl  Cl0  1  0.00000000  0.49999999  0.49999999  1
  In  In1  1  0.50000000  0.49999999  0.49999999  1
  Pt  Pt2  1  0.99999999  0.26309200  0.08390500  1
  Se  Se3  1  0.99999999  0.73690799  0.91609499  1
  Co  Co4  1  0.50000000  0.08390500  0.73690799  1
  V  V5  1  0.50000000  0.91609499  0.26309200  1
  Ir  Ir6  1  0.00000000  0.00000000  0.49999999  1
  Tl  Tl7  1  0.50000000  0.49999999  0.00000000  1
  Eu  Eu8  1  0.24930000  0.56322499  0.20238400  1
  Np  Np9  1  0.24930000  0.43677500  0.79761599  1
  Bi  Bi10  1  0.74929999  0.20238400  0.43677500  1
  Be  Be11  1  0.74929999  0.79761599  0.56322499  1
  Ge  Ge12  1  0.75069999  0.43677500  0.79761599  1
  H  H13  1  0.75069999  0.56322499  0.20238400  1
  N  N14  1  0.25070000  0.79761599  0.56322499  1
  K  K15  1  0.25070000  0.20238400  0.43677500  1
  Er  Er16  1  0.50000000  0.20692600  0.06349800  1
  Rb  Rb17  1  0.50000000  0.79307399  0.93650199  1
  Te  Te18  1  0.00000000  0.06349800  0.79307399  1
  Sb  Sb19  1  -0.00000000  0.93650199  0.20692600  1
