# generated using pymatgen
data_LaYbSmHoUTc3TeAsIrPtRhKrNF
_symmetry_space_group_name_H-M   'P 1'
_cell_length_a   5.71021557
_cell_length_b   5.71021557
_cell_length_c   5.77175140
_cell_angle_alpha   60.35205460
_cell_angle_beta   60.35205460
_cell_angle_gamma   60.00000381
_symmetry_Int_Tables_number   1
_chemical_formula_structural   LaYbSmHoUTc3TeAsIrPtRhKrNF
_chemical_formula_sum
'La1 Yb1 Sm1 Ho1 U1 Tc3 Te1 As1 Ir1 Pt1 Rh1 Kr1 N1 F1'
_cell_volume   133.77910052
_cell_formula_units_Z   1
loop_
 _symmetry_equiv_pos_site_id
 _symmetry_equiv_pos_as_xyz
  1  'x, y, z'
loop_
 _atom_site_type_symbol
 _atom_site_label
 _atom_site_symmetry_multiplicity
 _atom_site_fract_x
 _atom_site_fract_y
 _atom_site_fract_z
 _atom_site_occupancy
  La  La0  1  0.00000000  0.50000001  0.49999998  1
  F  F1  1  0.50000001  0.00000000  0.49999998  1
  Tc  Tc2  1  0.50000001  0.50000001  0.49999996  1
  Pt  Pt3  1  0.00000000  0.00000000  0.50000000  1
  U  U4  1  0.50000001  0.50000001  -0.00000004  1
  Ho  Ho5  1  0.00000000  0.50000001  -0.00000002  1
  Tc  Tc6  1  0.50000001  0.00000000  -0.00000002  1
  Sm  Sm7  1  0.00000000  0.00000000  0.00000000  1
  Tc  Tc8  1  0.24479701  0.73047601  0.77992996  1
  N  N9  1  0.75520302  0.75520301  0.22006994  1
  As  As10  1  0.26087601  0.26087600  0.21737198  1
  Te  Te11  1  0.26952401  0.75520301  0.22006996  1
  Rh  Rh12  1  0.73047602  0.24479700  0.77992996  1
  Yb  Yb13  1  0.73912402  0.73912401  0.78262794  1
  Ir  Ir14  1  0.24479701  0.24479700  0.77992998  1
  Kr  Kr15  1  0.75520302  0.26952401  0.22006996  1
