# generated using pymatgen
data_NeCsLiPmNdHoMgAlZnCrCdSi2SbMoRuSeXe
_symmetry_space_group_name_H-M   'P 1'
_cell_length_a   5.14239407
_cell_length_b   6.89842892
_cell_length_c   7.42076254
_cell_angle_alpha   90.00000000
_cell_angle_beta   90.95213318
_cell_angle_gamma   90.00000000
_symmetry_Int_Tables_number   1
_chemical_formula_structural   NeCsLiPmNdHoMgAlZnCrCdSi2SbMoRuSeXe
_chemical_formula_sum
'Ne1 Cs1 Li1 Pm1 Nd1 Ho1 Mg1 Al1 Zn1 Cr1 Cd1 Si2 Sb1 Mo1 Ru1 Se1 Xe1'
_cell_volume   263.21104742
_cell_formula_units_Z   1
loop_
 _symmetry_equiv_pos_site_id
 _symmetry_equiv_pos_as_xyz
  1  'x, y, z'
loop_
 _atom_site_type_symbol
 _atom_site_label
 _atom_site_symmetry_multiplicity
 _atom_site_fract_x
 _atom_site_fract_y
 _atom_site_fract_z
 _atom_site_occupancy
  Ne  Ne0  1  0.00000000  0.00000000  0.00000000  1
  Se  Se1  1  0.49999999  0.50000001  0.49999998  1
  Cd  Cd2  1  0.48531299  0.17465800  0.80003399  1
  Cr  Cr3  1  0.98531299  0.32534200  0.30003396  1
  Sb  Sb4  1  0.51468699  0.82534201  0.19996598  1
  Cs  Cs5  1  0.01468700  0.67465801  0.69996601  1
  Zn  Zn6  1  0.69878899  0.16305600  0.98721198  1
  Xe  Xe7  1  0.19878900  0.33694400  0.48721200  1
  Al  Al8  1  0.30121100  0.83694401  0.01278799  1
  Pm  Pm9  1  0.80121099  0.66305601  0.51278797  1
  Mg  Mg10  1  0.54909999  0.41556401  0.74420898  1
  Li  Li11  1  0.04910000  0.08443600  0.24420900  1
  Ho  Ho12  1  0.45089999  0.58443601  0.25579098  1
  Ru  Ru13  1  0.95089999  0.91556401  0.75579096  1
  Nd  Nd14  1  0.20059200  0.21838700  0.91588900  1
  Si  Si15  1  0.70059199  0.28161300  0.41588897  1
  Si  Si16  1  0.79940799  0.78161301  0.08411096  1
  Mo  Mo17  1  0.29940800  0.71838701  0.58411099  1
