# generated using pymatgen
data_LaTbCeZrNpPaTi2AlCrInHPtPbAuCSeNe
_symmetry_space_group_name_H-M   'P 1'
_cell_length_a   6.03400707
_cell_length_b   6.03400707
_cell_length_c   13.53368664
_cell_angle_alpha   90.00000000
_cell_angle_beta   90.00000000
_cell_angle_gamma   90.00000000
_symmetry_Int_Tables_number   1
_chemical_formula_structural   LaTbCeZrNpPaTi2AlCrInHPtPbAuCSeNe
_chemical_formula_sum
'La1 Tb1 Ce1 Zr1 Np1 Pa1 Ti2 Al1 Cr1 In1 H1 Pt1 Pb1 Au1 C1 Se1 Ne1'
_cell_volume   492.75126316
_cell_formula_units_Z   1
loop_
 _symmetry_equiv_pos_site_id
 _symmetry_equiv_pos_as_xyz
  1  'x, y, z'
loop_
 _atom_site_type_symbol
 _atom_site_label
 _atom_site_symmetry_multiplicity
 _atom_site_fract_x
 _atom_site_fract_y
 _atom_site_fract_z
 _atom_site_occupancy
  Ce  Ce0  1  0.26082400  0.26082400  0.00000000  1
  H  H1  1  0.73917599  0.73917599  0.00000000  1
  Zr  Zr2  1  0.73917599  0.26082400  0.50000001  1
  Pa  Pa3  1  0.26082400  0.73917599  0.50000001  1
  Pb  Pb4  1  0.00000000  0.00000000  0.25000001  1
  Al  Al5  1  0.00000000  0.00000000  0.75000002  1
  Cr  Cr6  1  -0.00000000  0.49999999  0.25000001  1
  Ti  Ti7  1  -0.00000000  0.49999999  0.75000002  1
  Pt  Pt8  1  0.49999999  0.00000000  0.75000002  1
  C  C9  1  0.49999999  0.00000000  0.25000001  1
  Se  Se10  1  0.21542100  0.21542100  0.35358801  1
  In  In11  1  0.78457899  0.78457899  0.64641202  1
  La  La12  1  0.78457899  0.78457899  0.35358801  1
  Np  Np13  1  0.78457899  0.21542100  0.85358802  1
  Ne  Ne14  1  0.78457899  0.21542100  0.14641200  1
  Ti  Ti15  1  0.21542100  0.21542100  0.64641202  1
  Au  Au16  1  0.21542100  0.78457899  0.14641200  1
  Tb  Tb17  1  0.21542100  0.78457899  0.85358802  1
