# generated using pymatgen
data_CsKAcLaTbNdMnTlCrGaSiAgSnHgGeBiTeMoPCl
_symmetry_space_group_name_H-M   'P 1'
_cell_length_a   6.91930199
_cell_length_b   7.87961340
_cell_length_c   10.64013195
_cell_angle_alpha   90.00000000
_cell_angle_beta   90.00000000
_cell_angle_gamma   105.37339020
_symmetry_Int_Tables_number   1
_chemical_formula_structural   CsKAcLaTbNdMnTlCrGaSiAgSnHgGeBiTeMoPCl
_chemical_formula_sum
;
Cs1 K1 Ac1 Tb1 La1 Nd1 Mn1 Tl1 Cr1 Ga1 Si1 Ag1 Sn1 Hg1 Ge1 Bi1 Te1 Mo1
P1 Cl1
;
_cell_volume   559.35783872
_cell_formula_units_Z   1
loop_
 _symmetry_equiv_pos_site_id
 _symmetry_equiv_pos_as_xyz
  1  'x, y, z'
loop_
 _atom_site_type_symbol
 _atom_site_label
 _atom_site_symmetry_multiplicity
 _atom_site_fract_x
 _atom_site_fract_y
 _atom_site_fract_z
 _atom_site_occupancy
  Cl  Cl0  1  0.27834900  0.11795100  0.56895700  1
  Ge  Ge1  1  0.22165102  0.88204899  0.06895700  1
  Ga  Ga2  1  0.72165102  0.88204899  0.43104300  1
  Ag  Ag3  1  0.77834900  0.11795100  0.93104300  1
  Tl  Tl4  1  0.98604201  0.29770500  0.28081100  1
  Cr  Cr5  1  0.48604201  0.29770500  0.21918900  1
  Nd  Nd6  1  0.01395802  0.70229500  0.71918900  1
  K  K7  1  0.51395802  0.70229500  0.78081100  1
  P  P8  1  0.09354402  0.94555599  0.83476900  1
  Sn  Sn9  1  0.79742401  0.48330400  0.23210100  1
  Te  Te10  1  0.70257601  0.51669600  0.73210100  1
  Si  Si11  1  0.20257601  0.51669600  0.76789900  1
  Mo  Mo12  1  0.92707601  0.20735600  0.47984700  1
  Cs  Cs13  1  0.57292402  0.79264399  0.97984700  1
  Hg  Hg14  1  0.07292402  0.79264399  0.52015300  1
  Bi  Bi15  1  0.42707601  0.20735600  0.02015300  1
  Ac  Ac16  1  0.90645600  0.05444400  0.16523100  1
  Mn  Mn17  1  0.59354403  0.94555599  0.66523100  1
  Tb  Tb18  1  0.40645600  0.05444400  0.33476900  1
  La  La19  1  0.29742401  0.48330400  0.26789900  1
