# generated using pymatgen
data_RbSrPm2Er2PuZrInTeIrPbBrO
_symmetry_space_group_name_H-M   'P 1'
_cell_length_a   3.04639506
_cell_length_b   5.15533209
_cell_length_c   10.09651279
_cell_angle_alpha   89.99930573
_cell_angle_beta   90.00014496
_cell_angle_gamma   72.81380463
_symmetry_Int_Tables_number   1
_chemical_formula_structural   RbSrPm2Er2PuZrInTeIrPbBrO
_chemical_formula_sum
'Rb1 Sr1 Pm2 Er2 Pu1 Zr1 In1 Te1 Ir1 Pb1 Br1 O1'
_cell_volume   151.48742611
_cell_formula_units_Z   1
loop_
 _symmetry_equiv_pos_site_id
 _symmetry_equiv_pos_as_xyz
  1  'x, y, z'
loop_
 _atom_site_type_symbol
 _atom_site_label
 _atom_site_symmetry_multiplicity
 _atom_site_fract_x
 _atom_site_fract_y
 _atom_site_fract_z
 _atom_site_occupancy
  Sr  Sr0  1  0.61143299  0.77709302  0.74999901  1
  Ir  Ir1  1  0.38856799  0.22289301  0.24999801  1
  Pu  Pu2  1  0.86569898  0.26857801  0.93135302  1
  Er  Er3  1  0.13434000  0.73137102  0.43136000  1
  Rb  Rb4  1  0.13432300  0.73140802  0.06864499  1
  Pm  Pm5  1  0.86560698  0.26873601  0.56867002  1
  Zr  Zr6  1  0.05765500  0.88479203  0.25000000  1
  Pb  Pb7  1  0.94235298  0.11518700  0.74999302  1
  Pm  Pm8  1  0.50001299  0.99997803  0.99998901  1
  O  O9  1  0.49999699  0.00000000  0.50000101  1
  Te  Te10  1  0.76473199  0.47062801  0.39301601  1
  In  In11  1  0.23525300  0.52938302  0.60699401  1
  Er  Er12  1  0.23527700  0.52934402  0.89300401  1
  Br  Br13  1  0.76474999  0.47060901  0.10697800  1
