# generated using pymatgen
data_La2CePmSmNpTcGe2MoAsAuSXeNCl
_symmetry_space_group_name_H-M   'P 1'
_cell_length_a   6.71456385
_cell_length_b   7.13403320
_cell_length_c   7.91523504
_cell_angle_alpha   90.00000000
_cell_angle_beta   90.00000000
_cell_angle_gamma   90.00000000
_symmetry_Int_Tables_number   1
_chemical_formula_structural   La2CePmSmNpTcGe2MoAsAuSXeNCl
_chemical_formula_sum
'La2 Ce1 Pm1 Sm1 Np1 Tc1 Ge2 Mo1 As1 Au1 S1 Xe1 N1 Cl1'
_cell_volume   379.15496708
_cell_formula_units_Z   1
loop_
 _symmetry_equiv_pos_site_id
 _symmetry_equiv_pos_as_xyz
  1  'x, y, z'
loop_
 _atom_site_type_symbol
 _atom_site_label
 _atom_site_symmetry_multiplicity
 _atom_site_fract_x
 _atom_site_fract_y
 _atom_site_fract_z
 _atom_site_occupancy
  Xe  Xe0  1  0.01578900  0.14503400  -0.00000000  1
  N  N1  1  0.51578901  0.85496598  0.50000000  1
  Cl  Cl2  1  0.49560801  0.32104999  0.24351300  1
  Np  Np3  1  0.49560801  0.32104999  0.75648700  1
  Tc  Tc4  1  0.99560802  0.67894998  0.74351300  1
  Ge  Ge5  1  0.99560802  0.67894998  0.25648700  1
  As  As6  1  0.01228800  0.17476000  0.50000000  1
  Sm  Sm7  1  0.51228801  0.82523998  0.00000000  1
  La  La8  1  0.17651800  0.82072498  -0.00000000  1
  Pm  Pm9  1  0.61865901  0.66666665  0.76896000  1
  Ce  Ce10  1  0.62997201  0.12020200  0.00000000  1
  La  La11  1  0.67651802  0.17927499  0.50000000  1
  Ge  Ge12  1  0.11865900  0.33333332  0.73104000  1
  Au  Au13  1  0.61865901  0.66666665  0.23104000  1
  Mo  Mo14  1  0.12997200  0.87979797  0.50000000  1
  S  S15  1  0.11865900  0.33333332  0.26896000  1
