# generated using pymatgen
data_Cs2BaAcCePmMgScAlCdInSiMoS
_symmetry_space_group_name_H-M   'P 1'
_cell_length_a   5.12790728
_cell_length_b   5.12790728
_cell_length_c   7.40592909
_cell_angle_alpha   104.98544312
_cell_angle_beta   104.98544312
_cell_angle_gamma   96.06775665
_symmetry_Int_Tables_number   1
_chemical_formula_structural   Cs2BaAcCePmMgScAlCdInSiMoS
_chemical_formula_sum
'Cs2 Ba1 Ac1 Ce1 Pm1 Mg1 Sc1 Al1 Cd1 In1 Si1 Mo1 S1'
_cell_volume   178.58722892
_cell_formula_units_Z   1
loop_
 _symmetry_equiv_pos_site_id
 _symmetry_equiv_pos_as_xyz
  1  'x, y, z'
loop_
 _atom_site_type_symbol
 _atom_site_label
 _atom_site_symmetry_multiplicity
 _atom_site_fract_x
 _atom_site_fract_y
 _atom_site_fract_z
 _atom_site_occupancy
  S  S0  1  0.95102908  0.50008103  0.47079506  1
  Al  Al1  1  0.50008110  0.95102906  0.97079506  1
  Cs  Cs2  1  0.94694805  0.09633701  0.76468903  1
  In  In3  1  0.09633708  0.94694806  0.26468906  1
  Pm  Pm4  1  0.25903103  0.17440001  0.87890501  1
  Ce  Ce5  1  0.86467810  0.78525005  0.65519607  1
  Cd  Cd6  1  0.78525010  0.86467805  0.15519608  1
  Cs  Cs7  1  0.17440003  0.25903102  0.37890502  1
  Sc  Sc8  1  0.15826107  0.77751405  0.41113305  1
  Ba  Ba9  1  0.28096808  0.88414305  0.13146406  1
  Mo  Mo10  1  0.88414306  0.28096802  0.63146405  1
  Mg  Mg11  1  0.77751405  0.15826101  0.91113303  1
  Ac  Ac12  1  0.68300206  0.40435102  0.28982805  1
  Si  Si13  1  0.40435107  0.68300204  0.78982805  1
