# generated using pymatgen
data_KRbLa2Ce2PmHfZrTaTiCrGeWKrOFHe
_symmetry_space_group_name_H-M   'P 1'
_cell_length_a   7.19153023
_cell_length_b   8.72378826
_cell_length_c   9.66825581
_cell_angle_alpha   90.00000000
_cell_angle_beta   111.83374023
_cell_angle_gamma   90.00000000
_symmetry_Int_Tables_number   1
_chemical_formula_structural   KRbLa2Ce2PmHfZrTaTiCrGeWKrOFHe
_chemical_formula_sum
'Rb1 K1 La2 Ce2 Pm1 Hf1 Zr1 Ta1 Ti1 Cr1 Ge1 W1 Kr1 O1 F1 He1'
_cell_volume   563.05064326
_cell_formula_units_Z   1
loop_
 _symmetry_equiv_pos_site_id
 _symmetry_equiv_pos_as_xyz
  1  'x, y, z'
loop_
 _atom_site_type_symbol
 _atom_site_label
 _atom_site_symmetry_multiplicity
 _atom_site_fract_x
 _atom_site_fract_y
 _atom_site_fract_z
 _atom_site_occupancy
  Ti  Ti0  1  0.52825098  0.74999998  0.05650200  1
  O  O1  1  0.47174899  0.24999999  0.94349804  1
  Zr  Zr2  1  0.24104299  0.74999998  0.48208602  1
  Rb  Rb3  1  0.75895698  0.24999999  0.51791403  1
  F  F4  1  0.89027797  0.74999998  0.78055604  1
  He  He5  1  0.10972200  0.24999999  0.21944401  1
  Ta  Ta6  1  0.75591598  0.74999998  0.51183203  1
  K  K7  1  0.24408399  0.24999999  0.48816802  1
  Ce  Ce8  1  0.65182498  0.55777898  0.77043504  1
  Cr  Cr9  1  0.88138997  0.44222099  0.22956501  1
  W  W10  1  0.65182498  0.94222097  0.77043504  1
  Ge  Ge11  1  0.88138997  0.05777900  0.22956501  1
  Kr  Kr12  1  0.34817499  0.44222099  0.22956501  1
  Ce  Ce13  1  0.11861000  0.55777898  0.77043504  1
  Pm  Pm14  1  0.34817499  0.05777900  0.22956501  1
  La  La15  1  0.11861000  0.94222097  0.77043504  1
  Hf  Hf16  1  0.99103597  0.74999998  0.98207205  1
  La  La17  1  0.00896400  0.24999999  0.01792800  1
