# generated using pymatgen
data_KLaHoErThScPaAlGaFeReSi2TcGeSbIKrOF
_symmetry_space_group_name_H-M   'P 1'
_cell_length_a   4.56018400
_cell_length_b   4.56018400
_cell_length_c   11.68673706
_cell_angle_alpha   90.00000000
_cell_angle_beta   90.00000000
_cell_angle_gamma   90.00000000
_symmetry_Int_Tables_number   1
_chemical_formula_structural   KLaHoErThScPaAlGaFeReSi2TcGeSbIKrOF
_chemical_formula_sum
;
K1 La1 Ho1 Er1 Th1 Sc1 Pa1 Al1 Ga1 Fe1 Si2 Re1 Tc1 Ge1 Sb1 I1 Kr1 O1
F1
;
_cell_volume   243.02894762
_cell_formula_units_Z   1
loop_
 _symmetry_equiv_pos_site_id
 _symmetry_equiv_pos_as_xyz
  1  'x, y, z'
loop_
 _atom_site_type_symbol
 _atom_site_label
 _atom_site_symmetry_multiplicity
 _atom_site_fract_x
 _atom_site_fract_y
 _atom_site_fract_z
 _atom_site_occupancy
  I  I0  1  0.00000000  0.50000000  0.82089300  1
  O  O1  1  0.50000000  0.00000000  0.17910700  1
  Th  Th2  1  0.18147700  0.00000000  0.63052600  1
  Kr  Kr3  1  0.81852300  0.00000000  0.63052600  1
  Si  Si4  1  0.50000000  0.68147700  0.63052600  1
  Pa  Pa5  1  0.50000000  0.31852300  0.63052600  1
  F  F6  1  0.31852300  0.50000000  0.36947400  1
  Fe  Fe7  1  0.68147700  0.50000000  0.36947400  1
  Al  Al8  1  0.00000000  0.81852300  0.36947400  1
  Ga  Ga9  1  0.00000000  0.18147700  0.36947400  1
  Ge  Ge10  1  0.50000000  0.00000000  0.49120800  1
  Sb  Sb11  1  0.00000000  0.50000000  0.50879200  1
  Sc  Sc12  1  0.50000000  0.00000000  0.90653800  1
  Si  Si13  1  0.00000000  0.50000000  0.09346200  1
  Er  Er14  1  0.00000000  0.00000000  0.68167500  1
  Re  Re15  1  0.50000000  0.50000000  0.68167500  1
  K  K16  1  0.50000000  0.50000000  0.31832500  1
  La  La17  1  0.00000000  0.00000000  0.31832500  1
  Tc  Tc18  1  0.50000000  0.00000000  0.57418800  1
  Ho  Ho19  1  0.00000000  0.50000000  0.42581200  1
