# generated using pymatgen
data_LuScUTiAgOsPbBr
_symmetry_space_group_name_H-M   'P 1'
_cell_length_a   3.90323305
_cell_length_b   3.90323305
_cell_length_c   9.69547081
_cell_angle_alpha   90.00000000
_cell_angle_beta   90.00000000
_cell_angle_gamma   90.00000000
_symmetry_Int_Tables_number   1
_chemical_formula_structural   LuScUTiAgOsPbBr
_chemical_formula_sum   'Lu1 Sc1 U1 Ti1 Ag1 Os1 Pb1 Br1'
_cell_volume   147.71271081
_cell_formula_units_Z   1
loop_
 _symmetry_equiv_pos_site_id
 _symmetry_equiv_pos_as_xyz
  1  'x, y, z'
loop_
 _atom_site_type_symbol
 _atom_site_label
 _atom_site_symmetry_multiplicity
 _atom_site_fract_x
 _atom_site_fract_y
 _atom_site_fract_z
 _atom_site_occupancy
  Ag  Ag0  1  0.00000000  0.00000000  0.00000000  1
  Pb  Pb1  1  0.49999999  0.49999999  0.25397300  1
  Br  Br2  1  0.49999999  0.49999999  0.74602701  1
  Sc  Sc3  1  0.00000000  0.00000000  0.50000001  1
  U  U4  1  0.49999999  0.00000000  0.86261302  1
  Lu  Lu5  1  0.00000000  0.49999999  0.86261302  1
  Ti  Ti6  1  0.49999999  0.00000000  0.13738700  1
  Os  Os7  1  0.00000000  0.49999999  0.13738700  1
