# generated using pymatgen
data_YThScUTiGaCuTcNiHBrN
_symmetry_space_group_name_H-M   'P 1'
_cell_length_a   3.80467796
_cell_length_b   3.80467796
_cell_length_c   10.85243893
_cell_angle_alpha   90.00000000
_cell_angle_beta   90.00000000
_cell_angle_gamma   90.00000000
_symmetry_Int_Tables_number   1
_chemical_formula_structural   YThScUTiGaCuTcNiHBrN
_chemical_formula_sum   'Y1 Th1 Sc1 U1 Ti1 Ga1 Cu1 Tc1 Ni1 H1 Br1 N1'
_cell_volume   157.09528715
_cell_formula_units_Z   1
loop_
 _symmetry_equiv_pos_site_id
 _symmetry_equiv_pos_as_xyz
  1  'x, y, z'
loop_
 _atom_site_type_symbol
 _atom_site_label
 _atom_site_symmetry_multiplicity
 _atom_site_fract_x
 _atom_site_fract_y
 _atom_site_fract_z
 _atom_site_occupancy
  Y  Y0  1  0.50000000  0.50000000  0.25494000  1
  Cu  Cu1  1  0.50000000  0.50000000  0.74506001  1
  Tc  Tc2  1  0.00000000  0.00000000  0.00000000  1
  Th  Th3  1  0.00000000  0.00000000  0.50000000  1
  N  N4  1  0.00000000  0.50000000  0.37197700  1
  Ni  Ni5  1  0.00000000  0.50000000  0.86472201  1
  H  H6  1  0.50000000  0.00000000  0.39477800  1
  Ti  Ti7  1  0.50000000  0.00000000  0.88033101  1
  U  U8  1  0.50000000  0.00000000  0.13527800  1
  Br  Br9  1  0.50000000  0.00000000  0.62802300  1
  Ga  Ga10  1  0.00000000  0.50000000  0.11966900  1
  Sc  Sc11  1  0.00000000  0.50000000  0.60522200  1
