# generated using pymatgen
data_YReBPPb
_symmetry_space_group_name_H-M   'P 1'
_cell_length_a   4.18074989
_cell_length_b   4.18150902
_cell_length_c   5.22506189
_cell_angle_alpha   90.00000000
_cell_angle_beta   90.00000000
_cell_angle_gamma   119.99399567
_symmetry_Int_Tables_number   1
_chemical_formula_structural   YReBPPb
_chemical_formula_sum   'Y1 Re1 B1 P1 Pb1'
_cell_volume   79.11076228
_cell_formula_units_Z   1
loop_
 _symmetry_equiv_pos_site_id
 _symmetry_equiv_pos_as_xyz
  1  'x, y, z'
loop_
 _atom_site_type_symbol
 _atom_site_label
 _atom_site_symmetry_multiplicity
 _atom_site_fract_x
 _atom_site_fract_y
 _atom_site_fract_z
 _atom_site_occupancy
  P  P0  1  0.33333333  0.66666665  0.75000002  1
  Pb  Pb1  1  0.99997701  0.99995397  0.49494701  1
  Y  Y2  1  0.99997701  0.99995397  0.00505300  1
  Re  Re3  1  0.33333333  0.66666665  0.25000001  1
  B  B4  1  0.66666668  0.33333332  0.25000001  1
