# generated using pymatgen
data_Na2CaAcTbNbZnSi
_symmetry_space_group_name_H-M   'P 1'
_cell_length_a   4.38303280
_cell_length_b   4.38303280
_cell_length_c   10.22410870
_cell_angle_alpha   90.00000000
_cell_angle_beta   90.00000000
_cell_angle_gamma   90.00000000
_symmetry_Int_Tables_number   1
_chemical_formula_structural   Na2CaAcTbNbZnSi
_chemical_formula_sum   'Na2 Ca1 Ac1 Tb1 Nb1 Zn1 Si1'
_cell_volume   196.41511205
_cell_formula_units_Z   1
loop_
 _symmetry_equiv_pos_site_id
 _symmetry_equiv_pos_as_xyz
  1  'x, y, z'
loop_
 _atom_site_type_symbol
 _atom_site_label
 _atom_site_symmetry_multiplicity
 _atom_site_fract_x
 _atom_site_fract_y
 _atom_site_fract_z
 _atom_site_occupancy
  Na  Na0  1  0.00000000  0.50000002  0.74995302  1
  Nb  Nb1  1  0.50000002  0.00000000  0.25004701  1
  Zn  Zn2  1  0.50000002  0.50000002  0.50000001  1
  Ca  Ca3  1  0.00000000  0.00000000  0.50000001  1
  Ac  Ac4  1  0.50000002  0.50000002  0.00000000  1
  Si  Si5  1  0.00000000  0.00000000  0.00000000  1
  Na  Na6  1  0.00000000  0.50000002  0.34743901  1
  Tb  Tb7  1  0.50000002  0.00000000  0.65256102  1
