# generated using pymatgen
data_KNdYHfNiAgHgAuBrHe
_symmetry_space_group_name_H-M   'P 1'
_cell_length_a   4.07656384
_cell_length_b   4.07656336
_cell_length_c   13.93721008
_cell_angle_alpha   90.00000000
_cell_angle_beta   90.00000000
_cell_angle_gamma   120.00000763
_symmetry_Int_Tables_number   1
_chemical_formula_structural   KNdYHfNiAgHgAuBrHe
_chemical_formula_sum   'K1 Nd1 Y1 Hf1 Ni1 Ag1 Hg1 Au1 Br1 He1'
_cell_volume   200.58335386
_cell_formula_units_Z   1
loop_
 _symmetry_equiv_pos_site_id
 _symmetry_equiv_pos_as_xyz
  1  'x, y, z'
loop_
 _atom_site_type_symbol
 _atom_site_label
 _atom_site_symmetry_multiplicity
 _atom_site_fract_x
 _atom_site_fract_y
 _atom_site_fract_z
 _atom_site_occupancy
  Hg  Hg0  1  0.66666670  0.33333332  0.11762100  1
  Br  Br1  1  0.33333336  0.66666664  0.61762100  1
  Nd  Nd2  1  0.33333336  0.66666664  0.88237899  1
  He  He3  1  0.66666670  0.33333332  0.38237900  1
  Ag  Ag4  1  0.00000000  0.00000000  0.25000000  1
  K  K5  1  0.00000000  0.00000000  0.75000000  1
  Ni  Ni6  1  0.00000000  0.00000000  0.00000000  1
  Au  Au7  1  0.66666670  0.33333332  0.75000000  1
  Y  Y8  1  0.33333336  0.66666664  0.25000000  1
  Hf  Hf9  1  0.00000000  0.00000000  0.50000000  1
