# generated using pymatgen
data_KRbNaTa2BeFeIrPbKr
_symmetry_space_group_name_H-M   'P 1'
_cell_length_a   5.65127802
_cell_length_b   5.65127802
_cell_length_c   5.65127802
_cell_angle_alpha   61.69051361
_cell_angle_beta   61.69051361
_cell_angle_gamma   61.69051361
_symmetry_Int_Tables_number   1
_chemical_formula_structural   KRbNaTa2BeFeIrPbKr
_chemical_formula_sum   'Rb1 K1 Na1 Ta2 Be1 Fe1 Ir1 Pb1 Kr1'
_cell_volume   132.45829710
_cell_formula_units_Z   1
loop_
 _symmetry_equiv_pos_site_id
 _symmetry_equiv_pos_as_xyz
  1  'x, y, z'
loop_
 _atom_site_type_symbol
 _atom_site_label
 _atom_site_symmetry_multiplicity
 _atom_site_fract_x
 _atom_site_fract_y
 _atom_site_fract_z
 _atom_site_occupancy
  Ta  Ta0  1  0.24945500  0.24945500  0.24945500  1
  Be  Be1  1  0.75054501  0.75054501  0.75054499  1
  Ir  Ir2  1  0.50000001  0.50000001  0.49999999  1
  Pb  Pb3  1  0.00000000  0.00000000  0.00000000  1
  Rb  Rb4  1  0.66078901  0.24434400  0.84594800  1
  Ta  Ta5  1  0.24434400  0.84594802  0.66078899  1
  Fe  Fe6  1  0.84594801  0.66078901  0.24434397  1
  Kr  Kr7  1  0.33921100  0.75565601  0.15405198  1
  Na  Na8  1  0.15405200  0.33921101  0.75565601  1
  K  K9  1  0.75565601  0.15405200  0.33921099  1
