# generated using pymatgen
data_ThMgSbF
_symmetry_space_group_name_H-M   'P 1'
_cell_length_a   4.97815990
_cell_length_b   9.06210613
_cell_length_c   9.20356178
_cell_angle_alpha   85.73994446
_cell_angle_beta   74.30910492
_cell_angle_gamma   74.05770874
_symmetry_Int_Tables_number   1
_chemical_formula_structural   ThMgSbF
_chemical_formula_sum   'Th1 Mg1 Sb1 F1'
_cell_volume   384.35044522
_cell_formula_units_Z   1
loop_
 _symmetry_equiv_pos_site_id
 _symmetry_equiv_pos_as_xyz
  1  'x, y, z'
loop_
 _atom_site_type_symbol
 _atom_site_label
 _atom_site_symmetry_multiplicity
 _atom_site_fract_x
 _atom_site_fract_y
 _atom_site_fract_z
 _atom_site_occupancy
  F  F0  1  0.13251201  0.73497600  0.00000002  1
  Mg  Mg1  1  0.61748802  0.76502400  0.50000005  1
  Sb  Sb2  1  0.86748802  0.26502400  1.00000005  1
  Th  Th3  1  0.88251202  0.23497600  0.50000003  1
