# generated using pymatgen
data_CaCeNdSmEuZrUCdCoCuHRu2Xe
_symmetry_space_group_name_H-M   'P 1'
_cell_length_a   6.56267500
_cell_length_b   6.56267500
_cell_length_c   6.56267500
_cell_angle_alpha   60.00000000
_cell_angle_beta   60.00000000
_cell_angle_gamma   60.00000000
_symmetry_Int_Tables_number   1
_chemical_formula_structural   CaCeNdSmEuZrUCdCoCuHRu2Xe
_chemical_formula_sum
'Ca1 Ce1 Nd1 Sm1 Eu1 Zr1 U1 Cd1 Co1 Cu1 H1 Ru2 Xe1'
_cell_volume   199.86083354
_cell_formula_units_Z   1
loop_
 _symmetry_equiv_pos_site_id
 _symmetry_equiv_pos_as_xyz
  1  'x, y, z'
loop_
 _atom_site_type_symbol
 _atom_site_label
 _atom_site_symmetry_multiplicity
 _atom_site_fract_x
 _atom_site_fract_y
 _atom_site_fract_z
 _atom_site_occupancy
  Co  Co0  1  0.37500000  0.87500000  0.87500000  1
  Nd  Nd1  1  0.87500000  0.87500000  0.37500000  1
  Cd  Cd2  1  0.87500000  0.37500000  0.87500000  1
  Sm  Sm3  1  0.87500000  0.87500000  0.87500000  1
  Cu  Cu4  1  0.50000000  0.50000000  0.50000000  1
  Eu  Eu5  1  0.25000000  0.25000000  0.25000000  1
  H  H6  1  0.13655000  0.13655100  0.13655100  1
  Ce  Ce7  1  0.61345000  0.15965200  0.61344900  1
  U  U8  1  0.15965300  0.61344900  0.61344900  1
  Zr  Zr9  1  0.61345000  0.61344900  0.15965200  1
  Ru  Ru10  1  0.59034700  0.13655100  0.13655100  1
  Ca  Ca11  1  0.13655000  0.13655100  0.59034800  1
  Ru  Ru12  1  0.61345000  0.61344900  0.61344900  1
  Xe  Xe13  1  0.13655000  0.59034800  0.13655100  1
