# generated using pymatgen
data_CsEuScTaTlSiGeSbO
_symmetry_space_group_name_H-M   'P 1'
_cell_length_a   3.58864188
_cell_length_b   7.87980795
_cell_length_c   7.87980890
_cell_angle_alpha   119.99999237
_cell_angle_beta   90.00000000
_cell_angle_gamma   90.00000000
_symmetry_Int_Tables_number   1
_chemical_formula_structural   CsEuScTaTlSiGeSbO
_chemical_formula_sum   'Cs1 Eu1 Sc1 Ta1 Tl1 Si1 Ge1 Sb1 O1'
_cell_volume   192.97102537
_cell_formula_units_Z   1
loop_
 _symmetry_equiv_pos_site_id
 _symmetry_equiv_pos_as_xyz
  1  'x, y, z'
loop_
 _atom_site_type_symbol
 _atom_site_label
 _atom_site_symmetry_multiplicity
 _atom_site_fract_x
 _atom_site_fract_y
 _atom_site_fract_z
 _atom_site_occupancy
  Ge  Ge0  1  0.50000002  0.95706097  0.24961193  1
  Tl  Tl1  1  0.50000002  0.29255099  0.04293798  1
  O  O2  1  0.50000002  0.75038698  0.70744795  1
  Sc  Sc3  1  1.00000003  0.33596199  0.41448198  1
  Ta  Ta4  1  1.00000003  0.07852000  0.66403900  1
  Eu  Eu5  1  1.00000003  0.58551898  0.92148096  1
  Sb  Sb6  1  -0.00000000  0.66666665  0.33333329  1
  Cs  Cs7  1  0.50000002  0.33333332  0.66666665  1
  Si  Si8  1  0.00000000  0.00000000  0.00000000  1
