# generated using pymatgen
data_NeLaHoScTiGaSiBiAsPdPbClHe2
_symmetry_space_group_name_H-M   'P 1'
_cell_length_a   5.96555710
_cell_length_b   6.33362103
_cell_length_c   6.34892178
_cell_angle_alpha   90.00000000
_cell_angle_beta   90.00000000
_cell_angle_gamma   113.54711914
_symmetry_Int_Tables_number   1
_chemical_formula_structural   NeLaHoScTiGaSiBiAsPdPbClHe2
_chemical_formula_sum
'Ne1 La1 Ho1 Sc1 Ti1 Ga1 Si1 Bi1 As1 Pd1 Pb1 Cl1 He2'
_cell_volume   219.91019921
_cell_formula_units_Z   1
loop_
 _symmetry_equiv_pos_site_id
 _symmetry_equiv_pos_as_xyz
  1  'x, y, z'
loop_
 _atom_site_type_symbol
 _atom_site_label
 _atom_site_symmetry_multiplicity
 _atom_site_fract_x
 _atom_site_fract_y
 _atom_site_fract_z
 _atom_site_occupancy
  Ne  Ne0  1  0.80724199  0.06834300  0.36676501  1
  Cl  Cl1  1  0.80724196  0.56834300  0.13323500  1
  Pb  Pb2  1  0.19275797  0.43165700  0.86676503  1
  As  As3  1  0.19275794  0.93165701  0.63323502  1
  Sc  Sc4  1  0.67125297  0.43284400  0.61365602  1
  Pd  Pd5  1  0.32874699  0.06715600  0.11365600  1
  Ti  Ti6  1  0.67125293  0.93284401  0.88634403  1
  He  He7  1  0.32874696  0.56715600  0.38634401  1
  La  La8  1  -0.00000003  0.50000000  0.50000002  1
  He  He9  1  0.00000000  0.00000000  0.00000000  1
  Bi  Bi10  1  0.58511198  0.20965100  0.86212103  1
  Si  Si11  1  0.41488798  0.29034900  0.36212101  1
  Ho  Ho12  1  0.58511195  0.70965100  0.63787902  1
  Ga  Ga13  1  0.41488794  0.79034900  0.13787900  1
