# generated using pymatgen
data_KTbSnF
_symmetry_space_group_name_H-M   'P 1'
_cell_length_a   5.68420219
_cell_length_b   5.68420219
_cell_length_c   5.68420219
_cell_angle_alpha   60.00000000
_cell_angle_beta   60.00000000
_cell_angle_gamma   60.00000000
_symmetry_Int_Tables_number   1
_chemical_formula_structural   KTbSnF
_chemical_formula_sum   'K1 Tb1 Sn1 F1'
_cell_volume   129.86542943
_cell_formula_units_Z   1
loop_
 _symmetry_equiv_pos_site_id
 _symmetry_equiv_pos_as_xyz
  1  'x, y, z'
loop_
 _atom_site_type_symbol
 _atom_site_label
 _atom_site_symmetry_multiplicity
 _atom_site_fract_x
 _atom_site_fract_y
 _atom_site_fract_z
 _atom_site_occupancy
  K  K0  1  0.25000001  0.25000001  0.25000001  1
  Sn  Sn1  1  0.75000002  0.75000002  0.75000002  1
  Tb  Tb2  1  0.00000000  0.00000000  0.00000000  1
  F  F3  1  0.50000001  0.50000001  0.50000001  1
