# generated using pymatgen
data_SrGdHoNpMnTlReIrWS
_symmetry_space_group_name_H-M   'P 1'
_cell_length_a   9.08119297
_cell_length_b   9.08119297
_cell_length_c   9.08119297
_cell_angle_alpha   60.00000000
_cell_angle_beta   60.00000000
_cell_angle_gamma   60.00000000
_symmetry_Int_Tables_number   1
_chemical_formula_structural   SrGdHoNpMnTlReIrWS
_chemical_formula_sum   'Sr1 Gd1 Ho1 Np1 Mn1 Tl1 Re1 Ir1 W1 S1'
_cell_volume   529.55822162
_cell_formula_units_Z   1
loop_
 _symmetry_equiv_pos_site_id
 _symmetry_equiv_pos_as_xyz
  1  'x, y, z'
loop_
 _atom_site_type_symbol
 _atom_site_label
 _atom_site_symmetry_multiplicity
 _atom_site_fract_x
 _atom_site_fract_y
 _atom_site_fract_z
 _atom_site_occupancy
  S  S0  1  0.25000000  0.25000000  0.25000000  1
  Tl  Tl1  1  0.74999999  0.74999999  0.74999999  1
  Gd  Gd2  1  0.00000000  0.00000000  0.00000000  1
  W  W3  1  0.49999999  0.49999999  0.49999999  1
  Sr  Sr4  1  0.23591400  0.76408598  0.23591400  1
  Ho  Ho5  1  0.23591400  0.23591400  0.76408598  1
  Ir  Ir6  1  0.76408598  0.23591400  0.76408598  1
  Np  Np7  1  0.23591400  0.76408598  0.76408598  1
  Mn  Mn8  1  0.76408598  0.23591400  0.23591400  1
  Re  Re9  1  0.76408598  0.76408598  0.23591400  1
