# generated using pymatgen
data_NdDyPu2TaBeAlInNiSnTePdPbAuXeN
_symmetry_space_group_name_H-M   'P 1'
_cell_length_a   6.54688692
_cell_length_b   7.25073719
_cell_length_c   6.92018890
_cell_angle_alpha   90.00000000
_cell_angle_beta   82.40319061
_cell_angle_gamma   90.00000000
_symmetry_Int_Tables_number   1
_chemical_formula_structural   NdDyPu2TaBeAlInNiSnTePdPbAuXeN
_chemical_formula_sum
'Nd1 Dy1 Pu2 Ta1 Be1 Al1 In1 Ni1 Sn1 Te1 Pd1 Pb1 Au1 Xe1 N1'
_cell_volume   325.61640868
_cell_formula_units_Z   1
loop_
 _symmetry_equiv_pos_site_id
 _symmetry_equiv_pos_as_xyz
  1  'x, y, z'
loop_
 _atom_site_type_symbol
 _atom_site_label
 _atom_site_symmetry_multiplicity
 _atom_site_fract_x
 _atom_site_fract_y
 _atom_site_fract_z
 _atom_site_occupancy
  Xe  Xe0  1  0.19049200  0.05068200  0.20022300  1
  N  N1  1  0.80950801  0.55068199  0.29977698  1
  Ta  Ta2  1  0.80950801  0.94931798  0.79977700  1
  Pd  Pd3  1  0.19049200  0.44931799  0.70022302  1
  Be  Be4  1  0.57311401  0.33527199  0.95194101  1
  Pu  Pu5  1  0.42688601  0.66472798  0.04805899  1
  Al  Al6  1  0.42688601  0.83527198  0.54805900  1
  Au  Au7  1  0.57311401  0.16472800  0.45194099  1
  Dy  Dy8  1  0.91299902  0.27420299  0.99880700  1
  Nd  Nd9  1  0.08700100  0.77420298  0.50119301  1
  Sn  Sn10  1  0.08700100  0.72579698  0.00119300  1
  Pb  Pb11  1  0.91299902  0.22579699  0.49880698  1
  Te  Te12  1  0.58921101  0.88532198  0.22308799  1
  Pu  Pu13  1  0.58921101  0.61467798  0.72308800  1
  Ni  Ni14  1  0.41078901  0.11467800  0.77691201  1
  In  In15  1  0.41078901  0.38532199  0.27691199  1
