# generated using pymatgen
data_CsKRbNaEuGdUNbCr2Cd2InGaSiNiSn3Rh
_symmetry_space_group_name_H-M   'P 1'
_cell_length_a   5.61453152
_cell_length_b   5.61453152
_cell_length_c   9.86803532
_cell_angle_alpha   91.59475708
_cell_angle_beta   105.28479767
_cell_angle_gamma   119.19317627
_symmetry_Int_Tables_number   1
_chemical_formula_structural   CsKRbNaEuGdUNbCr2Cd2InGaSiNiSn3Rh
_chemical_formula_sum
'Cs1 Rb1 K1 Na1 Eu1 Gd1 U1 Nb1 Cr2 Cd2 In1 Ga1 Si1 Ni1 Sn3 Rh1'
_cell_volume   257.39380294
_cell_formula_units_Z   1
loop_
 _symmetry_equiv_pos_site_id
 _symmetry_equiv_pos_as_xyz
  1  'x, y, z'
loop_
 _atom_site_type_symbol
 _atom_site_label
 _atom_site_symmetry_multiplicity
 _atom_site_fract_x
 _atom_site_fract_y
 _atom_site_fract_z
 _atom_site_occupancy
  Rb  Rb0  1  0.53816005  0.77267102  0.75686502  1
  Nb  Nb1  1  0.48419402  0.21870501  0.25686502  1
  Ni  Ni2  1  0.01431502  0.49682802  0.00670099  1
  Sn  Sn3  1  0.00987304  0.99238603  0.50670099  1
  Cs  Cs4  1  0.30567503  0.65117802  0.37844401  1
  Sn  Sn5  1  0.22726601  0.07276900  0.87844403  1
  Cr  Cr6  1  0.78692006  0.92013103  0.13245201  1
  Cd  Cd7  1  0.71232104  0.34553201  0.63245203  1
  Sn  Sn8  1  0.84593205  0.72082902  0.92678904  1
  Eu  Eu9  1  0.70596002  0.08085700  0.42678904  1
  Gd  Gd10  1  0.31709604  0.90716703  0.58682101  1
  K  K11  1  0.17965402  0.26972501  0.08682100  1
  Cd  Cd12  1  0.74344603  0.29840101  0.14140203  1
  U  U13  1  0.34300103  0.39795601  0.64140202  1
  Si  Si14  1  0.67193904  0.58401702  0.37805402  1
  Na  Na15  1  0.29403704  0.70611502  0.87805402  1
  Ga  Ga16  1  0.15905901  0.09248200  0.34242701  1
  Cr  Cr17  1  0.74994503  0.18336801  0.84242704  1
  Rh  Rh18  1  0.29322504  0.81140302  0.16932500  1
  In  In19  1  0.85792206  0.87610003  0.66932503  1
