# generated using pymatgen
data_K2RbBaSrDy2LuMgScTiCoAgHgPOs2RhSI
_symmetry_space_group_name_H-M   'P 1'
_cell_length_a   5.55920315
_cell_length_b   5.58868790
_cell_length_c   7.87857485
_cell_angle_alpha   90.00000000
_cell_angle_beta   90.00000000
_cell_angle_gamma   90.00000000
_symmetry_Int_Tables_number   1
_chemical_formula_structural   K2RbBaSrDy2LuMgScTiCoAgHgPOs2RhSI
_chemical_formula_sum
'K2 Rb1 Ba1 Sr1 Dy2 Lu1 Mg1 Sc1 Ti1 Co1 Ag1 Hg1 P1 Os2 Rh1 S1 I1'
_cell_volume   244.77669508
_cell_formula_units_Z   1
loop_
 _symmetry_equiv_pos_site_id
 _symmetry_equiv_pos_as_xyz
  1  'x, y, z'
loop_
 _atom_site_type_symbol
 _atom_site_label
 _atom_site_symmetry_multiplicity
 _atom_site_fract_x
 _atom_site_fract_y
 _atom_site_fract_z
 _atom_site_occupancy
  K  K0  1  0.49228999  0.46653401  0.75000001  1
  Co  Co1  1  0.99228997  0.03346600  0.25000000  1
  Ba  Ba2  1  0.00771000  0.96653402  0.75000001  1
  I  I3  1  0.50770999  0.53346601  0.25000000  1
  Dy  Dy4  1  0.00000000  0.50000001  0.50000001  1
  Os  Os5  1  0.49999999  0.00000000  0.50000001  1
  Lu  Lu6  1  0.49999999  0.00000000  0.00000000  1
  S  S7  1  0.00000000  0.50000001  0.00000000  1
  Os  Os8  1  0.71620998  0.28477401  0.45881401  1
  P  P9  1  0.21620999  0.21522600  0.54118601  1
  K  K10  1  0.78378998  0.78477401  0.04118600  1
  Dy  Dy11  1  0.28378999  0.71522601  0.95881402  1
  Rh  Rh12  1  0.28378999  0.71522601  0.54118601  1
  Sc  Sc13  1  0.78378998  0.78477401  0.45881401  1
  Ti  Ti14  1  0.21620999  0.21522600  0.95881402  1
  Ag  Ag15  1  0.71620998  0.28477401  0.04118600  1
  Hg  Hg16  1  0.07662800  0.48455601  0.25000000  1
  Sr  Sr17  1  0.57662798  0.01544400  0.75000001  1
  Rb  Rb18  1  0.42337199  0.98455602  0.25000000  1
  Mg  Mg19  1  0.92337198  0.51544401  0.75000001  1
