# generated using pymatgen
data_DyCoHe2CsZrScZnMoH
_symmetry_space_group_name_H-M   'P 1'
_cell_length_a   8.59059525
_cell_length_b   8.59059525
_cell_length_c   8.59059525
_cell_angle_alpha   60.00000000
_cell_angle_beta   60.00000000
_cell_angle_gamma   60.00000000
_symmetry_Int_Tables_number   1
_chemical_formula_structural   DyCoHe2CsZrScZnMoH
_chemical_formula_sum   'Dy1 Co1 He2 Cs1 Zr1 Sc1 Zn1 Mo1 H1'
_cell_volume   448.28558506
_cell_formula_units_Z   1
loop_
 _symmetry_equiv_pos_site_id
 _symmetry_equiv_pos_as_xyz
  1  'x, y, z'
loop_
 _atom_site_type_symbol
 _atom_site_label
 _atom_site_symmetry_multiplicity
 _atom_site_fract_x
 _atom_site_fract_y
 _atom_site_fract_z
 _atom_site_occupancy
  Dy  Dy0  1  0.24999999  0.24999999  0.24999999  1
  Co  Co1  1  0.74999998  0.74999998  0.74999998  1
  He  He2  1  0.00000000  0.00000000  0.00000000  1
  Sc  Sc3  1  0.49999999  0.49999999  0.49999999  1
  Cs  Cs4  1  0.22988399  0.77011598  0.22988399  1
  Mo  Mo5  1  0.22988399  0.22988399  0.77011598  1
  Zn  Zn6  1  0.77011598  0.22988399  0.77011598  1
  He  He7  1  0.22988399  0.77011598  0.77011598  1
  Zr  Zr8  1  0.77011598  0.22988399  0.22988399  1
  H  H9  1  0.77011598  0.77011598  0.22988399  1
