# generated using pymatgen
data_ErHfAgHgMoPPdAu
_symmetry_space_group_name_H-M   'P 1'
_cell_length_a   4.41820192
_cell_length_b   7.78822613
_cell_length_c   7.98716545
_cell_angle_alpha   90.00000000
_cell_angle_beta   106.05627441
_cell_angle_gamma   90.00000000
_symmetry_Int_Tables_number   1
_chemical_formula_structural   ErHfAgHgMoPPdAu
_chemical_formula_sum   'Er1 Hf1 Ag1 Hg1 Mo1 P1 Pd1 Au1'
_cell_volume   264.11671803
_cell_formula_units_Z   1
loop_
 _symmetry_equiv_pos_site_id
 _symmetry_equiv_pos_as_xyz
  1  'x, y, z'
loop_
 _atom_site_type_symbol
 _atom_site_label
 _atom_site_symmetry_multiplicity
 _atom_site_fract_x
 _atom_site_fract_y
 _atom_site_fract_z
 _atom_site_occupancy
  Mo  Mo0  1  0.62732801  0.74999999  0.25465599  1
  Ag  Ag1  1  0.37267201  0.25000000  0.74534398  1
  Au  Au2  1  0.89399201  0.74999999  0.78798398  1
  Er  Er3  1  0.10600800  0.25000000  0.21201599  1
  Hf  Hf4  1  0.30630200  0.74999999  0.61260398  1
  Hg  Hg5  1  0.69369801  0.25000000  0.38739599  1
  Pd  Pd6  1  0.00000000  0.00000000  0.00000000  1
  P  P7  1  0.00000000  0.49999999  -0.00000000  1
