# generated using pymatgen
data_LaPrEuHoHf2NbFeReAgNeSbOsPtAuXe
_symmetry_space_group_name_H-M   'P 1'
_cell_length_a   5.08548021
_cell_length_b   5.08548021
_cell_length_c   6.37532091
_cell_angle_alpha   113.50575256
_cell_angle_beta   113.50575256
_cell_angle_gamma   90.00000000
_symmetry_Int_Tables_number   1
_chemical_formula_structural   LaPrEuHoHf2NbFeReAgNeSbOsPtAuXe
_chemical_formula_sum
'La1 Pr1 Eu1 Ho1 Hf2 Nb1 Fe1 Re1 Ag1 Ne1 Sb1 Os1 Pt1 Au1 Xe1'
_cell_volume   136.14788051
_cell_formula_units_Z   1
loop_
 _symmetry_equiv_pos_site_id
 _symmetry_equiv_pos_as_xyz
  1  'x, y, z'
loop_
 _atom_site_type_symbol
 _atom_site_label
 _atom_site_symmetry_multiplicity
 _atom_site_fract_x
 _atom_site_fract_y
 _atom_site_fract_z
 _atom_site_occupancy
  La  La0  1  0.00000000  0.00000000  0.00000000  1
  Ag  Ag1  1  0.25000004  0.75000000  0.50000008  1
  Hf  Hf2  1  0.49211005  0.99210999  0.98422012  1
  Ne  Ne3  1  0.00789003  0.50789000  0.01578004  1
  Fe  Fe4  1  0.69407699  0.03688300  0.62096405  1
  Os  Os5  1  0.92688702  0.58408100  0.62096410  1
  Pt  Pt6  1  0.96311699  0.07311300  0.37903606  1
  Re  Re7  1  0.41591901  0.30592300  0.37903605  1
  Nb  Nb8  1  0.54194701  0.28400900  0.75328806  1
  Xe  Xe9  1  0.21134102  0.46927900  0.75328806  1
  Au  Au10  1  0.71599103  0.78865899  0.24671210  1
  Eu  Eu11  1  0.53072102  0.45805300  0.24671206  1
  Ho  Ho12  1  0.63970600  0.11316100  0.77159406  1
  Hf  Hf13  1  0.13188804  0.65843300  0.77159407  1
  Sb  Sb14  1  0.88683904  0.86811099  0.22840511  1
  Pr  Pr15  1  0.34156702  0.36029500  0.22840705  1
