# generated using pymatgen
data_BaCaCeLuHfThZrAgBiIr2Br
_symmetry_space_group_name_H-M   'P 1'
_cell_length_a   3.72672296
_cell_length_b   6.86200809
_cell_length_c   9.14417362
_cell_angle_alpha   90.00000000
_cell_angle_beta   90.00000000
_cell_angle_gamma   90.00000000
_symmetry_Int_Tables_number   1
_chemical_formula_structural   BaCaCeLuHfThZrAgBiIr2Br
_chemical_formula_sum   'Ba1 Ca1 Ce1 Lu1 Hf1 Th1 Zr1 Ag1 Bi1 Ir2 Br1'
_cell_volume   233.84215145
_cell_formula_units_Z   1
loop_
 _symmetry_equiv_pos_site_id
 _symmetry_equiv_pos_as_xyz
  1  'x, y, z'
loop_
 _atom_site_type_symbol
 _atom_site_label
 _atom_site_symmetry_multiplicity
 _atom_site_fract_x
 _atom_site_fract_y
 _atom_site_fract_z
 _atom_site_occupancy
  Ca  Ca0  1  0.25000000  0.77267699  0.16186901  1
  Lu  Lu1  1  0.75000001  0.22732300  0.83813103  1
  Ag  Ag2  1  0.25000000  0.27267700  0.33813101  1
  Ir  Ir3  1  0.75000001  0.72732299  0.66186903  1
  Zr  Zr4  1  0.25000000  0.91699299  0.85262504  1
  Ce  Ce5  1  0.75000001  0.08300700  0.14737501  1
  Hf  Hf6  1  0.25000000  0.41699299  0.64737503  1
  Ir  Ir7  1  0.75000001  0.58300699  0.35262501  1
  Th  Th8  1  0.75000001  0.62032599  0.95774504  1
  Br  Br9  1  0.25000000  0.37967399  0.04225500  1
  Bi  Bi10  1  0.75000001  0.12032600  0.54225502  1
  Ba  Ba11  1  0.25000000  0.87967399  0.45774502  1
