# generated using pymatgen
data_BaYbLuHfMgAlTlGaFeHgSeNOF
_symmetry_space_group_name_H-M   'P 1'
_cell_length_a   7.23968554
_cell_length_b   7.30107498
_cell_length_c   7.30107498
_cell_angle_alpha   63.89458847
_cell_angle_beta   85.14542389
_cell_angle_gamma   94.85457611
_symmetry_Int_Tables_number   1
_chemical_formula_structural   BaYbLuHfMgAlTlGaFeHgSeNOF
_chemical_formula_sum
'Ba1 Yb1 Lu1 Hf1 Mg1 Al1 Tl1 Ga1 Fe1 Hg1 Se1 N1 O1 F1'
_cell_volume   342.08677131
_cell_formula_units_Z   1
loop_
 _symmetry_equiv_pos_site_id
 _symmetry_equiv_pos_as_xyz
  1  'x, y, z'
loop_
 _atom_site_type_symbol
 _atom_site_label
 _atom_site_symmetry_multiplicity
 _atom_site_fract_x
 _atom_site_fract_y
 _atom_site_fract_z
 _atom_site_occupancy
  Lu  Lu0  1  0.50000006  0.79577300  0.79577294  1
  N  N1  1  0.00000005  0.73911300  0.73911296  1
  F  F2  1  0.64353503  0.36397800  0.63602195  1
  Ba  Ba3  1  0.35646505  0.63602200  0.36397796  1
  Yb  Yb4  1  0.00000002  0.26088700  0.26088699  1
  Al  Al5  1  0.50000002  0.20422700  0.20422697  1
  Hg  Hg6  1  0.14882001  0.17628300  0.82371697  1
  Ga  Ga7  1  0.85118006  0.82371700  0.17628293  1
  Tl  Tl8  1  0.26744203  0.44267800  0.83399996  1
  O  O9  1  0.84442201  0.10169800  0.89830194  1
  Fe  Fe10  1  0.73255806  0.83400000  0.44267793  1
  Mg  Mg11  1  0.26744201  0.16600000  0.55732197  1
  Se  Se12  1  0.15557807  0.89830200  0.10169796  1
  Hf  Hf13  1  0.73255804  0.55732200  0.16599994  1
