# generated using pymatgen
data_KNaLaYbPrGdPuNpSc2BeTlCuGeBSbAuSeBrF
_symmetry_space_group_name_H-M   'P 1'
_cell_length_a   5.70462036
_cell_length_b   5.87040997
_cell_length_c   8.16378117
_cell_angle_alpha   90.00000000
_cell_angle_beta   90.28474426
_cell_angle_gamma   90.00000000
_symmetry_Int_Tables_number   1
_chemical_formula_structural   KNaLaYbPrGdPuNpSc2BeTlCuGeBSbAuSeBrF
_chemical_formula_sum
;
K1 Na1 Yb1 La1 Pr1 Gd1 Pu1 Sc2 Np1 Be1 Tl1 Cu1 Ge1 B1 Sb1 Au1 Se1 Br1
F1
;
_cell_volume   273.38908467
_cell_formula_units_Z   1
loop_
 _symmetry_equiv_pos_site_id
 _symmetry_equiv_pos_as_xyz
  1  'x, y, z'
loop_
 _atom_site_type_symbol
 _atom_site_label
 _atom_site_symmetry_multiplicity
 _atom_site_fract_x
 _atom_site_fract_y
 _atom_site_fract_z
 _atom_site_occupancy
  Sb  Sb0  1  0.49048399  0.54215200  0.24993101  1
  Ge  Ge1  1  0.99048398  0.95784801  0.74993102  1
  K  K2  1  0.51293199  0.44662400  0.75383001  1
  Yb  Yb3  1  0.01293200  0.05337600  0.25383000  1
  B  B4  1  0.99994698  0.50245200  0.50141902  1
  Cu  Cu5  1  0.49994699  0.99754801  0.00141901  1
  Br  Br6  1  0.99977098  0.49976300  0.99956601  1
  Sc  Sc7  1  0.49977099  0.00023700  0.49956601  1
  Np  Np8  1  0.30619899  0.27227800  0.44941600  1
  Be  Be9  1  0.80619898  0.22772200  0.94941601  1
  Pu  Pu10  1  0.67617899  0.71389600  0.55381801  1
  Na  Na11  1  0.17617900  0.78610400  0.05381800  1
  Au  Au12  1  0.21407300  0.81629200  0.45021100  1
  Gd  Gd13  1  0.71407299  0.68370800  0.95021101  1
  Se  Se14  1  0.77649298  0.19484500  0.54154401  1
  La  La15  1  0.27649299  0.30515500  0.04154401  1
  Pr  Pr16  1  0.60451299  0.97181501  0.26704101  1
  Sc  Sc17  1  0.10451300  0.52818500  0.76704100  1
  Tl  Tl18  1  0.41940799  0.03914500  0.73322400  1
  F  F19  1  0.91940798  0.46085500  0.23322402  1
