# generated using pymatgen
data_GdDy2UTl2CrI
_symmetry_space_group_name_H-M   'P 1'
_cell_length_a   4.39025879
_cell_length_b   11.59506989
_cell_length_c   11.59507084
_cell_angle_alpha   120.00000000
_cell_angle_beta   90.00000000
_cell_angle_gamma   90.00000000
_symmetry_Int_Tables_number   1
_chemical_formula_structural   GdDy2UTl2CrI
_chemical_formula_sum   'Gd1 Dy2 U1 Tl2 Cr1 I1'
_cell_volume   511.17255632
_cell_formula_units_Z   1
loop_
 _symmetry_equiv_pos_site_id
 _symmetry_equiv_pos_as_xyz
  1  'x, y, z'
loop_
 _atom_site_type_symbol
 _atom_site_label
 _atom_site_symmetry_multiplicity
 _atom_site_fract_x
 _atom_site_fract_y
 _atom_site_fract_z
 _atom_site_occupancy
  I  I0  1  0.25000001  0.66666669  0.33333336  1
  Dy  Dy1  1  0.75000004  0.33333334  0.66666667  1
  Gd  Gd2  1  0.75000004  0.78897602  0.21102503  1
  Tl  Tl3  1  0.75000004  0.42204901  0.21102501  1
  Dy  Dy4  1  0.75000004  0.78897602  0.57795203  1
  Tl  Tl5  1  0.25000001  0.21102401  0.78897500  1
  U  U6  1  0.25000001  0.57795102  0.78897501  1
  Cr  Cr7  1  0.25000001  0.21102401  0.42204800  1
