# generated using pymatgen
data_CePrDyTmTiBeAlTlCdCuGeAsPdPbKrF
_symmetry_space_group_name_H-M   'P 1'
_cell_length_a   6.74694395
_cell_length_b   7.11729288
_cell_length_c   9.40704632
_cell_angle_alpha   106.78025818
_cell_angle_beta   99.71960449
_cell_angle_gamma   91.61313629
_symmetry_Int_Tables_number   1
_chemical_formula_structural   CePrDyTmTiBeAlTlCdCuGeAsPdPbKrF
_chemical_formula_sum
'Ce1 Pr1 Dy1 Tm1 Ti1 Be1 Al1 Tl1 Cd1 Cu1 Ge1 As1 Pd1 Pb1 Kr1 F1'
_cell_volume   424.86569393
_cell_formula_units_Z   1
loop_
 _symmetry_equiv_pos_site_id
 _symmetry_equiv_pos_as_xyz
  1  'x, y, z'
loop_
 _atom_site_type_symbol
 _atom_site_label
 _atom_site_symmetry_multiplicity
 _atom_site_fract_x
 _atom_site_fract_y
 _atom_site_fract_z
 _atom_site_occupancy
  Tm  Tm0  1  0.50308399  0.27696499  0.00053799  1
  Cd  Cd1  1  0.49691596  0.72303497  0.99946196  1
  Cu  Cu2  1  0.72725596  0.69232998  0.44196297  1
  Kr  Kr3  1  0.27274398  0.30766999  0.55803698  1
  As  As4  1  0.28380295  0.89414597  0.73281596  1
  Al  Al5  1  0.71619700  0.10585400  0.26718399  1
  F  F6  1  0.17457596  0.69253998  0.82644396  1
  Pr  Pr7  1  0.34529897  0.54268098  0.12537499  1
  Pd  Pd8  1  0.41015500  0.06122300  0.16929999  1
  Pb  Pb9  1  0.58984495  0.93877697  0.83069996  1
  Ti  Ti10  1  0.17737999  0.16174399  0.83032097  1
  Be  Be11  1  0.77272099  0.19000399  0.49177998  1
  Ce  Ce12  1  0.65470098  0.45731898  0.87462496  1
  Dy  Dy13  1  0.22727895  0.80999597  0.50821997  1
  Ge  Ge14  1  0.82261995  0.83825597  0.16967898  1
  Tl  Tl15  1  0.82542399  0.30745999  0.17355599  1
