# generated using pymatgen
data_Na2LiAcPuThZnXeHeCl
_symmetry_space_group_name_H-M   'P 1'
_cell_length_a   3.50043797
_cell_length_b   7.75720263
_cell_length_c   9.39719963
_cell_angle_alpha   107.38077545
_cell_angle_beta   90.00000000
_cell_angle_gamma   103.03963470
_symmetry_Int_Tables_number   1
_chemical_formula_structural   Na2LiAcPuThZnXeHeCl
_chemical_formula_sum   'Na2 Li1 Ac1 Pu1 Th1 Zn1 Xe1 He1 Cl1'
_cell_volume   236.61359001
_cell_formula_units_Z   1
loop_
 _symmetry_equiv_pos_site_id
 _symmetry_equiv_pos_as_xyz
  1  'x, y, z'
loop_
 _atom_site_type_symbol
 _atom_site_label
 _atom_site_symmetry_multiplicity
 _atom_site_fract_x
 _atom_site_fract_y
 _atom_site_fract_z
 _atom_site_occupancy
  Na  Na0  1  0.08385000  0.16770000  0.30052202  1
  Li  Li1  1  0.91615002  0.83230000  0.69947805  1
  Zn  Zn2  1  0.39078901  0.78157800  0.02763902  1
  Na  Na3  1  0.60921101  0.21842200  0.97236104  1
  Ac  Ac4  1  0.62687901  0.25375800  0.45785602  1
  Xe  Xe5  1  0.37312101  0.74624200  0.54214404  1
  He  He6  1  0.17036501  0.34073000  0.14173202  1
  Cl  Cl7  1  0.82963501  0.65927000  0.85826805  1
  Pu  Pu8  1  0.92715202  0.85430400  0.20309803  1
  Th  Th9  1  0.07284800  0.14569600  0.79690203  1
