# generated using pymatgen
data_KNdYFeAgBiHRuRhPb2C3SKr
_symmetry_space_group_name_H-M   'P 1'
_cell_length_a   6.39851856
_cell_length_b   6.39851856
_cell_length_c   6.39851856
_cell_angle_alpha   60.00000000
_cell_angle_beta   60.00000000
_cell_angle_gamma   60.00000000
_symmetry_Int_Tables_number   1
_chemical_formula_structural   KNdYFeAgBiHRuRhPb2C3SKr
_chemical_formula_sum
'K1 Nd1 Y1 Fe1 Ag1 Bi1 Ru1 H1 Rh1 Pb2 C3 S1 Kr1'
_cell_volume   185.23510879
_cell_formula_units_Z   1
loop_
 _symmetry_equiv_pos_site_id
 _symmetry_equiv_pos_as_xyz
  1  'x, y, z'
loop_
 _atom_site_type_symbol
 _atom_site_label
 _atom_site_symmetry_multiplicity
 _atom_site_fract_x
 _atom_site_fract_y
 _atom_site_fract_z
 _atom_site_occupancy
  C  C0  1  0.87500003  0.87500003  0.37500001  1
  Pb  Pb1  1  0.87500003  0.87500003  0.87500003  1
  Ru  Ru2  1  0.87500003  0.37500001  0.87500003  1
  Fe  Fe3  1  0.37500001  0.87500003  0.87500003  1
  Kr  Kr4  1  0.80373002  0.80373002  0.19627001  1
  Y  Y5  1  0.19627001  0.19627001  0.80373002  1
  S  S6  1  0.80373002  0.19627001  0.19627001  1
  C  C7  1  0.19627001  0.80373002  0.80373002  1
  Pb  Pb8  1  0.80373002  0.19627001  0.80373002  1
  C  C9  1  0.19627001  0.80373002  0.19627001  1
  H  H10  1  0.94627003  0.94627003  0.55373002  1
  Bi  Bi11  1  0.55373002  0.55373002  0.94627003  1
  Rh  Rh12  1  0.94627003  0.55373002  0.55373002  1
  Ag  Ag13  1  0.55373002  0.94627003  0.94627003  1
  Nd  Nd14  1  0.94627003  0.55373002  0.94627003  1
  K  K15  1  0.55373002  0.94627003  0.55373002  1
