# generated using pymatgen
data_NaLaTbEuDyErTmLuPaNbGaSiHgBAsPbWC
_symmetry_space_group_name_H-M   'P 1'
_cell_length_a   4.63104200
_cell_length_b   4.75111151
_cell_length_c   12.06912518
_cell_angle_alpha   87.85060883
_cell_angle_beta   85.58642578
_cell_angle_gamma   60.83252335
_symmetry_Int_Tables_number   1
_chemical_formula_structural   NaLaTbEuDyErTmLuPaNbGaSiHgBAsPbWC
_chemical_formula_sum
'Na1 La1 Tb1 Eu1 Dy1 Er1 Tm1 Lu1 Pa1 Nb1 Ga1 Si1 Hg1 B1 As1 Pb1 W1 C1'
_cell_volume   231.19216126
_cell_formula_units_Z   1
loop_
 _symmetry_equiv_pos_site_id
 _symmetry_equiv_pos_as_xyz
  1  'x, y, z'
loop_
 _atom_site_type_symbol
 _atom_site_label
 _atom_site_symmetry_multiplicity
 _atom_site_fract_x
 _atom_site_fract_y
 _atom_site_fract_z
 _atom_site_occupancy
  Eu  Eu0  1  0.73980300  0.99999996  0.88404302  1
  Ga  Ga1  1  0.26019700  0.99999996  0.11595702  1
  La  La2  1  0.78993800  0.99999996  0.61710502  1
  Na  Na3  1  0.21006200  0.00000000  0.38289500  1
  Nb  Nb4  1  0.73605700  0.50039698  0.24952600  1
  Pb  Pb5  1  0.23645400  0.49960298  0.24952601  1
  Lu  Lu6  1  0.26394300  0.49960298  0.75047402  1
  C  C7  1  0.76354600  0.50039698  0.75047401  1
  B  B8  1  0.60677400  0.33230799  0.07726100  1
  Tb  Tb9  1  0.93908200  0.66769197  0.07726100  1
  Er  Er10  1  0.39322600  0.66769197  0.92273902  1
  Hg  Hg11  1  0.06091800  0.33230799  0.92273902  1
  As  As12  1  0.53075600  0.33507599  0.42337901  1
  W  W13  1  0.86583200  0.66492397  0.42337901  1
  Pa  Pa14  1  0.46924400  0.66492397  0.57662101  1
  Dy  Dy15  1  0.13416800  0.33507599  0.57662101  1
  Si  Si16  1  0.73597300  0.00000000  0.25119599  1
  Tm  Tm17  1  0.26402700  0.00000000  0.74880401  1
