# generated using pymatgen
data_PmSmYErNbCdCoRe3AgAsPIrPd2SBrOHe
_symmetry_space_group_name_H-M   'P 1'
_cell_length_a   5.33654690
_cell_length_b   7.22745514
_cell_length_c   7.22745514
_cell_angle_alpha   113.73074341
_cell_angle_beta   90.00000000
_cell_angle_gamma   90.00000000
_symmetry_Int_Tables_number   1
_chemical_formula_structural   PmSmYErNbCdCoRe3AgAsPIrPd2SBrOHe
_chemical_formula_sum
'Pm1 Sm1 Y1 Er1 Nb1 Cd1 Co1 Re3 Ag1 As1 P1 Pd2 Ir1 S1 Br1 O1 He1'
_cell_volume   255.19034818
_cell_formula_units_Z   1
loop_
 _symmetry_equiv_pos_site_id
 _symmetry_equiv_pos_as_xyz
  1  'x, y, z'
loop_
 _atom_site_type_symbol
 _atom_site_label
 _atom_site_symmetry_multiplicity
 _atom_site_fract_x
 _atom_site_fract_y
 _atom_site_fract_z
 _atom_site_occupancy
  Cd  Cd0  1  0.75000001  0.29343100  0.09886700  1
  Re  Re1  1  0.75000001  0.90113301  0.70656901  1
  Re  Re2  1  0.25000000  0.70656901  0.90113301  1
  Pd  Pd3  1  0.25000000  0.09886700  0.29343100  1
  Er  Er4  1  0.25000000  0.59627101  0.40372900  1
  S  S5  1  0.75000001  0.40372901  0.59627101  1
  Pm  Pm6  1  0.75000001  0.80215301  0.19784700  1
  Br  Br7  1  0.25000000  0.19784700  0.80215301  1
  As  As8  1  -0.00000000  0.67231401  0.67231401  1
  O  O9  1  0.49227701  0.12404600  0.87595501  1
  Re  Re10  1  0.75000001  0.56996101  0.10679800  1
  Pd  Pd11  1  0.25000000  0.43003901  0.89320201  1
  Y  Y12  1  0.50000001  0.67231401  0.67231401  1
  He  He13  1  0.75000001  0.89320201  0.43003900  1
  Nb  Nb14  1  -0.00000000  0.32768600  0.32768600  1
  Ag  Ag15  1  0.50000001  0.32768600  0.32768600  1
  Co  Co16  1  0.99227702  0.87595501  0.12404600  1
  Ir  Ir17  1  0.25000000  0.10679800  0.56996101  1
  P  P18  1  0.00772300  0.12404600  0.87595501  1
  Sm  Sm19  1  0.50772301  0.87595501  0.12404600  1
