# generated using pymatgen
data_RbPrLuNbTcP2
_symmetry_space_group_name_H-M   'P 1'
_cell_length_a   3.75541997
_cell_length_b   3.75541997
_cell_length_c   6.86984825
_cell_angle_alpha   105.86229706
_cell_angle_beta   105.86229706
_cell_angle_gamma   90.00000000
_symmetry_Int_Tables_number   1
_chemical_formula_structural   RbPrLuNbTcP2
_chemical_formula_sum   'Rb1 Pr1 Lu1 Nb1 Tc1 P2'
_cell_volume   89.35588228
_cell_formula_units_Z   1
loop_
 _symmetry_equiv_pos_site_id
 _symmetry_equiv_pos_as_xyz
  1  'x, y, z'
loop_
 _atom_site_type_symbol
 _atom_site_label
 _atom_site_symmetry_multiplicity
 _atom_site_fract_x
 _atom_site_fract_y
 _atom_site_fract_z
 _atom_site_occupancy
  Rb  Rb0  1  0.52006501  0.52006501  0.04013001  1
  Nb  Nb1  1  0.80849102  0.80849101  0.61698201  1
  P  P2  1  0.15777000  0.15777000  0.31554000  1
  P  P3  1  0.99746603  0.99746602  0.99493200  1
  Tc  Tc4  1  0.66993801  0.16993800  0.33987600  1
  Lu  Lu5  1  0.16993801  0.66993801  0.33987600  1
  Pr  Pr6  1  0.32903301  0.32903300  0.65806599  1
