# generated using pymatgen
data_CePuMgTaGaFeGeKrFHe
_symmetry_space_group_name_H-M   'P 1'
_cell_length_a   5.29876232
_cell_length_b   5.29876232
_cell_length_c   5.84682798
_cell_angle_alpha   63.05522919
_cell_angle_beta   63.05522919
_cell_angle_gamma   59.99999237
_symmetry_Int_Tables_number   1
_chemical_formula_structural   CePuMgTaGaFeGeKrFHe
_chemical_formula_sum   'Ce1 Pu1 Mg1 Ta1 Ga1 Fe1 Ge1 Kr1 F1 He1'
_cell_volume   121.15369398
_cell_formula_units_Z   1
loop_
 _symmetry_equiv_pos_site_id
 _symmetry_equiv_pos_as_xyz
  1  'x, y, z'
loop_
 _atom_site_type_symbol
 _atom_site_label
 _atom_site_symmetry_multiplicity
 _atom_site_fract_x
 _atom_site_fract_y
 _atom_site_fract_z
 _atom_site_occupancy
  Ge  Ge0  1  0.36114301  0.36114302  0.91657098  1
  F  F1  1  0.63885701  0.63885703  0.08342901  1
  Pu  Pu2  1  0.14824600  0.14824601  0.55526199  1
  Mg  Mg3  1  0.85175402  0.85175404  0.44473801  1
  Kr  Kr4  1  0.81031302  0.43464802  0.72885599  1
  Fe  Fe5  1  0.02618298  0.81031304  0.72885599  1
  Ce  Ce6  1  0.43464802  0.02618300  0.72885598  1
  Ga  Ga7  1  0.56535200  0.97381705  0.27114401  1
  He  He8  1  0.97381704  0.18968701  0.27114400  1
  Ta  Ta9  1  0.18968700  0.56535203  0.27114400  1
