# generated using pymatgen
data_BaCeSmDyHoErPuUTlGaSeI
_symmetry_space_group_name_H-M   'P 1'
_cell_length_a   3.55657291
_cell_length_b   6.04928589
_cell_length_c   6.94422007
_cell_angle_alpha   90.00000000
_cell_angle_beta   90.00000000
_cell_angle_gamma   90.00000000
_symmetry_Int_Tables_number   1
_chemical_formula_structural   BaCeSmDyHoErPuUTlGaSeI
_chemical_formula_sum
'Ba1 Ce1 Sm1 Dy1 Ho1 Er1 Pu1 U1 Tl1 Ga1 Se1 I1'
_cell_volume   149.40299438
_cell_formula_units_Z   1
loop_
 _symmetry_equiv_pos_site_id
 _symmetry_equiv_pos_as_xyz
  1  'x, y, z'
loop_
 _atom_site_type_symbol
 _atom_site_label
 _atom_site_symmetry_multiplicity
 _atom_site_fract_x
 _atom_site_fract_y
 _atom_site_fract_z
 _atom_site_occupancy
  Se  Se0  1  0.75000002  0.97279302  0.17418000  1
  Tl  Tl1  1  0.75000002  0.47279301  0.32582000  1
  Er  Er2  1  0.25000001  0.02720700  0.82581999  1
  Sm  Sm3  1  0.25000001  0.52720701  0.67417999  1
  U  U4  1  0.75000002  0.85276202  0.56308899  1
  Ga  Ga5  1  0.75000002  0.35276201  0.93691099  1
  I  I6  1  0.25000001  0.14723800  0.43691100  1
  Dy  Dy7  1  0.25000001  0.64723801  0.06308900  1
  Ce  Ce8  1  0.75000002  0.23074300  0.62441799  1
  Ba  Ba9  1  0.75000002  0.73074301  0.87558199  1
  Ho  Ho10  1  0.25000001  0.76925701  0.37558200  1
  Pu  Pu11  1  0.25000001  0.26925700  0.12441800  1
