# generated using pymatgen
data_RbCaLaDyErU2CrReSiTcAgSnBTe3S
_symmetry_space_group_name_H-M   'P 1'
_cell_length_a   7.24135208
_cell_length_b   7.24135208
_cell_length_c   7.24135208
_cell_angle_alpha   60.00000000
_cell_angle_beta   60.00000000
_cell_angle_gamma   60.00000000
_symmetry_Int_Tables_number   1
_chemical_formula_structural   RbCaLaDyErU2CrReSiTcAgSnBTe3S
_chemical_formula_sum
'Rb1 Ca1 La1 Dy1 Er1 U2 Cr1 Re1 Tc1 Si1 Ag1 Sn1 B1 Te3 S1'
_cell_volume   268.49981671
_cell_formula_units_Z   1
loop_
 _symmetry_equiv_pos_site_id
 _symmetry_equiv_pos_as_xyz
  1  'x, y, z'
loop_
 _atom_site_type_symbol
 _atom_site_label
 _atom_site_symmetry_multiplicity
 _atom_site_fract_x
 _atom_site_fract_y
 _atom_site_fract_z
 _atom_site_occupancy
  La  La0  1  0.26087999  0.26087999  0.73911998  1
  U  U1  1  0.73911998  0.26087999  0.26087999  1
  Te  Te2  1  0.26087999  0.73911998  0.73911998  1
  Ag  Ag3  1  0.73911998  0.73911998  0.26087999  1
  Dy  Dy4  1  0.73911998  0.26087999  0.73911998  1
  Te  Te5  1  0.26087999  0.73911998  0.26087999  1
  Er  Er6  1  0.74999998  0.74999998  0.74999998  1
  Cr  Cr7  1  0.24999999  0.24999999  0.24999999  1
  B  B8  1  0.00000000  0.00000000  0.00000000  1
  Re  Re9  1  0.49999998  0.49999998  0.49999998  1
  Te  Te10  1  0.35036499  0.35036499  0.35036499  1
  Rb  Rb11  1  0.05109500  0.64963498  0.64963498  1
  Sn  Sn12  1  0.64963498  0.64963498  0.05109500  1
  S  S13  1  0.64963498  0.05109500  0.64963498  1
  Ca  Ca14  1  0.64963498  0.64963498  0.64963498  1
  Tc  Tc15  1  0.35036499  0.94890497  0.35036499  1
  Si  Si16  1  0.94890497  0.35036499  0.35036499  1
  U  U17  1  0.35036499  0.35036499  0.94890497  1
