# generated using pymatgen
data_PmNd2SmScPaZnFeCoAg2GeSbHRuSeINeClF
_symmetry_space_group_name_H-M   'P 1'
_cell_length_a   6.33067894
_cell_length_b   6.33067894
_cell_length_c   6.49943161
_cell_angle_alpha   76.01280975
_cell_angle_beta   76.01280975
_cell_angle_gamma   71.64017487
_symmetry_Int_Tables_number   1
_chemical_formula_structural   PmNd2SmScPaZnFeCoAg2GeSbHRuSeINeClF
_chemical_formula_sum
'Pm1 Nd2 Sm1 Sc1 Pa1 Zn1 Fe1 Co1 Ag2 Ge1 Sb1 H1 Ru1 Se1 I1 Ne1 Cl1 F1'
_cell_volume   235.98283110
_cell_formula_units_Z   1
loop_
 _symmetry_equiv_pos_site_id
 _symmetry_equiv_pos_as_xyz
  1  'x, y, z'
loop_
 _atom_site_type_symbol
 _atom_site_label
 _atom_site_symmetry_multiplicity
 _atom_site_fract_x
 _atom_site_fract_y
 _atom_site_fract_z
 _atom_site_occupancy
  Fe  Fe0  1  0.81553104  0.81740998  0.99567896  1
  Sc  Sc1  1  0.18259001  0.18446900  0.00432099  1
  Se  Se2  1  0.54576203  0.60662299  0.38314596  1
  Ag  Ag3  1  0.39337702  0.45423799  0.61685398  1
  Zn  Zn4  1  0.28746301  0.30292899  0.51878199  1
  I  I5  1  0.69707103  0.71253698  0.48121796  1
  Sb  Sb6  1  0.60627202  0.39372799  -0.00000004  1
  Ne  Ne7  1  0.39426403  0.60573599  -0.00000004  1
  Pa  Pa8  1  0.05701500  0.07369000  0.53735301  1
  Pm  Pm9  1  0.92631004  0.94298498  0.46264694  1
  Co  Co10  1  0.34285401  0.31910299  0.64477699  1
  Ge  Ge11  1  0.68089703  0.65714599  0.35522296  1
  F  F12  1  0.16439101  0.19285300  0.38901600  1
  H  H13  1  0.80714704  0.83560898  0.61098395  1
  Ru  Ru14  1  0.04788100  0.04840200  0.73863902  1
  Nd  Nd15  1  0.95159804  0.95211898  0.26136093  1
  Sm  Sm16  1  0.20798503  0.57340099  0.99344000  1
  Ag  Ag17  1  0.42659904  0.79201498  0.00655995  1
  Nd  Nd18  1  0.79355302  0.42855799  0.99819798  1
  Cl  Cl19  1  0.57144201  0.20644700  0.00180197  1
