# generated using pymatgen
data_GdVNiKrHeCr2GaCuReTcAgGeTeRuPtSeXeClO
_symmetry_space_group_name_H-M   'P 1'
_cell_length_a   5.98407936
_cell_length_b   5.98407936
_cell_length_c   8.68068790
_cell_angle_alpha   90.00000000
_cell_angle_beta   90.00000000
_cell_angle_gamma   90.00000000
_symmetry_Int_Tables_number   1
_chemical_formula_structural   GdVNiKrHeCr2GaCuReTcAgGeTeRuPtSeXeClO
_chemical_formula_sum
;
Gd1 V1 Ni1 Kr1 He1 Cr2 Ga1 Tc1 Cu1 Re1 Ag1 Ge1 Te1 Ru1 Pt1 Se1 Xe1 Cl1
O1
;
_cell_volume   310.84853964
_cell_formula_units_Z   1
loop_
 _symmetry_equiv_pos_site_id
 _symmetry_equiv_pos_as_xyz
  1  'x, y, z'
loop_
 _atom_site_type_symbol
 _atom_site_label
 _atom_site_symmetry_multiplicity
 _atom_site_fract_x
 _atom_site_fract_y
 _atom_site_fract_z
 _atom_site_occupancy
  Kr  Kr0  1  0.49999999  0.00000000  0.25000001  1
  Ni  Ni1  1  0.00000000  0.49999999  0.75000002  1
  He  He2  1  0.00000000  0.00000000  0.00000000  1
  O  O3  1  0.49999999  0.49999999  0.50000001  1
  Ga  Ga4  1  0.00000000  0.49999999  0.25000001  1
  Tc  Tc5  1  0.49999999  0.00000000  0.75000002  1
  Se  Se6  1  0.00000000  0.00000000  0.50000001  1
  Ge  Ge7  1  0.49999999  0.49999999  0.00000000  1
  Ag  Ag8  1  0.00000000  0.00000000  0.26829685  1
  Cu  Cu9  1  0.49999999  0.49999999  0.23170317  1
  Te  Te10  1  0.00000000  0.00000000  0.73170318  1
  Xe  Xe11  1  0.49999999  0.49999999  0.76829686  1
  Ru  Ru12  1  0.34371441  0.20158483  0.99825964  1
  Pt  Pt13  1  0.65628557  0.79841515  0.99825964  1
  V  V14  1  0.79841515  0.34371441  0.00174038  1
  Re  Re15  1  0.20158483  0.65628557  0.00174038  1
  Gd  Gd16  1  0.84371440  0.29841516  0.49825963  1
  Cr  Cr17  1  0.15628558  0.70158481  0.49825963  1
  Cl  Cl18  1  0.29841516  0.15628558  0.50174039  1
  Cr  Cr19  1  0.70158481  0.84371440  0.50174039  1
