# generated using pymatgen
data_CaAcPrTmAlZnSiRuWSe
_symmetry_space_group_name_H-M   'P 1'
_cell_length_a   6.47512817
_cell_length_b   6.47512817
_cell_length_c   6.47512817
_cell_angle_alpha   60.00000000
_cell_angle_beta   60.00000000
_cell_angle_gamma   60.00000000
_symmetry_Int_Tables_number   1
_chemical_formula_structural   CaAcPrTmAlZnSiRuWSe
_chemical_formula_sum   'Ca1 Ac1 Pr1 Tm1 Al1 Zn1 Si1 Ru1 W1 Se1'
_cell_volume   191.96856169
_cell_formula_units_Z   1
loop_
 _symmetry_equiv_pos_site_id
 _symmetry_equiv_pos_as_xyz
  1  'x, y, z'
loop_
 _atom_site_type_symbol
 _atom_site_label
 _atom_site_symmetry_multiplicity
 _atom_site_fract_x
 _atom_site_fract_y
 _atom_site_fract_z
 _atom_site_occupancy
  Ca  Ca0  1  0.74999999  0.74999999  0.74999999  1
  Se  Se1  1  0.25000000  0.25000000  0.25000000  1
  Al  Al2  1  0.50000000  0.50000000  0.50000000  1
  Ac  Ac3  1  0.00000000  0.00000000  0.00000000  1
  Si  Si4  1  0.21076700  0.78923299  0.21076700  1
  Ru  Ru5  1  0.78923299  0.21076700  0.78923299  1
  Zn  Zn6  1  0.21076700  0.78923299  0.78923299  1
  Pr  Pr7  1  0.78923299  0.21076700  0.21076700  1
  W  W8  1  0.21076700  0.21076700  0.78923299  1
  Tm  Tm9  1  0.78923299  0.78923299  0.21076700  1
