# generated using pymatgen
data_LiYbNdHo2TmThMgScCuSnBPHOsPbCN
_symmetry_space_group_name_H-M   'P 1'
_cell_length_a   5.31857204
_cell_length_b   9.37416172
_cell_length_c   9.37416172
_cell_angle_alpha   76.79824066
_cell_angle_beta   73.51988220
_cell_angle_gamma   73.51988220
_symmetry_Int_Tables_number   1
_chemical_formula_structural   LiYbNdHo2TmThMgScCuSnBPHOsPbCN
_chemical_formula_sum
'Li1 Yb1 Nd1 Ho2 Tm1 Th1 Mg1 Sc1 Cu1 Sn1 B1 P1 H1 Os1 Pb1 C1 N1'
_cell_volume   424.16123578
_cell_formula_units_Z   1
loop_
 _symmetry_equiv_pos_site_id
 _symmetry_equiv_pos_as_xyz
  1  'x, y, z'
loop_
 _atom_site_type_symbol
 _atom_site_label
 _atom_site_symmetry_multiplicity
 _atom_site_fract_x
 _atom_site_fract_y
 _atom_site_fract_z
 _atom_site_occupancy
  Li  Li0  1  0.26326097  0.37958100  0.62041896  1
  Sn  Sn1  1  0.76326000  0.12042000  0.87958095  1
  Yb  Yb2  1  0.73673896  0.62041900  0.37958094  1
  Ho  Ho3  1  0.23673993  0.87958000  0.12041895  1
  H  H4  1  0.74999997  0.47620700  0.02379295  1
  Mg  Mg5  1  0.24999992  0.97620700  0.52379294  1
  Pb  Pb6  1  0.24999996  0.52379300  0.97620695  1
  Os  Os7  1  0.75000001  0.02379300  0.47620696  1
  Cu  Cu8  1  0.24999998  0.25000000  0.24999998  1
  Th  Th9  1  0.74999994  0.75000000  0.74999993  1
  N  N10  1  0.08752594  0.77621900  0.51329796  1
  C  C11  1  0.87704295  0.72378100  0.98670192  1
  B  B12  1  0.41247392  0.98670200  0.72378093  1
  Ho  Ho13  1  0.62295696  0.51329800  0.77621894  1
  Sc  Sc14  1  0.58752601  0.01329800  0.27621897  1
  P  P15  1  0.12295698  0.27621900  0.01329798  1
  Tm  Tm16  1  0.91247399  0.22378100  0.48670195  1
  Nd  Nd17  1  0.37704296  0.48670200  0.22378096  1
