# generated using pymatgen
data_NdTmPu2MnCrGaSiSnBiPPdPt2Xe2HeBr
_symmetry_space_group_name_H-M   'P 1'
_cell_length_a   4.76816320
_cell_length_b   4.76816320
_cell_length_c   8.87754059
_cell_angle_alpha   90.00000000
_cell_angle_beta   90.00000000
_cell_angle_gamma   90.00000000
_symmetry_Int_Tables_number   1
_chemical_formula_structural   NdTmPu2MnCrGaSiSnBiPPdPt2Xe2HeBr
_chemical_formula_sum
'Nd1 Tm1 Pu2 Mn1 Cr1 Ga1 Si1 Sn1 Bi1 P1 Pd1 Pt2 Xe2 He1 Br1'
_cell_volume   201.83426178
_cell_formula_units_Z   1
loop_
 _symmetry_equiv_pos_site_id
 _symmetry_equiv_pos_as_xyz
  1  'x, y, z'
loop_
 _atom_site_type_symbol
 _atom_site_label
 _atom_site_symmetry_multiplicity
 _atom_site_fract_x
 _atom_site_fract_y
 _atom_site_fract_z
 _atom_site_occupancy
  Tm  Tm0  1  0.00000000  0.00000000  0.34631102  1
  Xe  Xe1  1  0.00000000  0.00000000  0.65368903  1
  Cr  Cr2  1  0.49999998  0.49999998  0.15368901  1
  Nd  Nd3  1  0.49999998  0.49999998  0.84631104  1
  Si  Si4  1  0.00000000  0.00000000  0.00000000  1
  Pu  Pu5  1  0.49999998  0.49999998  0.50000002  1
  He  He6  1  0.18493799  0.81506197  0.84673204  1
  P  P7  1  0.18493799  0.81506197  0.15326801  1
  Ga  Ga8  1  0.21129599  0.78870397  0.50000002  1
  Pt  Pt9  1  0.28870399  0.28870399  0.00000000  1
  Pt  Pt10  1  0.31506199  0.31506199  0.34673202  1
  Mn  Mn11  1  0.31506199  0.31506199  0.65326803  1
  Pu  Pu12  1  0.68493797  0.68493797  0.65326803  1
  Bi  Bi13  1  0.68493797  0.68493797  0.34673202  1
  Br  Br14  1  0.71129597  0.71129597  0.00000000  1
  Pd  Pd15  1  0.78870397  0.21129599  0.50000002  1
  Xe  Xe16  1  0.81506197  0.18493799  0.15326801  1
  Sn  Sn17  1  0.81506197  0.18493799  0.84673204  1
