# generated using pymatgen
data_LiNdEuPuScUVCdFeCoCuTcB2PPdWKr
_symmetry_space_group_name_H-M   'P 1'
_cell_length_a   5.75893211
_cell_length_b   8.57497215
_cell_length_c   8.57497120
_cell_angle_alpha   120.00000000
_cell_angle_beta   90.00000000
_cell_angle_gamma   90.00000000
_symmetry_Int_Tables_number   1
_chemical_formula_structural   LiNdEuPuScUVCdFeCoCuTcB2PPdWKr
_chemical_formula_sum
'Li1 Nd1 Eu1 Pu1 Sc1 U1 V1 Cd1 Fe1 Co1 Tc1 Cu1 B2 P1 Pd1 W1 Kr1'
_cell_volume   366.72285682
_cell_formula_units_Z   1
loop_
 _symmetry_equiv_pos_site_id
 _symmetry_equiv_pos_as_xyz
  1  'x, y, z'
loop_
 _atom_site_type_symbol
 _atom_site_label
 _atom_site_symmetry_multiplicity
 _atom_site_fract_x
 _atom_site_fract_y
 _atom_site_fract_z
 _atom_site_occupancy
  Eu  Eu0  1  0.99999998  0.33333332  0.66666668  1
  B  B1  1  -0.00000000  0.66666664  0.33333332  1
  Pu  Pu2  1  0.49999999  0.66666664  0.33333332  1
  Nd  Nd3  1  0.49999999  0.33333332  0.66666668  1
  P  P4  1  0.25000000  0.26522399  -0.00000001  1
  Fe  Fe5  1  0.25000000  0.73477597  0.73477600  1
  Co  Co6  1  0.25000000  0.00000000  0.26522401  1
  W  W7  1  0.74999999  0.73477597  1.00000000  1
  Tc  Tc8  1  0.74999999  0.26522399  0.26522400  1
  U  U9  1  0.74999999  0.00000000  0.73477602  1
  Cu  Cu10  1  0.49999999  0.00000000  -0.00000000  1
  B  B11  1  0.00000000  0.00000000  0.00000000  1
  Cd  Cd12  1  0.25000000  0.61470198  1.00000001  1
  Pd  Pd13  1  0.25000000  0.38529799  0.38529800  1
  Sc  Sc14  1  0.25000000  0.00000000  0.61470202  1
  Li  Li15  1  0.74999999  0.38529799  -0.00000002  1
  V  V16  1  0.74999999  0.61470198  0.61470200  1
  Kr  Kr17  1  0.74999999  0.00000000  0.38529801  1
