# generated using pymatgen
data_CaAcPmNdSmTmTaRhPbXe
_symmetry_space_group_name_H-M   'P 1'
_cell_length_a   7.90231705
_cell_length_b   7.90231705
_cell_length_c   7.90231705
_cell_angle_alpha   60.00000000
_cell_angle_beta   60.00000000
_cell_angle_gamma   60.00000000
_symmetry_Int_Tables_number   1
_chemical_formula_structural   CaAcPmNdSmTmTaRhPbXe
_chemical_formula_sum   'Ca1 Ac1 Pm1 Nd1 Sm1 Tm1 Ta1 Rh1 Pb1 Xe1'
_cell_volume   348.93806785
_cell_formula_units_Z   1
loop_
 _symmetry_equiv_pos_site_id
 _symmetry_equiv_pos_as_xyz
  1  'x, y, z'
loop_
 _atom_site_type_symbol
 _atom_site_label
 _atom_site_symmetry_multiplicity
 _atom_site_fract_x
 _atom_site_fract_y
 _atom_site_fract_z
 _atom_site_occupancy
  Xe  Xe0  1  0.25000000  0.25000000  0.25000000  1
  Pb  Pb1  1  0.75000000  0.75000000  0.75000000  1
  Nd  Nd2  1  0.50000000  0.50000000  0.50000000  1
  Rh  Rh3  1  0.00000000  0.00000000  0.00000000  1
  Tm  Tm4  1  0.25972300  0.74027700  0.25972300  1
  Ta  Ta5  1  0.25972300  0.25972300  0.74027700  1
  Ca  Ca6  1  0.74027700  0.25972300  0.74027700  1
  Ac  Ac7  1  0.25972300  0.74027700  0.74027700  1
  Pm  Pm8  1  0.74027700  0.25972300  0.25972300  1
  Sm  Sm9  1  0.74027700  0.74027700  0.25972300  1
