# generated using pymatgen
data_KLiAc2LaHfAgBiPPdWSBrF
_symmetry_space_group_name_H-M   'P 1'
_cell_length_a   5.90670300
_cell_length_b   5.96587276
_cell_length_c   6.03576708
_cell_angle_alpha   90.00000000
_cell_angle_beta   61.66275406
_cell_angle_gamma   90.00000000
_symmetry_Int_Tables_number   1
_chemical_formula_structural   KLiAc2LaHfAgBiPPdWSBrF
_chemical_formula_sum
'K1 Li1 La1 Ac2 Hf1 Ag1 Bi1 P1 Pd1 W1 S1 Br1 F1'
_cell_volume   187.20508926
_cell_formula_units_Z   1
loop_
 _symmetry_equiv_pos_site_id
 _symmetry_equiv_pos_as_xyz
  1  'x, y, z'
loop_
 _atom_site_type_symbol
 _atom_site_label
 _atom_site_symmetry_multiplicity
 _atom_site_fract_x
 _atom_site_fract_y
 _atom_site_fract_z
 _atom_site_occupancy
  K  K0  1  0.13619100  0.65490603  0.09630400  1
  La  La1  1  0.13619100  0.84509403  0.59630400  1
  Ac  Ac2  1  0.86380901  0.34509401  0.90369599  1
  F  F3  1  0.86380901  0.15490601  0.40369599  1
  Br  Br4  1  0.65891301  0.87835103  0.08006599  1
  W  W5  1  0.65891301  0.62164902  0.58006599  1
  Bi  Bi6  1  0.34108700  0.12164900  0.91993400  1
  P  P7  1  0.34108700  0.37835101  0.41993400  1
  Pd  Pd8  1  0.00000000  0.50000002  0.50000000  1
  Hf  Hf9  1  0.35777900  0.41043102  0.75361600  1
  S  S10  1  0.64222101  0.91043104  0.74638399  1
  Li  Li11  1  0.64222101  0.58956902  0.24638399  1
  Ac  Ac12  1  0.00000000  0.00000000  0.00000000  1
  Ag  Ag13  1  0.35777900  0.08956900  0.25361599  1
