# generated using pymatgen
data_BaLaPmUPaBeTlHgB
_symmetry_space_group_name_H-M   'P 1'
_cell_length_a   5.51949167
_cell_length_b   5.51949167
_cell_length_c   5.51949167
_cell_angle_alpha   60.00000000
_cell_angle_beta   60.00000000
_cell_angle_gamma   60.00000000
_symmetry_Int_Tables_number   1
_chemical_formula_structural   BaLaPmUPaBeTlHgB
_chemical_formula_sum   'Ba1 La1 Pm1 U1 Pa1 Be1 Tl1 Hg1 B1'
_cell_volume   118.90010811
_cell_formula_units_Z   1
loop_
 _symmetry_equiv_pos_site_id
 _symmetry_equiv_pos_as_xyz
  1  'x, y, z'
loop_
 _atom_site_type_symbol
 _atom_site_label
 _atom_site_symmetry_multiplicity
 _atom_site_fract_x
 _atom_site_fract_y
 _atom_site_fract_z
 _atom_site_occupancy
  Pa  Pa0  1  0.50000000  0.50000000  0.50000000  1
  Hg  Hg1  1  0.25000000  0.25000000  0.25000000  1
  U  U2  1  0.75000000  0.75000000  0.75000000  1
  La  La3  1  0.50000000  0.50000000  -0.00000000  1
  Pm  Pm4  1  0.00000000  0.00000000  0.50000000  1
  Ba  Ba5  1  0.50000000  0.00000000  -0.00000000  1
  Tl  Tl6  1  0.50000000  0.00000000  0.50000000  1
  B  B7  1  -0.00000000  0.50000000  0.50000000  1
  Be  Be8  1  -0.00000000  0.50000000  0.00000000  1
