# generated using pymatgen
data_YbHfThMgZrTaBeHgNePt2RhCO
_symmetry_space_group_name_H-M   'P 1'
_cell_length_a   6.73530388
_cell_length_b   6.74561405
_cell_length_c   6.84284019
_cell_angle_alpha   92.00918579
_cell_angle_beta   94.15744019
_cell_angle_gamma   93.69491577
_symmetry_Int_Tables_number   1
_chemical_formula_structural   YbHfThMgZrTaBeHgNePt2RhCO
_chemical_formula_sum
'Yb1 Th1 Hf1 Mg1 Zr1 Ta1 Be1 Hg1 Ne1 Pt2 Rh1 C1 O1'
_cell_volume   309.18667591
_cell_formula_units_Z   1
loop_
 _symmetry_equiv_pos_site_id
 _symmetry_equiv_pos_as_xyz
  1  'x, y, z'
loop_
 _atom_site_type_symbol
 _atom_site_label
 _atom_site_symmetry_multiplicity
 _atom_site_fract_x
 _atom_site_fract_y
 _atom_site_fract_z
 _atom_site_occupancy
  Th  Th0  1  0.23309598  0.54217998  0.41145602  1
  Yb  Yb1  1  0.41667600  0.23412799  0.55178901  1
  Hg  Hg2  1  0.76690399  0.45781999  0.58854401  1
  Ne  Ne3  1  0.58332398  0.76587198  0.44821102  1
  O  O4  1  0.54961399  0.41276299  0.23506200  1
  Ta  Ta5  1  0.45038598  0.58723698  0.76493802  1
  Zr  Zr6  1  0.22280499  0.21448899  0.21629100  1
  C  C7  1  0.77719498  0.78551097  0.78370902  1
  Pt  Pt8  1  0.37351697  0.71855098  0.11916601  1
  Hf  Hf9  1  0.13125199  0.37062899  0.73209502  1
  Pt  Pt10  1  0.73198201  0.13158600  0.37533800  1
  Mg  Mg11  1  0.62648300  0.28144899  0.88083401  1
  Rh  Rh12  1  0.86874799  0.62937098  0.26790500  1
  Be  Be13  1  0.26801797  0.86841397  0.62466203  1
