# generated using pymatgen
data_SmYTmLuPuScUZnTcMoAsNCl2
_symmetry_space_group_name_H-M   'P 1'
_cell_length_a   7.70463276
_cell_length_b   7.70463276
_cell_length_c   7.70463276
_cell_angle_alpha   60.00000000
_cell_angle_beta   60.00000000
_cell_angle_gamma   60.00000000
_symmetry_Int_Tables_number   1
_chemical_formula_structural   SmYTmLuPuScUZnTcMoAsNCl2
_chemical_formula_sum
'Sm1 Y1 Tm1 Lu1 Pu1 Sc1 U1 Zn1 Tc1 Mo1 As1 N1 Cl2'
_cell_volume   323.40060717
_cell_formula_units_Z   1
loop_
 _symmetry_equiv_pos_site_id
 _symmetry_equiv_pos_as_xyz
  1  'x, y, z'
loop_
 _atom_site_type_symbol
 _atom_site_label
 _atom_site_symmetry_multiplicity
 _atom_site_fract_x
 _atom_site_fract_y
 _atom_site_fract_z
 _atom_site_occupancy
  Tm  Tm0  1  0.49999999  0.49999999  0.49999999  1
  Lu  Lu1  1  0.25000000  0.25000000  0.25000000  1
  Mo  Mo2  1  0.37500000  0.87499999  0.87499999  1
  Cl  Cl3  1  0.87499999  0.37500000  0.87499999  1
  Tc  Tc4  1  0.87499999  0.87499999  0.87499999  1
  Pu  Pu5  1  0.87499999  0.87499999  0.37500000  1
  Y  Y6  1  0.11787400  0.11787400  0.64637799  1
  Zn  Zn7  1  0.10362200  0.63212599  0.63212599  1
  N  N8  1  0.63212599  0.63212599  0.10362200  1
  Sm  Sm9  1  0.11787400  0.64637799  0.11787400  1
  As  As10  1  0.64637799  0.11787400  0.11787400  1
  Cl  Cl11  1  0.63212599  0.63212599  0.63212599  1
  U  U12  1  0.63212599  0.10362200  0.63212599  1
  Sc  Sc13  1  0.11787400  0.11787400  0.11787400  1
