# generated using pymatgen
data_PrHoThZrU2TiBeCdGa2FeReBiMoRhAuI
_symmetry_space_group_name_H-M   'P 1'
_cell_length_a   4.72781181
_cell_length_b   5.72318125
_cell_length_c   7.92406511
_cell_angle_alpha   85.91259766
_cell_angle_beta   89.39205170
_cell_angle_gamma   88.10527802
_symmetry_Int_Tables_number   1
_chemical_formula_structural   PrHoThZrU2TiBeCdGa2FeReBiMoRhAuI
_chemical_formula_sum
'Pr1 Ho1 Th1 Zr1 U2 Ti1 Be1 Cd1 Ga2 Fe1 Re1 Bi1 Mo1 Rh1 Au1 I1'
_cell_volume   213.74072509
_cell_formula_units_Z   1
loop_
 _symmetry_equiv_pos_site_id
 _symmetry_equiv_pos_as_xyz
  1  'x, y, z'
loop_
 _atom_site_type_symbol
 _atom_site_label
 _atom_site_symmetry_multiplicity
 _atom_site_fract_x
 _atom_site_fract_y
 _atom_site_fract_z
 _atom_site_occupancy
  Rh  Rh0  1  0.47225100  0.49145498  0.98527896  1
  Ga  Ga1  1  0.53964202  0.15936599  0.34719598  1
  Mo  Mo2  1  0.49984899  0.83324097  0.66866996  1
  Au  Au3  1  0.01196398  0.67188698  0.30845898  1
  U  U4  1  0.97323603  0.33928799  0.68130496  1
  U  U5  1  0.98742204  0.00460500  0.01234998  1
  Fe  Fe6  1  0.81378800  0.95783097  0.23359496  1
  Ti  Ti7  1  0.79747602  0.29382399  0.91229796  1
  Bi  Bi8  1  0.69130902  0.11992500  0.57548997  1
  Ho  Ho9  1  0.31442200  0.54566498  0.75909997  1
  Be  Be10  1  0.19539499  0.71101098  0.09168098  1
  Th  Th11  1  0.80650701  0.63436798  0.53438896  1
  I  I12  1  0.70987500  0.79848697  0.88222095  1
  Zr  Zr13  1  0.67939001  0.47147198  0.21788197  1
  Cd  Cd14  1  0.29918698  0.86477497  0.44800697  1
  Ga  Ga15  1  0.31251501  0.19373199  0.12519599  1
  Re  Re16  1  0.19517200  0.37179499  0.42497498  1
  Pr  Pr17  1  0.20060001  0.03727200  0.79190498  1
