# generated using pymatgen
data_CsDyYErTiGaCoSiBSbTeHIrOsCSe2
_symmetry_space_group_name_H-M   'P 1'
_cell_length_a   5.59067822
_cell_length_b   5.59067869
_cell_length_c   8.56275558
_cell_angle_alpha   90.00000000
_cell_angle_beta   90.00000000
_cell_angle_gamma   119.99999237
_symmetry_Int_Tables_number   1
_chemical_formula_structural   CsDyYErTiGaCoSiBSbTeHIrOsCSe2
_chemical_formula_sum
'Cs1 Dy1 Y1 Er1 Ti1 Ga1 Co1 Si1 B1 Sb1 Te1 H1 Os1 Ir1 C1 Se2'
_cell_volume   231.77855024
_cell_formula_units_Z   1
loop_
 _symmetry_equiv_pos_site_id
 _symmetry_equiv_pos_as_xyz
  1  'x, y, z'
loop_
 _atom_site_type_symbol
 _atom_site_label
 _atom_site_symmetry_multiplicity
 _atom_site_fract_x
 _atom_site_fract_y
 _atom_site_fract_z
 _atom_site_occupancy
  Cs  Cs0  1  0.00000000  0.00000000  0.29537501  1
  B  B1  1  0.00000000  0.00000000  0.70462503  1
  C  C2  1  0.33333328  0.66666665  -0.00000000  1
  Si  Si3  1  0.66666662  0.33333332  -0.00000000  1
  H  H4  1  0.33333328  0.66666665  0.33260902  1
  Sb  Sb5  1  0.66666662  0.33333332  0.33260902  1
  Er  Er6  1  0.66666662  0.33333332  0.66739103  1
  Os  Os7  1  0.33333328  0.66666665  0.66739103  1
  Se  Se8  1  0.49999998  0.00000000  0.16438701  1
  Ti  Ti9  1  0.49999995  0.49999999  0.16438701  1
  Se  Se10  1  -0.00000003  0.49999999  0.16438701  1
  Ga  Ga11  1  0.49999998  0.00000000  0.83561304  1
  Ir  Ir12  1  0.49999995  0.49999999  0.83561304  1
  Dy  Dy13  1  -0.00000003  0.49999999  0.83561304  1
  Co  Co14  1  0.49999998  0.00000000  0.50000002  1
  Te  Te15  1  0.49999995  0.49999999  0.50000002  1
  Y  Y16  1  -0.00000003  0.49999999  0.50000002  1
