# generated using pymatgen
data_KCaAlCdGaHWCNCl
_symmetry_space_group_name_H-M   'P 1'
_cell_length_a   5.97689581
_cell_length_b   6.46268177
_cell_length_c   7.11687088
_cell_angle_alpha   117.00315857
_cell_angle_beta   114.82892609
_cell_angle_gamma   90.00000000
_symmetry_Int_Tables_number   1
_chemical_formula_structural   KCaAlCdGaHWCNCl
_chemical_formula_sum   'K1 Ca1 Al1 Cd1 Ga1 H1 W1 C1 N1 Cl1'
_cell_volume   216.02510898
_cell_formula_units_Z   1
loop_
 _symmetry_equiv_pos_site_id
 _symmetry_equiv_pos_as_xyz
  1  'x, y, z'
loop_
 _atom_site_type_symbol
 _atom_site_label
 _atom_site_symmetry_multiplicity
 _atom_site_fract_x
 _atom_site_fract_y
 _atom_site_fract_z
 _atom_site_occupancy
  Ga  Ga0  1  0.85761700  0.50858903  0.71523398  1
  Ca  Ca1  1  0.14238300  0.49141103  0.28476602  1
  Al  Al2  1  0.64238299  0.79335505  0.28476601  1
  K  K3  1  0.35761700  0.20664501  0.71523399  1
  C  C4  1  0.25000000  0.00000000  -0.00000001  1
  H  H5  1  0.74999999  1.00000006  1.00000001  1
  Cd  Cd6  1  0.38909300  0.67559704  0.77818702  1
  Cl  Cl7  1  0.61090700  0.32440302  0.22181298  1
  W  W8  1  0.11090599  0.89741006  0.22181204  1
  N  N9  1  0.88909400  0.10259001  0.77818796  1
