# generated using pymatgen
data_TmUPaSNF
_symmetry_space_group_name_H-M   'P 1'
_cell_length_a   3.84776998
_cell_length_b   3.91986203
_cell_length_c   7.67730570
_cell_angle_alpha   104.79070282
_cell_angle_beta   90.00000000
_cell_angle_gamma   90.00000000
_symmetry_Int_Tables_number   1
_chemical_formula_structural   TmUPaSNF
_chemical_formula_sum   'Tm1 U1 Pa1 S1 N1 F1'
_cell_volume   111.95783146
_cell_formula_units_Z   1
loop_
 _symmetry_equiv_pos_site_id
 _symmetry_equiv_pos_as_xyz
  1  'x, y, z'
loop_
 _atom_site_type_symbol
 _atom_site_label
 _atom_site_symmetry_multiplicity
 _atom_site_fract_x
 _atom_site_fract_y
 _atom_site_fract_z
 _atom_site_occupancy
  N  N0  1  0.25000000  0.10052400  0.20104800  1
  Pa  Pa1  1  0.75000000  0.89947599  0.79895201  1
  F  F2  1  0.25000000  0.44030799  0.88061602  1
  S  S3  1  0.75000000  0.55969199  0.11938399  1
  Tm  Tm4  1  0.25000000  0.74873899  0.49747800  1
  U  U5  1  0.75000000  0.25126100  0.50252201  1
