# generated using pymatgen
data_RbLiCeHoLuSc2NbAlVFeCoCuBiMoAuS2
_symmetry_space_group_name_H-M   'P 1'
_cell_length_a   4.18142509
_cell_length_b   9.66654682
_cell_length_c   12.29890156
_cell_angle_alpha   90.00000000
_cell_angle_beta   90.00000000
_cell_angle_gamma   90.00000000
_symmetry_Int_Tables_number   1
_chemical_formula_structural   RbLiCeHoLuSc2NbAlVFeCoCuBiMoAuS2
_chemical_formula_sum
'Rb1 Li1 Ce1 Ho1 Lu1 Sc2 Nb1 Al1 V1 Fe1 Co1 Cu1 Bi1 Mo1 Au1 S2'
_cell_volume   497.12088097
_cell_formula_units_Z   1
loop_
 _symmetry_equiv_pos_site_id
 _symmetry_equiv_pos_as_xyz
  1  'x, y, z'
loop_
 _atom_site_type_symbol
 _atom_site_label
 _atom_site_symmetry_multiplicity
 _atom_site_fract_x
 _atom_site_fract_y
 _atom_site_fract_z
 _atom_site_occupancy
  Li  Li0  1  0.24999999  0.33525901  0.42151402  1
  Sc  Sc1  1  0.74999998  0.66474101  0.92151403  1
  Cu  Cu2  1  0.74999998  0.99162902  0.39453301  1
  Sc  Sc3  1  0.74999998  0.99153102  0.10447500  1
  S  S4  1  0.24999999  0.00846900  0.60447502  1
  Fe  Fe5  1  0.24999999  0.00837100  0.89453303  1
  Lu  Lu6  1  0.24999999  0.31923401  0.07860500  1
  V  V7  1  0.74999998  0.68076601  0.57860502  1
  Bi  Bi8  1  0.74999998  0.65425401  0.25056601  1
  Co  Co9  1  0.24999999  0.34574601  0.75056603  1
  Ce  Ce10  1  0.24999999  0.99678402  0.24967001  1
  Ho  Ho11  1  0.74999998  0.00321600  0.74967003  1
  Nb  Nb12  1  0.74999998  0.36400901  0.25960601  1
  Au  Au13  1  0.24999999  0.63599101  0.75960603  1
  S  S14  1  0.74999998  0.38297901  0.57498602  1
  Mo  Mo15  1  0.74999998  0.38988401  0.91604503  1
  Rb  Rb16  1  0.24999999  0.61011601  0.41604501  1
  Al  Al17  1  0.24999999  0.61702101  0.07498600  1
