# generated using pymatgen
data_YbPmHo2ErTmHfMgNpUTiNbFeOsNeHg2
_symmetry_space_group_name_H-M   'P 1'
_cell_length_a   6.86533594
_cell_length_b   6.89184761
_cell_length_c   6.89184761
_cell_angle_alpha   85.43724823
_cell_angle_beta   89.17140961
_cell_angle_gamma   90.82859039
_symmetry_Int_Tables_number   1
_chemical_formula_structural   YbPmHo2ErTmHfMgNpUTiNbFeOsNeHg2
_chemical_formula_sum
'Yb1 Pm1 Ho2 Er1 Tm1 Hf1 Mg1 Np1 U1 Ti1 Nb1 Fe1 Os1 Ne1 Hg2'
_cell_volume   324.97943760
_cell_formula_units_Z   1
loop_
 _symmetry_equiv_pos_site_id
 _symmetry_equiv_pos_as_xyz
  1  'x, y, z'
loop_
 _atom_site_type_symbol
 _atom_site_label
 _atom_site_symmetry_multiplicity
 _atom_site_fract_x
 _atom_site_fract_y
 _atom_site_fract_z
 _atom_site_occupancy
  Nb  Nb0  1  0.40927402  0.47849799  0.52150201  1
  U  U1  1  0.48783500  0.00821800  0.99178197  1
  Os  Os2  1  0.02031804  0.97724198  0.49354506  1
  Yb  Yb3  1  0.02031802  0.50645499  0.02275803  1
  Ne  Ne4  1  0.93489001  0.04847500  0.95152496  1
  Ti  Ti5  1  0.57880000  0.06356400  0.16278298  1
  Ho  Ho6  1  0.57880004  0.83721699  0.93643602  1
  Tm  Tm7  1  0.51900601  0.15876600  0.84123398  1
  Mg  Mg8  1  0.28591604  0.97238298  0.02761705  1
  Pm  Pm9  1  0.12415600  0.10169800  0.61761699  1
  Np  Np10  1  0.12225403  0.80684799  0.47682204  1
  Hg  Hg11  1  0.00181400  0.08196500  0.30763100  1
  Hg  Hg12  1  0.83418104  0.94126898  0.58052802  1
  Ho  Ho13  1  0.12225402  0.52317799  0.19315203  1
  Er  Er14  1  0.12415602  0.38238299  0.89830201  1
  Hf  Hf15  1  0.00181403  0.69236899  0.91803503  1
  Fe  Fe16  1  0.83418102  0.41947199  0.05873099  1
