# generated using pymatgen
data_KRbPrNd2HfTi2VReBPt
_symmetry_space_group_name_H-M   'P 1'
_cell_length_a   3.89334798
_cell_length_b   3.92194295
_cell_length_c   17.39085007
_cell_angle_alpha   90.00000000
_cell_angle_beta   90.00000000
_cell_angle_gamma   90.00000000
_symmetry_Int_Tables_number   1
_chemical_formula_structural   KRbPrNd2HfTi2VReBPt
_chemical_formula_sum   'Rb1 K1 Pr1 Nd2 Hf1 Ti2 V1 Re1 B1 Pt1'
_cell_volume   265.54938778
_cell_formula_units_Z   1
loop_
 _symmetry_equiv_pos_site_id
 _symmetry_equiv_pos_as_xyz
  1  'x, y, z'
loop_
 _atom_site_type_symbol
 _atom_site_label
 _atom_site_symmetry_multiplicity
 _atom_site_fract_x
 _atom_site_fract_y
 _atom_site_fract_z
 _atom_site_occupancy
  Rb  Rb0  1  0.25000000  0.24463400  0.85452600  1
  Re  Re1  1  0.75000000  0.74463401  0.64547400  1
  Nd  Nd2  1  0.75000000  0.75536601  0.14547400  1
  Ti  Ti3  1  0.25000000  0.25536600  0.35452600  1
  Pt  Pt4  1  0.25000000  0.78495201  0.49894900  1
  Hf  Hf5  1  0.75000000  0.21504800  0.50105100  1
  B  B6  1  0.25000000  0.71504801  0.99894900  1
  Ti  Ti7  1  0.75000000  0.28495200  0.00105100  1
  Pr  Pr8  1  0.25000000  0.24716200  0.68664300  1
  Nd  Nd9  1  0.25000000  0.25283800  0.18664300  1
  V  V10  1  0.75000000  0.75283801  0.31335700  1
  K  K11  1  0.75000000  0.74716201  0.81335700  1
