# generated using pymatgen
data_KSrCeMgUZnTcNiSnCSeCl
_symmetry_space_group_name_H-M   'P 1'
_cell_length_a   4.91306496
_cell_length_b   5.50818586
_cell_length_c   5.50818586
_cell_angle_alpha   119.67211151
_cell_angle_beta   90.00000000
_cell_angle_gamma   90.00000000
_symmetry_Int_Tables_number   1
_chemical_formula_structural   KSrCeMgUZnTcNiSnCSeCl
_chemical_formula_sum
'K1 Sr1 Ce1 Mg1 U1 Zn1 Tc1 Ni1 Sn1 C1 Se1 Cl1'
_cell_volume   129.51669918
_cell_formula_units_Z   1
loop_
 _symmetry_equiv_pos_site_id
 _symmetry_equiv_pos_as_xyz
  1  'x, y, z'
loop_
 _atom_site_type_symbol
 _atom_site_label
 _atom_site_symmetry_multiplicity
 _atom_site_fract_x
 _atom_site_fract_y
 _atom_site_fract_z
 _atom_site_occupancy
  Sr  Sr0  1  0.48607500  0.33724100  0.33724100  1
  Ni  Ni1  1  0.98607501  0.66275900  0.66275899  1
  Zn  Zn2  1  0.01172200  0.32403500  0.98272601  1
  Sn  Sn3  1  0.51172200  0.67596500  0.01727398  1
  K  K4  1  0.51172200  0.01727400  0.67596501  1
  Cl  Cl5  1  0.01172200  0.98272600  0.32403498  1
  C  C6  1  0.96910501  0.22636400  0.22636400  1
  Se  Se7  1  0.46910500  0.77363600  0.77363599  1
  U  U8  1  0.35918800  0.90591700  0.34481198  1
  Ce  Ce9  1  0.35918800  0.34481200  0.90591700  1
  Mg  Mg10  1  0.85918801  0.65518800  0.09408298  1
  Tc  Tc11  1  0.85918801  0.09408300  0.65518801  1
