# generated using pymatgen
data_Nd2YErMnBeTeAsPOsRhS
_symmetry_space_group_name_H-M   'P 1'
_cell_length_a   9.02147388
_cell_length_b   9.02147388
_cell_length_c   9.02147388
_cell_angle_alpha   73.31622314
_cell_angle_beta   73.31332397
_cell_angle_gamma   115.19960022
_symmetry_Int_Tables_number   1
_chemical_formula_structural   Nd2YErMnBeTeAsPOsRhS
_chemical_formula_sum   'Nd2 Y1 Er1 Mn1 Be1 Te1 As1 P1 Os1 Rh1 S1'
_cell_volume   560.93128966
_cell_formula_units_Z   1
loop_
 _symmetry_equiv_pos_site_id
 _symmetry_equiv_pos_as_xyz
  1  'x, y, z'
loop_
 _atom_site_type_symbol
 _atom_site_label
 _atom_site_symmetry_multiplicity
 _atom_site_fract_x
 _atom_site_fract_y
 _atom_site_fract_z
 _atom_site_occupancy
  As  As0  1  0.50000005  1.00000001  -0.00000005  1
  Os  Os1  1  0.00000003  0.50000001  -0.00000001  1
  Te  Te2  1  0.25000001  0.26525400  0.48474597  1
  P  P3  1  0.75000003  0.73474601  0.51525394  1
  S  S4  1  0.45515804  0.72746901  0.81737295  1
  Y  Y5  1  0.98513200  0.17545900  0.30967296  1
  Er  Er6  1  0.48513201  0.29480500  0.69032596  1
  Be  Be7  1  0.04484204  0.72746901  0.22768897  1
  Mn  Mn8  1  0.95515801  0.27253100  0.77231094  1
  Nd  Nd9  1  0.01486805  0.82454101  0.69032696  1
  Nd  Nd10  1  0.51486803  0.70519501  0.30967396  1
  Rh  Rh11  1  0.54484201  0.27253100  0.18262697  1
