# generated using pymatgen
data_CsCePmSmDyHo2TmMgZrCdNi2HPdAuSXeIHe
_symmetry_space_group_name_H-M   'P 1'
_cell_length_a   8.57107353
_cell_length_b   8.78458881
_cell_length_c   12.39946556
_cell_angle_alpha   90.00000000
_cell_angle_beta   90.00000000
_cell_angle_gamma   90.00000000
_symmetry_Int_Tables_number   1
_chemical_formula_structural   CsCePmSmDyHo2TmMgZrCdNi2HPdAuSXeIHe
_chemical_formula_sum
'Cs1 Ce1 Pm1 Sm1 Dy1 Ho2 Tm1 Mg1 Zr1 Cd1 Ni2 Pd1 H1 Au1 S1 Xe1 I1 He1'
_cell_volume   933.59738302
_cell_formula_units_Z   1
loop_
 _symmetry_equiv_pos_site_id
 _symmetry_equiv_pos_as_xyz
  1  'x, y, z'
loop_
 _atom_site_type_symbol
 _atom_site_label
 _atom_site_symmetry_multiplicity
 _atom_site_fract_x
 _atom_site_fract_y
 _atom_site_fract_z
 _atom_site_occupancy
  Pd  Pd0  1  0.47967803  0.95011302  0.25000001  1
  Dy  Dy1  1  0.97967805  0.54988701  0.75000003  1
  Xe  Xe2  1  0.02032200  0.45011301  0.25000001  1
  Mg  Mg3  1  0.52032203  0.04988700  0.75000003  1
  Ho  Ho4  1  0.00000000  0.00000000  0.00000000  1
  Cd  Cd5  1  0.50000003  0.50000001  0.00000000  1
  Pm  Pm6  1  0.50000003  0.50000001  0.50000002  1
  I  I7  1  0.00000000  0.00000000  0.50000002  1
  S  S8  1  0.55564003  0.50274201  0.25000001  1
  Au  Au9  1  0.05564000  0.99725802  0.75000003  1
  Sm  Sm10  1  0.94436005  0.00274200  0.25000001  1
  Ho  Ho11  1  0.44436002  0.49725801  0.75000003  1
  Ni  Ni12  1  0.29474102  0.20713000  0.02749200  1
  Ni  Ni13  1  0.79474104  0.29287001  0.97250803  1
  Ce  Ce14  1  0.20525901  0.70713001  0.47250802  1
  He  He15  1  0.70525904  0.79287002  0.52749202  1
  H  H16  1  0.70525904  0.79287002  0.97250803  1
  Cs  Cs17  1  0.20525901  0.70713001  0.02749200  1
  Tm  Tm18  1  0.79474104  0.29287001  0.52749202  1
  Zr  Zr19  1  0.29474102  0.20713000  0.47250802  1
