# generated using pymatgen
data_RbYTmPuScUAlGaTcOsPbC2BrO
_symmetry_space_group_name_H-M   'P 1'
_cell_length_a   8.94118023
_cell_length_b   8.94118023
_cell_length_c   8.94118023
_cell_angle_alpha   72.70255280
_cell_angle_beta   72.70255280
_cell_angle_gamma   72.70255280
_symmetry_Int_Tables_number   1
_chemical_formula_structural   RbYTmPuScUAlGaTcOsPbC2BrO
_chemical_formula_sum
'Rb1 Y1 Tm1 Pu1 Sc1 U1 Al1 Ga1 Tc1 Os1 Pb1 C2 Br1 O1'
_cell_volume   634.26274472
_cell_formula_units_Z   1
loop_
 _symmetry_equiv_pos_site_id
 _symmetry_equiv_pos_as_xyz
  1  'x, y, z'
loop_
 _atom_site_type_symbol
 _atom_site_label
 _atom_site_symmetry_multiplicity
 _atom_site_fract_x
 _atom_site_fract_y
 _atom_site_fract_z
 _atom_site_occupancy
  Rb  Rb0  1  0.50000004  0.49999999  0.49999996  1
  Os  Os1  1  0.70620406  0.70620398  0.70620395  1
  Al  Al2  1  0.29379602  0.29379599  0.29379598  1
  Pu  Pu3  1  0.66533601  0.16753300  0.88549998  1
  Y  Y4  1  0.88550006  0.66533598  0.16753293  1
  Ga  Ga5  1  0.16753308  0.88549998  0.66533596  1
  Tm  Tm6  1  0.33466407  0.83246698  0.11449994  1
  Tc  Tc7  1  0.11450003  0.33466399  0.83246699  1
  C  C8  1  0.83246701  0.11450000  0.33466397  1
  Br  Br9  1  0.36560805  0.53701099  0.90984197  1
  C  C10  1  0.90984203  0.36560799  0.53701096  1
  Pb  Pb11  1  0.53701108  0.90984198  0.36560794  1
  O  O12  1  0.63439204  0.46298899  0.09015795  1
  U  U13  1  0.09015806  0.63439198  0.46298897  1
  Sc  Sc14  1  0.46298901  0.09015800  0.63439199  1
