# generated using pymatgen
data_KPmEuGdDyBeCrAgIrPdAuIKrN
_symmetry_space_group_name_H-M   'P 1'
_cell_length_a   4.88863802
_cell_length_b   5.52074480
_cell_length_c   7.41905975
_cell_angle_alpha   90.00000000
_cell_angle_beta   109.23628998
_cell_angle_gamma   90.00000000
_symmetry_Int_Tables_number   1
_chemical_formula_structural   KPmEuGdDyBeCrAgIrPdAuIKrN
_chemical_formula_sum
'K1 Pm1 Gd1 Eu1 Dy1 Be1 Cr1 Ag1 Ir1 Pd1 Au1 I1 Kr1 N1'
_cell_volume   189.05303140
_cell_formula_units_Z   1
loop_
 _symmetry_equiv_pos_site_id
 _symmetry_equiv_pos_as_xyz
  1  'x, y, z'
loop_
 _atom_site_type_symbol
 _atom_site_label
 _atom_site_symmetry_multiplicity
 _atom_site_fract_x
 _atom_site_fract_y
 _atom_site_fract_z
 _atom_site_occupancy
  Gd  Gd0  1  0.63747798  0.59740102  0.40478499  1
  Pm  Pm1  1  0.23269299  0.40259901  0.59521501  1
  Ir  Ir2  1  0.13747800  0.90259903  0.40478501  1
  Kr  Kr3  1  0.73269298  0.09740100  0.59521499  1
  Ag  Ag4  1  0.48364099  0.50000002  -0.00000002  1
  I  I5  1  0.98364098  0.00000000  -0.00000004  1
  Be  Be6  1  0.57510099  0.53078802  0.17114898  1
  N  N7  1  0.40395199  0.46921202  0.82885101  1
  Pd  Pd8  1  0.81798798  0.87393603  0.45683998  1
  Cr  Cr9  1  0.36114799  0.12606400  0.54316000  1
  Au  Au10  1  0.31798799  0.62606402  0.45684000  1
  K  K11  1  0.86114798  0.37393601  0.54315998  1
  Eu  Eu12  1  0.90395198  0.03078800  0.82885099  1
  Dy  Dy13  1  0.07510100  0.96921204  0.17114900  1
