# generated using pymatgen
data_NpMnVSiAsAuSN
_symmetry_space_group_name_H-M   'P 1'
_cell_length_a   5.28068781
_cell_length_b   5.28068781
_cell_length_c   5.43469477
_cell_angle_alpha   60.93306351
_cell_angle_beta   60.93306351
_cell_angle_gamma   60.00000000
_symmetry_Int_Tables_number   1
_chemical_formula_structural   NpMnVSiAsAuSN
_chemical_formula_sum   'Np1 Mn1 V1 Si1 As1 Au1 S1 N1'
_cell_volume   108.64862998
_cell_formula_units_Z   1
loop_
 _symmetry_equiv_pos_site_id
 _symmetry_equiv_pos_as_xyz
  1  'x, y, z'
loop_
 _atom_site_type_symbol
 _atom_site_label
 _atom_site_symmetry_multiplicity
 _atom_site_fract_x
 _atom_site_fract_y
 _atom_site_fract_z
 _atom_site_occupancy
  V  V0  1  0.50000000  0.50000002  0.50000003  1
  Si  Si1  1  0.00000000  0.00000000  0.00000000  1
  N  N2  1  0.84459301  0.67161702  0.24331904  1
  Np  Np3  1  0.24047099  0.84459303  0.24331903  1
  As  As4  1  0.32838300  0.75952902  0.75668104  1
  Mn  Mn5  1  0.75952902  0.15540700  0.75668104  1
  Au  Au6  1  0.15540700  0.32838301  0.75668103  1
  S  S7  1  0.67161701  0.24047101  0.24331902  1
