# generated using pymatgen
data_CsNdTmBeInFeReHPb2
_symmetry_space_group_name_H-M   'P 1'
_cell_length_a   7.91589928
_cell_length_b   7.91589928
_cell_length_c   7.91589928
_cell_angle_alpha   60.00000000
_cell_angle_beta   60.00000000
_cell_angle_gamma   60.00000000
_symmetry_Int_Tables_number   1
_chemical_formula_structural   CsNdTmBeInFeReHPb2
_chemical_formula_sum   'Cs1 Nd1 Tm1 Be1 In1 Fe1 Re1 H1 Pb2'
_cell_volume   350.74039017
_cell_formula_units_Z   1
loop_
 _symmetry_equiv_pos_site_id
 _symmetry_equiv_pos_as_xyz
  1  'x, y, z'
loop_
 _atom_site_type_symbol
 _atom_site_label
 _atom_site_symmetry_multiplicity
 _atom_site_fract_x
 _atom_site_fract_y
 _atom_site_fract_z
 _atom_site_occupancy
  Fe  Fe0  1  0.25000000  0.25000000  0.25000000  1
  Be  Be1  1  0.74999999  0.74999999  0.74999999  1
  Pb  Pb2  1  0.50000000  0.50000000  0.50000000  1
  Nd  Nd3  1  0.00000000  0.00000000  0.00000000  1
  Tm  Tm4  1  0.24119200  0.75880799  0.24119200  1
  H  H5  1  0.24119200  0.24119200  0.75880799  1
  In  In6  1  0.75880799  0.24119200  0.75880799  1
  Pb  Pb7  1  0.24119200  0.75880799  0.75880799  1
  Re  Re8  1  0.75880799  0.24119200  0.24119200  1
  Cs  Cs9  1  0.75880799  0.75880799  0.24119200  1
