# generated using pymatgen
data_NaPrEuDyThPaTa2MnMoHRh
_symmetry_space_group_name_H-M   'P 1'
_cell_length_a   5.45708418
_cell_length_b   5.45708418
_cell_length_c   6.58152390
_cell_angle_alpha   90.00000000
_cell_angle_beta   90.00000000
_cell_angle_gamma   90.00000000
_symmetry_Int_Tables_number   1
_chemical_formula_structural   NaPrEuDyThPaTa2MnMoHRh
_chemical_formula_sum   'Na1 Pr1 Eu1 Dy1 Th1 Pa1 Ta2 Mn1 Mo1 H1 Rh1'
_cell_volume   195.99625295
_cell_formula_units_Z   1
loop_
 _symmetry_equiv_pos_site_id
 _symmetry_equiv_pos_as_xyz
  1  'x, y, z'
loop_
 _atom_site_type_symbol
 _atom_site_label
 _atom_site_symmetry_multiplicity
 _atom_site_fract_x
 _atom_site_fract_y
 _atom_site_fract_z
 _atom_site_occupancy
  Th  Th0  1  0.49999998  0.00000000  0.50000001  1
  H  H1  1  -0.00000000  0.49999998  0.50000001  1
  Pr  Pr2  1  0.49999998  0.49999998  0.00000000  1
  Pa  Pa3  1  0.00000000  0.00000000  0.00000000  1
  Mo  Mo4  1  0.49999998  0.49999998  0.29072400  1
  Rh  Rh5  1  0.00000000  0.00000000  0.70927601  1
  Ta  Ta6  1  0.49999998  0.49999998  0.70927601  1
  Mn  Mn7  1  0.00000000  0.00000000  0.29072400  1
  Dy  Dy8  1  0.31100599  0.81100597  0.00000000  1
  Eu  Eu9  1  0.18899399  0.31100599  0.00000000  1
  Ta  Ta10  1  0.81100597  0.68899398  0.00000000  1
  Na  Na11  1  0.68899398  0.18899399  0.00000000  1
