# generated using pymatgen
data_CsKYbCeEr2Pu2MnBeNbFe2NiAg2SnClNeN
_symmetry_space_group_name_H-M   'P 1'
_cell_length_a   5.54631090
_cell_length_b   5.59421301
_cell_length_c   7.85052299
_cell_angle_alpha   90.00000000
_cell_angle_beta   90.00000000
_cell_angle_gamma   90.00000000
_symmetry_Int_Tables_number   1
_chemical_formula_structural   CsKYbCeEr2Pu2MnBeNbFe2NiAg2SnClNeN
_chemical_formula_sum
'Cs1 K1 Yb1 Ce1 Er2 Pu2 Mn1 Be1 Nb1 Fe2 Ni1 Ag2 Sn1 Cl1 Ne1 N1'
_cell_volume   243.58009718
_cell_formula_units_Z   1
loop_
 _symmetry_equiv_pos_site_id
 _symmetry_equiv_pos_as_xyz
  1  'x, y, z'
loop_
 _atom_site_type_symbol
 _atom_site_label
 _atom_site_symmetry_multiplicity
 _atom_site_fract_x
 _atom_site_fract_y
 _atom_site_fract_z
 _atom_site_occupancy
  Nb  Nb0  1  0.49515801  0.50807800  0.75000000  1
  Mn  Mn1  1  0.99515802  0.99192200  0.75000000  1
  Pu  Pu2  1  0.00484200  0.00807800  0.25000000  1
  Be  Be3  1  0.50484201  0.49192200  0.25000000  1
  Fe  Fe4  1  -0.00000000  0.50000000  0.50000000  1
  Pu  Pu5  1  0.50000001  0.00000000  0.00000000  1
  Fe  Fe6  1  0.50000001  0.00000000  0.50000000  1
  Er  Er7  1  -0.00000000  0.50000000  -0.00000000  1
  Sn  Sn8  1  0.74443501  0.74577200  0.54445800  1
  Cl  Cl9  1  0.49912001  0.91873000  0.25000000  1
  Ag  Ag10  1  0.00088000  0.41873000  0.75000000  1
  Ni  Ni11  1  0.25556500  0.25422800  0.45554200  1
  Ce  Ce12  1  0.50088001  0.08127000  0.75000000  1
  Ne  Ne13  1  0.24443500  0.75422800  0.95554200  1
  K  K14  1  0.24443500  0.75422800  0.54445800  1
  N  N15  1  0.75556501  0.24577200  0.45554200  1
  Ag  Ag16  1  0.99912002  0.58127000  0.25000000  1
  Er  Er17  1  0.74443501  0.74577200  0.95554200  1
  Yb  Yb18  1  0.25556500  0.25422800  0.04445800  1
  Cs  Cs19  1  0.75556501  0.24577200  0.04445800  1
