# generated using pymatgen
data_KNdHfUAgBiCI
_symmetry_space_group_name_H-M   'P 1'
_cell_length_a   3.89650989
_cell_length_b   5.73066616
_cell_length_c   7.99082422
_cell_angle_alpha   90.00000000
_cell_angle_beta   90.00000000
_cell_angle_gamma   90.00000000
_symmetry_Int_Tables_number   1
_chemical_formula_structural   KNdHfUAgBiCI
_chemical_formula_sum   'K1 Nd1 Hf1 U1 Ag1 Bi1 C1 I1'
_cell_volume   178.43188736
_cell_formula_units_Z   1
loop_
 _symmetry_equiv_pos_site_id
 _symmetry_equiv_pos_as_xyz
  1  'x, y, z'
loop_
 _atom_site_type_symbol
 _atom_site_label
 _atom_site_symmetry_multiplicity
 _atom_site_fract_x
 _atom_site_fract_y
 _atom_site_fract_z
 _atom_site_occupancy
  Nd  Nd0  1  0.25000001  0.11439200  0.68055398  1
  Bi  Bi1  1  0.75000002  0.61439198  0.81944598  1
  C  C2  1  0.75000002  0.88560798  0.31944599  1
  I  I3  1  0.25000001  0.38560799  0.18055399  1
  U  U4  1  0.25000001  0.62331898  0.53555099  1
  Hf  Hf5  1  0.25000001  0.87668098  0.03555100  1
  Ag  Ag6  1  0.75000002  0.37668099  0.46444899  1
  K  K7  1  0.75000002  0.12331900  0.96444897  1
