# generated using pymatgen
data_Cs2AcPmTmIn2SiBiOsSIBrNONe2
_symmetry_space_group_name_H-M   'P 1'
_cell_length_a   6.72294092
_cell_length_b   9.67953396
_cell_length_c   9.67953396
_cell_angle_alpha   99.97559357
_cell_angle_beta   108.53565979
_cell_angle_gamma   108.53565979
_symmetry_Int_Tables_number   1
_chemical_formula_structural   Cs2AcPmTmIn2SiBiOsSIBrNONe2
_chemical_formula_sum
'Cs2 Ac1 Pm1 Tm1 In2 Si1 Bi1 Os1 S1 I1 Br1 N1 O1 Ne2'
_cell_volume   539.23784913
_cell_formula_units_Z   1
loop_
 _symmetry_equiv_pos_site_id
 _symmetry_equiv_pos_as_xyz
  1  'x, y, z'
loop_
 _atom_site_type_symbol
 _atom_site_label
 _atom_site_symmetry_multiplicity
 _atom_site_fract_x
 _atom_site_fract_y
 _atom_site_fract_z
 _atom_site_occupancy
  O  O0  1  0.00000000  0.00000000  0.00000000  1
  Os  Os1  1  0.68597302  0.01535600  0.35225005  1
  Ne  Ne2  1  0.31402719  0.98464409  0.64775012  1
  I  I3  1  0.31402713  0.64775006  0.98464411  1
  Si  Si4  1  0.68597308  0.35225003  0.01535606  1
  Cs  Cs5  1  0.00000009  0.50000005  0.50000006  1
  S  S6  1  0.38885313  0.64909406  0.64909410  1
  Ne  Ne7  1  0.61114708  0.35090603  0.35090607  1
  Pm  Pm8  1  0.69404004  0.13936801  0.70201707  1
  In  In9  1  0.30596017  0.86063208  0.29798310  1
  N  N10  1  0.30596006  0.29798303  0.86063207  1
  Bi  Bi11  1  0.69404015  0.70201706  0.13936810  1
  Tm  Tm12  1  0.50000001  0.00000000  0.00000002  1
  Cs  Cs13  1  0.92969818  0.83205808  0.58245514  1
  Br  Br14  1  0.07030203  0.16794202  0.41754503  1
  Ac  Ac15  1  0.07030208  0.41754504  0.16794205  1
  In  In16  1  0.92969813  0.58245505  0.83205813  1
