# generated using pymatgen
data_CsBaSrPrNdYCrBiClNe
_symmetry_space_group_name_H-M   'P 1'
_cell_length_a   4.45403194
_cell_length_b   7.17251778
_cell_length_c   7.28849554
_cell_angle_alpha   90.93549347
_cell_angle_beta   90.00000000
_cell_angle_gamma   90.00000000
_symmetry_Int_Tables_number   1
_chemical_formula_structural   CsBaSrPrNdYCrBiClNe
_chemical_formula_sum   'Cs1 Ba1 Sr1 Pr1 Nd1 Y1 Cr1 Bi1 Cl1 Ne1'
_cell_volume   232.81178589
_cell_formula_units_Z   1
loop_
 _symmetry_equiv_pos_site_id
 _symmetry_equiv_pos_as_xyz
  1  'x, y, z'
loop_
 _atom_site_type_symbol
 _atom_site_label
 _atom_site_symmetry_multiplicity
 _atom_site_fract_x
 _atom_site_fract_y
 _atom_site_fract_z
 _atom_site_occupancy
  Y  Y0  1  0.23690400  0.64600402  0.59785801  1
  Ba  Ba1  1  0.76309601  0.14600400  0.59785800  1
  Bi  Bi2  1  0.10404300  0.99992503  0.24701302  1
  Cl  Cl3  1  0.89595701  0.49992502  0.24701301  1
  Ne  Ne4  1  0.50099201  0.74446302  0.00821202  1
  Cs  Cs5  1  0.49900801  0.24446301  0.00821201  1
  Sr  Sr6  1  0.82957701  0.99438803  0.97254002  1
  Nd  Nd7  1  0.73591801  0.49022002  0.54937701  1
  Cr  Cr8  1  0.26408200  0.99022003  0.54937702  1
  Pr  Pr9  1  0.17042300  0.49438802  0.97254000  1
