# generated using pymatgen
data_SrTbHoMgInCuGePtRhCSKr
_symmetry_space_group_name_H-M   'P 1'
_cell_length_a   4.21473503
_cell_length_b   7.68406105
_cell_length_c   8.96113205
_cell_angle_alpha   90.00000000
_cell_angle_beta   90.00000000
_cell_angle_gamma   90.00000000
_symmetry_Int_Tables_number   1
_chemical_formula_structural   SrTbHoMgInCuGePtRhCSKr
_chemical_formula_sum
'Sr1 Tb1 Ho1 Mg1 In1 Cu1 Ge1 Rh1 Pt1 C1 S1 Kr1'
_cell_volume   290.21774324
_cell_formula_units_Z   1
loop_
 _symmetry_equiv_pos_site_id
 _symmetry_equiv_pos_as_xyz
  1  'x, y, z'
loop_
 _atom_site_type_symbol
 _atom_site_label
 _atom_site_symmetry_multiplicity
 _atom_site_fract_x
 _atom_site_fract_y
 _atom_site_fract_z
 _atom_site_occupancy
  C  C0  1  0.25000000  0.20379500  0.87900000  1
  Mg  Mg1  1  0.74999999  0.79620499  0.12100000  1
  Rh  Rh2  1  0.25000000  0.70379500  0.62100000  1
  Kr  Kr3  1  0.74999999  0.29620500  0.37900000  1
  Ho  Ho4  1  0.25000000  0.97539699  0.34055100  1
  Cu  Cu5  1  0.74999999  0.52460300  0.84055100  1
  Ge  Ge6  1  0.25000000  0.47539700  0.15944900  1
  Tb  Tb7  1  0.74999999  0.02460300  0.65944900  1
  In  In8  1  0.74999999  0.14930800  0.07228700  1
  Sr  Sr9  1  0.25000000  0.35069200  0.57228700  1
  S  S10  1  0.74999999  0.64930800  0.42771300  1
  Pt  Pt11  1  0.25000000  0.85069199  0.92771299  1
