# generated using pymatgen
data_HeCaLaPrNdHoLuNp4MnBeHXeKr
_symmetry_space_group_name_H-M   'P 1'
_cell_length_a   5.96195412
_cell_length_b   7.54236794
_cell_length_c   7.80230379
_cell_angle_alpha   110.03897858
_cell_angle_beta   112.46157074
_cell_angle_gamma   90.00000000
_symmetry_Int_Tables_number   1
_chemical_formula_structural   HeCaLaPrNdHoLuNp4MnBeHXeKr
_chemical_formula_sum
'He1 Ca1 La1 Pr1 Nd1 Ho1 Lu1 Np4 Mn1 Be1 H1 Xe1 Kr1'
_cell_volume   301.11928478
_cell_formula_units_Z   1
loop_
 _symmetry_equiv_pos_site_id
 _symmetry_equiv_pos_as_xyz
  1  'x, y, z'
loop_
 _atom_site_type_symbol
 _atom_site_label
 _atom_site_symmetry_multiplicity
 _atom_site_fract_x
 _atom_site_fract_y
 _atom_site_fract_z
 _atom_site_occupancy
  He  He0  1  0.49383000  0.75486603  0.98766005  1
  Pr  Pr1  1  0.50616999  0.24513401  0.01234001  1
  Ca  Ca2  1  0.86582300  0.88803603  0.73164604  1
  Xe  Xe3  1  0.13417700  0.11196400  0.26835401  1
  H  H4  1  0.17311401  0.66120002  0.34622803  1
  Ho  Ho5  1  0.82688599  0.33880001  0.65377203  1
  Lu  Lu6  1  0.25267200  0.00000000  0.00000000  1
  Np  Np7  1  0.74732799  0.00000000  0.00000000  1
  Kr  Kr8  1  0.30483000  0.69638303  0.60966004  1
  Be  Be9  1  0.69516999  0.30361701  0.39034002  1
  La  La10  1  0.09526700  0.21934501  0.70475803  1
  Np  Np11  1  0.39050900  0.78065503  0.29524203  1
  Np  Np12  1  0.09562900  0.40558402  0.19125802  1
  Mn  Mn13  1  0.90437099  0.59441602  0.80874204  1
  Nd  Nd14  1  0.60949099  0.21934501  0.70475803  1
  Np  Np15  1  0.90473299  0.78065503  0.29524203  1
