# generated using pymatgen
data_NdZrMnInPd2AuClNe
_symmetry_space_group_name_H-M   'P 1'
_cell_length_a   6.41306829
_cell_length_b   6.41306829
_cell_length_c   6.41306829
_cell_angle_alpha   60.00000000
_cell_angle_beta   60.00000000
_cell_angle_gamma   60.00000000
_symmetry_Int_Tables_number   1
_chemical_formula_structural   NdZrMnInPd2AuClNe
_chemical_formula_sum   'Nd1 Zr1 Mn1 In1 Pd2 Au1 Cl1 Ne1'
_cell_volume   186.50161493
_cell_formula_units_Z   1
loop_
 _symmetry_equiv_pos_site_id
 _symmetry_equiv_pos_as_xyz
  1  'x, y, z'
loop_
 _atom_site_type_symbol
 _atom_site_label
 _atom_site_symmetry_multiplicity
 _atom_site_fract_x
 _atom_site_fract_y
 _atom_site_fract_z
 _atom_site_occupancy
  Nd  Nd0  1  0.25000000  0.25000000  0.25000000  1
  Zr  Zr1  1  0.74999999  0.74999999  0.74999999  1
  Cl  Cl2  1  0.81687599  0.81687599  0.18312400  1
  In  In3  1  0.18312400  0.81687599  0.81687599  1
  Mn  Mn4  1  0.18312400  0.81687599  0.18312400  1
  Pd  Pd5  1  0.18312400  0.18312400  0.81687599  1
  Ne  Ne6  1  0.81687599  0.18312400  0.18312400  1
  Au  Au7  1  0.81687599  0.18312400  0.81687599  1
  Pd  Pd8  1  0.00000000  0.00000000  0.00000000  1
