# generated using pymatgen
data_RbLaSmHoMgMnFeSe
_symmetry_space_group_name_H-M   'P 1'
_cell_length_a   4.44458389
_cell_length_b   5.76587296
_cell_length_c   9.99797630
_cell_angle_alpha   90.00000000
_cell_angle_beta   102.84264374
_cell_angle_gamma   90.00000000
_symmetry_Int_Tables_number   1
_chemical_formula_structural   RbLaSmHoMgMnFeSe
_chemical_formula_sum   'Rb1 La1 Sm1 Ho1 Mg1 Mn1 Fe1 Se1'
_cell_volume   249.80771917
_cell_formula_units_Z   1
loop_
 _symmetry_equiv_pos_site_id
 _symmetry_equiv_pos_as_xyz
  1  'x, y, z'
loop_
 _atom_site_type_symbol
 _atom_site_label
 _atom_site_symmetry_multiplicity
 _atom_site_fract_x
 _atom_site_fract_y
 _atom_site_fract_z
 _atom_site_occupancy
  Sm  Sm0  1  0.41748201  0.25000000  0.83496401  1
  Mg  Mg1  1  0.58251802  0.75000001  0.16503601  1
  Se  Se2  1  0.20041701  0.25000000  0.40083401  1
  Fe  Fe3  1  0.79958303  0.75000001  0.59916602  1
  Rb  Rb4  1  0.77612502  0.25000000  0.55225002  1
  La  La5  1  0.22387501  0.75000001  0.44775001  1
  Ho  Ho6  1  0.06905900  0.25000000  0.13811800  1
  Mn  Mn7  1  0.93094103  0.75000001  0.86188202  1
