# generated using pymatgen
data_CaAcCeTmZrZnInTePdSOF
_symmetry_space_group_name_H-M   'P 1'
_cell_length_a   4.18734598
_cell_length_b   9.16371346
_cell_length_c   11.10048771
_cell_angle_alpha   90.00000000
_cell_angle_beta   90.00000000
_cell_angle_gamma   90.00000000
_symmetry_Int_Tables_number   1
_chemical_formula_structural   CaAcCeTmZrZnInTePdSOF
_chemical_formula_sum
'Ca1 Ac1 Ce1 Tm1 Zr1 Zn1 In1 Te1 Pd1 S1 O1 F1'
_cell_volume   425.94390391
_cell_formula_units_Z   1
loop_
 _symmetry_equiv_pos_site_id
 _symmetry_equiv_pos_as_xyz
  1  'x, y, z'
loop_
 _atom_site_type_symbol
 _atom_site_label
 _atom_site_symmetry_multiplicity
 _atom_site_fract_x
 _atom_site_fract_y
 _atom_site_fract_z
 _atom_site_occupancy
  Zr  Zr0  1  0.75000000  0.59987397  0.37068901  1
  S  S1  1  0.75000000  0.09987400  0.12931100  1
  O  O2  1  0.25000000  0.40012598  0.62931102  1
  Ca  Ca3  1  0.25000000  0.90012596  0.87068902  1
  Ce  Ce4  1  0.75000000  0.83470596  0.03539200  1
  Te  Te5  1  0.25000000  0.16529399  0.96460803  1
  Zn  Zn6  1  0.25000000  0.66529397  0.53539201  1
  Tm  Tm7  1  0.75000000  0.33470598  0.46460801  1
  F  F8  1  0.75000000  0.02981000  0.68671102  1
  Ac  Ac9  1  0.25000000  0.97018995  0.31328901  1
  In  In10  1  0.75000000  0.52980997  0.81328902  1
  Pd  Pd11  1  0.25000000  0.47018998  0.18671100  1
