# generated using pymatgen
data_Nd2NbZnGaNiTeS
_symmetry_space_group_name_H-M   'P 1'
_cell_length_a   4.84789610
_cell_length_b   6.75270605
_cell_length_c   6.75270605
_cell_angle_alpha   90.00000000
_cell_angle_beta   90.00000000
_cell_angle_gamma   90.00000000
_symmetry_Int_Tables_number   1
_chemical_formula_structural   Nd2NbZnGaNiTeS
_chemical_formula_sum   'Nd2 Nb1 Zn1 Ga1 Ni1 Te1 S1'
_cell_volume   221.05940334
_cell_formula_units_Z   1
loop_
 _symmetry_equiv_pos_site_id
 _symmetry_equiv_pos_as_xyz
  1  'x, y, z'
loop_
 _atom_site_type_symbol
 _atom_site_label
 _atom_site_symmetry_multiplicity
 _atom_site_fract_x
 _atom_site_fract_y
 _atom_site_fract_z
 _atom_site_occupancy
  Te  Te0  1  0.49999999  0.50000000  0.50000000  1
  Nd  Nd1  1  0.49999999  0.00000000  0.00000000  1
  Nb  Nb2  1  0.49999999  0.99999999  0.50000000  1
  Ni  Ni3  1  0.49999999  0.50000000  0.00000000  1
  S  S4  1  0.00000000  0.76312899  0.23687100  1
  Zn  Zn5  1  0.00000000  0.23687100  0.76312899  1
  Nd  Nd6  1  0.00000000  0.76312899  0.76312899  1
  Ga  Ga7  1  0.00000000  0.23687100  0.23687100  1
