# generated using pymatgen
data_Na2LaTbNdSmDyTmUNeBeVGaB
_symmetry_space_group_name_H-M   'P 1'
_cell_length_a   5.40932703
_cell_length_b   5.73766184
_cell_length_c   5.83722734
_cell_angle_alpha   60.56265259
_cell_angle_beta   87.08248901
_cell_angle_gamma   90.00000000
_symmetry_Int_Tables_number   1
_chemical_formula_structural   Na2LaTbNdSmDyTmUNeBeVGaB
_chemical_formula_sum
'Na2 Tb1 La1 Nd1 Sm1 Dy1 Tm1 U1 Ne1 Be1 V1 Ga1 B1'
_cell_volume   157.50956898
_cell_formula_units_Z   1
loop_
 _symmetry_equiv_pos_site_id
 _symmetry_equiv_pos_as_xyz
  1  'x, y, z'
loop_
 _atom_site_type_symbol
 _atom_site_label
 _atom_site_symmetry_multiplicity
 _atom_site_fract_x
 _atom_site_fract_y
 _atom_site_fract_z
 _atom_site_occupancy
  Tm  Tm0  1  0.28469900  0.06181600  0.59663900  1
  U  U1  1  0.78469900  0.34154501  0.59663903  1
  Nd  Nd2  1  0.21530098  0.65845502  0.40336100  1
  Na  Na3  1  0.71530098  0.93818403  0.40336103  1
  Na  Na4  1  0.24999999  0.35410301  0.00000001  1
  Tb  Tb5  1  0.74999999  0.64589702  0.00000004  1
  Ne  Ne6  1  0.38237897  0.99668303  0.28910201  1
  La  La7  1  0.88237899  0.71421502  0.28910204  1
  Be  Be8  1  0.40930599  0.49631501  0.23561702  1
  B  B9  1  0.90930600  0.26806801  0.23561704  1
  V  V10  1  0.09069398  0.73193202  0.76438298  1
  Sm  Sm11  1  0.59069399  0.50368501  0.76438301  1
  Ga  Ga12  1  0.11762099  0.28578501  0.71089798  1
  Dy  Dy13  1  0.61762101  0.00331700  0.71089801  1
