# generated using pymatgen
data_Li2CaAcTbGdDy3TmPuTlGaCuTcIrPtWNeXe
_symmetry_space_group_name_H-M   'P 1'
_cell_length_a   5.58127594
_cell_length_b   6.01083088
_cell_length_c   8.05752563
_cell_angle_alpha   90.00000000
_cell_angle_beta   90.82373810
_cell_angle_gamma   90.00000000
_symmetry_Int_Tables_number   1
_chemical_formula_structural   Li2CaAcTbGdDy3TmPuTlGaCuTcIrPtWNeXe
_chemical_formula_sum
'Li2 Ca1 Ac1 Tb1 Gd1 Dy3 Tm1 Pu1 Tl1 Ga1 Cu1 Tc1 Ir1 Pt1 W1 Ne1 Xe1'
_cell_volume   270.28678613
_cell_formula_units_Z   1
loop_
 _symmetry_equiv_pos_site_id
 _symmetry_equiv_pos_as_xyz
  1  'x, y, z'
loop_
 _atom_site_type_symbol
 _atom_site_label
 _atom_site_symmetry_multiplicity
 _atom_site_fract_x
 _atom_site_fract_y
 _atom_site_fract_z
 _atom_site_occupancy
  W  W0  1  0.50000001  0.50000001  0.49999999  1
  Ga  Ga1  1  0.00000000  0.00000000  0.00000000  1
  Cu  Cu2  1  0.97889801  0.57307101  0.75322397  1
  Gd  Gd3  1  0.47889800  0.92692902  0.25322399  1
  Li  Li4  1  0.52110201  0.07307100  0.74677599  1
  Ne  Ne5  1  0.02110200  0.42692901  0.24677600  1
  Pu  Pu6  1  -0.00000000  0.00000000  0.50000001  1
  Li  Li7  1  0.50000001  0.50000001  0.99999999  1
  Tc  Tc8  1  0.83623601  0.28099801  0.56639998  1
  Dy  Dy9  1  0.66376401  0.78099802  0.93359999  1
  Ca  Ca10  1  0.16376400  0.71900201  0.43360000  1
  Dy  Dy11  1  0.33623600  0.21900200  0.06639999  1
  Tl  Tl12  1  0.11795800  0.95264402  0.73246900  1
  Xe  Xe13  1  0.38204200  0.45264401  0.76753100  1
  Pt  Pt14  1  0.88204201  0.04735600  0.26753097  1
  Ir  Ir15  1  0.61795801  0.54735601  0.23246898  1
  Ac  Ac16  1  0.20539100  0.67479601  0.05173499  1
  Tm  Tm17  1  0.29460900  0.17479600  0.44826499  1
  Dy  Dy18  1  0.79460901  0.32520401  0.94826498  1
  Tb  Tb19  1  0.70539101  0.82520402  0.55173498  1
