# generated using pymatgen
data_CsSrLiYbHoCoTcHgRuPtNF2
_symmetry_space_group_name_H-M   'P 1'
_cell_length_a   4.49877024
_cell_length_b   4.52441311
_cell_length_c   17.19645309
_cell_angle_alpha   90.00000000
_cell_angle_beta   90.00000000
_cell_angle_gamma   90.00000000
_symmetry_Int_Tables_number   1
_chemical_formula_structural   CsSrLiYbHoCoTcHgRuPtNF2
_chemical_formula_sum
'Cs1 Sr1 Li1 Yb1 Ho1 Co1 Tc1 Hg1 Ru1 Pt1 N1 F2'
_cell_volume   350.02167982
_cell_formula_units_Z   1
loop_
 _symmetry_equiv_pos_site_id
 _symmetry_equiv_pos_as_xyz
  1  'x, y, z'
loop_
 _atom_site_type_symbol
 _atom_site_label
 _atom_site_symmetry_multiplicity
 _atom_site_fract_x
 _atom_site_fract_y
 _atom_site_fract_z
 _atom_site_occupancy
  Ru  Ru0  1  0.24999999  0.00000000  0.39832900  1
  Pt  Pt1  1  0.24999999  0.49999999  0.89480700  1
  Sr  Sr2  1  0.74999996  0.49999999  0.10625900  1
  Li  Li3  1  0.74999996  0.00000000  0.60225000  1
  F  F4  1  0.24999999  0.00000000  0.19333500  1
  Tc  Tc5  1  0.24999999  0.49999999  0.25958200  1
  N  N6  1  0.24999999  0.00000000  0.74812000  1
  Co  Co7  1  0.74999996  0.00000000  0.26027700  1
  Hg  Hg8  1  0.74999996  0.49999999  0.74947200  1
  Ho  Ho9  1  0.24999999  0.00000000  0.04925900  1
  Yb  Yb10  1  0.24999999  0.49999999  0.56151200  1
  Cs  Cs11  1  0.74999996  0.49999999  0.43758100  1
  F  F12  1  0.74999996  0.00000000  0.93621699  1
