# generated using pymatgen
data_Rb2LaLuMnAlZnCrTcNi2TeHPtPbKr
_symmetry_space_group_name_H-M   'P 1'
_cell_length_a   4.65927601
_cell_length_b   6.90842056
_cell_length_c   6.90842056
_cell_angle_alpha   83.88069153
_cell_angle_beta   70.29257965
_cell_angle_gamma   70.29257965
_symmetry_Int_Tables_number   1
_chemical_formula_structural   Rb2LaLuMnAlZnCrTcNi2TeHPtPbKr
_chemical_formula_sum
'Rb2 La1 Lu1 Mn1 Al1 Zn1 Cr1 Tc1 Ni2 Te1 H1 Pt1 Pb1 Kr1'
_cell_volume   197.07664623
_cell_formula_units_Z   1
loop_
 _symmetry_equiv_pos_site_id
 _symmetry_equiv_pos_as_xyz
  1  'x, y, z'
loop_
 _atom_site_type_symbol
 _atom_site_label
 _atom_site_symmetry_multiplicity
 _atom_site_fract_x
 _atom_site_fract_y
 _atom_site_fract_z
 _atom_site_occupancy
  Rb  Rb0  1  0.72991596  0.84799504  0.69217301  1
  Ni  Ni1  1  0.27008399  0.15200501  0.30782701  1
  Ni  Ni2  1  0.77008399  0.30782701  0.15200499  1
  Kr  Kr3  1  0.22991596  0.69217303  0.84799503  1
  La  La4  1  0.57628597  0.69935603  0.14807100  1
  Cr  Cr5  1  0.42371399  0.30064401  0.85192902  1
  H  H6  1  0.07628599  0.14807201  0.69935602  1
  Pb  Pb7  1  0.92371396  0.85192804  0.30064400  1
  Mn  Mn8  1  0.74999998  0.50000002  0.50000000  1
  Rb  Rb9  1  0.24999997  0.50000002  0.50000002  1
  Tc  Tc10  1  0.25000000  0.00000000  -0.00000001  1
  Zn  Zn11  1  0.74999995  1.00000004  1.00000003  1
  Te  Te12  1  0.16399997  0.50192002  0.17008001  1
  Pt  Pt13  1  0.83599998  0.49808002  0.82992001  1
  Al  Al14  1  0.33599996  0.82992004  0.49808002  1
  Lu  Lu15  1  0.66400000  0.17008001  0.50192000  1
