# generated using pymatgen
data_BaTbSmPuZrSiHKr
_symmetry_space_group_name_H-M   'P 1'
_cell_length_a   5.40867710
_cell_length_b   5.40867710
_cell_length_c   5.40867710
_cell_angle_alpha   90.00000000
_cell_angle_beta   90.00000000
_cell_angle_gamma   90.00000000
_symmetry_Int_Tables_number   1
_chemical_formula_structural   BaTbSmPuZrSiHKr
_chemical_formula_sum   'Ba1 Tb1 Sm1 Pu1 Zr1 Si1 H1 Kr1'
_cell_volume   158.22429319
_cell_formula_units_Z   1
loop_
 _symmetry_equiv_pos_site_id
 _symmetry_equiv_pos_as_xyz
  1  'x, y, z'
loop_
 _atom_site_type_symbol
 _atom_site_label
 _atom_site_symmetry_multiplicity
 _atom_site_fract_x
 _atom_site_fract_y
 _atom_site_fract_z
 _atom_site_occupancy
  Kr  Kr0  1  0.00000000  0.00000000  0.00000000  1
  Si  Si1  1  0.00000000  0.00000000  0.49999999  1
  Sm  Sm2  1  -0.00000000  0.49999999  -0.00000000  1
  Zr  Zr3  1  0.49999999  0.00000000  0.00000000  1
  H  H4  1  0.76369399  0.76369399  0.23630600  1
  Pu  Pu5  1  0.76369399  0.23630600  0.76369399  1
  Tb  Tb6  1  0.23630600  0.76369399  0.76369399  1
  Ba  Ba7  1  0.23630600  0.23630600  0.23630600  1
