# generated using pymatgen
data_CsTbPrGdDyLuZr2PaCdGaSiBSbTeMoRuRhBrO
_symmetry_space_group_name_H-M   'P 1'
_cell_length_a   5.72670412
_cell_length_b   8.07516384
_cell_length_c   8.07516384
_cell_angle_alpha   90.00000000
_cell_angle_beta   90.00000000
_cell_angle_gamma   90.00000000
_symmetry_Int_Tables_number   1
_chemical_formula_structural   CsTbPrGdDyLuZr2PaCdGaSiBSbTeMoRuRhBrO
_chemical_formula_sum
;
Cs1 Tb1 Pr1 Gd1 Dy1 Lu1 Zr2 Pa1 Cd1 Ga1 Si1 B1 Sb1 Te1 Mo1 Ru1 Rh1 Br1
O1
;
_cell_volume   373.42847460
_cell_formula_units_Z   1
loop_
 _symmetry_equiv_pos_site_id
 _symmetry_equiv_pos_as_xyz
  1  'x, y, z'
loop_
 _atom_site_type_symbol
 _atom_site_label
 _atom_site_symmetry_multiplicity
 _atom_site_fract_x
 _atom_site_fract_y
 _atom_site_fract_z
 _atom_site_occupancy
  Dy  Dy0  1  0.74443398  0.76495802  0.46695301  1
  Lu  Lu1  1  0.74443398  0.23504200  0.53304701  1
  B  B2  1  0.25556599  0.46695301  0.23504200  1
  Br  Br3  1  0.25556599  0.53304701  0.76495802  1
  Zr  Zr4  1  0.24443399  0.96695302  0.26495801  1
  Te  Te5  1  0.75556598  0.73504201  0.96695302  1
  Sb  Sb6  1  0.75556598  0.26495801  0.03304700  1
  Pa  Pa7  1  0.24443399  0.03304700  0.73504201  1
  Tb  Tb8  1  0.56997899  0.00000000  0.50000001  1
  Ga  Ga9  1  0.43002099  0.50000001  0.00000000  1
  Si  Si10  1  0.93002098  0.50000001  0.00000000  1
  Cs  Cs11  1  0.06997900  0.00000000  0.50000001  1
  Rh  Rh12  1  0.43081299  0.71268301  0.32743601  1
  Zr  Zr13  1  0.43081299  0.28731701  0.67256401  1
  Gd  Gd14  1  0.56918699  0.32743601  0.28731701  1
  Cd  Cd15  1  0.56918699  0.67256401  0.71268301  1
  Mo  Mo16  1  0.93081298  0.17256400  0.78731702  1
  Ru  Ru17  1  0.06918700  0.21268300  0.17256400  1
  O  O18  1  0.06918700  0.78731702  0.82743602  1
  Pr  Pr19  1  0.93081298  0.82743602  0.21268300  1
