# generated using pymatgen
data_AcPr2YZrPaWCI
_symmetry_space_group_name_H-M   'P 1'
_cell_length_a   4.61647415
_cell_length_b   4.61647415
_cell_length_c   6.61749601
_cell_angle_alpha   90.00000000
_cell_angle_beta   90.00000000
_cell_angle_gamma   120.00000000
_symmetry_Int_Tables_number   1
_chemical_formula_structural   AcPr2YZrPaWCI
_chemical_formula_sum   'Ac1 Pr2 Y1 Zr1 Pa1 W1 C1 I1'
_cell_volume   122.13640607
_cell_formula_units_Z   1
loop_
 _symmetry_equiv_pos_site_id
 _symmetry_equiv_pos_as_xyz
  1  'x, y, z'
loop_
 _atom_site_type_symbol
 _atom_site_label
 _atom_site_symmetry_multiplicity
 _atom_site_fract_x
 _atom_site_fract_y
 _atom_site_fract_z
 _atom_site_occupancy
  I  I0  1  0.83605199  0.67210402  0.16666700  1
  Pr  Pr1  1  0.67210300  0.83605102  0.83333300  1
  W  W2  1  0.16394802  0.83605102  0.50000000  1
  C  C3  1  0.16394800  0.32789601  0.16666700  1
  Pa  Pa4  1  0.32789699  0.16394900  0.83333300  1
  Ac  Ac5  1  0.83605198  0.16394900  0.50000000  1
  Y  Y6  1  0.50000000  0.50000001  0.50000000  1
  Zr  Zr7  1  0.00000002  0.50000001  0.83333300  1
  Pr  Pr8  1  0.49999998  0.00000000  0.16666700  1
