# generated using pymatgen
data_AcSmGdZrTaTiZnNiHgP
_symmetry_space_group_name_H-M   'P 1'
_cell_length_a   5.90469933
_cell_length_b   5.90469933
_cell_length_c   5.90469933
_cell_angle_alpha   60.00000000
_cell_angle_beta   60.00000000
_cell_angle_gamma   60.00000000
_symmetry_Int_Tables_number   1
_chemical_formula_structural   AcSmGdZrTaTiZnNiHgP
_chemical_formula_sum   'Ac1 Sm1 Gd1 Zr1 Ta1 Ti1 Zn1 Ni1 Hg1 P1'
_cell_volume   145.57217314
_cell_formula_units_Z   1
loop_
 _symmetry_equiv_pos_site_id
 _symmetry_equiv_pos_as_xyz
  1  'x, y, z'
loop_
 _atom_site_type_symbol
 _atom_site_label
 _atom_site_symmetry_multiplicity
 _atom_site_fract_x
 _atom_site_fract_y
 _atom_site_fract_z
 _atom_site_occupancy
  Hg  Hg0  1  0.75000001  0.75000001  0.75000001  1
  Gd  Gd1  1  0.25000000  0.25000000  0.25000000  1
  Ti  Ti2  1  0.50000001  0.50000001  0.50000001  1
  P  P3  1  0.00000000  0.00000000  0.00000000  1
  Zr  Zr4  1  0.23911600  0.23911600  0.76088401  1
  Ni  Ni5  1  0.76088401  0.23911600  0.76088401  1
  Ta  Ta6  1  0.76088401  0.76088401  0.23911600  1
  Sm  Sm7  1  0.23911600  0.76088401  0.76088401  1
  Ac  Ac8  1  0.76088401  0.23911600  0.23911600  1
  Zn  Zn9  1  0.23911600  0.76088401  0.23911600  1
