# generated using pymatgen
data_RbLaPmNdNpMnNbTlVInGaNi2HgHRuPtKrClO
_symmetry_space_group_name_H-M   'P 1'
_cell_length_a   4.94141006
_cell_length_b   4.94141006
_cell_length_c   16.01537132
_cell_angle_alpha   88.91828918
_cell_angle_beta   88.91828918
_cell_angle_gamma   64.24919128
_symmetry_Int_Tables_number   1
_chemical_formula_structural   RbLaPmNdNpMnNbTlVInGaNi2HgHRuPtKrClO
_chemical_formula_sum
;
Rb1 La1 Pm1 Nd1 Np1 Mn1 Nb1 Tl1 V1 In1 Ga1 Ni2 Hg1 H1 Ru1 Pt1 Kr1 Cl1
O1
;
_cell_volume   352.13341083
_cell_formula_units_Z   1
loop_
 _symmetry_equiv_pos_site_id
 _symmetry_equiv_pos_as_xyz
  1  'x, y, z'
loop_
 _atom_site_type_symbol
 _atom_site_label
 _atom_site_symmetry_multiplicity
 _atom_site_fract_x
 _atom_site_fract_y
 _atom_site_fract_z
 _atom_site_occupancy
  La  La0  1  0.03589895  0.96410099  0.25000000  1
  Nb  Nb1  1  0.96410097  0.03589900  0.74999998  1
  H  H2  1  0.00000000  0.00000000  0.00000000  1
  Pt  Pt3  1  0.00000000  0.00000000  0.49999997  1
  Cl  Cl4  1  0.36348297  0.36527500  0.09092001  1
  O  O5  1  0.36527497  0.36348300  0.59091998  1
  Mn  Mn6  1  0.63472495  0.63651700  0.40908000  1
  In  In7  1  0.63651695  0.63472500  0.90907997  1
  Ru  Ru8  1  0.75511697  0.17474100  0.09833101  1
  Ni  Ni9  1  0.82525896  0.24488300  0.40166899  1
  Tl  Tl10  1  0.24488295  0.82525899  0.90166897  1
  Rb  Rb11  1  0.17474095  0.75511699  0.59833098  1
  Np  Np12  1  0.31387895  0.73836299  0.07837701  1
  Hg  Hg13  1  0.26163696  0.68612100  0.42162299  1
  Kr  Kr14  1  0.68612097  0.26163700  0.92162297  1
  V  V15  1  0.73836296  0.31387900  0.57837699  1
  Ga  Ga16  1  0.36153797  0.27268800  0.69395297  1
  Ni  Ni17  1  0.72731194  0.63846200  0.80604698  1
  Pm  Pm18  1  0.63846194  0.72731199  0.30604700  1
  Nd  Nd19  1  0.27268797  0.36153800  0.19395300  1
