# generated using pymatgen
data_NeNaSrAcTbVCrNiRuSe
_symmetry_space_group_name_H-M   'P 1'
_cell_length_a   6.33821535
_cell_length_b   6.33821535
_cell_length_c   6.33821535
_cell_angle_alpha   60.00000000
_cell_angle_beta   60.00000000
_cell_angle_gamma   60.00000000
_symmetry_Int_Tables_number   1
_chemical_formula_structural   NeNaSrAcTbVCrNiRuSe
_chemical_formula_sum   'Ne1 Na1 Sr1 Tb1 Ac1 V1 Cr1 Ni1 Ru1 Se1'
_cell_volume   180.04703550
_cell_formula_units_Z   1
loop_
 _symmetry_equiv_pos_site_id
 _symmetry_equiv_pos_as_xyz
  1  'x, y, z'
loop_
 _atom_site_type_symbol
 _atom_site_label
 _atom_site_symmetry_multiplicity
 _atom_site_fract_x
 _atom_site_fract_y
 _atom_site_fract_z
 _atom_site_occupancy
  Ne  Ne0  1  0.74999999  0.74999999  0.74999999  1
  Tb  Tb1  1  0.25000000  0.25000000  0.25000000  1
  Cr  Cr2  1  0.00000000  0.00000000  0.00000000  1
  Ni  Ni3  1  0.49999999  0.49999999  0.49999999  1
  Ac  Ac4  1  0.21695700  0.21695700  0.78304299  1
  V  V5  1  0.78304299  0.21695700  0.78304299  1
  Ru  Ru6  1  0.78304299  0.78304299  0.21695700  1
  Se  Se7  1  0.21695700  0.78304299  0.78304299  1
  Sr  Sr8  1  0.78304299  0.21695700  0.21695700  1
  Na  Na9  1  0.21695700  0.78304299  0.21695700  1
