# generated using pymatgen
data_CsNdDyErThPaTaTiMnVCrFeCuSbHOsRuSeHeBr
_symmetry_space_group_name_H-M   'P 1'
_cell_length_a   5.26638699
_cell_length_b   5.27315092
_cell_length_c   8.01865482
_cell_angle_alpha   107.78389740
_cell_angle_beta   101.87734222
_cell_angle_gamma   100.79039001
_symmetry_Int_Tables_number   1
_chemical_formula_structural   CsNdDyErThPaTaTiMnVCrFeCuSbHOsRuSeHeBr
_chemical_formula_sum
;
Cs1 Nd1 Dy1 Er1 Th1 Pa1 Ta1 Ti1 Mn1 V1 Cr1 Fe1 Cu1 Sb1 Os1 H1 Ru1 Se1
He1 Br1
;
_cell_volume   199.88895867
_cell_formula_units_Z   1
loop_
 _symmetry_equiv_pos_site_id
 _symmetry_equiv_pos_as_xyz
  1  'x, y, z'
loop_
 _atom_site_type_symbol
 _atom_site_label
 _atom_site_symmetry_multiplicity
 _atom_site_fract_x
 _atom_site_fract_y
 _atom_site_fract_z
 _atom_site_occupancy
  Ti  Ti0  1  0.22186206  0.91523900  0.40113999  1
  Nd  Nd1  1  0.41727003  0.29259600  0.79706802  1
  Cu  Cu2  1  0.50000004  0.50000000  0.50000001  1
  Se  Se3  1  0.58273005  0.70740400  0.20293200  1
  Os  Os4  1  0.77813802  0.08476100  0.59886003  1
  Th  Th5  1  0.00000003  0.50000000  -0.00000001  1
  He  He6  1  0.70289707  0.89861500  0.89922502  1
  Sb  Sb7  1  0.29710301  0.10138500  0.10077501  1
  Pa  Pa8  1  0.10737804  0.70709000  0.69862600  1
  H  H9  1  0.89262203  0.29291000  0.30137402  1
  Cr  Cr10  1  0.05923601  0.08908400  0.85141402  1
  Fe  Fe11  1  0.32407705  0.69661500  0.95065302  1
  Br  Br12  1  0.14248902  0.31490300  0.54619501  1
  Er  Er13  1  0.21543303  0.48559100  0.22298300  1
  Ru  Ru14  1  0.45864206  0.89052800  0.66107900  1
  Dy  Dy15  1  0.54135802  0.10947200  0.33892102  1
  Cs  Cs16  1  0.78456705  0.51440900  0.77701702  1
  V  V17  1  0.85751106  0.68509700  0.45380501  1
  Ta  Ta18  1  0.67592303  0.30338500  0.04934701  1
  Mn  Mn19  1  0.94076407  0.91091600  0.14858600  1
