# generated using pymatgen
data_RbPmNd2ErTmLuHfNpUTaTiBeAgGePbNO
_symmetry_space_group_name_H-M   'P 1'
_cell_length_a   6.97948790
_cell_length_b   7.52182007
_cell_length_c   6.97948790
_cell_angle_alpha   62.35774994
_cell_angle_beta   90.00000000
_cell_angle_gamma   117.64225006
_symmetry_Int_Tables_number   1
_chemical_formula_structural   RbPmNd2ErTmLuHfNpUTaTiBeAgGePbNO
_chemical_formula_sum
'Rb1 Pm1 Nd2 Er1 Tm1 Lu1 Hf1 Np1 U1 Ta1 Ti1 Be1 Ag1 Ge1 Pb1 N1 O1'
_cell_volume   276.51433479
_cell_formula_units_Z   1
loop_
 _symmetry_equiv_pos_site_id
 _symmetry_equiv_pos_as_xyz
  1  'x, y, z'
loop_
 _atom_site_type_symbol
 _atom_site_label
 _atom_site_symmetry_multiplicity
 _atom_site_fract_x
 _atom_site_fract_y
 _atom_site_fract_z
 _atom_site_occupancy
  Lu  Lu0  1  0.50533801  0.01067600  0.49466201  1
  N  N1  1  0.00533800  0.01067600  0.99466201  1
  Ti  Ti2  1  0.06872500  0.50220201  0.06652300  1
  Ge  Ge3  1  0.56872501  0.50220301  0.93127502  1
  Be  Be4  1  0.43347800  0.50220401  0.43127401  1
  Np  Np5  1  0.93347801  0.50220301  0.56652201  1
  Pm  Pm6  1  0.49953600  0.99907202  0.00046400  1
  Rb  Rb7  1  0.99953601  0.99907202  0.50046401  1
  Ag  Ag8  1  0.24282900  0.48565801  0.75717101  1
  Tm  Tm9  1  0.74282901  0.48565801  0.25717101  1
  Ta  Ta10  1  0.45497501  0.19190900  0.76306601  1
  Hf  Hf11  1  0.95497501  0.19191000  0.54502501  1
  O  O12  1  0.76008601  0.80167602  0.45841001  1
  Pb  Pb13  1  0.26008600  0.80167602  0.23991401  1
  Er  Er14  1  0.73693501  0.19191100  0.04502400  1
  Nd  Nd15  1  0.23693500  0.19191000  0.26306500  1
  Nd  Nd16  1  0.04159000  0.80167602  0.73991401  1
  U  U17  1  0.54159000  0.80167602  0.95841002  1
