# generated using pymatgen
data_CsBaYHoUBeTcPdSN
_symmetry_space_group_name_H-M   'P 1'
_cell_length_a   3.74352908
_cell_length_b   7.26142597
_cell_length_c   7.26142597
_cell_angle_alpha   90.00000000
_cell_angle_beta   90.00000000
_cell_angle_gamma   90.00000000
_symmetry_Int_Tables_number   1
_chemical_formula_structural   CsBaYHoUBeTcPdSN
_chemical_formula_sum   'Cs1 Ba1 Y1 Ho1 U1 Be1 Tc1 Pd1 S1 N1'
_cell_volume   197.38995121
_cell_formula_units_Z   1
loop_
 _symmetry_equiv_pos_site_id
 _symmetry_equiv_pos_as_xyz
  1  'x, y, z'
loop_
 _atom_site_type_symbol
 _atom_site_label
 _atom_site_symmetry_multiplicity
 _atom_site_fract_x
 _atom_site_fract_y
 _atom_site_fract_z
 _atom_site_occupancy
  Cs  Cs0  1  0.49999999  0.67383300  0.17383300  1
  Be  Be1  1  0.49999999  0.32616700  0.82616700  1
  Pd  Pd2  1  0.49999999  0.17383300  0.32616700  1
  U  U3  1  0.49999999  0.82616700  0.67383300  1
  Tc  Tc4  1  0.00000000  0.00000000  0.00000000  1
  Ho  Ho5  1  0.00000000  0.50000000  0.50000000  1
  Ba  Ba6  1  0.99999998  0.11973300  0.61973300  1
  S  S7  1  0.99999998  0.88026700  0.38026700  1
  N  N8  1  0.99999998  0.61973300  0.88026700  1
  Y  Y9  1  0.00000000  0.38026700  0.11973300  1
