# generated using pymatgen
data_PdHeYbSmYErTmCrGeF
_symmetry_space_group_name_H-M   'P 1'
_cell_length_a   6.35893774
_cell_length_b   6.35893774
_cell_length_c   6.35893774
_cell_angle_alpha   60.00000000
_cell_angle_beta   60.00000000
_cell_angle_gamma   60.00000000
_symmetry_Int_Tables_number   1
_chemical_formula_structural   PdHeYbSmYErTmCrGeF
_chemical_formula_sum   'Pd1 He1 Yb1 Sm1 Y1 Er1 Tm1 Cr1 Ge1 F1'
_cell_volume   181.81877224
_cell_formula_units_Z   1
loop_
 _symmetry_equiv_pos_site_id
 _symmetry_equiv_pos_as_xyz
  1  'x, y, z'
loop_
 _atom_site_type_symbol
 _atom_site_label
 _atom_site_symmetry_multiplicity
 _atom_site_fract_x
 _atom_site_fract_y
 _atom_site_fract_z
 _atom_site_occupancy
  Pd  Pd0  1  0.25000000  0.25000000  0.25000000  1
  He  He1  1  0.75000000  0.75000000  0.75000000  1
  Sm  Sm2  1  0.50000000  0.50000000  0.50000000  1
  Yb  Yb3  1  0.00000000  0.00000000  0.00000000  1
  Cr  Cr4  1  0.22855600  0.77144400  0.22855600  1
  Tm  Tm5  1  0.22855600  0.22855600  0.77144400  1
  F  F6  1  0.77144400  0.22855600  0.77144400  1
  Ge  Ge7  1  0.22855600  0.77144400  0.77144400  1
  Er  Er8  1  0.77144400  0.22855600  0.22855600  1
  Y  Y9  1  0.77144400  0.77144400  0.22855600  1
