# generated using pymatgen
data_PmPrErUCuGe2MoRuPbW2
_symmetry_space_group_name_H-M   'P 1'
_cell_length_a   3.28692603
_cell_length_b   3.28692651
_cell_length_c   37.38653183
_cell_angle_alpha   90.00000000
_cell_angle_beta   90.00000000
_cell_angle_gamma   119.99999237
_symmetry_Int_Tables_number   1
_chemical_formula_structural   PmPrErUCuGe2MoRuPbW2
_chemical_formula_sum   'Pm1 Pr1 Er1 U1 Cu1 Ge2 Mo1 Ru1 Pb1 W2'
_cell_volume   349.80480388
_cell_formula_units_Z   1
loop_
 _symmetry_equiv_pos_site_id
 _symmetry_equiv_pos_as_xyz
  1  'x, y, z'
loop_
 _atom_site_type_symbol
 _atom_site_label
 _atom_site_symmetry_multiplicity
 _atom_site_fract_x
 _atom_site_fract_y
 _atom_site_fract_z
 _atom_site_occupancy
  Ru  Ru0  1  0.00000000  0.00000000  0.90607296  1
  W  W1  1  0.00000000  0.00000000  0.53034997  1
  Pm  Pm2  1  0.66666664  0.33333332  0.71819996  1
  Er  Er3  1  0.66666664  0.33333332  0.34245798  1
  Cu  Cu4  1  0.00000000  0.00000000  0.29707799  1
  Mo  Mo5  1  0.66666664  0.33333332  0.95117695  1
  Pb  Pb6  1  0.66666664  0.33333332  0.57572297  1
  Ge  Ge7  1  0.66666664  0.33333332  0.86096796  1
  Ge  Ge8  1  0.66666664  0.33333332  0.48497298  1
  U  U9  1  0.00000000  0.00000000  0.38784898  1
  W  W10  1  0.00000000  0.00000000  0.67697097  1
  Pr  Pr11  1  0.00000000  0.00000000  0.75942996  1
