# generated using pymatgen
data_LiAcCe3FeHgMoRhW
_symmetry_space_group_name_H-M   'P 1'
_cell_length_a   8.66468716
_cell_length_b   8.66468716
_cell_length_c   8.66468716
_cell_angle_alpha   60.00000000
_cell_angle_beta   60.00000000
_cell_angle_gamma   60.00000000
_symmetry_Int_Tables_number   1
_chemical_formula_structural   LiAcCe3FeHgMoRhW
_chemical_formula_sum   'Li1 Ac1 Ce3 Fe1 Hg1 Mo1 Rh1 W1'
_cell_volume   459.98499276
_cell_formula_units_Z   1
loop_
 _symmetry_equiv_pos_site_id
 _symmetry_equiv_pos_as_xyz
  1  'x, y, z'
loop_
 _atom_site_type_symbol
 _atom_site_label
 _atom_site_symmetry_multiplicity
 _atom_site_fract_x
 _atom_site_fract_y
 _atom_site_fract_z
 _atom_site_occupancy
  Rh  Rh0  1  0.25000000  0.25000000  0.25000000  1
  Ce  Ce1  1  0.74999999  0.74999999  0.74999999  1
  Ce  Ce2  1  0.50000000  0.50000000  0.50000000  1
  Ce  Ce3  1  0.00000000  0.00000000  0.00000000  1
  Fe  Fe4  1  0.25306000  0.74693999  0.25306000  1
  Mo  Mo5  1  0.25306000  0.25306000  0.74693999  1
  Hg  Hg6  1  0.74693999  0.25306000  0.74693999  1
  W  W7  1  0.25306000  0.74693999  0.74693999  1
  Ac  Ac8  1  0.74693999  0.25306000  0.25306000  1
  Li  Li9  1  0.74693999  0.74693999  0.25306000  1
