# generated using pymatgen
data_CaAc2EuErScPaTaAlCoAsPRuAuSN
_symmetry_space_group_name_H-M   'P 1'
_cell_length_a   5.86822987
_cell_length_b   5.86822987
_cell_length_c   8.15819454
_cell_angle_alpha   90.00000000
_cell_angle_beta   90.00000000
_cell_angle_gamma   90.00000000
_symmetry_Int_Tables_number   1
_chemical_formula_structural   CaAc2EuErScPaTaAlCoAsPRuAuSN
_chemical_formula_sum
'Ca1 Ac2 Eu1 Er1 Sc1 Pa1 Ta1 Al1 Co1 As1 P1 Ru1 Au1 S1 N1'
_cell_volume   280.93658059
_cell_formula_units_Z   1
loop_
 _symmetry_equiv_pos_site_id
 _symmetry_equiv_pos_as_xyz
  1  'x, y, z'
loop_
 _atom_site_type_symbol
 _atom_site_label
 _atom_site_symmetry_multiplicity
 _atom_site_fract_x
 _atom_site_fract_y
 _atom_site_fract_z
 _atom_site_occupancy
  Pa  Pa0  1  0.50000001  0.50000001  0.00000000  1
  S  S1  1  0.00000000  0.00000000  0.00000000  1
  Er  Er2  1  0.00000000  0.00000000  0.50000003  1
  Ac  Ac3  1  0.50000001  0.50000001  0.50000003  1
  Eu  Eu4  1  0.00000000  0.50000001  0.74142104  1
  As  As5  1  0.50000001  0.00000000  0.25857901  1
  Ta  Ta6  1  0.00000000  0.50000001  0.96023905  1
  Ca  Ca7  1  0.50000001  0.00000000  0.03976100  1
  P  P8  1  0.77993002  0.72007002  0.67291504  1
  Sc  Sc9  1  0.22007001  0.27993001  0.67291504  1
  Ac  Ac10  1  0.72007002  0.77993002  0.32708502  1
  N  N11  1  0.22007001  0.72007002  0.67291504  1
  Au  Au12  1  0.77993002  0.27993001  0.67291504  1
  Al  Al13  1  0.72007002  0.22007001  0.32708502  1
  Ru  Ru14  1  0.27993001  0.22007001  0.32708502  1
  Co  Co15  1  0.27993001  0.77993002  0.32708502  1
