# generated using pymatgen
data_CsCeSmEu2ZrNeHeDyMgInAgHgMoOsPd
_symmetry_space_group_name_H-M   'P 1'
_cell_length_a   3.97181106
_cell_length_b   3.97181106
_cell_length_c   15.72054577
_cell_angle_alpha   90.00000000
_cell_angle_beta   90.00000000
_cell_angle_gamma   90.00000000
_symmetry_Int_Tables_number   1
_chemical_formula_structural   CsCeSmEu2ZrNeHeDyMgInAgHgMoOsPd
_chemical_formula_sum
'Cs1 Ce1 Sm1 Eu2 Zr1 Ne1 He1 Dy1 Mg1 In1 Ag1 Hg1 Mo1 Os1 Pd1'
_cell_volume   247.99605945
_cell_formula_units_Z   1
loop_
 _symmetry_equiv_pos_site_id
 _symmetry_equiv_pos_as_xyz
  1  'x, y, z'
loop_
 _atom_site_type_symbol
 _atom_site_label
 _atom_site_symmetry_multiplicity
 _atom_site_fract_x
 _atom_site_fract_y
 _atom_site_fract_z
 _atom_site_occupancy
  Zr  Zr0  1  0.49999999  0.49999999  0.50000001  1
  Ce  Ce1  1  0.49999999  0.49999999  0.85589301  1
  Ne  Ne2  1  0.49999999  0.49999999  0.14410700  1
  Eu  Eu3  1  0.00000000  0.00000000  0.00000000  1
  Cs  Cs4  1  0.00000000  0.00000000  0.27988600  1
  He  He5  1  0.00000000  0.00000000  0.72011401  1
  Ag  Ag6  1  0.00000000  0.00000000  0.60614501  1
  Os  Os7  1  0.00000000  0.00000000  0.39385501  1
  Pd  Pd8  1  0.49999999  0.00000000  0.74578701  1
  Dy  Dy9  1  0.00000000  0.49999999  0.74578701  1
  In  In10  1  0.49999999  0.00000000  0.25421300  1
  Hg  Hg11  1  0.00000000  0.49999999  0.25421300  1
  Sm  Sm12  1  0.00000000  0.49999999  -0.00000000  1
  Mg  Mg13  1  0.49999999  0.00000000  -0.00000000  1
  Eu  Eu14  1  0.00000000  0.00000000  0.12565900  1
  Mo  Mo15  1  0.00000000  0.00000000  0.87434101  1
