# generated using pymatgen
data_CsAcYUMnCrCuTcGeSbTeMoRuSKr2
_symmetry_space_group_name_H-M   'P 1'
_cell_length_a   2.84330392
_cell_length_b   5.27904415
_cell_length_c   9.80454826
_cell_angle_alpha   96.04054260
_cell_angle_beta   90.00000000
_cell_angle_gamma   90.00000000
_symmetry_Int_Tables_number   1
_chemical_formula_structural   CsAcYUMnCrCuTcGeSbTeMoRuSKr2
_chemical_formula_sum
'Cs1 Ac1 Y1 U1 Mn1 Cr1 Cu1 Tc1 Ge1 Sb1 Te1 Mo1 Ru1 S1 Kr2'
_cell_volume   146.34844298
_cell_formula_units_Z   1
loop_
 _symmetry_equiv_pos_site_id
 _symmetry_equiv_pos_as_xyz
  1  'x, y, z'
loop_
 _atom_site_type_symbol
 _atom_site_label
 _atom_site_symmetry_multiplicity
 _atom_site_fract_x
 _atom_site_fract_y
 _atom_site_fract_z
 _atom_site_occupancy
  Kr  Kr0  1  0.50000001  0.24798799  0.75046398  1
  Ru  Ru1  1  0.00000000  0.00000000  0.49999999  1
  Y  Y2  1  0.50000001  0.75201198  0.24953598  1
  Cu  Cu3  1  -0.00000000  0.49999998  -0.00000001  1
  Te  Te4  1  0.50000001  0.49999998  0.49999998  1
  Sb  Sb5  1  -0.00000000  0.75673698  0.75264097  1
  Mn  Mn6  1  -0.00000000  0.24326299  0.24735899  1
  U  U7  1  0.50000001  0.00000000  -0.00000000  1
  Cs  Cs8  1  0.50000001  0.64248598  0.86541197  1
  S  S9  1  -0.00000000  0.38230599  0.61551398  1
  Mo  Mo10  1  0.50000001  0.13288200  0.35981199  1
  Ge  Ge11  1  -0.00000000  0.88438197  0.11673899  1
  Ac  Ac12  1  0.50000001  0.86711797  0.64018797  1
  Cr  Cr13  1  -0.00000000  0.61769398  0.38448598  1
  Kr  Kr14  1  0.50000001  0.35751399  0.13458799  1
  Tc  Tc15  1  -0.00000000  0.11561800  0.88326097  1
