# generated using pymatgen
data_KRb2NaLaHoErV3NiGeMoPtCN
_symmetry_space_group_name_H-M   'P 1'
_cell_length_a   4.70033979
_cell_length_b   4.99916697
_cell_length_c   5.77286005
_cell_angle_alpha   90.00000000
_cell_angle_beta   90.00000000
_cell_angle_gamma   90.00000000
_symmetry_Int_Tables_number   1
_chemical_formula_structural   KRb2NaLaHoErV3NiGeMoPtCN
_chemical_formula_sum
'K1 Rb2 Na1 La1 Ho1 Er1 V3 Ni1 Ge1 Mo1 Pt1 C1 N1'
_cell_volume   135.64941521
_cell_formula_units_Z   1
loop_
 _symmetry_equiv_pos_site_id
 _symmetry_equiv_pos_as_xyz
  1  'x, y, z'
loop_
 _atom_site_type_symbol
 _atom_site_label
 _atom_site_symmetry_multiplicity
 _atom_site_fract_x
 _atom_site_fract_y
 _atom_site_fract_z
 _atom_site_occupancy
  V  V0  1  0.99980604  0.08317200  0.62522499  1
  K  K1  1  0.49980602  0.91682801  0.37477500  1
  Rb  Rb2  1  0.49980602  0.41682800  0.12522500  1
  C  C3  1  0.99980604  0.58317200  0.87477499  1
  Pt  Pt4  1  0.99931804  0.08516400  0.12509200  1
  Na  Na5  1  0.99931804  0.58516400  0.37490800  1
  Ho  Ho6  1  0.49931802  0.41483600  0.62509199  1
  La  La7  1  0.49931802  0.91483601  0.87490799  1
  Rb  Rb8  1  0.37849702  0.58420200  0.87257999  1
  Ge  Ge9  1  0.37437902  0.07946600  0.12277900  1
  Ni  Ni10  1  0.87849704  0.41579800  0.12742000  1
  Er  Er11  1  0.87849704  0.91579801  0.37258000  1
  V  V12  1  0.87437904  0.42053400  0.62277899  1
  V  V13  1  0.87437904  0.92053401  0.87722099  1
  Mo  Mo14  1  0.37437902  0.57946600  0.37722100  1
  N  N15  1  0.37849702  0.08420200  0.62741999  1
