# generated using pymatgen
data_CaSmZrTaVPdRhHe
_symmetry_space_group_name_H-M   'P 1'
_cell_length_a   5.95348883
_cell_length_b   6.22501802
_cell_length_c   6.22501802
_cell_angle_alpha   76.97973633
_cell_angle_beta   72.26345062
_cell_angle_gamma   72.26345062
_symmetry_Int_Tables_number   1
_chemical_formula_structural   CaSmZrTaVPdRhHe
_chemical_formula_sum   'Ca1 Sm1 Zr1 Ta1 V1 Pd1 Rh1 He1'
_cell_volume   207.04816723
_cell_formula_units_Z   1
loop_
 _symmetry_equiv_pos_site_id
 _symmetry_equiv_pos_as_xyz
  1  'x, y, z'
loop_
 _atom_site_type_symbol
 _atom_site_label
 _atom_site_symmetry_multiplicity
 _atom_site_fract_x
 _atom_site_fract_y
 _atom_site_fract_z
 _atom_site_occupancy
  Rh  Rh0  1  0.33221798  0.33538799  0.33538800  1
  Ca  Ca1  1  0.66778196  0.66461198  0.66461200  1
  Sm  Sm2  1  0.80473196  0.59313198  0.13049401  1
  He  He3  1  0.19526795  0.86950597  0.40686804  1
  Pd  Pd4  1  0.78513299  0.00512500  0.00512497  1
  Zr  Zr5  1  0.21486694  0.99487496  0.99487503  1
  Ta  Ta6  1  0.80473199  0.13049400  0.59313196  1
  V  V7  1  0.19526798  0.40686799  0.86950599  1
