# generated using pymatgen
data_BeTePdO
_symmetry_space_group_name_H-M   'P 1'
_cell_length_a   3.76766109
_cell_length_b   4.16623020
_cell_length_c   5.55791569
_cell_angle_alpha   67.98795319
_cell_angle_beta   90.00000000
_cell_angle_gamma   90.00000000
_symmetry_Int_Tables_number   1
_chemical_formula_structural   BeTePdO
_chemical_formula_sum   'Be1 Te1 Pd1 O1'
_cell_volume   80.88276776
_cell_formula_units_Z   1
loop_
 _symmetry_equiv_pos_site_id
 _symmetry_equiv_pos_as_xyz
  1  'x, y, z'
loop_
 _atom_site_type_symbol
 _atom_site_label
 _atom_site_symmetry_multiplicity
 _atom_site_fract_x
 _atom_site_fract_y
 _atom_site_fract_z
 _atom_site_occupancy
  Pd  Pd0  1  0.24999999  0.85928698  0.28142596  1
  Te  Te1  1  0.74999998  0.14071300  0.71857400  1
  Be  Be2  1  0.24999999  0.57837799  0.84324398  1
  O  O3  1  0.74999998  0.42162199  0.15675598  1
