# generated using pymatgen
data_ThTiMnZnBPdNF
_symmetry_space_group_name_H-M   'P 1'
_cell_length_a   3.90807295
_cell_length_b   5.44034815
_cell_length_c   5.44034815
_cell_angle_alpha   90.00000000
_cell_angle_beta   90.00000000
_cell_angle_gamma   90.00000000
_symmetry_Int_Tables_number   1
_chemical_formula_structural   ThTiMnZnBPdNF
_chemical_formula_sum   'Th1 Ti1 Mn1 Zn1 B1 Pd1 N1 F1'
_cell_volume   115.66875129
_cell_formula_units_Z   1
loop_
 _symmetry_equiv_pos_site_id
 _symmetry_equiv_pos_as_xyz
  1  'x, y, z'
loop_
 _atom_site_type_symbol
 _atom_site_label
 _atom_site_symmetry_multiplicity
 _atom_site_fract_x
 _atom_site_fract_y
 _atom_site_fract_z
 _atom_site_occupancy
  B  B0  1  0.96129301  0.99999997  0.49999999  1
  N  N1  1  0.03870700  0.49999999  -0.00000000  1
  Th  Th2  1  0.49112801  0.99999997  0.49999999  1
  Mn  Mn3  1  0.50887201  0.49999999  -0.00000000  1
  Ti  Ti4  1  -0.00000000  0.24999999  0.24999999  1
  Pd  Pd5  1  -0.00000000  0.74999998  0.24999999  1
  F  F6  1  0.00000000  0.74999998  0.74999998  1
  Zn  Zn7  1  0.00000000  0.24999999  0.74999998  1
