# generated using pymatgen
data_NaAcLa2YbSmGdZrPaTiTlRuXeO
_symmetry_space_group_name_H-M   'P 1'
_cell_length_a   3.35365009
_cell_length_b   8.78428364
_cell_length_c   8.81749725
_cell_angle_alpha   102.68972015
_cell_angle_beta   100.96271515
_cell_angle_gamma   90.00000000
_symmetry_Int_Tables_number   1
_chemical_formula_structural   NaAcLa2YbSmGdZrPaTiTlRuXeO
_chemical_formula_sum
'Na1 Ac1 Yb1 La2 Sm1 Gd1 Zr1 Pa1 Ti1 Tl1 Ru1 Xe1 O1'
_cell_volume   248.55216615
_cell_formula_units_Z   1
loop_
 _symmetry_equiv_pos_site_id
 _symmetry_equiv_pos_as_xyz
  1  'x, y, z'
loop_
 _atom_site_type_symbol
 _atom_site_label
 _atom_site_symmetry_multiplicity
 _atom_site_fract_x
 _atom_site_fract_y
 _atom_site_fract_z
 _atom_site_occupancy
  Gd  Gd0  1  0.00000000  0.00000000  0.00000000  1
  Sm  Sm1  1  0.14630098  0.48683100  0.29260197  1
  Ac  Ac2  1  0.85369896  0.51316900  0.70739796  1
  Tl  Tl3  1  0.49999997  0.50000000  -0.00000003  1
  Yb  Yb4  1  0.20452996  0.83097800  0.40905995  1
  Pa  Pa5  1  0.79546997  0.16902200  0.59093999  1
  Ru  Ru6  1  0.07154997  0.67047700  0.14309996  1
  La  La7  1  0.33008999  0.00832900  0.66018000  1
  Na  Na8  1  0.26200898  0.35142300  0.52401798  1
  O  O9  1  0.41414396  0.68157000  0.82828795  1
  Xe  Xe10  1  0.58585597  0.31843000  0.17171198  1
  Ti  Ti11  1  0.92844996  0.32952300  0.85689998  1
  La  La12  1  0.73799095  0.64857700  0.47598196  1
  Zr  Zr13  1  0.66990994  0.99167100  0.33981993  1
