# generated using pymatgen
data_CsKEuMgTi2CrAsHSe
_symmetry_space_group_name_H-M   'P 1'
_cell_length_a   6.05623817
_cell_length_b   6.05623817
_cell_length_c   6.05623817
_cell_angle_alpha   60.00000000
_cell_angle_beta   60.00000000
_cell_angle_gamma   60.00000000
_symmetry_Int_Tables_number   1
_chemical_formula_structural   CsKEuMgTi2CrAsHSe
_chemical_formula_sum   'Cs1 K1 Eu1 Mg1 Ti2 Cr1 As1 H1 Se1'
_cell_volume   157.07021612
_cell_formula_units_Z   1
loop_
 _symmetry_equiv_pos_site_id
 _symmetry_equiv_pos_as_xyz
  1  'x, y, z'
loop_
 _atom_site_type_symbol
 _atom_site_label
 _atom_site_symmetry_multiplicity
 _atom_site_fract_x
 _atom_site_fract_y
 _atom_site_fract_z
 _atom_site_occupancy
  K  K0  1  0.74999999  0.74999999  0.74999999  1
  Cs  Cs1  1  0.25000000  0.25000000  0.25000000  1
  Ti  Ti2  1  0.00000000  0.00000000  0.00000000  1
  As  As3  1  0.49999999  0.49999999  0.49999999  1
  Se  Se4  1  0.73663299  0.73663299  0.26336700  1
  Mg  Mg5  1  0.73663299  0.26336700  0.26336700  1
  Eu  Eu6  1  0.26336700  0.73663299  0.73663299  1
  Cr  Cr7  1  0.26336700  0.73663299  0.26336700  1
  Ti  Ti8  1  0.26336700  0.26336700  0.73663299  1
  H  H9  1  0.73663299  0.26336700  0.73663299  1
