# generated using pymatgen
data_Li2GdMgAlFeCuReNiSn2HgP2Ru2AuKr
_symmetry_space_group_name_H-M   'P 1'
_cell_length_a   7.21586800
_cell_length_b   7.21586800
_cell_length_c   7.21744299
_cell_angle_alpha   60.34833527
_cell_angle_beta   60.34833527
_cell_angle_gamma   60.37391663
_symmetry_Int_Tables_number   1
_chemical_formula_structural   Li2GdMgAlFeCuReNiSn2HgP2Ru2AuKr
_chemical_formula_sum
'Li2 Gd1 Mg1 Al1 Fe1 Re1 Cu1 Ni1 Sn2 Hg1 P2 Ru2 Au1 Kr1'
_cell_volume   267.87812989
_cell_formula_units_Z   1
loop_
 _symmetry_equiv_pos_site_id
 _symmetry_equiv_pos_as_xyz
  1  'x, y, z'
loop_
 _atom_site_type_symbol
 _atom_site_label
 _atom_site_symmetry_multiplicity
 _atom_site_fract_x
 _atom_site_fract_y
 _atom_site_fract_z
 _atom_site_occupancy
  Hg  Hg0  1  0.10724200  0.17375000  0.61227301  1
  P  P1  1  0.82624998  0.89275802  0.38772703  1
  Re  Re2  1  0.49731799  0.50268201  1.00000002  1
  Ni  Ni3  1  0.49906601  0.00125800  0.00069301  1
  Au  Au4  1  0.99874200  0.50093401  0.99930702  1
  Gd  Gd5  1  0.49836099  0.50163901  0.50000002  1
  Li  Li6  1  0.82593799  0.82731102  0.92668403  1
  Ru  Ru7  1  0.43477499  0.43181501  0.32059001  1
  Cu  Cu8  1  0.43539898  0.82050202  0.93214702  1
  Sn  Sn9  1  0.82510000  0.42767601  0.32604702  1
  Kr  Kr10  1  0.81977500  0.43377401  0.93333402  1
  Sn  Sn11  1  0.42829698  0.82718402  0.32677502  1
  Li  Li12  1  0.17268900  0.17406200  0.07331601  1
  Mg  Mg13  1  0.56818499  0.56522501  0.67941002  1
  Fe  Fe14  1  0.56622600  0.18022500  0.06666601  1
  Ru  Ru15  1  0.17281599  0.57170301  0.67322501  1
  P  P16  1  0.17949799  0.56460101  0.06785301  1
  Al  Al17  1  0.57232400  0.17490000  0.67395301  1
