# generated using pymatgen
data_BaZrMnNbTlCrNeBiPbO
_symmetry_space_group_name_H-M   'P 1'
_cell_length_a   3.87900805
_cell_length_b   4.98787069
_cell_length_c   5.12892056
_cell_angle_alpha   99.24317169
_cell_angle_beta   90.00000000
_cell_angle_gamma   112.88259125
_symmetry_Int_Tables_number   1
_chemical_formula_structural   BaZrMnNbTlCrNeBiPbO
_chemical_formula_sum   'Ba1 Zr1 Mn1 Nb1 Tl1 Cr1 Ne1 Bi1 Pb1 O1'
_cell_volume   90.02471230
_cell_formula_units_Z   1
loop_
 _symmetry_equiv_pos_site_id
 _symmetry_equiv_pos_as_xyz
  1  'x, y, z'
loop_
 _atom_site_type_symbol
 _atom_site_label
 _atom_site_symmetry_multiplicity
 _atom_site_fract_x
 _atom_site_fract_y
 _atom_site_fract_z
 _atom_site_occupancy
  Nb  Nb0  1  0.19400898  0.24907599  0.36660600  1
  Ba  Ba1  1  0.94493293  0.75092397  0.63339402  1
  Cr  Cr2  1  0.34719996  0.44751998  0.85136001  1
  Ne  Ne3  1  0.89967995  0.55247998  0.14864001  1
  Bi  Bi4  1  0.13620899  0.15613399  0.72534400  1
  Zr  Zr5  1  0.98007492  0.84386597  0.27465602  1
  Tl  Tl6  1  0.38324795  0.64659497  0.67194001  1
  Pb  Pb7  1  0.73665296  0.35340499  0.32806001  1
  O  O8  1  0.26351696  0.53314098  0.11714401  1
  Mn  Mn9  1  0.73037595  0.46685898  0.88285601  1
