# generated using pymatgen
data_CsRbLaYbCePrNdLuCrBiCCl
_symmetry_space_group_name_H-M   'P 1'
_cell_length_a   5.54768181
_cell_length_b   5.54768181
_cell_length_c   7.20792580
_cell_angle_alpha   112.63331604
_cell_angle_beta   112.63331604
_cell_angle_gamma   90.00000000
_symmetry_Int_Tables_number   1
_chemical_formula_structural   CsRbLaYbCePrNdLuCrBiCCl
_chemical_formula_sum
'Cs1 Rb1 La1 Yb1 Ce1 Pr1 Nd1 Lu1 Cr1 Bi1 C1 Cl1'
_cell_volume   186.10612240
_cell_formula_units_Z   1
loop_
 _symmetry_equiv_pos_site_id
 _symmetry_equiv_pos_as_xyz
  1  'x, y, z'
loop_
 _atom_site_type_symbol
 _atom_site_label
 _atom_site_symmetry_multiplicity
 _atom_site_fract_x
 _atom_site_fract_y
 _atom_site_fract_z
 _atom_site_occupancy
  La  La0  1  0.75000004  0.25000001  0.50000004  1
  Pr  Pr1  1  0.50000004  0.50000002  0.00000003  1
  Ce  Ce2  1  0.25000003  0.75000004  0.50000004  1
  Cr  Cr3  1  0.00000000  0.00000000  0.00000000  1
  Bi  Bi4  1  0.76903005  0.68550303  0.84398907  1
  Rb  Rb5  1  0.07495901  0.15848601  0.84398903  1
  Cs  Cs6  1  0.92373306  0.78571604  0.32484706  1
  Lu  Lu7  1  0.40111403  0.53913103  0.32484704  1
  Yb  Yb8  1  0.46086902  0.07626800  0.67515403  1
  C  C9  1  0.21428403  0.59888503  0.67515205  1
  Cl  Cl10  1  0.31449704  0.92504105  0.15601104  1
  Nd  Nd11  1  0.84151404  0.23097001  0.15601103  1
