# generated using pymatgen
data_BaLi2PrNdDyMnBeAlZnRhCS
_symmetry_space_group_name_H-M   'P 1'
_cell_length_a   4.96265602
_cell_length_b   6.28155613
_cell_length_c   6.28155613
_cell_angle_alpha   120.00000000
_cell_angle_beta   90.00000000
_cell_angle_gamma   90.00000000
_symmetry_Int_Tables_number   1
_chemical_formula_structural   BaLi2PrNdDyMnBeAlZnRhCS
_chemical_formula_sum
'Ba1 Li2 Pr1 Nd1 Dy1 Mn1 Be1 Al1 Zn1 Rh1 C1 S1'
_cell_volume   169.58182124
_cell_formula_units_Z   1
loop_
 _symmetry_equiv_pos_site_id
 _symmetry_equiv_pos_as_xyz
  1  'x, y, z'
loop_
 _atom_site_type_symbol
 _atom_site_label
 _atom_site_symmetry_multiplicity
 _atom_site_fract_x
 _atom_site_fract_y
 _atom_site_fract_z
 _atom_site_occupancy
  Zn  Zn0  1  0.31630500  0.00000000  -0.00000000  1
  Be  Be1  1  0.25199200  0.33333333  0.66666664  1
  Li  Li2  1  0.75244600  0.83064998  0.16934999  1
  S  S3  1  0.75244600  0.33869999  0.16934999  1
  Rh  Rh4  1  0.75244600  0.83064998  0.66129997  1
  Ba  Ba5  1  0.95937300  0.00000000  -0.00000000  1
  Dy  Dy6  1  0.95827500  0.99202498  0.49601198  1
  Mn  Mn7  1  0.95827500  0.50398699  0.49601198  1
  Nd  Nd8  1  0.95827500  0.50398699  0.00797400  1
  Li  Li9  1  0.53527500  0.66666665  0.33333332  1
  Al  Al10  1  0.51763000  0.69493098  0.84746497  1
  Pr  Pr11  1  0.51763000  0.15253400  0.84746497  1
  C  C12  1  0.51763000  0.15253400  0.30506799  1
