# generated using pymatgen
data_Cs2CePmSmDyErLuThUTiTlGaGePdPt2SeSO
_symmetry_space_group_name_H-M   'P 1'
_cell_length_a   5.49013090
_cell_length_b   5.68394995
_cell_length_c   7.89140081
_cell_angle_alpha   90.00000000
_cell_angle_beta   90.00000000
_cell_angle_gamma   90.00000000
_symmetry_Int_Tables_number   1
_chemical_formula_structural   Cs2CePmSmDyErLuThUTiTlGaGePdPt2SeSO
_chemical_formula_sum
'Cs2 Ce1 Pm1 Sm1 Dy1 Er1 Lu1 Th1 U1 Ti1 Tl1 Ga1 Ge1 Pd1 Pt2 Se1 S1 O1'
_cell_volume   246.25612805
_cell_formula_units_Z   1
loop_
 _symmetry_equiv_pos_site_id
 _symmetry_equiv_pos_as_xyz
  1  'x, y, z'
loop_
 _atom_site_type_symbol
 _atom_site_label
 _atom_site_symmetry_multiplicity
 _atom_site_fract_x
 _atom_site_fract_y
 _atom_site_fract_z
 _atom_site_occupancy
  Lu  Lu0  1  0.01602200  0.94308401  0.75000002  1
  Cs  Cs1  1  0.51602201  0.55691601  0.25000001  1
  Cs  Cs2  1  0.48397801  0.44308400  0.75000002  1
  Pt  Pt3  1  0.98397802  0.05691600  0.25000001  1
  Dy  Dy4  1  0.50000001  0.00000000  0.50000001  1
  O  O5  1  0.00000000  0.50000000  0.50000001  1
  Er  Er6  1  0.00000000  0.50000000  -0.00000000  1
  Ce  Ce7  1  0.50000001  0.00000000  -0.00000000  1
  Ti  Ti8  1  0.69710001  0.29925900  0.44338601  1
  Pd  Pd9  1  0.19710000  0.20074100  0.55661401  1
  U  U10  1  0.80290001  0.79925901  0.05661400  1
  Tl  Tl11  1  0.30290001  0.70074101  0.94338602  1
  Ge  Ge12  1  0.30290001  0.70074101  0.55661401  1
  Sm  Sm13  1  0.80290001  0.79925901  0.44338601  1
  Ga  Ga14  1  0.19710000  0.20074100  0.94338602  1
  Pm  Pm15  1  0.69710001  0.29925900  0.05661400  1
  S  S16  1  0.10790200  0.46018200  0.25000001  1
  Se  Se17  1  0.60790201  0.03981800  0.75000002  1
  Pt  Pt18  1  0.39209801  0.96018201  0.25000001  1
  Th  Th19  1  0.89209802  0.53981800  0.75000002  1
