# generated using pymatgen
data_RbSrLiAcTm2Lu2ZrTa2ZnFeTeAsPIrPbSO
_symmetry_space_group_name_H-M   'P 1'
_cell_length_a   5.59132385
_cell_length_b   5.73240519
_cell_length_c   8.22130871
_cell_angle_alpha   90.00000000
_cell_angle_beta   89.84782410
_cell_angle_gamma   90.00000000
_symmetry_Int_Tables_number   1
_chemical_formula_structural   RbSrLiAcTm2Lu2ZrTa2ZnFeTeAsPIrPbSO
_chemical_formula_sum
'Rb1 Sr1 Li1 Ac1 Tm2 Lu2 Zr1 Ta2 Zn1 Fe1 Te1 As1 P1 Ir1 Pb1 S1 O1'
_cell_volume   263.50626918
_cell_formula_units_Z   1
loop_
 _symmetry_equiv_pos_site_id
 _symmetry_equiv_pos_as_xyz
  1  'x, y, z'
loop_
 _atom_site_type_symbol
 _atom_site_label
 _atom_site_symmetry_multiplicity
 _atom_site_fract_x
 _atom_site_fract_y
 _atom_site_fract_z
 _atom_site_occupancy
  Li  Li0  1  0.48794301  0.95503697  0.75946205  1
  Ta  Ta1  1  0.01205700  0.45503699  0.74053803  1
  Ac  Ac2  1  0.51205701  0.04496300  0.24053803  1
  S  S3  1  0.98794303  0.54496298  0.25946205  1
  P  P4  1  0.00000000  0.00000000  0.50000002  1
  Fe  Fe5  1  0.50000001  0.49999998  0.00000002  1
  Lu  Lu6  1  0.00000000  0.00000000  0.00000000  1
  As  As7  1  0.50000001  0.49999998  0.50000004  1
  O  O8  1  0.83291402  0.27800799  0.08300604  1
  Rb  Rb9  1  0.66708602  0.77800797  0.41699404  1
  Tm  Tm10  1  0.16708600  0.72199198  0.91699404  1
  Te  Te11  1  0.33291401  0.22199199  0.58300603  1
  Zr  Zr12  1  0.28890501  0.17715599  0.94991605  1
  Ir  Ir13  1  0.21109501  0.67715598  0.55008403  1
  Lu  Lu14  1  0.71109502  0.82284397  0.05008403  1
  Tm  Tm15  1  0.78890502  0.32284399  0.44991605  1
  Zn  Zn16  1  0.37982101  0.42444499  0.27962002  1
  Ta  Ta17  1  0.12017900  0.92444497  0.22038001  1
  Sr  Sr18  1  0.62017902  0.57555498  0.72038005  1
  Pb  Pb19  1  0.87982102  0.07555500  0.77962006  1
