# generated using pymatgen
data_YbPr2SmHoPuUPaVZnGaHg2GeBiPPdRhCO
_symmetry_space_group_name_H-M   'P 1'
_cell_length_a   8.53817558
_cell_length_b   8.53817558
_cell_length_c   8.53817558
_cell_angle_alpha   109.47122192
_cell_angle_beta   109.47122192
_cell_angle_gamma   109.47122192
_symmetry_Int_Tables_number   1
_chemical_formula_structural   YbPr2SmHoPuUPaVZnGaHg2GeBiPPdRhCO
_chemical_formula_sum
'Yb1 Pr2 Sm1 Ho1 Pu1 U1 Pa1 V1 Zn1 Ga1 Hg2 Ge1 Bi1 P1 Pd1 Rh1 C1 O1'
_cell_volume   479.15203092
_cell_formula_units_Z   1
loop_
 _symmetry_equiv_pos_site_id
 _symmetry_equiv_pos_as_xyz
  1  'x, y, z'
loop_
 _atom_site_type_symbol
 _atom_site_label
 _atom_site_symmetry_multiplicity
 _atom_site_fract_x
 _atom_site_fract_y
 _atom_site_fract_z
 _atom_site_occupancy
  Ho  Ho0  1  0.87500002  0.12500001  0.75000003  1
  Hg  Hg1  1  0.62500003  0.37500002  0.25000004  1
  V  V2  1  0.12500002  0.25000001  0.37500002  1
  Ge  Ge3  1  0.37500005  0.75000003  0.12500005  1
  Pu  Pu4  1  0.75000005  0.62500003  0.87500006  1
  U  U5  1  0.25000006  0.87500004  0.62500006  1
  C  C6  1  0.00000003  0.50000002  0.67875203  1
  Ga  Ga7  1  0.32124802  0.32124801  0.82124803  1
  Pa  Pa8  1  0.50000002  0.17875201  0.50000002  1
  O  O9  1  0.17875207  1.00000005  0.00000006  1
  Yb  Yb10  1  0.82124806  0.82124804  0.32124807  1
  P  P11  1  1.00000005  0.50000002  0.17875205  1
  Rh  Rh12  1  0.50000005  0.67875203  0.50000005  1
  Pd  Pd13  1  0.67875207  1.00000005  1.00000008  1
  Pr  Pr14  1  0.37500004  0.62500003  0.75000005  1
  Hg  Hg15  1  0.12500006  0.87500004  0.25000005  1
  Pr  Pr16  1  0.62500002  0.25000001  0.87500003  1
  Bi  Bi17  1  0.87500006  0.75000003  0.62500007  1
  Sm  Sm18  1  0.75000002  0.12500001  0.37500003  1
  Zn  Zn19  1  0.25000003  0.37500002  0.12500003  1
