# generated using pymatgen
data_TbGdHo2NpTiNbCuGePt2Au
_symmetry_space_group_name_H-M   'P 1'
_cell_length_a   4.13310289
_cell_length_b   4.13310289
_cell_length_c   14.33616543
_cell_angle_alpha   90.00000000
_cell_angle_beta   90.00000000
_cell_angle_gamma   90.00000000
_symmetry_Int_Tables_number   1
_chemical_formula_structural   TbGdHo2NpTiNbCuGePt2Au
_chemical_formula_sum   'Tb1 Gd1 Ho2 Np1 Ti1 Nb1 Cu1 Ge1 Pt2 Au1'
_cell_volume   244.89811265
_cell_formula_units_Z   1
loop_
 _symmetry_equiv_pos_site_id
 _symmetry_equiv_pos_as_xyz
  1  'x, y, z'
loop_
 _atom_site_type_symbol
 _atom_site_label
 _atom_site_symmetry_multiplicity
 _atom_site_fract_x
 _atom_site_fract_y
 _atom_site_fract_z
 _atom_site_occupancy
  Np  Np0  1  0.00000000  0.00000000  0.08287400  1
  Gd  Gd1  1  0.00000000  0.00000000  0.58723798  1
  Au  Au2  1  0.50000001  0.50000001  0.41857999  1
  Pt  Pt3  1  0.50000001  0.50000001  0.91424597  1
  Tb  Tb4  1  0.00000000  0.00000000  0.31417399  1
  Ge  Ge5  1  0.00000000  0.00000000  0.81656598  1
  Ti  Ti6  1  0.50000001  0.50000001  0.18053699  1
  Nb  Nb7  1  0.50000001  0.50000001  0.68368698  1
  Ho  Ho8  1  0.50000001  0.00000000  0.99852797  1
  Pt  Pt9  1  0.50000001  0.00000000  0.50252098  1
  Ho  Ho10  1  0.00000000  0.50000001  0.99852797  1
  Cu  Cu11  1  0.00000000  0.50000001  0.50252098  1
