# generated using pymatgen
data_CaTb2PaNbV2BiMoRuAu2ICl
_symmetry_space_group_name_H-M   'P 1'
_cell_length_a   5.94637251
_cell_length_b   5.94637251
_cell_length_c   5.94782972
_cell_angle_alpha   60.00810242
_cell_angle_beta   60.00810242
_cell_angle_gamma   59.99999619
_symmetry_Int_Tables_number   1
_chemical_formula_structural   CaTb2PaNbV2BiMoRuAu2ICl
_chemical_formula_sum   'Ca1 Tb2 Pa1 Nb1 V2 Bi1 Mo1 Ru1 Au2 I1 Cl1'
_cell_volume   148.73080099
_cell_formula_units_Z   1
loop_
 _symmetry_equiv_pos_site_id
 _symmetry_equiv_pos_as_xyz
  1  'x, y, z'
loop_
 _atom_site_type_symbol
 _atom_site_label
 _atom_site_symmetry_multiplicity
 _atom_site_fract_x
 _atom_site_fract_y
 _atom_site_fract_z
 _atom_site_occupancy
  I  I0  1  0.49999998  0.00000000  0.00000001  1
  Nb  Nb1  1  0.49999997  0.49999998  0.00000002  1
  Tb  Tb2  1  -0.00000001  0.49999998  0.00000001  1
  Au  Au3  1  0.12323099  0.12323100  0.63030700  1
  V  V4  1  0.87676895  0.87676897  0.36969303  1
  Ru  Ru5  1  0.49999997  0.49999998  0.50000001  1
  Mo  Mo6  1  0.25818199  0.25818199  0.22545401  1
  Tb  Tb7  1  0.25426698  0.71282498  0.77864101  1
  Pa  Pa8  1  0.25426699  0.25426699  0.77864100  1
  Bi  Bi9  1  0.71282497  0.25426699  0.77864101  1
  V  V10  1  0.74181796  0.74181798  0.77454602  1
  Au  Au11  1  0.74573297  0.28717499  0.22135901  1
  Cl  Cl12  1  0.74573296  0.74573298  0.22135902  1
  Ca  Ca13  1  0.28717498  0.74573298  0.22135902  1
