# generated using pymatgen
data_CsKPmPrErThNbReSnBr
_symmetry_space_group_name_H-M   'P 1'
_cell_length_a   6.63690710
_cell_length_b   6.63690710
_cell_length_c   6.63690710
_cell_angle_alpha   60.00000000
_cell_angle_beta   60.00000000
_cell_angle_gamma   60.00000000
_symmetry_Int_Tables_number   1
_chemical_formula_structural   CsKPmPrErThNbReSnBr
_chemical_formula_sum   'Cs1 K1 Pr1 Pm1 Er1 Th1 Nb1 Re1 Sn1 Br1'
_cell_volume   206.71986765
_cell_formula_units_Z   1
loop_
 _symmetry_equiv_pos_site_id
 _symmetry_equiv_pos_as_xyz
  1  'x, y, z'
loop_
 _atom_site_type_symbol
 _atom_site_label
 _atom_site_symmetry_multiplicity
 _atom_site_fract_x
 _atom_site_fract_y
 _atom_site_fract_z
 _atom_site_occupancy
  Sn  Sn0  1  0.25000000  0.25000000  0.25000000  1
  Er  Er1  1  0.75000000  0.75000000  0.75000000  1
  K  K2  1  0.50000000  0.50000000  0.50000000  1
  Cs  Cs3  1  0.00000000  0.00000000  0.00000000  1
  Nb  Nb4  1  0.22008000  0.77992000  0.22008000  1
  Br  Br5  1  0.22008000  0.22008000  0.77992000  1
  Re  Re6  1  0.77992000  0.22008000  0.77992000  1
  Pr  Pr7  1  0.22008000  0.77992000  0.77992000  1
  Th  Th8  1  0.77992000  0.22008000  0.22008000  1
  Pm  Pm9  1  0.77992000  0.77992000  0.22008000  1
