# generated using pymatgen
data_BaSrPmGdMgMnCuReTcGe2SbKrF
_symmetry_space_group_name_H-M   'P 1'
_cell_length_a   5.19349194
_cell_length_b   5.28603077
_cell_length_c   7.77281666
_cell_angle_alpha   82.78585052
_cell_angle_beta   70.81438446
_cell_angle_gamma   65.94560242
_symmetry_Int_Tables_number   1
_chemical_formula_structural   BaSrPmGdMgMnCuReTcGe2SbKrF
_chemical_formula_sum
'Ba1 Sr1 Pm1 Gd1 Mg1 Mn1 Cu1 Tc1 Re1 Ge2 Sb1 Kr1 F1'
_cell_volume   184.02487054
_cell_formula_units_Z   1
loop_
 _symmetry_equiv_pos_site_id
 _symmetry_equiv_pos_as_xyz
  1  'x, y, z'
loop_
 _atom_site_type_symbol
 _atom_site_label
 _atom_site_symmetry_multiplicity
 _atom_site_fract_x
 _atom_site_fract_y
 _atom_site_fract_z
 _atom_site_occupancy
  Mn  Mn0  1  0.76882499  0.71631701  0.82176898  1
  Mg  Mg1  1  0.98042101  0.25866500  0.53355198  1
  Sr  Sr2  1  0.05909797  0.72330301  0.43548199  1
  Gd  Gd3  1  0.19944297  0.76263101  0.02127499  1
  F  F4  1  0.40589700  0.28235600  0.75170499  1
  Ba  Ba5  1  0.59624698  0.72274901  0.25200799  1
  Cu  Cu6  1  0.25873000  0.12497800  0.92754599  1
  Tc  Tc7  1  0.50201599  0.51261101  0.81537098  1
  Re  Re8  1  0.71547201  0.03919500  0.62227798  1
  Ge  Ge9  1  0.14757098  0.45618400  0.64447399  1
  Sb  Sb10  1  0.82436899  0.54196101  0.37214198  1
  Kr  Kr11  1  0.32169097  0.98051401  0.38299999  1
  Ge  Ge12  1  0.42504899  0.54940201  0.20345799  1
  Pm  Pm13  1  0.79307298  0.81993301  0.05563998  1
