# generated using pymatgen
data_CsTlKrF
_symmetry_space_group_name_H-M   'P 1'
_cell_length_a   4.12674809
_cell_length_b   4.12674809
_cell_length_c   8.40948772
_cell_angle_alpha   75.79673767
_cell_angle_beta   75.79673767
_cell_angle_gamma   60.00000000
_symmetry_Int_Tables_number   1
_chemical_formula_structural   CsTlKrF
_chemical_formula_sum   'Cs1 Tl1 Kr1 F1'
_cell_volume   118.94499492
_cell_formula_units_Z   1
loop_
 _symmetry_equiv_pos_site_id
 _symmetry_equiv_pos_as_xyz
  1  'x, y, z'
loop_
 _atom_site_type_symbol
 _atom_site_label
 _atom_site_symmetry_multiplicity
 _atom_site_fract_x
 _atom_site_fract_y
 _atom_site_fract_z
 _atom_site_occupancy
  Kr  Kr0  1  0.00000000  0.00000000  0.00000000  1
  Cs  Cs1  1  0.49999996  0.49999998  0.50000001  1
  F  F2  1  0.77263994  0.77263998  0.68208002  1
  Tl  Tl3  1  0.22735998  0.22735999  0.31792000  1
