# generated using pymatgen
data_LaTbYbPrNdErUTaHg2He2SiSeBrKr
_symmetry_space_group_name_H-M   'P 1'
_cell_length_a   3.90318298
_cell_length_b   3.90318298
_cell_length_c   15.83843994
_cell_angle_alpha   90.00000000
_cell_angle_beta   90.00000000
_cell_angle_gamma   90.00000000
_symmetry_Int_Tables_number   1
_chemical_formula_structural   LaTbYbPrNdErUTaHg2He2SiSeBrKr
_chemical_formula_sum
'La1 Yb1 Tb1 Pr1 Nd1 Er1 U1 Ta1 Hg2 He2 Si1 Se1 Br1 Kr1'
_cell_volume   241.29605721
_cell_formula_units_Z   1
loop_
 _symmetry_equiv_pos_site_id
 _symmetry_equiv_pos_as_xyz
  1  'x, y, z'
loop_
 _atom_site_type_symbol
 _atom_site_label
 _atom_site_symmetry_multiplicity
 _atom_site_fract_x
 _atom_site_fract_y
 _atom_site_fract_z
 _atom_site_occupancy
  Nd  Nd0  1  0.50000000  0.00000000  0.81674600  1
  Hg  Hg1  1  -0.00000000  0.50000000  0.18325400  1
  La  La2  1  -0.00000000  0.50000000  0.41319300  1
  Hg  Hg3  1  0.50000000  0.00000000  0.58680700  1
  U  U4  1  -0.00000000  0.50000000  0.68875300  1
  Pr  Pr5  1  0.50000000  0.00000000  0.31124700  1
  He  He6  1  0.50000000  0.50000000  0.00000000  1
  He  He7  1  0.00000000  0.00000000  0.00000000  1
  Kr  Kr8  1  -0.00000000  0.50000000  0.91033400  1
  Si  Si9  1  0.50000000  0.00000000  0.08966600  1
  Er  Er10  1  -0.00000000  0.50000000  0.56887600  1
  Se  Se11  1  0.50000000  0.00000000  0.43112400  1
  Ta  Ta12  1  0.50000000  0.50000000  0.71275400  1
  Yb  Yb13  1  0.50000000  0.50000000  0.28724600  1
  Tb  Tb14  1  0.00000000  0.00000000  0.71275400  1
  Br  Br15  1  0.00000000  0.00000000  0.28724600  1
