# generated using pymatgen
data_CaEuErPuThMgBeNbSbAuCBrN
_symmetry_space_group_name_H-M   'P 1'
_cell_length_a   5.88560200
_cell_length_b   5.88560200
_cell_length_c   8.10864353
_cell_angle_alpha   90.00000000
_cell_angle_beta   90.00000000
_cell_angle_gamma   120.00000000
_symmetry_Int_Tables_number   1
_chemical_formula_structural   CaEuErPuThMgBeNbSbAuCBrN
_chemical_formula_sum
'Ca1 Eu1 Er1 Pu1 Th1 Mg1 Be1 Nb1 Sb1 Au1 C1 Br1 N1'
_cell_volume   243.25435327
_cell_formula_units_Z   1
loop_
 _symmetry_equiv_pos_site_id
 _symmetry_equiv_pos_as_xyz
  1  'x, y, z'
loop_
 _atom_site_type_symbol
 _atom_site_label
 _atom_site_symmetry_multiplicity
 _atom_site_fract_x
 _atom_site_fract_y
 _atom_site_fract_z
 _atom_site_occupancy
  Br  Br0  1  0.33333334  0.66666669  0.07962800  1
  Nb  Nb1  1  0.66666667  0.33333334  0.92037205  1
  Au  Au2  1  0.00000000  0.00000000  0.72263704  1
  Be  Be3  1  0.00000000  0.00000000  0.27736302  1
  Sb  Sb4  1  0.66666667  0.33333334  0.38177202  1
  Eu  Eu5  1  0.33333334  0.66666669  0.61822804  1
  N  N6  1  0.17991400  0.32835401  0.79103205  1
  Th  Th7  1  0.82008601  0.67164602  0.20896801  1
  Mg  Mg8  1  0.67164601  0.85156003  0.79103205  1
  Er  Er9  1  0.00000000  0.00000000  0.50000003  1
  C  C10  1  0.85156000  0.17991401  0.20896801  1
  Pu  Pu11  1  0.14844001  0.82008602  0.79103205  1
  Ca  Ca12  1  0.32835400  0.14844000  0.20896801  1
