# generated using pymatgen
data_SrAcNpPaCrCoNiBi2AuHe
_symmetry_space_group_name_H-M   'P 1'
_cell_length_a   3.91046691
_cell_length_b   6.01622057
_cell_length_c   6.01622057
_cell_angle_alpha   91.58621979
_cell_angle_beta   92.17237854
_cell_angle_gamma   92.17237854
_symmetry_Int_Tables_number   1
_chemical_formula_structural   SrAcNpPaCrCoNiBi2AuHe
_chemical_formula_sum   'Sr1 Ac1 Np1 Pa1 Cr1 Co1 Ni1 Bi2 Au1 He1'
_cell_volume   141.27552243
_cell_formula_units_Z   1
loop_
 _symmetry_equiv_pos_site_id
 _symmetry_equiv_pos_as_xyz
  1  'x, y, z'
loop_
 _atom_site_type_symbol
 _atom_site_label
 _atom_site_symmetry_multiplicity
 _atom_site_fract_x
 _atom_site_fract_y
 _atom_site_fract_z
 _atom_site_occupancy
  Ac  Ac0  1  0.99999994  0.99471800  0.00528193  1
  Co  Co1  1  0.20495399  0.18608200  0.37481799  1
  Np  Np2  1  0.79504596  0.62518200  0.81391795  1
  Au  Au3  1  0.80408299  0.24534500  0.33161597  1
  Sr  Sr4  1  0.89441595  0.79709200  0.61459294  1
  Ni  Ni5  1  0.19591696  0.66838400  0.75465497  1
  Pa  Pa6  1  0.10558397  0.38540700  0.20290798  1
  Cr  Cr7  1  0.49999999  0.20059200  0.79940798  1
  Bi  Bi8  1  0.49999995  0.78642900  0.21357096  1
  Bi  Bi9  1  0.96970196  0.74631900  0.76954994  1
  He  He10  1  0.03029798  0.23045000  0.25368099  1
