# generated using pymatgen
data_NeSrYbCePmDyYErNpZnRuCSCl
_symmetry_space_group_name_H-M   'P 1'
_cell_length_a   5.96416283
_cell_length_b   5.96416283
_cell_length_c   5.96416187
_cell_angle_alpha   60.21615982
_cell_angle_beta   60.21615982
_cell_angle_gamma   60.21615601
_symmetry_Int_Tables_number   1
_chemical_formula_structural   NeSrYbCePmDyYErNpZnRuCSCl
_chemical_formula_sum
'Ne1 Sr1 Yb1 Ce1 Pm1 Dy1 Y1 Er1 Np1 Zn1 Ru1 C1 S1 Cl1'
_cell_volume   150.74874934
_cell_formula_units_Z   1
loop_
 _symmetry_equiv_pos_site_id
 _symmetry_equiv_pos_as_xyz
  1  'x, y, z'
loop_
 _atom_site_type_symbol
 _atom_site_label
 _atom_site_symmetry_multiplicity
 _atom_site_fract_x
 _atom_site_fract_y
 _atom_site_fract_z
 _atom_site_occupancy
  Ne  Ne0  1  0.37437498  0.37437498  0.37437503  1
  Np  Np1  1  0.75419596  0.75419596  0.75419607  1
  Yb  Yb2  1  0.86800195  0.37670398  0.37670405  1
  Ru  Ru3  1  0.37670398  0.86800196  0.37670405  1
  S  S4  1  0.37670398  0.37670398  0.86800205  1
  Pm  Pm5  1  0.99231794  0.99231795  0.99231809  1
  Cl  Cl6  1  0.13298399  0.13298399  0.13298401  1
  C  C7  1  0.58745497  0.12831099  0.12831102  1
  Ce  Ce8  1  0.12831099  0.58745497  0.12831102  1
  Sr  Sr9  1  0.12831099  0.12831099  0.58745503  1
  Er  Er10  1  0.61542397  0.61542397  0.61542406  1
  Dy  Dy11  1  0.16735899  0.62392797  0.62392805  1
  Y  Y12  1  0.62392797  0.16735899  0.62392805  1
  Zn  Zn13  1  0.62392797  0.62392797  0.16735904  1
