# generated using pymatgen
data_CaTbSmUVFeIrCHe
_symmetry_space_group_name_H-M   'P 1'
_cell_length_a   7.23979187
_cell_length_b   7.23979187
_cell_length_c   7.23979187
_cell_angle_alpha   60.00000000
_cell_angle_beta   60.00000000
_cell_angle_gamma   60.00000000
_symmetry_Int_Tables_number   1
_chemical_formula_structural   CaTbSmUVFeIrCHe
_chemical_formula_sum   'Ca1 Tb1 Sm1 U1 V1 Fe1 Ir1 C1 He1'
_cell_volume   268.32630236
_cell_formula_units_Z   1
loop_
 _symmetry_equiv_pos_site_id
 _symmetry_equiv_pos_as_xyz
  1  'x, y, z'
loop_
 _atom_site_type_symbol
 _atom_site_label
 _atom_site_symmetry_multiplicity
 _atom_site_fract_x
 _atom_site_fract_y
 _atom_site_fract_z
 _atom_site_occupancy
  Fe  Fe0  1  0.25000000  0.25000000  0.25000000  1
  Ca  Ca1  1  0.75000001  0.75000001  0.75000001  1
  Sm  Sm2  1  0.00000000  0.00000000  0.00000000  1
  C  C3  1  0.75899901  0.75899901  0.24100100  1
  Tb  Tb4  1  0.75899901  0.24100100  0.24100100  1
  U  U5  1  0.24100100  0.75899901  0.75899901  1
  V  V6  1  0.24100100  0.24100100  0.75899901  1
  He  He7  1  0.75899901  0.24100100  0.75899901  1
  Ir  Ir8  1  0.24100100  0.75899901  0.24100100  1
