# generated using pymatgen
data_LiYbCeLu2PaBeOsOF
_symmetry_space_group_name_H-M   'P 1'
_cell_length_a   7.23195124
_cell_length_b   7.23195124
_cell_length_c   7.23195124
_cell_angle_alpha   91.15766144
_cell_angle_beta   119.33389282
_cell_angle_gamma   119.33389282
_symmetry_Int_Tables_number   1
_chemical_formula_structural   LiYbCeLu2PaBeOsOF
_chemical_formula_sum   'Li1 Yb1 Ce1 Lu2 Pa1 Be1 Os1 O1 F1'
_cell_volume   270.08857161
_cell_formula_units_Z   1
loop_
 _symmetry_equiv_pos_site_id
 _symmetry_equiv_pos_as_xyz
  1  'x, y, z'
loop_
 _atom_site_type_symbol
 _atom_site_label
 _atom_site_symmetry_multiplicity
 _atom_site_fract_x
 _atom_site_fract_y
 _atom_site_fract_z
 _atom_site_occupancy
  O  O0  1  0.50000012  0.75000007  0.25000008  1
  Pa  Pa1  1  1.00000012  0.50000005  0.50000011  1
  Os  Os2  1  0.50000006  0.25000002  0.75000007  1
  Lu  Lu3  1  0.00000000  0.00000000  0.00000000  1
  Lu  Lu4  1  0.29889302  0.00000000  0.29889303  1
  Be  Be5  1  0.29889306  0.29889303  0.00000004  1
  Yb  Yb6  1  0.70110713  0.70110706  0.00000008  1
  Ce  Ce7  1  0.70110717  1.00000009  0.70110712  1
  F  F8  1  1.00000009  0.22094602  0.22094609  1
  Li  Li9  1  0.00000010  0.77905407  0.77905406  1
