# generated using pymatgen
data_EuHoNbZnCrSbHOsNNe
_symmetry_space_group_name_H-M   'P 1'
_cell_length_a   6.30544806
_cell_length_b   6.30544806
_cell_length_c   6.30544806
_cell_angle_alpha   60.00000000
_cell_angle_beta   60.00000000
_cell_angle_gamma   60.00000000
_symmetry_Int_Tables_number   1
_chemical_formula_structural   EuHoNbZnCrSbHOsNNe
_chemical_formula_sum   'Eu1 Ho1 Nb1 Zn1 Cr1 Sb1 Os1 H1 N1 Ne1'
_cell_volume   177.26902623
_cell_formula_units_Z   1
loop_
 _symmetry_equiv_pos_site_id
 _symmetry_equiv_pos_as_xyz
  1  'x, y, z'
loop_
 _atom_site_type_symbol
 _atom_site_label
 _atom_site_symmetry_multiplicity
 _atom_site_fract_x
 _atom_site_fract_y
 _atom_site_fract_z
 _atom_site_occupancy
  N  N0  1  0.74999999  0.74999999  0.74999999  1
  Zn  Zn1  1  0.25000000  0.25000000  0.25000000  1
  Ho  Ho2  1  0.49999999  0.49999999  0.49999999  1
  Os  Os3  1  0.00000000  0.00000000  0.00000000  1
  H  H4  1  0.70165699  0.29834299  0.70165699  1
  Ne  Ne5  1  0.29834299  0.70165699  0.70165699  1
  Nb  Nb6  1  0.70165699  0.29834299  0.29834299  1
  Cr  Cr7  1  0.70165699  0.70165699  0.29834299  1
  Eu  Eu8  1  0.29834299  0.29834299  0.70165699  1
  Sb  Sb9  1  0.29834299  0.70165699  0.29834299  1
