# generated using pymatgen
data_K2SrLiPmEuYHfPa2MnBeTlInTcOsHeN
_symmetry_space_group_name_H-M   'P 1'
_cell_length_a   7.38715982
_cell_length_b   7.46068621
_cell_length_c   7.46068621
_cell_angle_alpha   60.21547699
_cell_angle_beta   60.32547379
_cell_angle_gamma   60.32547379
_symmetry_Int_Tables_number   1
_chemical_formula_structural   K2SrLiPmEuYHfPa2MnBeTlInTcOsHeN
_chemical_formula_sum
'K2 Sr1 Li1 Pm1 Eu1 Y1 Hf1 Pa2 Mn1 Be1 Tl1 In1 Tc1 Os1 He1 N1'
_cell_volume   292.64983962
_cell_formula_units_Z   1
loop_
 _symmetry_equiv_pos_site_id
 _symmetry_equiv_pos_as_xyz
  1  'x, y, z'
loop_
 _atom_site_type_symbol
 _atom_site_label
 _atom_site_symmetry_multiplicity
 _atom_site_fract_x
 _atom_site_fract_y
 _atom_site_fract_z
 _atom_site_occupancy
  Tc  Tc0  1  0.12279600  0.12720400  0.62720402  1
  K  K1  1  0.87720401  0.87279602  0.37279603  1
  Be  Be2  1  1.00000002  0.50000001  1.00000003  1
  In  In3  1  0.50000000  0.50000001  0.00000001  1
  Eu  Eu4  1  0.50000002  0.00000000  1.00000002  1
  Li  Li5  1  0.50000000  0.50000001  0.50000003  1
  Os  Os6  1  0.56512001  0.18488000  0.68488002  1
  Tl  Tl7  1  0.17785999  0.57214001  0.07214002  1
  He  He8  1  0.56790100  0.56832601  0.66724003  1
  Pa  Pa9  1  0.19653300  0.16723900  0.06832600  1
  Y  Y10  1  0.19653199  0.56832601  0.66724004  1
  Hf  Hf11  1  0.56790201  0.16723900  0.06832600  1
  Sr  Sr12  1  0.43487999  0.81512002  0.31512003  1
  Pa  Pa13  1  0.82214002  0.42786001  0.92786003  1
  Mn  Mn14  1  0.43209900  0.43167401  0.33276002  1
  Pm  Pm15  1  0.80346700  0.83276102  0.93167405  1
  K  K16  1  0.80346802  0.43167401  0.33276001  1
  N  N17  1  0.43209799  0.83276102  0.93167405  1
