# generated using pymatgen
data_CsSrEuCrReSiPCBrCl
_symmetry_space_group_name_H-M   'P 1'
_cell_length_a   6.81546164
_cell_length_b   6.81546164
_cell_length_c   6.81546164
_cell_angle_alpha   60.00000000
_cell_angle_beta   60.00000000
_cell_angle_gamma   60.00000000
_symmetry_Int_Tables_number   1
_chemical_formula_structural   CsSrEuCrReSiPCBrCl
_chemical_formula_sum   'Cs1 Sr1 Eu1 Cr1 Si1 Re1 P1 C1 Br1 Cl1'
_cell_volume   223.85708006
_cell_formula_units_Z   1
loop_
 _symmetry_equiv_pos_site_id
 _symmetry_equiv_pos_as_xyz
  1  'x, y, z'
loop_
 _atom_site_type_symbol
 _atom_site_label
 _atom_site_symmetry_multiplicity
 _atom_site_fract_x
 _atom_site_fract_y
 _atom_site_fract_z
 _atom_site_occupancy
  P  P0  1  0.24999999  0.24999999  0.24999999  1
  Cl  Cl1  1  0.74999998  0.74999998  0.74999998  1
  Si  Si2  1  0.49999999  0.49999999  0.49999999  1
  Re  Re3  1  0.00000000  0.00000000  0.00000000  1
  Cs  Cs4  1  0.21942899  0.78057098  0.21942899  1
  Eu  Eu5  1  0.21942899  0.21942899  0.78057098  1
  Cr  Cr6  1  0.78057098  0.21942899  0.78057098  1
  C  C7  1  0.21942899  0.78057098  0.78057098  1
  Sr  Sr8  1  0.78057098  0.21942899  0.21942899  1
  Br  Br9  1  0.78057098  0.78057098  0.21942899  1
