# generated using pymatgen
data_GdMgTiBeTlGaTcNiSb2IrPdIBr
_symmetry_space_group_name_H-M   'P 1'
_cell_length_a   5.06575680
_cell_length_b   5.07027197
_cell_length_c   5.25734520
_cell_angle_alpha   106.88478088
_cell_angle_beta   96.29368591
_cell_angle_gamma   118.06661987
_symmetry_Int_Tables_number   1
_chemical_formula_structural   GdMgTiBeTlGaTcNiSb2IrPdIBr
_chemical_formula_sum
'Gd1 Mg1 Ti1 Be1 Tl1 Ga1 Tc1 Ni1 Sb2 Pd1 Ir1 I1 Br1'
_cell_volume   109.05944427
_cell_formula_units_Z   1
loop_
 _symmetry_equiv_pos_site_id
 _symmetry_equiv_pos_as_xyz
  1  'x, y, z'
loop_
 _atom_site_type_symbol
 _atom_site_label
 _atom_site_symmetry_multiplicity
 _atom_site_fract_x
 _atom_site_fract_y
 _atom_site_fract_z
 _atom_site_occupancy
  Tc  Tc0  1  0.16891604  0.32941103  0.00371101  1
  I  I1  1  0.83108411  0.67058906  0.99628905  1
  Pd  Pd2  1  0.06379107  0.63353705  0.41054201  1
  Br  Br3  1  0.93620908  0.36646303  0.58945806  1
  Ir  Ir4  1  0.54256112  0.91207308  0.20942904  1
  Sb  Sb5  1  0.28489903  0.17096801  0.40900602  1
  Ti  Ti6  1  0.71510112  0.82903207  0.59099405  1
  Mg  Mg7  1  0.45743903  0.08792701  0.79057103  1
  Be  Be8  1  0.05298306  0.51850504  0.78081001  1
  Sb  Sb9  1  0.19972202  0.08810901  0.20558701  1
  Ga  Ga10  1  0.56585110  0.73313306  0.21751304  1
  Gd  Gd11  1  0.43414905  0.26686702  0.78248703  1
  Ni  Ni12  1  0.80027813  0.91189108  0.79441305  1
  Tl  Tl13  1  0.94701709  0.48149504  0.21919006  1
