# generated using pymatgen
data_HeAcYbDyHoScAlClO
_symmetry_space_group_name_H-M   'P 1'
_cell_length_a   4.69976616
_cell_length_b   8.00619221
_cell_length_c   8.00619221
_cell_angle_alpha   120.00000000
_cell_angle_beta   90.00000000
_cell_angle_gamma   90.00000000
_symmetry_Int_Tables_number   1
_chemical_formula_structural   HeAcYbDyHoScAlClO
_chemical_formula_sum   'He1 Yb1 Ac1 Dy1 Ho1 Sc1 Al1 Cl1 O1'
_cell_volume   260.89088486
_cell_formula_units_Z   1
loop_
 _symmetry_equiv_pos_site_id
 _symmetry_equiv_pos_as_xyz
  1  'x, y, z'
loop_
 _atom_site_type_symbol
 _atom_site_label
 _atom_site_symmetry_multiplicity
 _atom_site_fract_x
 _atom_site_fract_y
 _atom_site_fract_z
 _atom_site_occupancy
  He  He0  1  0.49999998  0.00000000  0.58837401  1
  O  O1  1  0.49999998  0.41162599  0.41162601  1
  Yb  Yb2  1  0.49999998  0.58837399  0.00000001  1
  Ho  Ho3  1  0.99999997  0.75788299  0.75788303  1
  Cl  Cl4  1  0.99999997  0.24211700  0.00000001  1
  Dy  Dy5  1  -0.00000000  0.99999999  0.24211703  1
  Sc  Sc6  1  0.99999997  0.33333333  0.66666668  1
  Al  Al7  1  0.49999998  0.00000000  -0.00000000  1
  Ac  Ac8  1  0.99999997  0.66666666  0.33333335  1
