# generated using pymatgen
data_CaGdTmInCuPPtIKrN
_symmetry_space_group_name_H-M   'P 1'
_cell_length_a   7.43501616
_cell_length_b   7.60693121
_cell_length_c   7.43501616
_cell_angle_alpha   119.25518036
_cell_angle_beta   90.00000000
_cell_angle_gamma   119.25518036
_symmetry_Int_Tables_number   1
_chemical_formula_structural   CaGdTmInCuPPtIKrN
_chemical_formula_sum   'Ca1 Gd1 Tm1 In1 Cu1 P1 Pt1 I1 Kr1 N1'
_cell_volume   303.91475312
_cell_formula_units_Z   1
loop_
 _symmetry_equiv_pos_site_id
 _symmetry_equiv_pos_as_xyz
  1  'x, y, z'
loop_
 _atom_site_type_symbol
 _atom_site_label
 _atom_site_symmetry_multiplicity
 _atom_site_fract_x
 _atom_site_fract_y
 _atom_site_fract_z
 _atom_site_occupancy
  Tm  Tm0  1  0.34860000  0.14766201  0.57383100  1
  N  N1  1  0.82383103  0.64766206  0.09860005  1
  P  P2  1  0.82383103  0.64766206  0.54906204  1
  Cu  Cu3  1  0.79906200  0.14766201  0.57383100  1
  Pt  Pt4  1  0.96966705  0.93933409  0.96966705  1
  Gd  Gd5  1  0.21966703  0.43933404  0.71966702  1
  I  I6  1  0.09870405  0.70167006  0.35083505  1
  In  In7  1  0.60083500  0.20167002  0.84870400  1
  Kr  Kr8  1  0.60083500  0.20167002  0.35296601  1
  Ca  Ca9  1  0.60296604  0.70167006  0.35083505  1
