# generated using pymatgen
data_RbLaYbHoHfMgZrZnSiTcBiRuRhPbXeNeKrN
_symmetry_space_group_name_H-M   'P 1'
_cell_length_a   4.29039001
_cell_length_b   4.29039001
_cell_length_c   22.29260635
_cell_angle_alpha   90.00000000
_cell_angle_beta   90.00000000
_cell_angle_gamma   120.00000000
_symmetry_Int_Tables_number   1
_chemical_formula_structural   RbLaYbHoHfMgZrZnSiTcBiRuRhPbXeNeKrN
_chemical_formula_sum
'Rb1 La1 Yb1 Ho1 Hf1 Mg1 Zr1 Zn1 Tc1 Si1 Bi1 Ru1 Rh1 Pb1 Xe1 Ne1 Kr1 N1'
_cell_volume   355.37348834
_cell_formula_units_Z   1
loop_
 _symmetry_equiv_pos_site_id
 _symmetry_equiv_pos_as_xyz
  1  'x, y, z'
loop_
 _atom_site_type_symbol
 _atom_site_label
 _atom_site_symmetry_multiplicity
 _atom_site_fract_x
 _atom_site_fract_y
 _atom_site_fract_z
 _atom_site_occupancy
  Xe  Xe0  1  0.66666668  0.33333336  0.74356602  1
  Ru  Ru1  1  0.66666668  0.33333336  0.41091701  1
  Pb  Pb2  1  0.66666668  0.33333336  0.07800100  1
  Ho  Ho3  1  0.66666668  0.33333336  0.92103303  1
  Tc  Tc4  1  0.66666668  0.33333336  0.58731802  1
  Ne  Ne5  1  0.66666668  0.33333336  0.25505001  1
  Zn  Zn6  1  0.00000000  0.00000000  0.66159302  1
  Si  Si7  1  0.00000000  0.00000000  0.32885901  1
  Hf  Hf8  1  0.00000000  0.00000000  0.84542402  1
  Bi  Bi9  1  0.00000000  0.00000000  0.51272201  1
  N  N10  1  0.00000000  0.00000000  0.18058001  1
  Zr  Zr11  1  0.33333336  0.66666671  0.81858402  1
  La  La12  1  0.33333336  0.66666671  0.48640801  1
  Yb  Yb13  1  0.33333336  0.66666671  0.15455600  1
  Kr  Kr14  1  0.33333336  0.66666671  0.67359102  1
  Rh  Rh15  1  0.33333336  0.66666671  0.34137401  1
  Mg  Mg16  1  0.33333336  0.66666671  0.00525000  1
  Rb  Rb17  1  0.00000000  0.00000000  0.99517703  1
