# generated using pymatgen
data_Ce2NdSmThUPaCdAsHRhSeKrO
_symmetry_space_group_name_H-M   'P 1'
_cell_length_a   5.39578247
_cell_length_b   5.39578247
_cell_length_c   7.43993664
_cell_angle_alpha   79.78317261
_cell_angle_beta   79.78317261
_cell_angle_gamma   69.68549347
_symmetry_Int_Tables_number   1
_chemical_formula_structural   Ce2NdSmThUPaCdAsHRhSeKrO
_chemical_formula_sum
'Ce2 Nd1 Sm1 Th1 U1 Pa1 Cd1 As1 H1 Rh1 Se1 Kr1 O1'
_cell_volume   198.33617846
_cell_formula_units_Z   1
loop_
 _symmetry_equiv_pos_site_id
 _symmetry_equiv_pos_as_xyz
  1  'x, y, z'
loop_
 _atom_site_type_symbol
 _atom_site_label
 _atom_site_symmetry_multiplicity
 _atom_site_fract_x
 _atom_site_fract_y
 _atom_site_fract_z
 _atom_site_occupancy
  Cd  Cd0  1  0.50647606  0.84056600  0.32494002  1
  Pa  Pa1  1  0.83536903  0.16463100  0.50000002  1
  O  O2  1  0.00234706  0.99765300  0.00000001  1
  Se  Se3  1  0.15943403  0.49352400  0.67506001  1
  H  H4  1  0.45890403  0.26921100  0.96829501  1
  U  U5  1  0.73078905  0.54109600  0.03170502  1
  Ce  Ce6  1  0.21378403  0.49040000  0.21655001  1
  Nd  Nd7  1  0.50960006  0.78621600  0.78345002  1
  As  As8  1  0.49324803  0.37157400  0.21280301  1
  Kr  Kr9  1  0.62842605  0.50675200  0.78719702  1
  Ce  Ce10  1  0.06300304  0.67556700  0.33380801  1
  Rh  Rh11  1  0.57785807  0.90487300  0.91347002  1
  Th  Th12  1  0.09512703  0.42214200  0.08653001  1
  Sm  Sm13  1  0.32443306  0.93699700  0.66619202  1
