# generated using pymatgen
data_TbYbHfMgNpMnGaSi2TcPRh2HeBiPdRuAu2Br
_symmetry_space_group_name_H-M   'P 1'
_cell_length_a   5.61339712
_cell_length_b   6.74272060
_cell_length_c   8.39520168
_cell_angle_alpha   70.40843201
_cell_angle_beta   78.95143127
_cell_angle_gamma   86.46566010
_symmetry_Int_Tables_number   1
_chemical_formula_structural   TbYbHfMgNpMnGaSi2TcPRh2HeBiPdRuAu2Br
_chemical_formula_sum
'Yb1 Tb1 Hf1 Mg1 Np1 Mn1 Ga1 Si2 Tc1 P1 Rh2 He1 Bi1 Pd1 Ru1 Au2 Br1'
_cell_volume   293.80915842
_cell_formula_units_Z   1
loop_
 _symmetry_equiv_pos_site_id
 _symmetry_equiv_pos_as_xyz
  1  'x, y, z'
loop_
 _atom_site_type_symbol
 _atom_site_label
 _atom_site_symmetry_multiplicity
 _atom_site_fract_x
 _atom_site_fract_y
 _atom_site_fract_z
 _atom_site_occupancy
  Yb  Yb0  1  0.87162603  0.98031900  0.75437191  1
  P  P1  1  0.12837400  0.01968100  0.24562799  1
  Ga  Ga2  1  0.28050901  0.28176800  0.81849895  1
  Rh  Rh3  1  0.79352901  0.52226700  0.67176194  1
  Mn  Mn4  1  0.20647102  0.47773300  0.32823796  1
  He  He5  1  0.71949102  0.71823200  0.18150094  1
  Pd  Pd6  1  0.66776803  0.82374700  0.96021391  1
  Br  Br7  1  0.93039600  0.41292600  0.86995894  1
  Au  Au8  1  0.15809400  0.03505500  0.82204197  1
  Tb  Tb9  1  0.43390102  0.54390900  0.77654794  1
  Si  Si10  1  0.89673502  0.79063500  0.62731792  1
  Hf  Hf11  1  0.68429200  0.24880300  0.69685396  1
  Np  Np12  1  0.20207102  0.40741400  0.57797496  1
  Si  Si13  1  0.79792901  0.59258600  0.42202494  1
  Tc  Tc14  1  0.31570803  0.75119700  0.30314594  1
  Mg  Mg15  1  0.10326501  0.20936500  0.37268197  1
  Rh  Rh16  1  0.56609901  0.45609100  0.22345196  1
  Bi  Bi17  1  0.84190603  0.96494500  0.17795793  1
  Ru  Ru18  1  0.06960403  0.58707400  0.13004096  1
  Au  Au19  1  0.33223200  0.17625300  0.03978599  1
