# generated using pymatgen
data_RbBaSrCa2LaTa2CrFeReAgBiH2OsPdPb2S
_symmetry_space_group_name_H-M   'P 1'
_cell_length_a   5.11649895
_cell_length_b   5.49680424
_cell_length_c   7.50623846
_cell_angle_alpha   84.21641541
_cell_angle_beta   89.95014954
_cell_angle_gamma   89.98526001
_symmetry_Int_Tables_number   1
_chemical_formula_structural   RbBaSrCa2LaTa2CrFeReAgBiH2OsPdPb2S
_chemical_formula_sum
'Rb1 Ba1 Sr1 Ca2 La1 Ta2 Cr1 Fe1 Re1 Ag1 Bi1 H2 Os1 Pd1 Pb2 S1'
_cell_volume   210.03369678
_cell_formula_units_Z   1
loop_
 _symmetry_equiv_pos_site_id
 _symmetry_equiv_pos_as_xyz
  1  'x, y, z'
loop_
 _atom_site_type_symbol
 _atom_site_label
 _atom_site_symmetry_multiplicity
 _atom_site_fract_x
 _atom_site_fract_y
 _atom_site_fract_z
 _atom_site_occupancy
  H  H0  1  0.49892500  0.20017500  0.85069698  1
  Ca  Ca1  1  0.99958999  0.70228600  0.85077196  1
  Ag  Ag2  1  0.50052399  0.79448600  0.64756296  1
  Ta  Ta3  1  0.99959000  0.30054500  0.14946700  1
  Os  Os4  1  0.99899400  0.30035100  0.64924598  1
  Bi  Bi5  1  0.50030400  0.20093700  0.35081199  1
  Ba  Ba6  1  0.00052998  0.69918600  0.34900796  1
  Sr  Sr7  1  0.50088299  0.80355700  0.15273797  1
  Fe  Fe8  1  0.30100599  0.49594700  0.74817996  1
  La  La9  1  0.85116200  0.34605000  0.90055397  1
  Pb  Pb10  1  0.65079800  0.14995400  0.59882099  1
  Re  Re11  1  0.19511598  0.99843100  0.74880594  1
  Pb  Pb12  1  0.15126199  0.35049500  0.40087498  1
  Rb  Rb13  1  0.65001699  0.84567900  0.90272495  1
  S  S14  1  0.84871299  0.64864500  0.59658597  1
  Cr  Cr15  1  0.35151100  0.15297700  0.10033200  1
  H  H16  1  0.34753398  0.85122900  0.40022396  1
  Pd  Pd17  1  0.15373199  0.65538300  0.09993797  1
  Ca  Ca18  1  0.69749399  0.50296200  0.25116198  1
  Ta  Ta19  1  0.80231501  0.00072500  0.25149200  1
