# generated using pymatgen
data_YbPmGdThZr2PaTiZnInTcOs2WSIClHe
_symmetry_space_group_name_H-M   'P 1'
_cell_length_a   5.99689484
_cell_length_b   6.86452198
_cell_length_c   6.86452198
_cell_angle_alpha   90.00000000
_cell_angle_beta   90.00000000
_cell_angle_gamma   90.00000000
_symmetry_Int_Tables_number   1
_chemical_formula_structural   YbPmGdThZr2PaTiZnInTcOs2WSIClHe
_chemical_formula_sum
'Yb1 Pm1 Gd1 Th1 Zr2 Pa1 Ti1 Zn1 In1 Tc1 Os2 W1 S1 I1 Cl1 He1'
_cell_volume   282.58365164
_cell_formula_units_Z   1
loop_
 _symmetry_equiv_pos_site_id
 _symmetry_equiv_pos_as_xyz
  1  'x, y, z'
loop_
 _atom_site_type_symbol
 _atom_site_label
 _atom_site_symmetry_multiplicity
 _atom_site_fract_x
 _atom_site_fract_y
 _atom_site_fract_z
 _atom_site_occupancy
  W  W0  1  0.00000000  0.50000000  0.50000000  1
  Pm  Pm1  1  0.00000000  0.00000000  0.00000000  1
  Gd  Gd2  1  0.50000001  0.67367900  0.17367900  1
  In  In3  1  0.50000001  0.17367900  0.32632100  1
  Ti  Ti4  1  0.50000001  0.82632100  0.67367900  1
  S  S5  1  0.50000001  0.32632100  0.82632100  1
  Th  Th6  1  0.00000000  0.00000000  0.50000000  1
  Tc  Tc7  1  0.00000000  0.50000000  -0.00000000  1
  Zr  Zr8  1  0.50000001  0.50000000  0.50000000  1
  Zr  Zr9  1  0.50000001  0.00000000  -0.00000000  1
  Cl  Cl10  1  0.25015301  0.14038400  0.64038400  1
  Yb  Yb11  1  0.25015301  0.85961600  0.35961600  1
  He  He12  1  0.25015301  0.35961600  0.14038400  1
  Pa  Pa13  1  0.25015301  0.64038400  0.85961600  1
  Zn  Zn14  1  0.74984702  0.14038400  0.64038400  1
  Os  Os15  1  0.74984702  0.64038400  0.85961600  1
  I  I16  1  0.74984702  0.85961600  0.35961600  1
  Os  Os17  1  0.74984702  0.35961600  0.14038400  1
