# generated using pymatgen
data_NaGd2ErTmMgZrNpZnCdFeTcHgBiMoPd2Ru
_symmetry_space_group_name_H-M   'P 1'
_cell_length_a   6.02877998
_cell_length_b   6.10107470
_cell_length_c   10.21053314
_cell_angle_alpha   76.38611603
_cell_angle_beta   72.82905579
_cell_angle_gamma   60.39120865
_symmetry_Int_Tables_number   1
_chemical_formula_structural   NaGd2ErTmMgZrNpZnCdFeTcHgBiMoPd2Ru
_chemical_formula_sum
'Na1 Gd2 Er1 Tm1 Mg1 Zr1 Np1 Zn1 Cd1 Fe1 Tc1 Hg1 Bi1 Mo1 Pd2 Ru1'
_cell_volume   310.15229563
_cell_formula_units_Z   1
loop_
 _symmetry_equiv_pos_site_id
 _symmetry_equiv_pos_as_xyz
  1  'x, y, z'
loop_
 _atom_site_type_symbol
 _atom_site_label
 _atom_site_symmetry_multiplicity
 _atom_site_fract_x
 _atom_site_fract_y
 _atom_site_fract_z
 _atom_site_occupancy
  Na  Na0  1  0.23364598  0.74999999  0.25000002  1
  Pd  Pd1  1  0.76635400  0.25000000  0.75000001  1
  Mo  Mo2  1  -0.00000002  0.49999999  0.00000001  1
  Tc  Tc3  1  0.50000000  0.00000000  0.50000000  1
  Ru  Ru4  1  0.36949398  0.86081199  0.86102603  1
  Zr  Zr5  1  0.09133198  0.63918799  0.63897402  1
  Hg  Hg6  1  0.90866799  0.36081199  0.36102601  1
  Fe  Fe7  1  0.63050600  0.13918800  0.13897400  1
  Mg  Mg8  1  0.26168099  0.25000000  0.75000001  1
  Np  Np9  1  0.75865298  0.80336799  0.79737402  1
  Tm  Tm10  1  0.35939498  0.69663199  0.70262602  1
  Gd  Gd11  1  0.00000000  0.00000000  0.50000000  1
  Cd  Cd12  1  0.24134700  0.19663200  0.20262601  1
  Er  Er13  1  0.64060499  0.30336800  0.29737401  1
  Pd  Pd14  1  -0.00000002  0.49999999  0.50000002  1
  Bi  Bi15  1  0.73831898  0.74999999  0.25000002  1
  Zn  Zn16  1  0.00000000  0.00000000  0.00000000  1
  Gd  Gd17  1  0.49999999  0.49999999  0.00000001  1
