# generated using pymatgen
data_PuScTiBeAlVCdGaBiMoOsPtSeS
_symmetry_space_group_name_H-M   'P 1'
_cell_length_a   6.08778334
_cell_length_b   6.08774900
_cell_length_c   6.08774710
_cell_angle_alpha   60.13123322
_cell_angle_beta   60.13115692
_cell_angle_gamma   60.13108444
_symmetry_Int_Tables_number   1
_chemical_formula_structural   PuScTiBeAlVCdGaBiMoOsPtSeS
_chemical_formula_sum
'Pu1 Sc1 Ti1 Be1 Al1 V1 Cd1 Ga1 Bi1 Mo1 Os1 Pt1 Se1 S1'
_cell_volume   160.00958534
_cell_formula_units_Z   1
loop_
 _symmetry_equiv_pos_site_id
 _symmetry_equiv_pos_as_xyz
  1  'x, y, z'
loop_
 _atom_site_type_symbol
 _atom_site_label
 _atom_site_symmetry_multiplicity
 _atom_site_fract_x
 _atom_site_fract_y
 _atom_site_fract_z
 _atom_site_occupancy
  Bi  Bi0  1  0.24955300  0.24955401  0.24955598  1
  Os  Os1  1  0.00044500  0.00044500  0.00044700  1
  Ga  Ga2  1  0.12500301  0.62500003  0.62500097  1
  Se  Se3  1  0.62500699  0.12500101  0.62499798  1
  Pu  Pu4  1  0.62500199  0.62500003  0.12499997  1
  Cd  Cd5  1  0.62499699  0.62499903  0.62500096  1
  Ti  Ti6  1  0.86108699  0.86109004  0.86109095  1
  Sc  Sc7  1  0.38890900  0.38891202  0.38890998  1
  Al  Al8  1  0.41523500  0.86257004  0.86256895  1
  Pt  Pt9  1  0.86256598  0.41523702  0.86256797  1
  S  S10  1  0.86256599  0.86256604  0.41523895  1
  V  V11  1  0.83476398  0.38743002  0.38742897  1
  Mo  Mo12  1  0.38743100  0.83476203  0.38743196  1
  Be  Be13  1  0.38743300  0.38743302  0.83475997  1
