# generated using pymatgen
data_NaGdZrInCuTcSnMoPPdSeXeINONe
_symmetry_space_group_name_H-M   'P 1'
_cell_length_a   4.16699505
_cell_length_b   5.11797523
_cell_length_c   7.97812414
_cell_angle_alpha   79.41674042
_cell_angle_beta   74.86389923
_cell_angle_gamma   65.97883606
_symmetry_Int_Tables_number   1
_chemical_formula_structural   NaGdZrInCuTcSnMoPPdSeXeINONe
_chemical_formula_sum
'Na1 Gd1 Zr1 In1 Cu1 Tc1 Sn1 Mo1 P1 Pd1 Se1 Xe1 I1 N1 O1 Ne1'
_cell_volume   149.44042421
_cell_formula_units_Z   1
loop_
 _symmetry_equiv_pos_site_id
 _symmetry_equiv_pos_as_xyz
  1  'x, y, z'
loop_
 _atom_site_type_symbol
 _atom_site_label
 _atom_site_symmetry_multiplicity
 _atom_site_fract_x
 _atom_site_fract_y
 _atom_site_fract_z
 _atom_site_occupancy
  P  P0  1  0.25117500  0.37619600  0.12496499  1
  Cu  Cu1  1  0.25117901  0.87618699  0.62496697  1
  Pd  Pd2  1  0.50315400  0.24877500  0.74859298  1
  O  O3  1  0.50315801  0.74876699  0.24859498  1
  Sn  Sn4  1  0.00173601  0.50157199  0.49860198  1
  Xe  Xe5  1  0.75290701  0.62296499  0.87479896  1
  I  I6  1  0.00172900  0.00163400  0.99855898  1
  Ne  Ne7  1  0.75291100  0.12290900  0.37484798  1
  Gd  Gd8  1  0.23526100  0.15049100  0.38254899  1
  Na  Na9  1  0.23524501  0.65052199  0.88254197  1
  N  N10  1  0.77033601  0.84807699  0.61482396  1
  Se  Se11  1  0.77032901  0.34809000  0.11482699  1
  Tc  Tc12  1  0.51940601  0.97399499  0.99086996  1
  In  In13  1  0.51941601  0.47396899  0.49087898  1
  Zr  Zr14  1  0.98427701  0.77644099  0.25855597  1
  Mo  Mo15  1  0.98426901  0.27645000  0.75855597  1
