# generated using pymatgen
data_SrEuGdHfPaBeOsSKr
_symmetry_space_group_name_H-M   'P 1'
_cell_length_a   4.69677591
_cell_length_b   4.69677591
_cell_length_c   4.69677591
_cell_angle_alpha   60.00000000
_cell_angle_beta   60.00000000
_cell_angle_gamma   60.00000000
_symmetry_Int_Tables_number   1
_chemical_formula_structural   SrEuGdHfPaBeOsSKr
_chemical_formula_sum   'Sr1 Eu1 Gd1 Hf1 Pa1 Be1 Os1 S1 Kr1'
_cell_volume   73.26297036
_cell_formula_units_Z   1
loop_
 _symmetry_equiv_pos_site_id
 _symmetry_equiv_pos_as_xyz
  1  'x, y, z'
loop_
 _atom_site_type_symbol
 _atom_site_label
 _atom_site_symmetry_multiplicity
 _atom_site_fract_x
 _atom_site_fract_y
 _atom_site_fract_z
 _atom_site_occupancy
  Eu  Eu0  1  0.24999999  0.24999999  0.24999999  1
  Hf  Hf1  1  0.74999998  0.74999998  0.74999998  1
  Gd  Gd2  1  0.74677898  0.74677898  0.25322099  1
  Pa  Pa3  1  0.25322099  0.74677898  0.74677898  1
  Kr  Kr4  1  0.25322099  0.74677898  0.25322099  1
  S  S5  1  0.25322099  0.25322099  0.74677898  1
  Sr  Sr6  1  0.74677898  0.25322099  0.25322099  1
  Be  Be7  1  0.74677898  0.25322099  0.74677898  1
  Os  Os8  1  0.00000000  0.00000000  0.00000000  1
