# generated using pymatgen
data_RbYbNd2CdTcAg2HgSbTePH2PbW2Kr
_symmetry_space_group_name_H-M   'P 1'
_cell_length_a   6.41772461
_cell_length_b   6.41772461
_cell_length_c   8.49201202
_cell_angle_alpha   70.71361542
_cell_angle_beta   70.71361542
_cell_angle_gamma   68.98130035
_symmetry_Int_Tables_number   1
_chemical_formula_structural   RbYbNd2CdTcAg2HgSbTePH2PbW2Kr
_chemical_formula_sum
'Rb1 Yb1 Nd2 Cd1 Tc1 Ag2 Hg1 Sb1 Te1 P1 H2 Pb1 W2 Kr1'
_cell_volume   299.12884447
_cell_formula_units_Z   1
loop_
 _symmetry_equiv_pos_site_id
 _symmetry_equiv_pos_as_xyz
  1  'x, y, z'
loop_
 _atom_site_type_symbol
 _atom_site_label
 _atom_site_symmetry_multiplicity
 _atom_site_fract_x
 _atom_site_fract_y
 _atom_site_fract_z
 _atom_site_occupancy
  W  W0  1  0.10085503  0.89914498  0.24999999  1
  Yb  Yb1  1  0.89914500  0.10085500  0.75000001  1
  P  P2  1  0.77391301  0.40579199  0.04533298  1
  Hg  Hg3  1  0.59420800  0.22608700  0.45466700  1
  Nd  Nd4  1  0.22608702  0.59420799  0.95466701  1
  W  W5  1  0.40579202  0.77391299  0.54533299  1
  Sb  Sb6  1  0.61465300  0.24259000  0.12796999  1
  Cd  Cd7  1  0.75741001  0.38534699  0.37202999  1
  Pb  Pb8  1  0.38534702  0.75740999  0.87203001  1
  Te  Te9  1  0.24259002  0.61465299  0.62797000  1
  Nd  Nd10  1  0.68893502  0.74308199  0.15112998  1
  Ag  Ag11  1  0.25691801  0.31106499  0.34887000  1
  H  H12  1  0.31106501  0.25691800  0.84887002  1
  H  H13  1  0.74308202  0.68893499  0.65112999  1
  Kr  Kr14  1  0.77008700  0.24847700  0.05731099  1
  Ag  Ag15  1  0.75152300  0.22991300  0.44268900  1
  Rb  Rb16  1  0.22991302  0.75152299  0.94268901  1
  Tc  Tc17  1  0.24847702  0.77008699  0.55731100  1
