# generated using pymatgen
data_CsCaAcTbSm2ErHfAlCrInFeTeOsSe2He2
_symmetry_space_group_name_H-M   'P 1'
_cell_length_a   4.61790085
_cell_length_b   4.61790085
_cell_length_c   9.45189857
_cell_angle_alpha   90.00000000
_cell_angle_beta   90.00000000
_cell_angle_gamma   90.00000000
_symmetry_Int_Tables_number   1
_chemical_formula_structural   CsCaAcTbSm2ErHfAlCrInFeTeOsSe2He2
_chemical_formula_sum
'Cs1 Ca1 Tb1 Ac1 Sm2 Er1 Hf1 Al1 Cr1 In1 Fe1 Te1 Os1 Se2 He2'
_cell_volume   201.56181504
_cell_formula_units_Z   1
loop_
 _symmetry_equiv_pos_site_id
 _symmetry_equiv_pos_as_xyz
  1  'x, y, z'
loop_
 _atom_site_type_symbol
 _atom_site_label
 _atom_site_symmetry_multiplicity
 _atom_site_fract_x
 _atom_site_fract_y
 _atom_site_fract_z
 _atom_site_occupancy
  Sm  Sm0  1  0.00000000  0.00000000  0.00000000  1
  Er  Er1  1  0.50000002  0.50000002  0.50000002  1
  Se  Se2  1  0.50000002  0.50000002  0.83233304  1
  Os  Os3  1  0.00000000  0.00000000  0.33233301  1
  Tb  Tb4  1  0.50000002  0.50000002  0.16766701  1
  Se  Se5  1  0.00000000  0.00000000  0.66766703  1
  Hf  Hf6  1  0.69406702  0.69406702  0.66488503  1
  Al  Al7  1  0.30593301  0.30593301  0.66488503  1
  Cs  Cs8  1  0.69406702  0.69406702  0.33511502  1
  Ca  Ca9  1  0.19406701  0.80593303  0.16488501  1
  Te  Te10  1  0.80593303  0.19406701  0.16488501  1
  Cr  Cr11  1  0.80593303  0.19406701  0.83511504  1
  Fe  Fe12  1  0.30364501  0.30364501  0.00000000  1
  Sm  Sm13  1  0.19635501  0.80364503  0.50000002  1
  In  In14  1  0.80364503  0.19635501  0.50000002  1
  He  He15  1  0.69635502  0.69635502  0.00000000  1
  Ac  Ac16  1  0.30593301  0.30593301  0.33511502  1
  He  He17  1  0.19406701  0.80593303  0.83511504  1
