# generated using pymatgen
data_KYbCePmYPu2TaTiMnNbCrCuP2IBrClOF
_symmetry_space_group_name_H-M   'P 1'
_cell_length_a   7.32897949
_cell_length_b   7.47990084
_cell_length_c   7.47990084
_cell_angle_alpha   78.24439240
_cell_angle_beta   62.51077652
_cell_angle_gamma   62.51077652
_symmetry_Int_Tables_number   1
_chemical_formula_structural   KYbCePmYPu2TaTiMnNbCrCuP2IBrClOF
_chemical_formula_sum
'K1 Yb1 Ce1 Pm1 Y1 Pu2 Ta1 Ti1 Mn1 Nb1 Cr1 Cu1 P2 I1 Br1 Cl1 O1 F1'
_cell_volume   322.66183478
_cell_formula_units_Z   1
loop_
 _symmetry_equiv_pos_site_id
 _symmetry_equiv_pos_as_xyz
  1  'x, y, z'
loop_
 _atom_site_type_symbol
 _atom_site_label
 _atom_site_symmetry_multiplicity
 _atom_site_fract_x
 _atom_site_fract_y
 _atom_site_fract_z
 _atom_site_occupancy
  F  F0  1  0.15622101  0.17719800  0.41924798  1
  P  P1  1  0.50068101  0.17328200  0.82742998  1
  Ce  Ce2  1  0.00068104  0.82742998  0.17328193  1
  P  P3  1  0.65622103  0.41924799  0.17719797  1
  Y  Y4  1  0.08620304  0.68009599  0.66723593  1
  O  O5  1  0.58620304  0.66723599  0.68009594  1
  Mn  Mn6  1  0.36429703  0.60641199  0.73121094  1
  K  K7  1  0.86429704  0.73121098  0.60641194  1
  Cl  Cl8  1  0.10812701  0.15555600  0.07302899  1
  Ta  Ta9  1  0.76400903  0.57338899  0.39916296  1
  Cr  Cr10  1  0.94935204  0.60502199  0.94160395  1
  Pm  Pm11  1  0.76450603  0.39742099  0.76150297  1
  Pu  Pu12  1  0.97986706  0.94798698  0.76099092  1
  Yb  Yb13  1  0.28363703  0.44565299  0.15476896  1
  Ti  Ti14  1  0.78363701  0.15476900  0.44565299  1
  Br  Br15  1  0.44935205  0.94160398  0.60502192  1
  Nb  Nb16  1  0.26450604  0.76150298  0.39742093  1
  Cu  Cu17  1  0.26400902  0.39916299  0.57338896  1
  Pu  Pu18  1  0.60812701  0.07302900  0.15555600  1
  I  I19  1  0.47986704  0.76099098  0.94798693  1
