# generated using pymatgen
data_TbYbNdEu2HfSc2MnNbZnCoNeTlCrCdReSbPN
_symmetry_space_group_name_H-M   'P 1'
_cell_length_a   5.34112597
_cell_length_b   5.65200281
_cell_length_c   7.63457394
_cell_angle_alpha   90.00000000
_cell_angle_beta   89.55553436
_cell_angle_gamma   90.00000000
_symmetry_Int_Tables_number   1
_chemical_formula_structural   TbYbNdEu2HfSc2MnNbZnCoNeTlCrCdReSbPN
_chemical_formula_sum
'Tb1 Yb1 Nd1 Eu2 Hf1 Sc2 Mn1 Nb1 Zn1 Co1 Ne1 Tl1 Cr1 Cd1 Re1 Sb1 P1 N1'
_cell_volume   230.46603365
_cell_formula_units_Z   1
loop_
 _symmetry_equiv_pos_site_id
 _symmetry_equiv_pos_as_xyz
  1  'x, y, z'
loop_
 _atom_site_type_symbol
 _atom_site_label
 _atom_site_symmetry_multiplicity
 _atom_site_fract_x
 _atom_site_fract_y
 _atom_site_fract_z
 _atom_site_occupancy
  Nd  Nd0  1  0.48142000  0.06565300  0.24787700  1
  Tb  Tb1  1  0.51858000  0.93434703  0.75212299  1
  Co  Co2  1  0.01858000  0.56565302  0.25212299  1
  Eu  Eu3  1  0.98142001  0.43434701  0.74787700  1
  Yb  Yb4  1  0.50000000  0.50000002  0.50000000  1
  Ne  Ne5  1  0.00000000  0.00000000  0.00000000  1
  N  N6  1  0.50000000  0.50000002  0.00000001  1
  Cr  Cr7  1  -0.00000000  0.00000000  0.49999999  1
  Nb  Nb8  1  0.60455200  0.46274802  0.25956701  1
  Hf  Hf9  1  0.39544800  0.53725202  0.74043299  1
  Sb  Sb10  1  0.89544801  0.96274803  0.24043301  1
  Mn  Mn11  1  0.10455200  0.03725200  0.75956698  1
  Tl  Tl12  1  0.31492000  0.78737503  0.44189099  1
  Sc  Sc13  1  0.68508000  0.21262501  0.55810900  1
  Eu  Eu14  1  0.18508000  0.28737501  0.05810900  1
  P  P15  1  0.81492001  0.71262502  0.94189099  1
  Cd  Cd16  1  0.20601700  0.31100601  0.45074499  1
  Sc  Sc17  1  0.79398300  0.68899402  0.54925500  1
  Re  Re18  1  0.29398300  0.81100603  0.04925501  1
  Zn  Zn19  1  0.70601700  0.18899401  0.95074499  1
