# generated using pymatgen
data_SmPuTlGaCoGeAuXeN
_symmetry_space_group_name_H-M   'P 1'
_cell_length_a   6.48592138
_cell_length_b   6.48592138
_cell_length_c   6.48592138
_cell_angle_alpha   60.00000000
_cell_angle_beta   60.00000000
_cell_angle_gamma   60.00000000
_symmetry_Int_Tables_number   1
_chemical_formula_structural   SmPuTlGaCoGeAuXeN
_chemical_formula_sum   'Sm1 Pu1 Tl1 Ga1 Co1 Ge1 Au1 Xe1 N1'
_cell_volume   192.93012371
_cell_formula_units_Z   1
loop_
 _symmetry_equiv_pos_site_id
 _symmetry_equiv_pos_as_xyz
  1  'x, y, z'
loop_
 _atom_site_type_symbol
 _atom_site_label
 _atom_site_symmetry_multiplicity
 _atom_site_fract_x
 _atom_site_fract_y
 _atom_site_fract_z
 _atom_site_occupancy
  Tl  Tl0  1  0.75000000  0.75000000  0.75000000  1
  N  N1  1  0.25000000  0.25000000  0.25000000  1
  Pu  Pu2  1  0.00000000  0.00000000  0.00000000  1
  Co  Co3  1  0.79945100  0.20054900  0.20054900  1
  Au  Au4  1  0.20054900  0.20054900  0.79945100  1
  Ga  Ga5  1  0.79945100  0.79945100  0.20054900  1
  Ge  Ge6  1  0.20054900  0.79945100  0.79945100  1
  Xe  Xe7  1  0.79945100  0.20054900  0.79945100  1
  Sm  Sm8  1  0.20054900  0.79945100  0.20054900  1
