# generated using pymatgen
data_CsRbLu2PuZrPaNbTlFeAgSe
_symmetry_space_group_name_H-M   'P 1'
_cell_length_a   4.89821911
_cell_length_b   4.89821911
_cell_length_c   4.89821911
_cell_angle_alpha   90.00000000
_cell_angle_beta   90.00000000
_cell_angle_gamma   90.00000000
_symmetry_Int_Tables_number   1
_chemical_formula_structural   CsRbLu2PuZrPaNbTlFeAgSe
_chemical_formula_sum   'Cs1 Rb1 Lu2 Pu1 Zr1 Pa1 Nb1 Tl1 Fe1 Ag1 Se1'
_cell_volume   117.52076901
_cell_formula_units_Z   1
loop_
 _symmetry_equiv_pos_site_id
 _symmetry_equiv_pos_as_xyz
  1  'x, y, z'
loop_
 _atom_site_type_symbol
 _atom_site_label
 _atom_site_symmetry_multiplicity
 _atom_site_fract_x
 _atom_site_fract_y
 _atom_site_fract_z
 _atom_site_occupancy
  Tl  Tl0  1  0.49999999  0.49999999  0.00000000  1
  Rb  Rb1  1  0.49999999  0.00000000  0.49999999  1
  Pu  Pu2  1  0.00000000  0.49999999  0.49999999  1
  Ag  Ag3  1  0.00000000  0.00000000  0.00000000  1
  Cs  Cs4  1  0.14920000  0.85079998  0.35079999  1
  Zr  Zr5  1  0.85079998  0.35079999  0.14920000  1
  Lu  Lu6  1  0.35079999  0.14920000  0.85079998  1
  Nb  Nb7  1  0.64919999  0.64919999  0.64919999  1
  Se  Se8  1  0.85079998  0.14920000  0.64919999  1
  Lu  Lu9  1  0.14920000  0.64919999  0.85079998  1
  Fe  Fe10  1  0.64919999  0.85079998  0.14920000  1
  Pa  Pa11  1  0.35079999  0.35079999  0.35079999  1
