# generated using pymatgen
data_KCeYMgZrNp2MnVCuTcHgIrAuSBr
_symmetry_space_group_name_H-M   'P 1'
_cell_length_a   3.93156290
_cell_length_b   6.23098421
_cell_length_c   13.32972527
_cell_angle_alpha   90.00000000
_cell_angle_beta   90.00000000
_cell_angle_gamma   90.00000000
_symmetry_Int_Tables_number   1
_chemical_formula_structural   KCeYMgZrNp2MnVCuTcHgIrAuSBr
_chemical_formula_sum
'K1 Ce1 Y1 Mg1 Zr1 Np2 Mn1 V1 Tc1 Cu1 Hg1 Ir1 Au1 S1 Br1'
_cell_volume   326.54502944
_cell_formula_units_Z   1
loop_
 _symmetry_equiv_pos_site_id
 _symmetry_equiv_pos_as_xyz
  1  'x, y, z'
loop_
 _atom_site_type_symbol
 _atom_site_label
 _atom_site_symmetry_multiplicity
 _atom_site_fract_x
 _atom_site_fract_y
 _atom_site_fract_z
 _atom_site_occupancy
  Mn  Mn0  1  0.25000001  0.50105898  0.13333100  1
  Au  Au1  1  0.75000002  0.49894098  0.86666898  1
  Np  Np2  1  0.75000002  0.00105900  0.36666899  1
  Y  Y3  1  0.25000001  0.99894097  0.63333099  1
  S  S4  1  0.25000001  0.12583000  0.95466998  1
  Br  Br5  1  0.75000002  0.62582998  0.54532999  1
  Np  Np6  1  0.75000002  0.87416997  0.04533000  1
  Ce  Ce7  1  0.25000001  0.37416999  0.45466999  1
  Hg  Hg8  1  0.25000001  0.26203399  0.79441498  1
  Zr  Zr9  1  0.75000002  0.73796598  0.20558500  1
  Tc  Tc10  1  0.75000002  0.76203397  0.70558499  1
  Cu  Cu11  1  0.25000001  0.23796599  0.29441499  1
  V  V12  1  0.25000001  0.74521097  0.95992098  1
  Ir  Ir13  1  0.25000001  0.75478897  0.45992099  1
  Mg  Mg14  1  0.75000002  0.24521099  0.54007899  1
  K  K15  1  0.75000002  0.25478899  0.04007900  1
