# generated using pymatgen
data_TbYbHoSnHPdRhPbCl2
_symmetry_space_group_name_H-M   'P 1'
_cell_length_a   6.32102060
_cell_length_b   6.32102060
_cell_length_c   6.32102060
_cell_angle_alpha   60.00000000
_cell_angle_beta   60.00000000
_cell_angle_gamma   60.00000000
_symmetry_Int_Tables_number   1
_chemical_formula_structural   TbYbHoSnHPdRhPbCl2
_chemical_formula_sum   'Yb1 Tb1 Ho1 Sn1 H1 Pd1 Rh1 Pb1 Cl2'
_cell_volume   178.58567510
_cell_formula_units_Z   1
loop_
 _symmetry_equiv_pos_site_id
 _symmetry_equiv_pos_as_xyz
  1  'x, y, z'
loop_
 _atom_site_type_symbol
 _atom_site_label
 _atom_site_symmetry_multiplicity
 _atom_site_fract_x
 _atom_site_fract_y
 _atom_site_fract_z
 _atom_site_occupancy
  H  H0  1  0.75000002  0.75000002  0.75000002  1
  Pb  Pb1  1  0.25000001  0.25000001  0.25000001  1
  Ho  Ho2  1  0.50000001  0.50000001  0.50000001  1
  Pd  Pd3  1  0.00000000  0.00000000  0.00000000  1
  Sn  Sn4  1  0.23865178  0.76134824  0.23865178  1
  Yb  Yb5  1  0.76134824  0.23865178  0.76134824  1
  Cl  Cl6  1  0.76134824  0.23865178  0.23865178  1
  Cl  Cl7  1  0.23865178  0.76134824  0.76134824  1
  Tb  Tb8  1  0.76134824  0.76134824  0.23865178  1
  Rh  Rh9  1  0.23865178  0.23865178  0.76134824  1
