# generated using pymatgen
data_KTbSm2GdMgNpZnFeTcAgMoIrPdPtW
_symmetry_space_group_name_H-M   'P 1'
_cell_length_a   4.99974585
_cell_length_b   4.99974585
_cell_length_c   8.77617741
_cell_angle_alpha   90.00000000
_cell_angle_beta   90.00000000
_cell_angle_gamma   90.00000000
_symmetry_Int_Tables_number   1
_chemical_formula_structural   KTbSm2GdMgNpZnFeTcAgMoIrPdPtW
_chemical_formula_sum
'K1 Tb1 Sm2 Gd1 Mg1 Np1 Zn1 Fe1 Tc1 Ag1 Mo1 Ir1 Pd1 Pt1 W1'
_cell_volume   219.38213070
_cell_formula_units_Z   1
loop_
 _symmetry_equiv_pos_site_id
 _symmetry_equiv_pos_as_xyz
  1  'x, y, z'
loop_
 _atom_site_type_symbol
 _atom_site_label
 _atom_site_symmetry_multiplicity
 _atom_site_fract_x
 _atom_site_fract_y
 _atom_site_fract_z
 _atom_site_occupancy
  Tc  Tc0  1  0.00000000  0.00000000  0.82634596  1
  Mo  Mo1  1  0.50000002  0.50000002  0.67365397  1
  Ir  Ir2  1  0.50000002  0.50000002  0.32634598  1
  Pd  Pd3  1  0.00000000  0.00000000  0.17365399  1
  Fe  Fe4  1  0.82679103  0.82679103  -0.00000000  1
  Sm  Sm5  1  0.69932602  0.30067401  0.81377696  1
  Gd  Gd6  1  0.30067401  0.69932602  0.81377696  1
  Ag  Ag7  1  0.19932601  0.19932601  0.68622297  1
  K  K8  1  0.80067402  0.80067402  0.68622297  1
  Pt  Pt9  1  0.67320902  0.32679101  0.49999998  1
  Sm  Sm10  1  0.32679101  0.67320902  0.49999998  1
  Zn  Zn11  1  0.19932601  0.19932601  0.31377699  1
  Mg  Mg12  1  0.80067402  0.80067402  0.31377699  1
  Np  Np13  1  0.69932602  0.30067401  0.18622299  1
  Tb  Tb14  1  0.30067401  0.69932602  0.18622299  1
  W  W15  1  0.17320901  0.17320901  -0.00000000  1
