# generated using pymatgen
data_CeTmLuPuThSi2Ge2IrCF
_symmetry_space_group_name_H-M   'P 1'
_cell_length_a   4.33422184
_cell_length_b   6.88430405
_cell_length_c   7.59378386
_cell_angle_alpha   90.00000000
_cell_angle_beta   90.00000000
_cell_angle_gamma   90.00000000
_symmetry_Int_Tables_number   1
_chemical_formula_structural   CeTmLuPuThSi2Ge2IrCF
_chemical_formula_sum   'Ce1 Tm1 Lu1 Pu1 Th1 Si2 Ge2 Ir1 C1 F1'
_cell_volume   226.58408928
_cell_formula_units_Z   1
loop_
 _symmetry_equiv_pos_site_id
 _symmetry_equiv_pos_as_xyz
  1  'x, y, z'
loop_
 _atom_site_type_symbol
 _atom_site_label
 _atom_site_symmetry_multiplicity
 _atom_site_fract_x
 _atom_site_fract_y
 _atom_site_fract_z
 _atom_site_occupancy
  Tm  Tm0  1  0.75000003  0.49739700  0.79652802  1
  C  C1  1  0.25000001  0.00260300  0.29652801  1
  Si  Si2  1  0.75000003  0.99739699  0.70347201  1
  F  F3  1  0.25000001  0.50260300  0.20347200  1
  Ce  Ce4  1  0.25000001  0.69118600  0.59016901  1
  Ir  Ir5  1  0.25000001  0.19118600  0.90983102  1
  Lu  Lu6  1  0.75000003  0.30881400  0.40983101  1
  Pu  Pu7  1  0.75000003  0.80881399  0.09016900  1
  Th  Th8  1  0.25000001  0.79309699  0.91609202  1
  Ge  Ge9  1  0.25000001  0.29309700  0.58390801  1
  Ge  Ge10  1  0.75000003  0.70690300  0.41609201  1
  Si  Si11  1  0.75000003  0.20690300  0.08390800  1
