# generated using pymatgen
data_RbGdHoTmPuHfNpCdFeCu2ReSnPtWS
_symmetry_space_group_name_H-M   'P 1'
_cell_length_a   4.41931915
_cell_length_b   9.09129620
_cell_length_c   9.61187077
_cell_angle_alpha   118.22402191
_cell_angle_beta   103.29051971
_cell_angle_gamma   90.00000000
_symmetry_Int_Tables_number   1
_chemical_formula_structural   RbGdHoTmPuHfNpCdFeCu2ReSnPtWS
_chemical_formula_sum
'Rb1 Gd1 Ho1 Tm1 Pu1 Hf1 Np1 Cd1 Fe1 Cu2 Re1 Sn1 Pt1 W1 S1'
_cell_volume   328.47903654
_cell_formula_units_Z   1
loop_
 _symmetry_equiv_pos_site_id
 _symmetry_equiv_pos_as_xyz
  1  'x, y, z'
loop_
 _atom_site_type_symbol
 _atom_site_label
 _atom_site_symmetry_multiplicity
 _atom_site_fract_x
 _atom_site_fract_y
 _atom_site_fract_z
 _atom_site_occupancy
  Tm  Tm0  1  1.00000000  0.26465100  1.00000002  1
  Sn  Sn1  1  0.00000005  0.73534899  1.00000000  1
  Pt  Pt2  1  0.20769704  0.70769699  0.41539401  1
  Fe  Fe3  1  0.79230300  0.29230299  0.58460602  1
  Cu  Cu4  1  0.57897999  0.07897900  0.15795901  1
  Hf  Hf5  1  0.42102005  0.92102098  0.84204101  1
  S  S6  1  0.57804902  0.57804899  0.15609802  1
  Np  Np7  1  0.42195102  0.42195099  0.84390201  1
  Re  Re8  1  0.80081002  0.64373099  0.60162002  1
  Gd  Gd9  1  0.19919002  0.35626899  0.39838000  1
  W  W10  1  0.80081004  0.95788998  0.60162002  1
  Cu  Cu11  1  0.19919000  0.04211000  0.39838000  1
  Pu  Pu12  1  0.64594101  0.39328399  0.29188302  1
  Rb  Rb13  1  0.35405903  0.60671599  0.70811701  1
  Cd  Cd14  1  0.64594104  0.89859898  0.29188302  1
  Ho  Ho15  1  0.35405900  0.10140100  0.70811700  1
