# generated using pymatgen
data_AcAgIHe2RbBaLaTbGdZnMoAsHOsPdWAuBrO
_symmetry_space_group_name_H-M   'P 1'
_cell_length_a   5.77894783
_cell_length_b   5.77894735
_cell_length_c   11.64937019
_cell_angle_alpha   90.00000000
_cell_angle_beta   90.00000000
_cell_angle_gamma   120.00000763
_symmetry_Int_Tables_number   1
_chemical_formula_structural   AcAgIHe2RbBaLaTbGdZnMoAsHOsPdWAuBrO
_chemical_formula_sum
;
Ac1 Ag1 I1 He2 Rb1 Ba1 La1 Tb1 Gd1 Zn1 Mo1 As1 Pd1 H1 Os1 W1 Au1 Br1
O1
;
_cell_volume   336.92292059
_cell_formula_units_Z   1
loop_
 _symmetry_equiv_pos_site_id
 _symmetry_equiv_pos_as_xyz
  1  'x, y, z'
loop_
 _atom_site_type_symbol
 _atom_site_label
 _atom_site_symmetry_multiplicity
 _atom_site_fract_x
 _atom_site_fract_y
 _atom_site_fract_z
 _atom_site_occupancy
  I  I0  1  0.00000000  0.00000000  0.49999999  1
  Ac  Ac1  1  0.00000000  0.00000000  0.00000000  1
  Ag  Ag2  1  0.66666671  0.33333334  0.00514200  1
  He  He3  1  0.33333339  0.66666669  0.99485798  1
  Br  Br4  1  0.33333339  0.66666669  0.50514199  1
  O  O5  1  0.66666671  0.33333334  0.49485799  1
  He  He6  1  0.66666671  0.33333334  0.74999999  1
  La  La7  1  0.33333339  0.66666669  0.25000000  1
  Ba  Ba8  1  0.66893002  0.00796600  0.63591599  1
  W  W9  1  0.33903604  0.33107001  0.63591599  1
  Pd  Pd10  1  0.99203408  0.66096402  0.63591599  1
  H  H11  1  0.66096410  0.99203403  0.36408399  1
  Gd  Gd12  1  0.00796605  0.66893002  0.36408399  1
  As  As13  1  0.33107004  0.33903601  0.36408399  1
  Rb  Rb14  1  0.33107009  0.99203403  0.13591600  1
  Mo  Mo15  1  0.66096407  0.66893002  0.13591600  1
  Tb  Tb16  1  0.00796603  0.33903601  0.13591600  1
  Au  Au17  1  0.33903601  0.00796600  0.86408399  1
  Os  Os18  1  0.99203405  0.33107001  0.86408399  1
  Zn  Zn19  1  0.66893007  0.66096402  0.86408399  1
