# generated using pymatgen
data_CsBaLiDyNpUMnGe
_symmetry_space_group_name_H-M   'P 1'
_cell_length_a   4.39671993
_cell_length_b   4.39671993
_cell_length_c   9.59293461
_cell_angle_alpha   90.00000000
_cell_angle_beta   90.00000000
_cell_angle_gamma   90.00000000
_symmetry_Int_Tables_number   1
_chemical_formula_structural   CsBaLiDyNpUMnGe
_chemical_formula_sum   'Cs1 Ba1 Li1 Dy1 Np1 U1 Mn1 Ge1'
_cell_volume   185.44242107
_cell_formula_units_Z   1
loop_
 _symmetry_equiv_pos_site_id
 _symmetry_equiv_pos_as_xyz
  1  'x, y, z'
loop_
 _atom_site_type_symbol
 _atom_site_label
 _atom_site_symmetry_multiplicity
 _atom_site_fract_x
 _atom_site_fract_y
 _atom_site_fract_z
 _atom_site_occupancy
  Mn  Mn0  1  0.00000000  0.50000001  0.84029803  1
  Ge  Ge1  1  0.50000001  0.00000000  0.15970201  1
  Np  Np2  1  0.50000001  0.50000001  0.50000002  1
  Ba  Ba3  1  0.00000000  0.00000000  0.50000002  1
  Cs  Cs4  1  0.00000000  0.50000001  0.32975801  1
  U  U5  1  0.50000001  0.00000000  0.67024203  1
  Dy  Dy6  1  0.50000001  0.50000001  0.00000000  1
  Li  Li7  1  0.00000000  0.00000000  0.00000000  1
