# generated using pymatgen
data_NaGdBeVInGa2IrCKr
_symmetry_space_group_name_H-M   'P 1'
_cell_length_a   6.14528179
_cell_length_b   6.14528179
_cell_length_c   6.14528179
_cell_angle_alpha   60.00000000
_cell_angle_beta   60.00000000
_cell_angle_gamma   60.00000000
_symmetry_Int_Tables_number   1
_chemical_formula_structural   NaGdBeVInGa2IrCKr
_chemical_formula_sum   'Na1 Gd1 Be1 V1 In1 Ga2 Ir1 C1 Kr1'
_cell_volume   164.10069065
_cell_formula_units_Z   1
loop_
 _symmetry_equiv_pos_site_id
 _symmetry_equiv_pos_as_xyz
  1  'x, y, z'
loop_
 _atom_site_type_symbol
 _atom_site_label
 _atom_site_symmetry_multiplicity
 _atom_site_fract_x
 _atom_site_fract_y
 _atom_site_fract_z
 _atom_site_occupancy
  Ga  Ga0  1  0.25000000  0.25000000  0.25000000  1
  Be  Be1  1  0.75000001  0.75000001  0.75000001  1
  Ga  Ga2  1  0.00000000  0.00000000  0.00000000  1
  Na  Na3  1  0.50000001  0.50000001  0.50000001  1
  V  V4  1  0.26877213  0.73122788  0.26877213  1
  C  C5  1  0.73122788  0.26877213  0.73122788  1
  In  In6  1  0.73122788  0.26877213  0.26877213  1
  Ir  Ir7  1  0.26877213  0.73122788  0.73122788  1
  Kr  Kr8  1  0.73122788  0.73122788  0.26877213  1
  Gd  Gd9  1  0.26877213  0.26877213  0.73122788  1
