# generated using pymatgen
data_KSrTbCeGdYHo2PuTh2NpMnTlSi3AsRhKr
_symmetry_space_group_name_H-M   'P 1'
_cell_length_a   5.49852800
_cell_length_b   5.82546806
_cell_length_c   11.62561893
_cell_angle_alpha   90.00000000
_cell_angle_beta   90.00000000
_cell_angle_gamma   90.00000000
_symmetry_Int_Tables_number   1
_chemical_formula_structural   KSrTbCeGdYHo2PuTh2NpMnTlSi3AsRhKr
_chemical_formula_sum
'K1 Sr1 Tb1 Ce1 Gd1 Y1 Ho2 Pu1 Th2 Np1 Mn1 Tl1 Si3 As1 Rh1 Kr1'
_cell_volume   372.38600455
_cell_formula_units_Z   1
loop_
 _symmetry_equiv_pos_site_id
 _symmetry_equiv_pos_as_xyz
  1  'x, y, z'
loop_
 _atom_site_type_symbol
 _atom_site_label
 _atom_site_symmetry_multiplicity
 _atom_site_fract_x
 _atom_site_fract_y
 _atom_site_fract_z
 _atom_site_occupancy
  Si  Si0  1  0.93540900  0.74999999  0.89757001  1
  Si  Si1  1  0.93540900  0.25000000  0.60243000  1
  Sr  Sr2  1  0.06459100  0.25000000  0.10243000  1
  Np  Np3  1  0.06459100  0.74999999  0.39757000  1
  Pu  Pu4  1  0.47363300  0.74999999  0.66588000  1
  Rh  Rh5  1  0.47363300  0.25000000  0.83412000  1
  Tl  Tl6  1  0.52636700  0.25000000  0.33412000  1
  Th  Th7  1  0.52636700  0.74999999  0.16588000  1
  Ho  Ho8  1  0.42808400  0.49999999  0.25000000  1
  Kr  Kr9  1  0.57191600  0.00000000  0.75000000  1
  Th  Th10  1  0.57191600  0.49999999  0.75000000  1
  Si  Si11  1  0.42808400  0.00000000  0.25000000  1
  K  K12  1  0.61475900  0.74999999  0.53886200  1
  As  As13  1  0.61475900  0.25000000  0.96113801  1
  Ho  Ho14  1  0.38524100  0.25000000  0.46113800  1
  Mn  Mn15  1  0.38524100  0.74999999  0.03886200  1
  Y  Y16  1  0.82995200  0.74999999  0.14811400  1
  Tb  Tb17  1  0.82995200  0.25000000  0.35188600  1
  Ce  Ce18  1  0.17004800  0.25000000  0.85188600  1
  Gd  Gd19  1  0.17004800  0.74999999  0.64811400  1
