# generated using pymatgen
data_CePm2TmPaTiMnTlReSnBiB2IrRhO
_symmetry_space_group_name_H-M   'P 1'
_cell_length_a   6.48181581
_cell_length_b   8.82268047
_cell_length_c   8.82268047
_cell_angle_alpha   120.00000000
_cell_angle_beta   90.00000000
_cell_angle_gamma   90.00000000
_symmetry_Int_Tables_number   1
_chemical_formula_structural   CePm2TmPaTiMnTlReSnBiB2IrRhO
_chemical_formula_sum
'Ce1 Pm2 Tm1 Pa1 Ti1 Mn1 Tl1 Re1 Sn1 Bi1 B2 Ir1 Rh1 O1'
_cell_volume   436.94665557
_cell_formula_units_Z   1
loop_
 _symmetry_equiv_pos_site_id
 _symmetry_equiv_pos_as_xyz
  1  'x, y, z'
loop_
 _atom_site_type_symbol
 _atom_site_label
 _atom_site_symmetry_multiplicity
 _atom_site_fract_x
 _atom_site_fract_y
 _atom_site_fract_z
 _atom_site_occupancy
  O  O0  1  -0.00000000  0.66666665  0.33333339  1
  Sn  Sn1  1  0.50000001  0.33333333  0.66666672  1
  Pm  Pm2  1  -0.00000000  0.33333333  0.66666672  1
  Ti  Ti3  1  0.50000001  0.66666665  0.33333339  1
  Ir  Ir4  1  0.25000001  0.27606399  0.27606403  1
  Mn  Mn5  1  0.75000002  0.27606399  0.00000002  1
  Pa  Pa6  1  0.75000002  0.99999998  0.27606408  1
  Pm  Pm7  1  0.25000001  0.99999998  0.72393610  1
  Tm  Tm8  1  0.25000001  0.72393598  0.00000005  1
  Re  Re9  1  0.75000002  0.72393598  0.72393608  1
  Ce  Ce10  1  0.25000001  0.61581599  0.61581607  1
  Tl  Tl11  1  0.75000002  0.61581599  0.00000004  1
  B  B12  1  0.75000002  0.99999998  0.61581609  1
  B  B13  1  0.25000001  0.99999998  0.38418408  1
  Rh  Rh14  1  0.25000001  0.38418399  1.00000007  1
  Bi  Bi15  1  0.75000002  0.38418399  0.38418404  1
