# generated using pymatgen
data_KSrLiTbNdUBe2NbCuSn2MoOsSe2IF
_symmetry_space_group_name_H-M   'P 1'
_cell_length_a   7.95327282
_cell_length_b   7.95327282
_cell_length_c   7.95327282
_cell_angle_alpha   60.00000000
_cell_angle_beta   60.00000000
_cell_angle_gamma   60.00000000
_symmetry_Int_Tables_number   1
_chemical_formula_structural   KSrLiTbNdUBe2NbCuSn2MoOsSe2IF
_chemical_formula_sum
'K1 Sr1 Li1 Tb1 Nd1 U1 Be2 Nb1 Cu1 Sn2 Mo1 Os1 Se2 I1 F1'
_cell_volume   355.73176146
_cell_formula_units_Z   1
loop_
 _symmetry_equiv_pos_site_id
 _symmetry_equiv_pos_as_xyz
  1  'x, y, z'
loop_
 _atom_site_type_symbol
 _atom_site_label
 _atom_site_symmetry_multiplicity
 _atom_site_fract_x
 _atom_site_fract_y
 _atom_site_fract_z
 _atom_site_occupancy
  Se  Se0  1  0.74999998  0.74999998  0.74999998  1
  Se  Se1  1  0.00000000  0.00000000  0.00000000  1
  Li  Li2  1  0.37499999  0.87499998  0.37499999  1
  I  I3  1  0.37499999  0.37499999  0.37499999  1
  Sn  Sn4  1  0.37499999  0.37499999  0.87499998  1
  F  F5  1  0.87499998  0.37499999  0.37499999  1
  K  K6  1  0.44038699  0.05961300  0.44038699  1
  Mo  Mo7  1  0.69038698  0.30961299  0.69038698  1
  Tb  Tb8  1  0.44038699  0.05961300  0.05961300  1
  Cu  Cu9  1  0.44038699  0.44038699  0.05961300  1
  Sr  Sr10  1  0.05961300  0.05961300  0.44038699  1
  Sn  Sn11  1  0.05961300  0.44038699  0.44038699  1
  Be  Be12  1  0.05961300  0.44038699  0.05961300  1
  U  U13  1  0.30961299  0.69038698  0.69038698  1
  Nb  Nb14  1  0.69038698  0.30961299  0.30961299  1
  Nd  Nd15  1  0.69038698  0.69038698  0.30961299  1
  Be  Be16  1  0.30961299  0.30961299  0.69038698  1
  Os  Os17  1  0.30961299  0.69038698  0.30961299  1
