# generated using pymatgen
data_RbCeEu3PuBiTeMoOsPbC
_symmetry_space_group_name_H-M   'P 1'
_cell_length_a   4.03574085
_cell_length_b   6.88399220
_cell_length_c   7.68982983
_cell_angle_alpha   90.00000000
_cell_angle_beta   90.00000000
_cell_angle_gamma   90.00000000
_symmetry_Int_Tables_number   1
_chemical_formula_structural   RbCeEu3PuBiTeMoOsPbC
_chemical_formula_sum   'Rb1 Ce1 Eu3 Pu1 Bi1 Te1 Mo1 Os1 Pb1 C1'
_cell_volume   213.63891782
_cell_formula_units_Z   1
loop_
 _symmetry_equiv_pos_site_id
 _symmetry_equiv_pos_as_xyz
  1  'x, y, z'
loop_
 _atom_site_type_symbol
 _atom_site_label
 _atom_site_symmetry_multiplicity
 _atom_site_fract_x
 _atom_site_fract_y
 _atom_site_fract_z
 _atom_site_occupancy
  Eu  Eu0  1  -0.00000000  0.38336099  0.75000002  1
  Pu  Pu1  1  -0.00000000  0.61663898  0.25000001  1
  Pb  Pb2  1  0.00000000  0.00000000  0.50000001  1
  Eu  Eu3  1  0.00000000  0.00000000  0.00000000  1
  C  C4  1  0.50000002  0.04169000  0.75000002  1
  Te  Te5  1  0.50000002  0.95830997  0.25000001  1
  Rb  Rb6  1  0.50000002  0.30066199  0.07069700  1
  Os  Os7  1  0.50000002  0.69933798  0.92930302  1
  Mo  Mo8  1  0.50000002  0.30066199  0.42930301  1
  Eu  Eu9  1  0.50000002  0.69933798  0.57069701  1
  Bi  Bi10  1  -0.00000000  0.81628398  0.75000002  1
  Ce  Ce11  1  -0.00000000  0.18371599  0.25000001  1
