# generated using pymatgen
data_NdEuTiFeCuAsSeXeClHe
_symmetry_space_group_name_H-M   'P 1'
_cell_length_a   6.27676630
_cell_length_b   6.27676630
_cell_length_c   6.27676630
_cell_angle_alpha   60.00000000
_cell_angle_beta   60.00000000
_cell_angle_gamma   60.00000000
_symmetry_Int_Tables_number   1
_chemical_formula_structural   NdEuTiFeCuAsSeXeClHe
_chemical_formula_sum   'Nd1 Eu1 Ti1 Fe1 Cu1 As1 Se1 Xe1 Cl1 He1'
_cell_volume   174.86096847
_cell_formula_units_Z   1
loop_
 _symmetry_equiv_pos_site_id
 _symmetry_equiv_pos_as_xyz
  1  'x, y, z'
loop_
 _atom_site_type_symbol
 _atom_site_label
 _atom_site_symmetry_multiplicity
 _atom_site_fract_x
 _atom_site_fract_y
 _atom_site_fract_z
 _atom_site_occupancy
  Fe  Fe0  1  0.75000000  0.75000000  0.75000000  1
  Xe  Xe1  1  0.25000000  0.25000000  0.25000000  1
  Eu  Eu2  1  0.50000000  0.50000000  0.50000000  1
  Ti  Ti3  1  0.00000000  0.00000000  0.00000000  1
  As  As4  1  0.21653900  0.78346100  0.21653900  1
  Nd  Nd5  1  0.78346100  0.21653900  0.78346100  1
  Cl  Cl6  1  0.21653900  0.78346100  0.78346100  1
  Cu  Cu7  1  0.78346100  0.21653900  0.21653900  1
  Se  Se8  1  0.21653900  0.21653900  0.78346100  1
  He  He9  1  0.78346100  0.78346100  0.21653900  1
