# generated using pymatgen
data_LiPmMgZrScTi2InGa2CoSiAsP2PtRhWHeAu
_symmetry_space_group_name_H-M   'P 1'
_cell_length_a   5.30715322
_cell_length_b   5.59716511
_cell_length_c   7.63874006
_cell_angle_alpha   90.00000000
_cell_angle_beta   90.00000000
_cell_angle_gamma   90.00000000
_symmetry_Int_Tables_number   1
_chemical_formula_structural   LiPmMgZrScTi2InGa2CoSiAsP2PtRhWHeAu
_chemical_formula_sum
'Li1 Pm1 Mg1 Zr1 Sc1 Ti2 In1 Ga2 Co1 Si1 As1 P2 Rh1 Pt1 W1 He1 Au1'
_cell_volume   226.90887174
_cell_formula_units_Z   1
loop_
 _symmetry_equiv_pos_site_id
 _symmetry_equiv_pos_as_xyz
  1  'x, y, z'
loop_
 _atom_site_type_symbol
 _atom_site_label
 _atom_site_symmetry_multiplicity
 _atom_site_fract_x
 _atom_site_fract_y
 _atom_site_fract_z
 _atom_site_occupancy
  P  P0  1  0.48158898  0.06768100  0.25000000  1
  Pm  Pm1  1  0.01841100  0.56768099  0.25000000  1
  Co  Co2  1  0.51841098  0.93231898  0.74999999  1
  Sc  Sc3  1  0.98158896  0.43231899  0.74999999  1
  Si  Si4  1  0.49999998  0.49999999  0.50000000  1
  W  W5  1  0.00000000  0.00000000  0.00000000  1
  Rh  Rh6  1  0.49999998  0.49999999  -0.00000000  1
  He  He7  1  0.00000000  0.00000000  0.50000000  1
  Au  Au8  1  0.39038798  0.53744199  0.74999999  1
  Li  Li9  1  0.10961200  0.03744200  0.74999999  1
  Ga  Ga10  1  0.60961197  0.46255799  0.25000000  1
  Zr  Zr11  1  0.89038796  0.96255798  0.25000000  1
  As  As12  1  0.80572497  0.69548099  0.55611600  1
  In  In13  1  0.69427497  0.19548100  0.94388399  1
  Ga  Ga14  1  0.19427499  0.30451899  0.05611600  1
  Pt  Pt15  1  0.30572499  0.80451898  0.44388400  1
  Mg  Mg16  1  0.19427499  0.30451899  0.44388400  1
  Ti  Ti17  1  0.30572499  0.80451898  0.05611600  1
  P  P18  1  0.80572497  0.69548099  0.94388399  1
  Ti  Ti19  1  0.69427497  0.19548100  0.55611600  1
