# generated using pymatgen
data_LiGdDyTiInAsOsPdAuNe
_symmetry_space_group_name_H-M   'P 1'
_cell_length_a   6.90697813
_cell_length_b   6.90697813
_cell_length_c   6.90697813
_cell_angle_alpha   60.00000000
_cell_angle_beta   60.00000000
_cell_angle_gamma   60.00000000
_symmetry_Int_Tables_number   1
_chemical_formula_structural   LiGdDyTiInAsOsPdAuNe
_chemical_formula_sum   'Li1 Gd1 Dy1 Ti1 In1 As1 Pd1 Os1 Au1 Ne1'
_cell_volume   232.99641825
_cell_formula_units_Z   1
loop_
 _symmetry_equiv_pos_site_id
 _symmetry_equiv_pos_as_xyz
  1  'x, y, z'
loop_
 _atom_site_type_symbol
 _atom_site_label
 _atom_site_symmetry_multiplicity
 _atom_site_fract_x
 _atom_site_fract_y
 _atom_site_fract_z
 _atom_site_occupancy
  In  In0  1  0.25000000  0.25000000  0.25000000  1
  Gd  Gd1  1  0.74999999  0.74999999  0.74999999  1
  Li  Li2  1  0.49999999  0.49999999  0.49999999  1
  Pd  Pd3  1  0.00000000  0.00000000  0.00000000  1
  Au  Au4  1  0.23346800  0.76653199  0.23346800  1
  Ti  Ti5  1  0.23346800  0.23346800  0.76653199  1
  As  As6  1  0.76653199  0.23346800  0.76653199  1
  Ne  Ne7  1  0.23346800  0.76653199  0.76653199  1
  Dy  Dy8  1  0.76653199  0.23346800  0.23346800  1
  Os  Os9  1  0.76653199  0.76653199  0.23346800  1
