# generated using pymatgen
data_NiNeRbSrLiSmPaAsPdI
_symmetry_space_group_name_H-M   'P 1'
_cell_length_a   6.25848866
_cell_length_b   6.25848866
_cell_length_c   6.25848866
_cell_angle_alpha   60.59526443
_cell_angle_beta   60.59526443
_cell_angle_gamma   60.59526062
_symmetry_Int_Tables_number   1
_chemical_formula_structural   NiNeRbSrLiSmPaAsPdI
_chemical_formula_sum   'Ni1 Ne1 Rb1 Sr1 Li1 Sm1 Pa1 As1 Pd1 I1'
_cell_volume   175.66829015
_cell_formula_units_Z   1
loop_
 _symmetry_equiv_pos_site_id
 _symmetry_equiv_pos_as_xyz
  1  'x, y, z'
loop_
 _atom_site_type_symbol
 _atom_site_label
 _atom_site_symmetry_multiplicity
 _atom_site_fract_x
 _atom_site_fract_y
 _atom_site_fract_z
 _atom_site_occupancy
  Ni  Ni0  1  0.75000004  0.75000002  0.74999995  1
  Ne  Ne1  1  0.25000001  0.25000001  0.24999998  1
  I  I2  1  0.00000000  0.00000000  0.00000000  1
  Sm  Sm3  1  0.50000003  0.50000002  0.49999997  1
  Sr  Sr4  1  0.75000003  0.18178301  0.31821697  1
  As  As5  1  0.18178301  0.31821701  0.74999997  1
  Pd  Pd6  1  0.31821703  0.75000002  0.18178297  1
  Pa  Pa7  1  0.25000003  0.81821703  0.68178296  1
  Rb  Rb8  1  0.68178303  0.25000001  0.81821696  1
  Li  Li9  1  0.81821704  0.68178302  0.24999996  1
