# generated using pymatgen
data_CsLaPmSmErHfMg2PaCd2AgBiXeBrF
_symmetry_space_group_name_H-M   'P 1'
_cell_length_a   4.97488594
_cell_length_b   5.30782557
_cell_length_c   6.21696377
_cell_angle_alpha   90.00000000
_cell_angle_beta   90.00000000
_cell_angle_gamma   89.64942169
_symmetry_Int_Tables_number   1
_chemical_formula_structural   CsLaPmSmErHfMg2PaCd2AgBiXeBrF
_chemical_formula_sum
'Cs1 La1 Pm1 Sm1 Er1 Hf1 Mg2 Pa1 Cd2 Ag1 Bi1 Xe1 Br1 F1'
_cell_volume   164.16099529
_cell_formula_units_Z   1
loop_
 _symmetry_equiv_pos_site_id
 _symmetry_equiv_pos_as_xyz
  1  'x, y, z'
loop_
 _atom_site_type_symbol
 _atom_site_label
 _atom_site_symmetry_multiplicity
 _atom_site_fract_x
 _atom_site_fract_y
 _atom_site_fract_z
 _atom_site_occupancy
  Hf  Hf0  1  0.49067200  0.84440497  1.00000004  1
  Pm  Pm1  1  0.99204101  0.67343197  0.75098803  1
  Bi  Bi2  1  0.49057300  0.32655899  0.74613603  1
  Ag  Ag3  1  0.49057300  0.32655899  0.25386401  1
  Xe  Xe4  1  0.99204101  0.67343197  0.24901201  1
  Cs  Cs5  1  0.99357301  0.17210699  0.50000002  1
  Cd  Cd6  1  0.99975201  0.17423699  1.00000004  1
  Pa  Pa7  1  0.49862900  0.81858297  0.50000002  1
  Er  Er8  1  0.89887801  0.89686097  1.00000004  1
  Cd  Cd9  1  0.31220700  0.18052199  1.00000004  1
  Mg  Mg10  1  0.88929001  0.31800899  0.79840703  1
  Mg  Mg11  1  0.39030300  0.68695197  0.70699503  1
  Sm  Sm12  1  0.81103300  0.80077797  0.50000002  1
  La  La13  1  0.41343600  0.10260200  0.50000002  1
  F  F14  1  0.39030300  0.68695197  0.29300501  1
  Br  Br15  1  0.88929001  0.31800899  0.20159301  1
