# generated using pymatgen
data_MgReNeNaPuNpBeCrTcB
_symmetry_space_group_name_H-M   'P 1'
_cell_length_a   6.39425230
_cell_length_b   6.39425230
_cell_length_c   6.39425230
_cell_angle_alpha   60.00000000
_cell_angle_beta   60.00000000
_cell_angle_gamma   60.00000000
_symmetry_Int_Tables_number   1
_chemical_formula_structural   MgReNeNaPuNpBeCrTcB
_chemical_formula_sum   'Mg1 Re1 Ne1 Na1 Pu1 Np1 Be1 Cr1 Tc1 B1'
_cell_volume   184.86483493
_cell_formula_units_Z   1
loop_
 _symmetry_equiv_pos_site_id
 _symmetry_equiv_pos_as_xyz
  1  'x, y, z'
loop_
 _atom_site_type_symbol
 _atom_site_label
 _atom_site_symmetry_multiplicity
 _atom_site_fract_x
 _atom_site_fract_y
 _atom_site_fract_z
 _atom_site_occupancy
  Mg  Mg0  1  0.24999999  0.24999999  0.24999999  1
  Re  Re1  1  0.74999997  0.74999997  0.74999997  1
  Ne  Ne2  1  0.49999998  0.49999998  0.49999998  1
  B  B3  1  0.00000000  0.00000000  0.00000000  1
  Np  Np4  1  0.22886199  0.77113797  0.22886199  1
  Cr  Cr5  1  0.22886199  0.22886199  0.77113797  1
  Be  Be6  1  0.77113797  0.22886199  0.77113797  1
  Tc  Tc7  1  0.22886199  0.77113797  0.77113797  1
  Pu  Pu8  1  0.77113797  0.22886199  0.22886199  1
  Na  Na9  1  0.77113797  0.77113797  0.22886199  1
