# generated using pymatgen
data_BaSrCaCeGdZrAlTlVCrCoCuReTcHPb
_symmetry_space_group_name_H-M   'P 1'
_cell_length_a   3.05267310
_cell_length_b   5.07832384
_cell_length_c   9.86334229
_cell_angle_alpha   103.10762787
_cell_angle_beta   90.00000000
_cell_angle_gamma   90.00000000
_symmetry_Int_Tables_number   1
_chemical_formula_structural   BaSrCaCeGdZrAlTlVCrCoCuReTcHPb
_chemical_formula_sum
'Ba1 Sr1 Ca1 Ce1 Gd1 Zr1 Al1 Tl1 V1 Cr1 Co1 Tc1 Cu1 Re1 H1 Pb1'
_cell_volume   148.92224640
_cell_formula_units_Z   1
loop_
 _symmetry_equiv_pos_site_id
 _symmetry_equiv_pos_as_xyz
  1  'x, y, z'
loop_
 _atom_site_type_symbol
 _atom_site_label
 _atom_site_symmetry_multiplicity
 _atom_site_fract_x
 _atom_site_fract_y
 _atom_site_fract_z
 _atom_site_occupancy
  Zr  Zr0  1  0.24999999  0.12538201  0.62450702  1
  Tl  Tl1  1  0.74999998  0.37526102  0.87428503  1
  Sr  Sr2  1  0.24999999  0.62473903  0.12571502  1
  Gd  Gd3  1  0.74999998  0.87461804  0.37549303  1
  Al  Al4  1  0.24999999  0.87645604  0.87355804  1
  Ce  Ce5  1  0.74999998  0.12354401  0.12644201  1
  Tc  Tc6  1  0.24999999  0.37487402  0.37688602  1
  V  V7  1  0.74999998  0.62512603  0.62311403  1
  Pb  Pb8  1  0.24999999  0.52404002  0.74874403  1
  Co  Co9  1  0.74999998  0.77040203  0.00276802  1
  Ca  Ca10  1  0.24999999  0.01924700  0.25452501  1
  Cr  Cr11  1  0.74999998  0.27324001  0.50068502  1
  Ba  Ba12  1  0.24999999  0.72676003  0.49931503  1
  H  H13  1  0.74999998  0.98075304  0.74547504  1
  Cu  Cu14  1  0.24999999  0.22959801  0.99723203  1
  Re  Re15  1  0.74999998  0.47596002  0.25125602  1
