# generated using pymatgen
data_CePm2SmAlTcBBr
_symmetry_space_group_name_H-M   'P 1'
_cell_length_a   4.26589298
_cell_length_b   4.26725817
_cell_length_c   8.58341026
_cell_angle_alpha   75.60674286
_cell_angle_beta   90.00000000
_cell_angle_gamma   90.00000000
_symmetry_Int_Tables_number   1
_chemical_formula_structural   CePm2SmAlTcBBr
_chemical_formula_sum   'Ce1 Pm2 Sm1 Al1 Tc1 B1 Br1'
_cell_volume   151.34524464
_cell_formula_units_Z   1
loop_
 _symmetry_equiv_pos_site_id
 _symmetry_equiv_pos_as_xyz
  1  'x, y, z'
loop_
 _atom_site_type_symbol
 _atom_site_label
 _atom_site_symmetry_multiplicity
 _atom_site_fract_x
 _atom_site_fract_y
 _atom_site_fract_z
 _atom_site_occupancy
  B  B0  1  0.25000000  0.60786498  0.78427002  1
  Br  Br1  1  0.75000000  0.39213498  0.21572901  1
  Tc  Tc2  1  0.25000000  0.81828497  0.36343001  1
  Pm  Pm3  1  0.75000000  0.18171499  0.63657002  1
  Ce  Ce4  1  0.25000000  0.95857596  0.08284800  1
  Pm  Pm5  1  0.75000000  0.04142400  0.91715202  1
  Sm  Sm6  1  0.25000000  0.25069399  0.49861201  1
  Al  Al7  1  0.75000000  0.74930597  0.50138801  1
