# generated using pymatgen
data_CsPrNdSmHfNiAgIrPdXe
_symmetry_space_group_name_H-M   'P 1'
_cell_length_a   8.25491047
_cell_length_b   8.25491047
_cell_length_c   8.25491047
_cell_angle_alpha   60.00000000
_cell_angle_beta   60.00000000
_cell_angle_gamma   60.00000000
_symmetry_Int_Tables_number   1
_chemical_formula_structural   CsPrNdSmHfNiAgIrPdXe
_chemical_formula_sum   'Cs1 Pr1 Nd1 Sm1 Hf1 Ni1 Ag1 Ir1 Pd1 Xe1'
_cell_volume   397.76091340
_cell_formula_units_Z   1
loop_
 _symmetry_equiv_pos_site_id
 _symmetry_equiv_pos_as_xyz
  1  'x, y, z'
loop_
 _atom_site_type_symbol
 _atom_site_label
 _atom_site_symmetry_multiplicity
 _atom_site_fract_x
 _atom_site_fract_y
 _atom_site_fract_z
 _atom_site_occupancy
  Ag  Ag0  1  0.24999999  0.24999999  0.24999999  1
  Xe  Xe1  1  0.74999998  0.74999998  0.74999998  1
  Cs  Cs2  1  0.49999999  0.49999999  0.49999999  1
  Nd  Nd3  1  0.00000000  0.00000000  0.00000000  1
  Ir  Ir4  1  0.23457199  0.76542798  0.23457199  1
  Ni  Ni5  1  0.23457199  0.23457199  0.76542798  1
  Pr  Pr6  1  0.76542798  0.23457199  0.76542798  1
  Hf  Hf7  1  0.23457199  0.76542798  0.76542798  1
  Pd  Pd8  1  0.76542798  0.23457199  0.23457199  1
  Sm  Sm9  1  0.76542798  0.76542798  0.23457199  1
