# generated using pymatgen
data_LiCeNpMn2Nb2TlZnGaCuSbPIrXeBrNNe
_symmetry_space_group_name_H-M   'P 1'
_cell_length_a   5.17999077
_cell_length_b   5.18384314
_cell_length_c   9.17215347
_cell_angle_alpha   89.87913513
_cell_angle_beta   90.00000000
_cell_angle_gamma   90.00000000
_symmetry_Int_Tables_number   1
_chemical_formula_structural   LiCeNpMn2Nb2TlZnGaCuSbPIrXeBrNNe
_chemical_formula_sum
'Li1 Ce1 Np1 Mn2 Nb2 Tl1 Zn1 Ga1 Cu1 Sb1 P1 Ir1 Xe1 Br1 N1 Ne1'
_cell_volume   246.29249805
_cell_formula_units_Z   1
loop_
 _symmetry_equiv_pos_site_id
 _symmetry_equiv_pos_as_xyz
  1  'x, y, z'
loop_
 _atom_site_type_symbol
 _atom_site_label
 _atom_site_symmetry_multiplicity
 _atom_site_fract_x
 _atom_site_fract_y
 _atom_site_fract_z
 _atom_site_occupancy
  Zn  Zn0  1  0.25000001  0.93619998  0.16215197  1
  Mn  Mn1  1  0.41131002  0.65479498  0.16304298  1
  Ir  Ir2  1  0.08869000  0.65479498  0.16304298  1
  Nb  Nb3  1  0.42323502  0.84985898  0.40301197  1
  Np  Np4  1  0.25000001  0.54985599  0.40316898  1
  P  P5  1  0.07676500  0.84985898  0.40301197  1
  Ce  Ce6  1  0.75000003  0.06380000  0.83784799  1
  Xe  Xe7  1  0.58869003  0.34520499  0.83695698  1
  Cu  Cu8  1  0.91131004  0.34520499  0.83695698  1
  Li  Li9  1  0.57676503  0.15014100  0.59698799  1
  Mn  Mn10  1  0.75000003  0.45014399  0.59683098  1
  Br  Br11  1  0.92323504  0.15014100  0.59698799  1
  Tl  Tl12  1  0.25000001  0.74972198  0.36532297  1
  Sb  Sb13  1  0.75000003  0.25027799  0.63467699  1
  Nb  Nb14  1  0.25000001  0.74603098  0.81055997  1
  N  N15  1  0.75000003  0.25396899  0.18943999  1
  Ga  Ga16  1  0.25000001  0.75024398  0.20303797  1
  Ne  Ne17  1  0.75000003  0.24975599  0.79696199  1
