# generated using pymatgen
data_HoPt2SeHeRbTbMgZrCrCdHgBTeAsIClNe
_symmetry_space_group_name_H-M   'P 1'
_cell_length_a   5.10026789
_cell_length_b   5.10026836
_cell_length_c   9.63709354
_cell_angle_alpha   90.00000000
_cell_angle_beta   90.00000000
_cell_angle_gamma   120.00000000
_symmetry_Int_Tables_number   1
_chemical_formula_structural   HoPt2SeHeRbTbMgZrCrCdHgBTeAsIClNe
_chemical_formula_sum
'Ho1 Pt2 Se1 He1 Rb1 Tb1 Mg1 Zr1 Cr1 Cd1 Hg1 B1 Te1 As1 I1 Cl1 Ne1'
_cell_volume   217.10144902
_cell_formula_units_Z   1
loop_
 _symmetry_equiv_pos_site_id
 _symmetry_equiv_pos_as_xyz
  1  'x, y, z'
loop_
 _atom_site_type_symbol
 _atom_site_label
 _atom_site_symmetry_multiplicity
 _atom_site_fract_x
 _atom_site_fract_y
 _atom_site_fract_z
 _atom_site_occupancy
  Pt  Pt0  1  0.66666669  0.33333334  0.75000004  1
  Se  Se1  1  0.33333337  0.66666667  0.25000001  1
  He  He2  1  0.00000000  0.00000000  0.00000000  1
  Cd  Cd3  1  0.00000000  0.00000000  0.50000002  1
  B  B4  1  0.33333337  0.66666667  0.75000004  1
  Cl  Cl5  1  0.66666669  0.33333334  0.25000001  1
  Ho  Ho6  1  0.02392603  0.65217700  0.64028603  1
  Tb  Tb7  1  0.34782302  0.37174900  0.64028603  1
  I  I8  1  0.97607404  0.34782300  0.35971402  1
  Mg  Mg9  1  0.37174902  0.34782300  0.14028601  1
  Ne  Ne10  1  0.65217702  0.02392600  0.14028601  1
  Pt  Pt11  1  0.37174901  0.02392600  0.35971402  1
  Cr  Cr12  1  0.62825104  0.65217700  0.85971404  1
  Hg  Hg13  1  0.02392602  0.37174900  0.85971404  1
  Rb  Rb14  1  0.97607405  0.62825100  0.14028601  1
  As  As15  1  0.65217704  0.62825100  0.35971402  1
  Te  Te16  1  0.62825105  0.97607401  0.64028603  1
  Zr  Zr17  1  0.34782305  0.97607401  0.85971404  1
