# generated using pymatgen
data_NdSmEuGdPaSiNiGeOsPt
_symmetry_space_group_name_H-M   'P 1'
_cell_length_a   6.52214003
_cell_length_b   7.74002218
_cell_length_c   8.92386341
_cell_angle_alpha   115.70069122
_cell_angle_beta   111.43420410
_cell_angle_gamma   90.00000000
_symmetry_Int_Tables_number   1
_chemical_formula_structural   NdSmEuGdPaSiNiGeOsPt
_chemical_formula_sum   'Nd1 Sm1 Eu1 Gd1 Pa1 Si1 Ni1 Ge1 Os1 Pt1'
_cell_volume   371.04345488
_cell_formula_units_Z   1
loop_
 _symmetry_equiv_pos_site_id
 _symmetry_equiv_pos_as_xyz
  1  'x, y, z'
loop_
 _atom_site_type_symbol
 _atom_site_label
 _atom_site_symmetry_multiplicity
 _atom_site_fract_x
 _atom_site_fract_y
 _atom_site_fract_z
 _atom_site_occupancy
  Eu  Eu0  1  0.64505201  0.31333400  0.29010504  1
  Ge  Ge1  1  0.14505305  0.97677102  0.29010608  1
  Ni  Ni2  1  0.85494700  0.02322900  0.70989403  1
  Pa  Pa3  1  0.35494803  0.68666601  0.70989507  1
  Nd  Nd4  1  0.75000002  0.50000001  0.00000005  1
  Si  Si5  1  0.25000002  0.50000001  0.00000004  1
  Sm  Sm6  1  0.59096003  0.74365501  0.18192007  1
  Gd  Gd7  1  0.40904001  0.25634500  0.81808004  1
  Pt  Pt8  1  0.90904003  0.56173501  0.81808007  1
  Os  Os9  1  0.09096002  0.43826501  0.18192004  1
