# generated using pymatgen
data_KSmAlNiBiPdRuPbBr
_symmetry_space_group_name_H-M   'P 1'
_cell_length_a   3.55672789
_cell_length_b   3.55672741
_cell_length_c   32.58847809
_cell_angle_alpha   90.00000000
_cell_angle_beta   90.00000000
_cell_angle_gamma   120.00000763
_symmetry_Int_Tables_number   1
_chemical_formula_structural   KSmAlNiBiPdRuPbBr
_chemical_formula_sum   'K1 Sm1 Al1 Ni1 Bi1 Pd1 Ru1 Pb1 Br1'
_cell_volume   357.02275673
_cell_formula_units_Z   1
loop_
 _symmetry_equiv_pos_site_id
 _symmetry_equiv_pos_as_xyz
  1  'x, y, z'
loop_
 _atom_site_type_symbol
 _atom_site_label
 _atom_site_symmetry_multiplicity
 _atom_site_fract_x
 _atom_site_fract_y
 _atom_site_fract_z
 _atom_site_occupancy
  Br  Br0  1  0.00000000  0.00000000  0.94426400  1
  Al  Al1  1  0.66666670  0.33333333  0.28704600  1
  Pd  Pd2  1  0.66666670  0.33333333  0.82442100  1
  K  K3  1  0.66666670  0.33333333  0.17557900  1
  Ni  Ni4  1  0.66666670  0.33333333  0.71295400  1
  Pb  Pb5  1  0.00000000  0.00000000  0.05573600  1
  Ru  Ru6  1  0.00000000  0.00000000  0.23134400  1
  Sm  Sm7  1  0.00000000  0.00000000  0.76865600  1
  Bi  Bi8  1  0.66666670  0.33333333  -0.00000000  1
