# generated using pymatgen
data_NdPuThMgZr2PaBeCrGaFeBi2HPtSe2INe2
_symmetry_space_group_name_H-M   'P 1'
_cell_length_a   5.19441700
_cell_length_b   5.46808290
_cell_length_c   7.54905939
_cell_angle_alpha   85.80796814
_cell_angle_beta   89.91940308
_cell_angle_gamma   89.87445068
_symmetry_Int_Tables_number   1
_chemical_formula_structural   NdPuThMgZr2PaBeCrGaFeBi2HPtSe2INe2
_chemical_formula_sum
'Nd1 Pu1 Th1 Mg1 Zr2 Pa1 Be1 Cr1 Ga1 Fe1 Bi2 H1 Pt1 Se2 I1 Ne2'
_cell_volume   213.84540189
_cell_formula_units_Z   1
loop_
 _symmetry_equiv_pos_site_id
 _symmetry_equiv_pos_as_xyz
  1  'x, y, z'
loop_
 _atom_site_type_symbol
 _atom_site_label
 _atom_site_symmetry_multiplicity
 _atom_site_fract_x
 _atom_site_fract_y
 _atom_site_fract_z
 _atom_site_occupancy
  Se  Se0  1  0.99803801  0.58993802  0.26684301  1
  Mg  Mg1  1  0.50349100  0.06371100  0.81074098  1
  Bi  Bi2  1  0.00607701  0.56084902  0.79972801  1
  I  I3  1  0.49144200  0.02088900  0.24112699  1
  Pu  Pu4  1  0.99847900  0.00174400  0.99832397  1
  Se  Se5  1  0.50258701  0.50684902  0.50497301  1
  Ne  Ne6  1  0.00453700  0.00740900  0.50132799  1
  Th  Th7  1  0.49735401  0.49929102  0.00309802  1
  Zr  Zr8  1  0.68871801  0.81460903  0.42605302  1
  Cr  Cr9  1  0.88069302  0.99537604  0.73775403  1
  Ne  Ne10  1  0.68463000  0.19431401  0.04805400  1
  Ga  Ga11  1  0.82912101  0.31277001  0.42962900  1
  H  H12  1  0.20932900  0.30228301  0.93534200  1
  Nd  Nd13  1  0.63421301  0.49203502  0.75073300  1
  Be  Be14  1  0.36879601  0.48601002  0.24788301  1
  Pa  Pa15  1  0.79813501  0.68647002  0.05045602  1
  Fe  Fe16  1  0.16852901  0.67519602  0.56015602  1
  Pt  Pt17  1  0.30324701  0.79079403  0.93820102  1
  Bi  Bi18  1  0.11166702  0.97829504  0.25770304  1
  Zr  Zr19  1  0.32091300  0.16356801  0.56307700  1
