# generated using pymatgen
data_Ca2Th2InAsPbAuXeNHe2
_symmetry_space_group_name_H-M   'P 1'
_cell_length_a   5.09112406
_cell_length_b   5.09112263
_cell_length_c   8.92056179
_cell_angle_alpha   90.00000000
_cell_angle_beta   90.00000000
_cell_angle_gamma   120.00000763
_symmetry_Int_Tables_number   1
_chemical_formula_structural   Ca2Th2InAsPbAuXeNHe2
_chemical_formula_sum   'Ca2 Th2 In1 As1 Pb1 Au1 Xe1 N1 He2'
_cell_volume   200.23963351
_cell_formula_units_Z   1
loop_
 _symmetry_equiv_pos_site_id
 _symmetry_equiv_pos_as_xyz
  1  'x, y, z'
loop_
 _atom_site_type_symbol
 _atom_site_label
 _atom_site_symmetry_multiplicity
 _atom_site_fract_x
 _atom_site_fract_y
 _atom_site_fract_z
 _atom_site_occupancy
  Th  Th0  1  0.00000000  0.00000000  0.00000000  1
  Pb  Pb1  1  0.00000000  0.00000000  0.50000001  1
  In  In2  1  0.33333330  0.66666664  0.19810500  1
  N  N3  1  0.66666665  0.33333332  0.80189502  1
  Au  Au4  1  0.07209999  0.32181199  0.13788700  1
  Xe  Xe5  1  0.67818796  0.75028797  0.13788700  1
  He  He6  1  0.32181199  0.07210000  0.86211302  1
  Ca  Ca7  1  0.24971196  0.92789996  0.13788700  1
  Th  Th8  1  0.75028796  0.67818797  0.86211302  1
  Ca  Ca9  1  0.92789998  0.24971199  0.86211302  1
  He  He10  1  0.33333330  0.66666664  0.38265701  1
  As  As11  1  0.66666665  0.33333332  0.61734301  1
