# generated using pymatgen
data_PmSmGdHfThNpBeCdCuGeSbTeIr2OsNe
_symmetry_space_group_name_H-M   'P 1'
_cell_length_a   5.35312700
_cell_length_b   5.35312700
_cell_length_c   10.06038380
_cell_angle_alpha   90.00000000
_cell_angle_beta   90.00000000
_cell_angle_gamma   90.00000000
_symmetry_Int_Tables_number   1
_chemical_formula_structural   PmSmGdHfThNpBeCdCuGeSbTeIr2OsNe
_chemical_formula_sum
'Pm1 Sm1 Gd1 Hf1 Th1 Np1 Be1 Cd1 Cu1 Ge1 Sb1 Te1 Ir2 Os1 Ne1'
_cell_volume   288.29004326
_cell_formula_units_Z   1
loop_
 _symmetry_equiv_pos_site_id
 _symmetry_equiv_pos_as_xyz
  1  'x, y, z'
loop_
 _atom_site_type_symbol
 _atom_site_label
 _atom_site_symmetry_multiplicity
 _atom_site_fract_x
 _atom_site_fract_y
 _atom_site_fract_z
 _atom_site_occupancy
  Np  Np0  1  0.50000000  0.50000000  0.50000001  1
  Hf  Hf1  1  0.50000000  0.50000000  0.00000000  1
  Be  Be2  1  0.00000000  0.00000000  0.25000001  1
  Ir  Ir3  1  0.00000000  0.00000000  0.75000002  1
  Os  Os4  1  0.74234900  0.25765100  0.25000001  1
  Gd  Gd5  1  0.25765100  0.74234900  0.25000001  1
  Te  Te6  1  0.74234900  0.74234900  0.75000002  1
  Ir  Ir7  1  0.25765100  0.25765100  0.75000002  1
  Sb  Sb8  1  0.17138000  0.19168500  0.38583901  1
  Sm  Sm9  1  0.82862000  0.80831500  0.38583901  1
  Th  Th10  1  0.17138000  0.80831500  0.88583902  1
  Ge  Ge11  1  0.82862000  0.19168500  0.88583902  1
  Ne  Ne12  1  0.19168500  0.82862000  0.61416101  1
  Cu  Cu13  1  0.80831500  0.17138000  0.61416101  1
  Cd  Cd14  1  0.80831500  0.82862000  0.11416100  1
  Pm  Pm15  1  0.19168500  0.17138000  0.11416100  1
