# generated using pymatgen
data_Pm2XeNeNdReSI
_symmetry_space_group_name_H-M   'P 1'
_cell_length_a   2.78873301
_cell_length_b   4.41104794
_cell_length_c   5.96742105
_cell_angle_alpha   90.00000000
_cell_angle_beta   90.00000000
_cell_angle_gamma   90.00000000
_symmetry_Int_Tables_number   1
_chemical_formula_structural   Pm2XeNeNdReSI
_chemical_formula_sum   'Pm2 Xe1 Ne1 Nd1 Re1 S1 I1'
_cell_volume   73.40664854
_cell_formula_units_Z   1
loop_
 _symmetry_equiv_pos_site_id
 _symmetry_equiv_pos_as_xyz
  1  'x, y, z'
loop_
 _atom_site_type_symbol
 _atom_site_label
 _atom_site_symmetry_multiplicity
 _atom_site_fract_x
 _atom_site_fract_y
 _atom_site_fract_z
 _atom_site_occupancy
  Pm  Pm0  1  0.50000000  0.78636801  0.76403799  1
  Xe  Xe1  1  0.00000000  0.28636800  0.23596200  1
  Ne  Ne2  1  0.00000000  0.32634000  0.74355699  1
  S  S3  1  0.50000000  0.82634001  0.25644300  1
  Nd  Nd4  1  0.50000000  0.03930100  0.34073300  1
  I  I5  1  0.00000000  0.53930101  0.65926699  1
  Pm  Pm6  1  0.50000000  0.53438101  0.14494400  1
  Re  Re7  1  0.00000000  0.03438100  0.85505599  1
