# generated using pymatgen
data_LaYNb2Sn2IrNeH
_symmetry_space_group_name_H-M   'P 1'
_cell_length_a   4.08148289
_cell_length_b   7.68257809
_cell_length_c   7.68257761
_cell_angle_alpha   120.00000000
_cell_angle_beta   90.00000000
_cell_angle_gamma   90.00000000
_symmetry_Int_Tables_number   1
_chemical_formula_structural   LaYNb2Sn2IrNeH
_chemical_formula_sum   'La1 Y1 Nb2 Sn2 Ir1 Ne1 H1'
_cell_volume   208.62317523
_cell_formula_units_Z   1
loop_
 _symmetry_equiv_pos_site_id
 _symmetry_equiv_pos_as_xyz
  1  'x, y, z'
loop_
 _atom_site_type_symbol
 _atom_site_label
 _atom_site_symmetry_multiplicity
 _atom_site_fract_x
 _atom_site_fract_y
 _atom_site_fract_z
 _atom_site_occupancy
  Nb  Nb0  1  1.00000003  0.40919198  0.40919197  1
  Sn  Sn1  1  -0.00000000  0.99999996  0.59080793  1
  Y  Y2  1  -0.00000000  0.59080798  0.99999994  1
  Sn  Sn3  1  0.50000001  0.75165097  0.75165094  1
  Nb  Nb4  1  0.50000001  0.99999996  0.24834894  1
  Ir  Ir5  1  0.50000001  0.24834899  -0.00000001  1
  Ne  Ne6  1  0.50000001  0.66666664  0.33333329  1
  H  H7  1  0.50000001  0.33333332  0.66666663  1
  La  La8  1  0.00000000  0.00000000  0.00000000  1
