# generated using pymatgen
data_FHeSmMnTcBTeIrPdI
_symmetry_space_group_name_H-M   'P 1'
_cell_length_a   8.38412666
_cell_length_b   8.38412666
_cell_length_c   8.38412666
_cell_angle_alpha   60.00000000
_cell_angle_beta   60.00000000
_cell_angle_gamma   60.00000000
_symmetry_Int_Tables_number   1
_chemical_formula_structural   FHeSmMnTcBTeIrPdI
_chemical_formula_sum   'F1 He1 Sm1 Mn1 Tc1 B1 Te1 Pd1 Ir1 I1'
_cell_volume   416.73357774
_cell_formula_units_Z   1
loop_
 _symmetry_equiv_pos_site_id
 _symmetry_equiv_pos_as_xyz
  1  'x, y, z'
loop_
 _atom_site_type_symbol
 _atom_site_label
 _atom_site_symmetry_multiplicity
 _atom_site_fract_x
 _atom_site_fract_y
 _atom_site_fract_z
 _atom_site_occupancy
  F  F0  1  0.25000001  0.25000001  0.25000001  1
  He  He1  1  0.75000002  0.75000002  0.75000002  1
  Pd  Pd2  1  0.00000000  0.00000000  0.00000000  1
  B  B3  1  0.50000002  0.50000002  0.50000002  1
  Mn  Mn4  1  0.24546001  0.75454002  0.24546001  1
  I  I5  1  0.24546001  0.24546001  0.75454002  1
  Sm  Sm6  1  0.75454002  0.24546001  0.75454002  1
  Tc  Tc7  1  0.24546001  0.75454002  0.75454002  1
  Ir  Ir8  1  0.75454002  0.24546001  0.24546001  1
  Te  Te9  1  0.75454002  0.75454002  0.24546001  1
