# generated using pymatgen
data_Rb2TlVReGe2BOsBr
_symmetry_space_group_name_H-M   'P 1'
_cell_length_a   7.82226706
_cell_length_b   7.82226706
_cell_length_c   7.82226706
_cell_angle_alpha   60.00000000
_cell_angle_beta   60.00000000
_cell_angle_gamma   60.00000000
_symmetry_Int_Tables_number   1
_chemical_formula_structural   Rb2TlVReGe2BOsBr
_chemical_formula_sum   'Rb2 Tl1 V1 Re1 Ge2 B1 Os1 Br1'
_cell_volume   338.44096039
_cell_formula_units_Z   1
loop_
 _symmetry_equiv_pos_site_id
 _symmetry_equiv_pos_as_xyz
  1  'x, y, z'
loop_
 _atom_site_type_symbol
 _atom_site_label
 _atom_site_symmetry_multiplicity
 _atom_site_fract_x
 _atom_site_fract_y
 _atom_site_fract_z
 _atom_site_occupancy
  Re  Re0  1  0.49999999  0.49999999  0.49999999  1
  Ge  Ge1  1  0.25000000  0.25000000  0.25000000  1
  Os  Os2  1  0.74999999  0.74999999  0.74999999  1
  Rb  Rb3  1  0.00000000  0.00000000  0.00000000  1
  Tl  Tl4  1  0.22980200  0.77019799  0.22980200  1
  B  B5  1  0.22980200  0.22980200  0.77019799  1
  V  V6  1  0.77019799  0.22980200  0.77019799  1
  Br  Br7  1  0.22980200  0.77019799  0.77019799  1
  Ge  Ge8  1  0.77019799  0.22980200  0.22980200  1
  Rb  Rb9  1  0.77019799  0.77019799  0.22980200  1
