# generated using pymatgen
data_BaCaCeTmNbTlTcI
_symmetry_space_group_name_H-M   'P 1'
_cell_length_a   7.05413723
_cell_length_b   7.05413723
_cell_length_c   7.05413723
_cell_angle_alpha   75.48522949
_cell_angle_beta   75.40866852
_cell_angle_gamma   119.83127594
_symmetry_Int_Tables_number   1
_chemical_formula_structural   BaCaCeTmNbTlTcI
_chemical_formula_sum   'Ba1 Ca1 Ce1 Tm1 Nb1 Tl1 Tc1 I1'
_cell_volume   263.48678474
_cell_formula_units_Z   1
loop_
 _symmetry_equiv_pos_site_id
 _symmetry_equiv_pos_as_xyz
  1  'x, y, z'
loop_
 _atom_site_type_symbol
 _atom_site_label
 _atom_site_symmetry_multiplicity
 _atom_site_fract_x
 _atom_site_fract_y
 _atom_site_fract_z
 _atom_site_occupancy
  Tc  Tc0  1  0.50000007  0.50000005  -0.00000005  1
  Tm  Tm1  1  0.00000005  0.50000005  0.49999997  1
  Nb  Nb2  1  0.00000000  0.00000000  0.00000000  1
  Ba  Ba3  1  0.50000001  0.00000000  0.50000001  1
  Ca  Ca4  1  0.09347911  0.94308310  0.50010892  1
  Tl  Tl5  1  0.44319208  0.59358806  0.49989096  1
  I  I6  1  0.90652107  0.40641204  0.15039596  1
  Ce  Ce7  1  0.55680802  0.05691701  0.84960402  1
