# generated using pymatgen
data_HeRbLiLaTbYbPmSmGdDyUZnNi2Ag2SnPICl
_symmetry_space_group_name_H-M   'P 1'
_cell_length_a   4.72322798
_cell_length_b   6.45574999
_cell_length_c   6.45574999
_cell_angle_alpha   93.98616028
_cell_angle_beta   90.00000000
_cell_angle_gamma   90.00000000
_symmetry_Int_Tables_number   1
_chemical_formula_structural   HeRbLiLaTbYbPmSmGdDyUZnNi2Ag2SnPICl
_chemical_formula_sum
'He1 Rb1 Li1 La1 Tb1 Yb1 Pm1 Sm1 Gd1 Dy1 U1 Zn1 Ni2 Ag2 Sn1 P1 I1 Cl1'
_cell_volume   196.37239065
_cell_formula_units_Z   1
loop_
 _symmetry_equiv_pos_site_id
 _symmetry_equiv_pos_as_xyz
  1  'x, y, z'
loop_
 _atom_site_type_symbol
 _atom_site_label
 _atom_site_symmetry_multiplicity
 _atom_site_fract_x
 _atom_site_fract_y
 _atom_site_fract_z
 _atom_site_occupancy
  He  He0  1  0.47376400  0.54117600  0.04931197  1
  Li  Li1  1  0.55853800  0.71554700  0.71981097  1
  Ni  Ni2  1  0.05853800  0.78018900  0.78445296  1
  Ag  Ag3  1  0.52623600  0.95068800  0.45882395  1
  U  U4  1  0.50000000  0.98217400  0.01782595  1
  Cl  Cl5  1  0.02623600  0.04117600  0.54931200  1
  I  I6  1  0.94146200  0.21554700  0.21981099  1
  Pm  Pm7  1  0.44146200  0.28018900  0.28445299  1
  Ag  Ag8  1  0.97376400  0.45068800  0.95882398  1
  P  P9  1  -0.00000000  0.48217400  0.51782598  1
  Rb  Rb10  1  -0.00000000  0.75662200  0.24337796  1
  La  La11  1  0.50000000  0.25662200  0.74337799  1
  Tb  Tb12  1  0.27578400  0.49967700  0.76199198  1
  Sn  Sn13  1  0.77578400  0.73800800  0.00032296  1
  Ni  Ni14  1  0.83959500  0.76593500  0.51369296  1
  Gd  Gd15  1  0.33959500  0.98630700  0.73406495  1
  Sm  Sm16  1  0.22421600  0.99967700  0.26199195  1
  Dy  Dy17  1  0.66040500  0.26593500  0.01369299  1
  Zn  Zn18  1  0.72421600  0.23800800  0.50032299  1
  Yb  Yb19  1  0.16040500  0.48630700  0.23406498  1
