# generated using pymatgen
data_CsLaNbCdFeHg2SbHRuWCl
_symmetry_space_group_name_H-M   'P 1'
_cell_length_a   3.79164600
_cell_length_b   6.37656784
_cell_length_c   7.38875818
_cell_angle_alpha   90.00000000
_cell_angle_beta   90.00000000
_cell_angle_gamma   90.00000000
_symmetry_Int_Tables_number   1
_chemical_formula_structural   CsLaNbCdFeHg2SbHRuWCl
_chemical_formula_sum   'Cs1 La1 Nb1 Cd1 Fe1 Hg2 Sb1 H1 Ru1 W1 Cl1'
_cell_volume   178.64308982
_cell_formula_units_Z   1
loop_
 _symmetry_equiv_pos_site_id
 _symmetry_equiv_pos_as_xyz
  1  'x, y, z'
loop_
 _atom_site_type_symbol
 _atom_site_label
 _atom_site_symmetry_multiplicity
 _atom_site_fract_x
 _atom_site_fract_y
 _atom_site_fract_z
 _atom_site_occupancy
  Hg  Hg0  1  0.25000000  0.21984901  0.91357198  1
  Cl  Cl1  1  0.75000000  0.28015101  0.41357199  1
  Fe  Fe2  1  0.25000000  0.71984902  0.58642799  1
  H  H3  1  0.75000000  0.78015102  0.08642800  1
  Hg  Hg4  1  0.75000000  0.13706400  0.06826200  1
  Cs  Cs5  1  0.25000000  0.36293601  0.56826199  1
  Nb  Nb6  1  0.75000000  0.63706402  0.43173799  1
  Cd  Cd7  1  0.25000000  0.86293602  0.93173798  1
  La  La8  1  0.75000000  0.04284200  0.66075398  1
  Sb  Sb9  1  0.25000000  0.45715801  0.16075400  1
  W  W10  1  0.75000000  0.54284201  0.83924598  1
  Ru  Ru11  1  0.25000000  0.95715802  0.33924599  1
