# generated using pymatgen
data_CsTbPrYTmLuPaTaGa2FeSiPdNFNe
_symmetry_space_group_name_H-M   'P 1'
_cell_length_a   5.81724215
_cell_length_b   5.82929897
_cell_length_c   13.09367847
_cell_angle_alpha   88.73968506
_cell_angle_beta   87.47352600
_cell_angle_gamma   60.06839752
_symmetry_Int_Tables_number   1
_chemical_formula_structural   CsTbPrYTmLuPaTaGa2FeSiPdNFNe
_chemical_formula_sum
'Cs1 Tb1 Pr1 Y1 Tm1 Lu1 Ta1 Pa1 Ga2 Fe1 Si1 Pd1 N1 F1 Ne1'
_cell_volume   384.41677464
_cell_formula_units_Z   1
loop_
 _symmetry_equiv_pos_site_id
 _symmetry_equiv_pos_as_xyz
  1  'x, y, z'
loop_
 _atom_site_type_symbol
 _atom_site_label
 _atom_site_symmetry_multiplicity
 _atom_site_fract_x
 _atom_site_fract_y
 _atom_site_fract_z
 _atom_site_occupancy
  Pd  Pd0  1  0.87040097  0.25919801  1.00000003  1
  Si  Si1  1  0.12959899  0.74080203  0.00000002  1
  F  F2  1  0.81336697  0.37326601  0.50000003  1
  Ga  Ga3  1  0.18663299  0.62673403  0.50000003  1
  Tm  Tm4  1  0.16421400  0.00000000  0.59700601  1
  N  N5  1  0.83578597  1.00000004  0.40299405  1
  Pr  Pr6  1  0.84475598  0.00000000  0.86749602  1
  Cs  Cs7  1  0.15524399  1.00000004  0.13250403  1
  Y  Y8  1  0.47858798  0.35293201  0.10466402  1
  Ta  Ta9  1  0.83151997  0.64706803  0.10466403  1
  Lu  Lu10  1  0.52141198  0.64706803  0.89533604  1
  Fe  Fe11  1  0.16847999  0.35293201  0.89533602  1
  Ne  Ne12  1  0.50158198  0.32842501  0.61947402  1
  Tb  Tb13  1  0.83000697  0.67157503  0.61947404  1
  Ga  Ga14  1  0.49841798  0.67157503  0.38052603  1
  Pa  Pa15  1  0.16999299  0.32842501  0.38052602  1
