# generated using pymatgen
data_BaLiAcLaPmYHoZrPaTiCrCdCoTcNiSnPO
_symmetry_space_group_name_H-M   'P 1'
_cell_length_a   5.93197393
_cell_length_b   6.59917307
_cell_length_c   6.59917307
_cell_angle_alpha   90.00000000
_cell_angle_beta   90.00000000
_cell_angle_gamma   90.00000000
_symmetry_Int_Tables_number   1
_chemical_formula_structural   BaLiAcLaPmYHoZrPaTiCrCdCoTcNiSnPO
_chemical_formula_sum
'Ba1 Li1 Ac1 La1 Pm1 Y1 Ho1 Zr1 Pa1 Ti1 Cr1 Cd1 Co1 Tc1 Ni1 Sn1 P1 O1'
_cell_volume   258.33203823
_cell_formula_units_Z   1
loop_
 _symmetry_equiv_pos_site_id
 _symmetry_equiv_pos_as_xyz
  1  'x, y, z'
loop_
 _atom_site_type_symbol
 _atom_site_label
 _atom_site_symmetry_multiplicity
 _atom_site_fract_x
 _atom_site_fract_y
 _atom_site_fract_z
 _atom_site_occupancy
  P  P0  1  1.00000001  0.49999999  0.49999999  1
  Li  Li1  1  0.00000000  0.00000000  0.00000000  1
  Zr  Zr2  1  0.50000001  0.67391699  0.82608299  1
  Co  Co3  1  0.50000001  0.82608299  0.32608300  1
  Cd  Cd4  1  0.50000001  0.17391700  0.67391699  1
  Pm  Pm5  1  0.50000001  0.32608300  0.17391700  1
  Sn  Sn6  1  1.00000001  0.49999999  0.00000000  1
  Cr  Cr7  1  1.00000001  0.00000000  0.49999999  1
  Ti  Ti8  1  0.50000001  0.49999999  0.49999999  1
  Ni  Ni9  1  0.50000001  0.00000000  0.00000000  1
  Y  Y10  1  0.74014301  0.14020500  0.35979500  1
  Ba  Ba11  1  0.74014301  0.85979499  0.64020499  1
  O  O12  1  0.74014301  0.64020499  0.14020500  1
  Tc  Tc13  1  0.74014301  0.35979500  0.85979499  1
  Ac  Ac14  1  0.25985700  0.85979499  0.64020499  1
  Pa  Pa15  1  0.25985700  0.64020499  0.14020500  1
  La  La16  1  0.25985700  0.14020500  0.35979500  1
  Ho  Ho17  1  0.25985700  0.35979500  0.85979499  1
