# generated using pymatgen
data_CaAcUNbGa2HeNeNiS
_symmetry_space_group_name_H-M   'P 1'
_cell_length_a   8.12530708
_cell_length_b   8.12530708
_cell_length_c   8.12530708
_cell_angle_alpha   60.00000000
_cell_angle_beta   60.00000000
_cell_angle_gamma   60.00000000
_symmetry_Int_Tables_number   1
_chemical_formula_structural   CaAcUNbGa2HeNeNiS
_chemical_formula_sum   'Ca1 Ac1 U1 Nb1 Ga2 He1 Ne1 Ni1 S1'
_cell_volume   379.31878646
_cell_formula_units_Z   1
loop_
 _symmetry_equiv_pos_site_id
 _symmetry_equiv_pos_as_xyz
  1  'x, y, z'
loop_
 _atom_site_type_symbol
 _atom_site_label
 _atom_site_symmetry_multiplicity
 _atom_site_fract_x
 _atom_site_fract_y
 _atom_site_fract_z
 _atom_site_occupancy
  Nb  Nb0  1  0.25000001  0.25000001  0.25000001  1
  Ca  Ca1  1  0.75000003  0.75000003  0.75000003  1
  Ga  Ga2  1  0.50000002  0.50000002  0.50000002  1
  He  He3  1  0.00000000  0.00000000  0.00000000  1
  Ne  Ne4  1  0.24304101  0.75695903  0.24304101  1
  U  U5  1  0.24304001  0.24304201  0.75695903  1
  Ac  Ac6  1  0.75695903  0.24304101  0.75695903  1
  Ni  Ni7  1  0.24304101  0.75695903  0.75695903  1
  Ga  Ga8  1  0.75695803  0.24304101  0.24304201  1
  S  S9  1  0.75695903  0.75695903  0.24304101  1
