# generated using pymatgen
data_CaLa2MgTeAs2HPbN
_symmetry_space_group_name_H-M   'P 1'
_cell_length_a   7.51679659
_cell_length_b   7.51679659
_cell_length_c   7.51679659
_cell_angle_alpha   60.00000000
_cell_angle_beta   60.00000000
_cell_angle_gamma   60.00000000
_symmetry_Int_Tables_number   1
_chemical_formula_structural   CaLa2MgTeAs2HPbN
_chemical_formula_sum   'Ca1 La2 Mg1 Te1 As2 H1 Pb1 N1'
_cell_volume   300.31940595
_cell_formula_units_Z   1
loop_
 _symmetry_equiv_pos_site_id
 _symmetry_equiv_pos_as_xyz
  1  'x, y, z'
loop_
 _atom_site_type_symbol
 _atom_site_label
 _atom_site_symmetry_multiplicity
 _atom_site_fract_x
 _atom_site_fract_y
 _atom_site_fract_z
 _atom_site_occupancy
  La  La0  1  0.25000001  0.25000001  0.25000001  1
  As  As1  1  0.75000002  0.75000002  0.75000002  1
  La  La2  1  0.50000001  0.50000001  0.50000001  1
  Ca  Ca3  1  0.00000000  0.00000000  0.00000000  1
  Pb  Pb4  1  0.25913501  0.74086502  0.25913501  1
  N  N5  1  0.25913501  0.25913501  0.74086502  1
  H  H6  1  0.74086502  0.25913501  0.74086502  1
  Mg  Mg7  1  0.25913501  0.74086502  0.74086502  1
  Te  Te8  1  0.74086502  0.25913501  0.25913501  1
  As  As9  1  0.74086502  0.74086502  0.25913501  1
