# generated using pymatgen
data_NaSrCaTb2NdYHoLuBeCrGaCuNiHgAsRuPbBrO
_symmetry_space_group_name_H-M   'P 1'
_cell_length_a   5.37268019
_cell_length_b   5.78657103
_cell_length_c   10.91278362
_cell_angle_alpha   90.00000000
_cell_angle_beta   90.00000000
_cell_angle_gamma   90.00000000
_symmetry_Int_Tables_number   1
_chemical_formula_structural   NaSrCaTb2NdYHoLuBeCrGaCuNiHgAsRuPbBrO
_chemical_formula_sum
;
Na1 Sr1 Ca1 Tb2 Nd1 Y1 Ho1 Lu1 Be1 Cr1 Ga1 Cu1 Ni1 Hg1 As1 Ru1 Pb1 Br1
O1
;
_cell_volume   339.27184608
_cell_formula_units_Z   1
loop_
 _symmetry_equiv_pos_site_id
 _symmetry_equiv_pos_as_xyz
  1  'x, y, z'
loop_
 _atom_site_type_symbol
 _atom_site_label
 _atom_site_symmetry_multiplicity
 _atom_site_fract_x
 _atom_site_fract_y
 _atom_site_fract_z
 _atom_site_occupancy
  Na  Na0  1  0.05769200  0.75000000  0.89478003  1
  Lu  Lu1  1  0.05769200  0.25000000  0.60522002  1
  Pb  Pb2  1  0.94230797  0.25000000  0.10522000  1
  Ga  Ga3  1  0.94230797  0.75000000  0.39478001  1
  Sr  Sr4  1  0.48232598  0.75000000  0.16120301  1
  Nd  Nd5  1  0.48232598  0.25000000  0.33879701  1
  Br  Br6  1  0.51767398  0.25000000  0.83879703  1
  Ru  Ru7  1  0.51767398  0.75000000  0.66120302  1
  As  As8  1  0.38194399  0.75000000  0.52373802  1
  Tb  Tb9  1  0.38194399  0.25000000  0.97626203  1
  Ho  Ho10  1  0.61805598  0.25000000  0.47626202  1
  Be  Be11  1  0.61805598  0.75000000  0.02373800  1
  Ni  Ni12  1  0.82971697  0.75000000  0.64726602  1
  Cr  Cr13  1  0.82971697  0.25000000  0.85273403  1
  O  O14  1  0.17028299  0.25000000  0.35273401  1
  Y  Y15  1  0.17028299  0.75000000  0.14726601  1
  Hg  Hg16  1  0.59029998  0.00000000  0.25000001  1
  Cu  Cu17  1  0.40969999  0.50000000  0.75000003  1
  Ca  Ca18  1  0.40969999  0.00000000  0.75000003  1
  Tb  Tb19  1  0.59029998  0.50000000  0.25000001  1
