# generated using pymatgen
data_NaPrYS
_symmetry_space_group_name_H-M   'P 1'
_cell_length_a   3.91591811
_cell_length_b   3.91591811
_cell_length_c   4.85788345
_cell_angle_alpha   113.76884460
_cell_angle_beta   113.76884460
_cell_angle_gamma   90.00000000
_symmetry_Int_Tables_number   1
_chemical_formula_structural   NaPrYS
_chemical_formula_sum   'Na1 Pr1 Y1 S1'
_cell_volume   61.20684337
_cell_formula_units_Z   1
loop_
 _symmetry_equiv_pos_site_id
 _symmetry_equiv_pos_as_xyz
  1  'x, y, z'
loop_
 _atom_site_type_symbol
 _atom_site_label
 _atom_site_symmetry_multiplicity
 _atom_site_fract_x
 _atom_site_fract_y
 _atom_site_fract_z
 _atom_site_occupancy
  Y  Y0  1  0.00000000  0.00000000  0.00000000  1
  Na  Na1  1  0.74999996  0.24999999  0.49999996  1
  S  S2  1  0.24999996  0.74999996  0.49999995  1
  Pr  Pr3  1  0.49999996  0.49999997  -0.00000004  1
