# generated using pymatgen
data_RbSrNdErMnBe2VCrCdCoCuMoIKrCl
_symmetry_space_group_name_H-M   'P 1'
_cell_length_a   3.09567404
_cell_length_b   3.09567451
_cell_length_c   20.24825096
_cell_angle_alpha   90.00000000
_cell_angle_beta   90.00000000
_cell_angle_gamma   119.99999237
_symmetry_Int_Tables_number   1
_chemical_formula_structural   RbSrNdErMnBe2VCrCdCoCuMoIKrCl
_chemical_formula_sum
'Rb1 Sr1 Nd1 Er1 Mn1 Be2 V1 Cr1 Cd1 Co1 Cu1 Mo1 I1 Kr1 Cl1'
_cell_volume   168.04620020
_cell_formula_units_Z   1
loop_
 _symmetry_equiv_pos_site_id
 _symmetry_equiv_pos_as_xyz
  1  'x, y, z'
loop_
 _atom_site_type_symbol
 _atom_site_label
 _atom_site_symmetry_multiplicity
 _atom_site_fract_x
 _atom_site_fract_y
 _atom_site_fract_z
 _atom_site_occupancy
  Mn  Mn0  1  0.66666665  0.33333334  0.12487200  1
  Rb  Rb1  1  0.66666665  0.33333334  0.37495000  1
  Sr  Sr2  1  0.00000000  0.00000000  0.99990300  1
  Nd  Nd3  1  0.33333331  0.66666667  0.24989600  1
  V  V4  1  0.33333331  0.66666667  0.62487200  1
  Cl  Cl5  1  0.66666665  0.33333334  0.74989600  1
  Be  Be6  1  0.00000000  0.00000000  0.49990300  1
  Co  Co7  1  0.33333331  0.66666667  0.87495000  1
  Cu  Cu8  1  0.66666665  0.33333334  0.65591900  1
  Er  Er9  1  0.33333331  0.66666667  0.78126600  1
  I  I10  1  0.33333331  0.66666667  0.15591900  1
  Kr  Kr11  1  0.00000000  0.00000000  0.40608000  1
  Be  Be12  1  0.66666665  0.33333334  0.03111200  1
  Cr  Cr13  1  0.00000000  0.00000000  0.90608000  1
  Cd  Cd14  1  0.66666665  0.33333334  0.28126600  1
  Mo  Mo15  1  0.33333331  0.66666667  0.53111200  1
