# generated using pymatgen
data_CsSr2LiPrHoTmLuZrNpPaBi2HeNeTlGaAgBPd
_symmetry_space_group_name_H-M   'P 1'
_cell_length_a   7.33791494
_cell_length_b   7.35301113
_cell_length_c   10.42158890
_cell_angle_alpha   90.00000000
_cell_angle_beta   90.00000000
_cell_angle_gamma   90.00000000
_symmetry_Int_Tables_number   1
_chemical_formula_structural   CsSr2LiPrHoTmLuZrNpPaBi2HeNeTlGaAgBPd
_chemical_formula_sum
'Cs1 Sr2 Li1 Pr1 Ho1 Tm1 Lu1 Zr1 Np1 Pa1 Bi2 He1 Ne1 Tl1 Ga1 Ag1 B1 Pd1'
_cell_volume   562.30485632
_cell_formula_units_Z   1
loop_
 _symmetry_equiv_pos_site_id
 _symmetry_equiv_pos_as_xyz
  1  'x, y, z'
loop_
 _atom_site_type_symbol
 _atom_site_label
 _atom_site_symmetry_multiplicity
 _atom_site_fract_x
 _atom_site_fract_y
 _atom_site_fract_z
 _atom_site_occupancy
  Lu  Lu0  1  0.05790500  0.48381799  0.25000000  1
  Bi  Bi1  1  0.79108001  0.79107299  0.02933100  1
  Pa  Pa2  1  0.44209500  0.98381798  0.25000000  1
  Np  Np3  1  0.29108100  0.70892699  0.97066901  1
  He  He4  1  0.70892001  0.29107299  0.47066900  1
  Ne  Ne5  1  0.70892001  0.29107299  0.02933100  1
  Li  Li6  1  0.20892000  0.20892700  0.97066901  1
  B  B7  1  0.94209501  0.51618199  0.75000001  1
  Ho  Ho8  1  0.20892000  0.20892700  0.52933101  1
  Tm  Tm9  1  0.55790500  0.01618200  0.75000001  1
  Ag  Ag10  1  0.29108100  0.70892699  0.52933101  1
  Zr  Zr11  1  0.79108001  0.79107299  0.47066900  1
  Sr  Sr12  1  0.49919700  0.47483599  0.75000001  1
  Pr  Pr13  1  0.00080300  0.97483598  0.75000001  1
  Cs  Cs14  1  0.50080300  0.52516399  0.25000000  1
  Ga  Ga15  1  0.99919701  0.02516400  0.25000000  1
  Pd  Pd16  1  0.00000000  0.49999999  0.00000000  1
  Bi  Bi17  1  0.50000000  0.00000000  0.50000000  1
  Sr  Sr18  1  0.50000000  0.00000000  0.00000000  1
  Tl  Tl19  1  0.00000000  0.49999999  0.50000000  1
