# generated using pymatgen
data_CsThS
_symmetry_space_group_name_H-M   'P 1'
_cell_length_a   4.07734585
_cell_length_b   4.07734585
_cell_length_c   7.24640179
_cell_angle_alpha   73.66004944
_cell_angle_beta   73.66004944
_cell_angle_gamma   60.00000000
_symmetry_Int_Tables_number   1
_chemical_formula_structural   CsThS
_chemical_formula_sum   'Cs1 Th1 S1'
_cell_volume   98.67116661
_cell_formula_units_Z   1
loop_
 _symmetry_equiv_pos_site_id
 _symmetry_equiv_pos_as_xyz
  1  'x, y, z'
loop_
 _atom_site_type_symbol
 _atom_site_label
 _atom_site_symmetry_multiplicity
 _atom_site_fract_x
 _atom_site_fract_y
 _atom_site_fract_z
 _atom_site_occupancy
  Th  Th0  1  0.00000000  0.00000000  0.00000000  1
  S  S1  1  0.74285200  0.74285202  0.77144405  1
  Cs  Cs2  1  0.25714800  0.25714801  0.22855602  1
