# generated using pymatgen
data_RbCaTiAlAgSnGeW2N
_symmetry_space_group_name_H-M   'P 1'
_cell_length_a   8.41724491
_cell_length_b   8.41724491
_cell_length_c   8.41724491
_cell_angle_alpha   60.00000000
_cell_angle_beta   60.00000000
_cell_angle_gamma   60.00000000
_symmetry_Int_Tables_number   1
_chemical_formula_structural   RbCaTiAlAgSnGeW2N
_chemical_formula_sum   'Rb1 Ca1 Ti1 Al1 Ag1 Sn1 Ge1 W2 N1'
_cell_volume   421.69154500
_cell_formula_units_Z   1
loop_
 _symmetry_equiv_pos_site_id
 _symmetry_equiv_pos_as_xyz
  1  'x, y, z'
loop_
 _atom_site_type_symbol
 _atom_site_label
 _atom_site_symmetry_multiplicity
 _atom_site_fract_x
 _atom_site_fract_y
 _atom_site_fract_z
 _atom_site_occupancy
  Ca  Ca0  1  0.25000000  0.25000000  0.25000000  1
  Ge  Ge1  1  0.75000001  0.75000001  0.75000001  1
  N  N2  1  0.50000000  0.50000000  0.50000000  1
  Ag  Ag3  1  0.00000000  0.00000000  0.00000000  1
  Sn  Sn4  1  0.22711400  0.77288601  0.22711400  1
  W  W5  1  0.22711400  0.22711400  0.77288601  1
  Ti  Ti6  1  0.77288601  0.22711400  0.77288601  1
  W  W7  1  0.22711400  0.77288601  0.77288601  1
  Rb  Rb8  1  0.77288601  0.22711400  0.22711400  1
  Al  Al9  1  0.77288601  0.77288601  0.22711400  1
