# generated using pymatgen
data_CaAcPmEuAlAgNeSmHoTmTiGeBiI
_symmetry_space_group_name_H-M   'P 1'
_cell_length_a   7.80790424
_cell_length_b   7.80790424
_cell_length_c   7.80790472
_cell_angle_alpha   60.99311829
_cell_angle_beta   60.99311829
_cell_angle_gamma   60.99311829
_symmetry_Int_Tables_number   1
_chemical_formula_structural   CaAcPmEuAlAgNeSmHoTmTiGeBiI
_chemical_formula_sum
'Ca1 Ac1 Pm1 Eu1 Al1 Ag1 Ne1 Sm1 Ho1 Tm1 Ti1 Ge1 Bi1 I1'
_cell_volume   344.10972487
_cell_formula_units_Z   1
loop_
 _symmetry_equiv_pos_site_id
 _symmetry_equiv_pos_as_xyz
  1  'x, y, z'
loop_
 _atom_site_type_symbol
 _atom_site_label
 _atom_site_symmetry_multiplicity
 _atom_site_fract_x
 _atom_site_fract_y
 _atom_site_fract_z
 _atom_site_occupancy
  Pm  Pm0  1  0.00000000  0.00000000  0.00000000  1
  Ag  Ag1  1  0.50000000  0.00000000  0.00000002  1
  Eu  Eu2  1  -0.00000002  0.50000000  1.00000004  1
  Ca  Ca3  1  0.00000000  0.00000000  0.50000001  1
  Ne  Ne4  1  0.41946698  0.41946700  0.41946704  1
  Ac  Ac5  1  0.58053297  0.58053300  0.58053306  1
  Ho  Ho6  1  0.20781797  0.75892601  0.75892605  1
  Ti  Ti7  1  0.75892599  0.20781800  0.75892605  1
  Al  Al8  1  0.75892596  0.75892601  0.20781807  1
  Ge  Ge9  1  0.79218198  0.24107400  0.24107404  1
  Bi  Bi10  1  0.24107397  0.79218201  0.24107405  1
  I  I11  1  0.24107399  0.24107400  0.79218203  1
  Sm  Sm12  1  0.73832696  0.73832701  0.73832707  1
  Tm  Tm13  1  0.26167299  0.26167300  0.26167303  1
