# generated using pymatgen
data_KNdPaGaCoReIrW
_symmetry_space_group_name_H-M   'P 1'
_cell_length_a   4.63142395
_cell_length_b   6.42113018
_cell_length_c   6.42113018
_cell_angle_alpha   120.00000000
_cell_angle_beta   90.00000000
_cell_angle_gamma   90.00000000
_symmetry_Int_Tables_number   1
_chemical_formula_structural   KNdPaGaCoReIrW
_chemical_formula_sum   'K1 Nd1 Pa1 Ga1 Co1 Re1 Ir1 W1'
_cell_volume   165.37433789
_cell_formula_units_Z   1
loop_
 _symmetry_equiv_pos_site_id
 _symmetry_equiv_pos_as_xyz
  1  'x, y, z'
loop_
 _atom_site_type_symbol
 _atom_site_label
 _atom_site_symmetry_multiplicity
 _atom_site_fract_x
 _atom_site_fract_y
 _atom_site_fract_z
 _atom_site_occupancy
  Pa  Pa0  1  0.25000000  0.33333333  0.66666668  1
  K  K1  1  0.75000001  0.66666666  0.33333336  1
  Re  Re2  1  0.25000000  0.28938700  0.14469401  1
  Co  Co3  1  0.25000000  0.85530699  0.71061403  1
  W  W4  1  0.75000001  0.14469300  0.28938601  1
  Nd  Nd5  1  0.75000001  0.14469300  0.85530601  1
  Ga  Ga6  1  0.25000000  0.85530699  0.14469402  1
  Ir  Ir7  1  0.75000001  0.71061299  0.85530603  1
