# generated using pymatgen
data_AcTbSmGdErPu2MgSc2TaMnTlAgTeXe
_symmetry_space_group_name_H-M   'P 1'
_cell_length_a   3.85307598
_cell_length_b   3.85307622
_cell_length_c   25.20812225
_cell_angle_alpha   90.00000000
_cell_angle_beta   90.00000000
_cell_angle_gamma   120.00000000
_symmetry_Int_Tables_number   1
_chemical_formula_structural   AcTbSmGdErPu2MgSc2TaMnTlAgTeXe
_chemical_formula_sum
'Ac1 Tb1 Sm1 Gd1 Er1 Pu2 Mg1 Sc2 Ta1 Mn1 Tl1 Ag1 Te1 Xe1'
_cell_volume   324.10542568
_cell_formula_units_Z   1
loop_
 _symmetry_equiv_pos_site_id
 _symmetry_equiv_pos_as_xyz
  1  'x, y, z'
loop_
 _atom_site_type_symbol
 _atom_site_label
 _atom_site_symmetry_multiplicity
 _atom_site_fract_x
 _atom_site_fract_y
 _atom_site_fract_z
 _atom_site_occupancy
  Tl  Tl0  1  0.66666668  0.33333334  0.87495903  1
  Ac  Ac1  1  0.00000000  0.00000000  0.99994303  1
  Te  Te2  1  0.33333336  0.66666669  0.37496001  1
  Tb  Tb3  1  0.33333336  0.66666669  0.12495000  1
  Sm  Sm4  1  0.00000000  0.00000000  0.24996901  1
  Gd  Gd5  1  0.66666668  0.33333334  0.49995701  1
  Mn  Mn6  1  0.00000000  0.00000000  0.62495802  1
  Xe  Xe7  1  0.33333336  0.66666669  0.74995902  1
  Ag  Ag8  1  0.33333336  0.66666669  0.65624002  1
  Er  Er9  1  0.33333336  0.66666669  0.28127901  1
  Pu  Pu10  1  0.66666668  0.33333334  0.78123802  1
  Ta  Ta11  1  0.00000000  0.00000000  0.15624500  1
  Sc  Sc12  1  0.33333336  0.66666669  0.03120600  1
  Sc  Sc13  1  0.00000000  0.00000000  0.90625003  1
  Mg  Mg14  1  0.66666668  0.33333334  0.40624101  1
  Pu  Pu15  1  0.00000000  0.00000000  0.53124702  1
