# generated using pymatgen
data_YThBeInAgSbTeRhSBr
_symmetry_space_group_name_H-M   'P 1'
_cell_length_a   6.35236025
_cell_length_b   6.35236025
_cell_length_c   6.35236025
_cell_angle_alpha   60.00000000
_cell_angle_beta   60.00000000
_cell_angle_gamma   60.00000000
_symmetry_Int_Tables_number   1
_chemical_formula_structural   YThBeInAgSbTeRhSBr
_chemical_formula_sum   'Y1 Th1 Be1 In1 Ag1 Sb1 Te1 Rh1 S1 Br1'
_cell_volume   181.25515221
_cell_formula_units_Z   1
loop_
 _symmetry_equiv_pos_site_id
 _symmetry_equiv_pos_as_xyz
  1  'x, y, z'
loop_
 _atom_site_type_symbol
 _atom_site_label
 _atom_site_symmetry_multiplicity
 _atom_site_fract_x
 _atom_site_fract_y
 _atom_site_fract_z
 _atom_site_occupancy
  S  S0  1  0.50000000  0.50000000  0.50000000  1
  Y  Y1  1  0.75000000  0.75000000  0.75000000  1
  In  In2  1  0.25000000  0.25000000  0.25000000  1
  Br  Br3  1  0.00000000  0.00000000  0.00000000  1
  Ag  Ag4  1  0.21509000  0.21509000  0.78491000  1
  Sb  Sb5  1  0.78491000  0.21509000  0.78491000  1
  Rh  Rh6  1  0.78491000  0.78491000  0.21509000  1
  Be  Be7  1  0.21509000  0.78491000  0.78491000  1
  Th  Th8  1  0.78491000  0.21509000  0.21509000  1
  Te  Te9  1  0.21509000  0.78491000  0.21509000  1
