# generated using pymatgen
data_RbYbNdLuMnAlTlVSiAu
_symmetry_space_group_name_H-M   'P 1'
_cell_length_a   7.33913612
_cell_length_b   7.33913612
_cell_length_c   7.33913612
_cell_angle_alpha   60.00000000
_cell_angle_beta   60.00000000
_cell_angle_gamma   60.00000000
_symmetry_Int_Tables_number   1
_chemical_formula_structural   RbYbNdLuMnAlTlVSiAu
_chemical_formula_sum   'Rb1 Yb1 Nd1 Lu1 Mn1 Al1 Tl1 V1 Si1 Au1'
_cell_volume   279.52446885
_cell_formula_units_Z   1
loop_
 _symmetry_equiv_pos_site_id
 _symmetry_equiv_pos_as_xyz
  1  'x, y, z'
loop_
 _atom_site_type_symbol
 _atom_site_label
 _atom_site_symmetry_multiplicity
 _atom_site_fract_x
 _atom_site_fract_y
 _atom_site_fract_z
 _atom_site_occupancy
  Si  Si0  1  0.25000000  0.25000000  0.25000000  1
  Nd  Nd1  1  0.75000001  0.75000001  0.75000001  1
  Mn  Mn2  1  0.00000000  0.00000000  0.00000000  1
  Tl  Tl3  1  0.50000001  0.50000001  0.50000001  1
  Lu  Lu4  1  0.22844800  0.77155201  0.22844800  1
  Yb  Yb5  1  0.22844800  0.22844800  0.77155201  1
  Rb  Rb6  1  0.77155201  0.22844800  0.77155201  1
  Al  Al7  1  0.22844800  0.77155201  0.77155201  1
  V  V8  1  0.77155201  0.22844800  0.22844800  1
  Au  Au9  1  0.77155201  0.77155201  0.22844800  1
