# generated using pymatgen
data_CsRb2TbPmSmEuGdHoTmHfZrPaFePtCNF
_symmetry_space_group_name_H-M   'P 1'
_cell_length_a   5.87658310
_cell_length_b   6.54384518
_cell_length_c   7.19372463
_cell_angle_alpha   113.51962280
_cell_angle_beta   90.00000000
_cell_angle_gamma   90.00000000
_symmetry_Int_Tables_number   1
_chemical_formula_structural   CsRb2TbPmSmEuGdHoTmHfZrPaFePtCNF
_chemical_formula_sum
'Cs1 Rb2 Tb1 Pm1 Sm1 Gd1 Eu1 Ho1 Tm1 Hf1 Zr1 Pa1 Fe1 Pt1 C1 N1 F1'
_cell_volume   253.65579556
_cell_formula_units_Z   1
loop_
 _symmetry_equiv_pos_site_id
 _symmetry_equiv_pos_as_xyz
  1  'x, y, z'
loop_
 _atom_site_type_symbol
 _atom_site_label
 _atom_site_symmetry_multiplicity
 _atom_site_fract_x
 _atom_site_fract_y
 _atom_site_fract_z
 _atom_site_occupancy
  Sm  Sm0  1  0.74999999  0.92362099  0.79025104  1
  Zr  Zr1  1  0.25000000  0.07637900  0.20974900  1
  Fe  Fe2  1  0.74999999  0.60970999  0.18128302  1
  Pa  Pa3  1  0.25000000  0.39029000  0.81871702  1
  Pt  Pt4  1  0.74999999  0.23398600  0.46612101  1
  Tb  Tb5  1  0.25000000  0.76601399  0.53387903  1
  Tm  Tm6  1  0.53466499  0.23924600  0.59642401  1
  N  N7  1  0.46533499  0.76075399  0.40357603  1
  Rb  Rb8  1  0.03466500  0.76075399  0.40357603  1
  Gd  Gd9  1  0.96533498  0.23924600  0.59642401  1
  Ho  Ho10  1  0.74999999  0.43503100  0.40145602  1
  Eu  Eu11  1  0.25000000  0.56496899  0.59854402  1
  C  C12  1  0.50088999  0.32690200  0.03251701  1
  Hf  Hf13  1  0.49910999  0.67309799  0.96748303  1
  F  F14  1  0.00089000  0.67309799  0.96748303  1
  Pm  Pm15  1  0.99910998  0.32690200  0.03251701  1
  Rb  Rb16  1  0.74999999  0.00679500  0.26812700  1
  Cs  Cs17  1  0.25000000  0.99320499  0.73187304  1
