# generated using pymatgen
data_AcHfScAlZnFeReSnRuWAuCXeKrNe
_symmetry_space_group_name_H-M   'P 1'
_cell_length_a   5.54136801
_cell_length_b   5.54136753
_cell_length_c   6.76984787
_cell_angle_alpha   90.00000000
_cell_angle_beta   90.00000000
_cell_angle_gamma   120.00000000
_symmetry_Int_Tables_number   1
_chemical_formula_structural   AcHfScAlZnFeReSnRuWAuCXeKrNe
_chemical_formula_sum
'Ac1 Hf1 Sc1 Al1 Zn1 Fe1 Re1 Sn1 Ru1 W1 Au1 C1 Xe1 Kr1 Ne1'
_cell_volume   180.02942312
_cell_formula_units_Z   1
loop_
 _symmetry_equiv_pos_site_id
 _symmetry_equiv_pos_as_xyz
  1  'x, y, z'
loop_
 _atom_site_type_symbol
 _atom_site_label
 _atom_site_symmetry_multiplicity
 _atom_site_fract_x
 _atom_site_fract_y
 _atom_site_fract_z
 _atom_site_occupancy
  Kr  Kr0  1  0.66666665  0.33333333  0.16499700  1
  Ac  Ac1  1  0.33333330  0.66666666  0.83500302  1
  Ru  Ru2  1  0.00000000  0.00000000  0.50000001  1
  Xe  Xe3  1  0.00000000  0.00000000  0.00000000  1
  Ne  Ne4  1  0.66666665  0.33333333  0.66843201  1
  Hf  Hf5  1  0.33333330  0.66666666  0.33156801  1
  C  C6  1  0.83595899  0.16404000  0.82698102  1
  Zn  Zn7  1  0.49999998  0.49999999  0.50000001  1
  Sc  Sc8  1  0.16404096  0.83595999  0.17301900  1
  Au  Au9  1  0.83595897  0.67191799  0.82698102  1
  Al  Al10  1  0.50000000  0.00000000  0.50000001  1
  Fe  Fe11  1  0.16404098  0.32808200  0.17301900  1
  W  W12  1  -0.00000002  0.49999999  0.50000001  1
  Re  Re13  1  0.67191896  0.83595999  0.17301900  1
  Sn  Sn14  1  0.32808099  0.16404000  0.82698102  1
