# generated using pymatgen
data_TiHeLaHo
_symmetry_space_group_name_H-M   'P 1'
_cell_length_a   4.85683918
_cell_length_b   4.85683918
_cell_length_c   4.85683918
_cell_angle_alpha   60.00000000
_cell_angle_beta   60.00000000
_cell_angle_gamma   60.00000000
_symmetry_Int_Tables_number   1
_chemical_formula_structural   TiHeLaHo
_chemical_formula_sum   'Ti1 He1 La1 Ho1'
_cell_volume   81.01140646
_cell_formula_units_Z   1
loop_
 _symmetry_equiv_pos_site_id
 _symmetry_equiv_pos_as_xyz
  1  'x, y, z'
loop_
 _atom_site_type_symbol
 _atom_site_label
 _atom_site_symmetry_multiplicity
 _atom_site_fract_x
 _atom_site_fract_y
 _atom_site_fract_z
 _atom_site_occupancy
  Ti  Ti0  1  0.75000002  0.75000002  0.75000002  1
  He  He1  1  0.25000001  0.25000001  0.25000001  1
  Ho  Ho2  1  0.00000000  0.00000000  0.00000000  1
  La  La3  1  0.50000001  0.50000001  0.50000001  1
