# generated using pymatgen
data_NaPr2NdSmDyHoErHfNpUGaTcSnBTePHOsBr
_symmetry_space_group_name_H-M   'P 1'
_cell_length_a   4.16193008
_cell_length_b   4.16193008
_cell_length_c   38.74087906
_cell_angle_alpha   86.92087555
_cell_angle_beta   86.92087555
_cell_angle_gamma   60.00000000
_symmetry_Int_Tables_number   1
_chemical_formula_structural   NaPr2NdSmDyHoErHfNpUGaTcSnBTePHOsBr
_chemical_formula_sum
;
Na1 Pr2 Nd1 Sm1 Dy1 Ho1 Er1 Hf1 Np1 U1 Ga1 Tc1 Sn1 B1 Te1 P1 Os1 H1
Br1
;
_cell_volume   580.03295905
_cell_formula_units_Z   1
loop_
 _symmetry_equiv_pos_site_id
 _symmetry_equiv_pos_as_xyz
  1  'x, y, z'
loop_
 _atom_site_type_symbol
 _atom_site_label
 _atom_site_symmetry_multiplicity
 _atom_site_fract_x
 _atom_site_fract_y
 _atom_site_fract_z
 _atom_site_occupancy
  Hf  Hf0  1  0.64540296  0.64540298  0.06379199  1
  P  P1  1  0.24624598  0.24624599  0.26126200  1
  Ho  Ho2  1  0.84626094  0.84625998  0.46121799  1
  Nd  Nd3  1  0.04675700  0.04675800  0.85972800  1
  Pr  Pr4  1  0.44626097  0.44626099  0.66121700  1
  Sm  Sm5  1  0.95324294  0.95324197  0.14027199  1
  Ga  Ga6  1  0.55373896  0.55373899  0.33878300  1
  Dy  Dy7  1  0.15373899  0.15374000  0.53878200  1
  Br  Br8  1  0.35459698  0.35459699  0.93620800  1
  U  U9  1  0.75375395  0.75375398  0.73873799  1
  Te  Te10  1  0.00000000  0.00000000  0.00000000  1
  Tc  Tc11  1  0.29946198  0.29946199  0.10161300  1
  B  B12  1  0.89999394  0.89999398  0.30001799  1
  Np  Np13  1  0.49999997  0.49999999  0.50000000  1
  Sn  Sn14  1  0.70053795  0.70053798  0.89838699  1
  Er  Er15  1  0.10000599  0.10000600  0.69998200  1
  Na  Na16  1  0.40015697  0.40015699  0.79952900  1
  Pr  Pr17  1  0.80000195  0.80000198  0.59999399  1
  Os  Os18  1  0.19999799  0.19999799  0.40000600  1
  H  H19  1  0.59984296  0.59984298  0.20047100  1
