# generated using pymatgen
data_KPrTlAsICl
_symmetry_space_group_name_H-M   'P 1'
_cell_length_a   4.42291594
_cell_length_b   6.85368109
_cell_length_c   6.85368109
_cell_angle_alpha   90.00000000
_cell_angle_beta   90.00000000
_cell_angle_gamma   90.00000000
_symmetry_Int_Tables_number   1
_chemical_formula_structural   KPrTlAsICl
_chemical_formula_sum   'K1 Pr1 Tl1 As1 I1 Cl1'
_cell_volume   207.75738454
_cell_formula_units_Z   1
loop_
 _symmetry_equiv_pos_site_id
 _symmetry_equiv_pos_as_xyz
  1  'x, y, z'
loop_
 _atom_site_type_symbol
 _atom_site_label
 _atom_site_symmetry_multiplicity
 _atom_site_fract_x
 _atom_site_fract_y
 _atom_site_fract_z
 _atom_site_occupancy
  Cl  Cl0  1  0.00000000  0.00000000  0.00000000  1
  Pr  Pr1  1  0.50000001  0.49999999  0.49999999  1
  K  K2  1  0.50000001  0.80307399  0.19692600  1
  As  As3  1  -0.00000000  0.69692599  0.69692599  1
  I  I4  1  -0.00000000  0.30307400  0.30307400  1
  Tl  Tl5  1  0.50000001  0.19692600  0.80307399  1
