# generated using pymatgen
data_SmYMnCrSiIrRuCO2
_symmetry_space_group_name_H-M   'P 1'
_cell_length_a   4.01795006
_cell_length_b   5.57351589
_cell_length_c   5.57351589
_cell_angle_alpha   90.00000000
_cell_angle_beta   90.00000000
_cell_angle_gamma   90.00000000
_symmetry_Int_Tables_number   1
_chemical_formula_structural   SmYMnCrSiIrRuCO2
_chemical_formula_sum   'Sm1 Y1 Mn1 Cr1 Si1 Ir1 Ru1 C1 O2'
_cell_volume   124.81391962
_cell_formula_units_Z   1
loop_
 _symmetry_equiv_pos_site_id
 _symmetry_equiv_pos_as_xyz
  1  'x, y, z'
loop_
 _atom_site_type_symbol
 _atom_site_label
 _atom_site_symmetry_multiplicity
 _atom_site_fract_x
 _atom_site_fract_y
 _atom_site_fract_z
 _atom_site_occupancy
  O  O0  1  0.49999999  1.00000002  0.50000001  1
  O  O1  1  0.49999999  0.50000001  0.00000000  1
  Cr  Cr2  1  0.99999999  0.50000001  0.50000001  1
  Mn  Mn3  1  0.00000000  0.00000000  0.00000000  1
  Si  Si4  1  0.00000000  0.80109902  0.69890101  1
  Sm  Sm5  1  0.99999999  0.69890101  0.19890100  1
  Ir  Ir6  1  0.00000000  0.30109901  0.80109902  1
  C  C7  1  0.99999999  0.19890100  0.30109901  1
  Ru  Ru8  1  0.49999999  0.00000000  -0.00000000  1
  Y  Y9  1  0.49999999  0.50000001  0.50000001  1
