# generated using pymatgen
data_GdErLuMgScPa2NbVCrInCuSiHgRhXe
_symmetry_space_group_name_H-M   'P 1'
_cell_length_a   5.07350922
_cell_length_b   5.30863619
_cell_length_c   6.23335123
_cell_angle_alpha   90.00000000
_cell_angle_beta   90.00000000
_cell_angle_gamma   90.00000000
_symmetry_Int_Tables_number   1
_chemical_formula_structural   GdErLuMgScPa2NbVCrInCuSiHgRhXe
_chemical_formula_sum
'Gd1 Er1 Lu1 Mg1 Sc1 Pa2 Nb1 V1 Cr1 In1 Si1 Cu1 Hg1 Rh1 Xe1'
_cell_volume   167.88543322
_cell_formula_units_Z   1
loop_
 _symmetry_equiv_pos_site_id
 _symmetry_equiv_pos_as_xyz
  1  'x, y, z'
loop_
 _atom_site_type_symbol
 _atom_site_label
 _atom_site_symmetry_multiplicity
 _atom_site_fract_x
 _atom_site_fract_y
 _atom_site_fract_z
 _atom_site_occupancy
  Lu  Lu0  1  0.99855396  0.32448299  0.74971497  1
  Cr  Cr1  1  0.49855398  0.67551698  0.75028497  1
  Sc  Sc2  1  0.99855396  0.32448299  0.25028499  1
  Er  Er3  1  0.49855398  0.67551698  0.24971499  1
  In  In4  1  0.49838798  0.19050799  0.49999998  1
  Pa  Pa5  1  0.99838796  0.80949197  0.00000000  1
  Nb  Nb6  1  0.50273698  0.17773499  0.00000000  1
  Si  Si7  1  0.00273700  0.82226497  0.49999998  1
  Pa  Pa8  1  0.88988196  0.68342298  0.70210997  1
  Mg  Mg9  1  0.38988198  0.31657699  0.20210999  1
  Hg  Hg10  1  0.30782999  0.80378297  0.49999998  1
  V  V11  1  0.41417298  0.89668297  0.00000000  1
  Xe  Xe12  1  0.80782997  0.19621699  0.00000000  1
  Cu  Cu13  1  0.88988196  0.68342298  0.29788999  1
  Rh  Rh14  1  0.91417296  0.10331700  0.49999998  1
  Gd  Gd15  1  0.38988198  0.31657699  0.79788997  1
