# generated using pymatgen
data_CsKSrLaTbSmHoPuThBe2NbVSiSbIrXeKr
_symmetry_space_group_name_H-M   'P 1'
_cell_length_a   5.74997997
_cell_length_b   5.76672411
_cell_length_c   8.70238209
_cell_angle_alpha   81.57189941
_cell_angle_beta   71.40412140
_cell_angle_gamma   68.17583466
_symmetry_Int_Tables_number   1
_chemical_formula_structural   CsKSrLaTbSmHoPuThBe2NbVSiSbIrXeKr
_chemical_formula_sum
'Cs1 K1 Sr1 Tb1 La1 Sm1 Ho1 Pu1 Th1 Be2 Nb1 V1 Si1 Sb1 Ir1 Xe1 Kr1'
_cell_volume   253.76286743
_cell_formula_units_Z   1
loop_
 _symmetry_equiv_pos_site_id
 _symmetry_equiv_pos_as_xyz
  1  'x, y, z'
loop_
 _atom_site_type_symbol
 _atom_site_label
 _atom_site_symmetry_multiplicity
 _atom_site_fract_x
 _atom_site_fract_y
 _atom_site_fract_z
 _atom_site_occupancy
  Kr  Kr0  1  0.98008303  0.23509600  0.06555795  1
  K  K1  1  0.44663702  0.74193602  0.10227396  1
  Sm  Sm2  1  0.89125604  0.77213902  0.32054295  1
  Ho  Ho3  1  0.25931502  0.74339502  0.51211998  1
  Tb  Tb4  1  0.74068502  0.25660501  0.48787997  1
  Cs  Cs5  1  0.55336302  0.25806401  0.89772598  1
  Ir  Ir6  1  0.01991701  0.76490402  0.93444199  1
  Be  Be7  1  0.10874401  0.22786100  0.67945699  1
  Sr  Sr8  1  0.34333301  0.22176200  0.25624198  1
  Nb  Nb9  1  0.65666703  0.77823802  0.74375796  1
  Th  Th10  1  0.33714403  0.96817802  0.86040997  1
  V  V11  1  0.79562403  0.52663701  0.87421096  1
  Sb  Sb12  1  0.20437601  0.47336301  0.12578898  1
  Pu  Pu13  1  0.85847804  0.96858402  0.69494195  1
  Xe  Xe14  1  0.14152200  0.03141600  0.30505800  1
  Be  Be15  1  0.64752303  0.65488801  0.57163596  1
  Si  Si16  1  0.66285602  0.03182200  0.13958997  1
  La  La17  1  0.35247702  0.34511201  0.42836398  1
