# generated using pymatgen
data_SrCaTbYZrTaAlFeReNiGePtSeNe
_symmetry_space_group_name_H-M   'P 1'
_cell_length_a   6.11774635
_cell_length_b   6.11774635
_cell_length_c   6.11774635
_cell_angle_alpha   60.00000000
_cell_angle_beta   60.00000000
_cell_angle_gamma   60.00000000
_symmetry_Int_Tables_number   1
_chemical_formula_structural   SrCaTbYZrTaAlFeReNiGePtSeNe
_chemical_formula_sum
'Sr1 Ca1 Tb1 Y1 Zr1 Ta1 Al1 Fe1 Re1 Ni1 Ge1 Pt1 Se1 Ne1'
_cell_volume   161.90468000
_cell_formula_units_Z   1
loop_
 _symmetry_equiv_pos_site_id
 _symmetry_equiv_pos_as_xyz
  1  'x, y, z'
loop_
 _atom_site_type_symbol
 _atom_site_label
 _atom_site_symmetry_multiplicity
 _atom_site_fract_x
 _atom_site_fract_y
 _atom_site_fract_z
 _atom_site_occupancy
  Pt  Pt0  1  0.50000001  0.50000001  0.50000001  1
  Se  Se1  1  0.25000000  0.25000000  0.25000000  1
  Sr  Sr2  1  0.87500001  0.87500001  0.37500001  1
  Ta  Ta3  1  0.37500001  0.87500001  0.87500001  1
  Ne  Ne4  1  0.87500001  0.87500001  0.87500001  1
  Re  Re5  1  0.87500001  0.37500001  0.87500001  1
  Zr  Zr6  1  0.09362000  0.63546001  0.63546001  1
  Tb  Tb7  1  0.11454100  0.11454000  0.65637901  1
  Ge  Ge8  1  0.11454100  0.65637901  0.11454000  1
  Ni  Ni9  1  0.11454100  0.11454000  0.11454000  1
  Al  Al10  1  0.63545901  0.09362100  0.63546001  1
  Fe  Fe11  1  0.63545901  0.63546001  0.63546001  1
  Ca  Ca12  1  0.65638001  0.11454000  0.11454000  1
  Y  Y13  1  0.63545901  0.63546001  0.09362100  1
