# generated using pymatgen
data_RbNdGd2FeReGeIrPbBr
_symmetry_space_group_name_H-M   'P 1'
_cell_length_a   8.69366264
_cell_length_b   8.69366264
_cell_length_c   8.69366264
_cell_angle_alpha   60.00000000
_cell_angle_beta   60.00000000
_cell_angle_gamma   60.00000000
_symmetry_Int_Tables_number   1
_chemical_formula_structural   RbNdGd2FeReGeIrPbBr
_chemical_formula_sum   'Rb1 Nd1 Gd2 Fe1 Re1 Ge1 Ir1 Pb1 Br1'
_cell_volume   464.61513445
_cell_formula_units_Z   1
loop_
 _symmetry_equiv_pos_site_id
 _symmetry_equiv_pos_as_xyz
  1  'x, y, z'
loop_
 _atom_site_type_symbol
 _atom_site_label
 _atom_site_symmetry_multiplicity
 _atom_site_fract_x
 _atom_site_fract_y
 _atom_site_fract_z
 _atom_site_occupancy
  Ge  Ge0  1  0.50000002  0.50000002  0.50000002  1
  Gd  Gd1  1  0.25000001  0.25000001  0.25000001  1
  Ir  Ir2  1  0.75000002  0.75000002  0.75000002  1
  Br  Br3  1  0.00000000  0.00000000  0.00000000  1
  Pb  Pb4  1  0.22585801  0.77414202  0.22585801  1
  Re  Re5  1  0.22585801  0.22585801  0.77414202  1
  Fe  Fe6  1  0.77414202  0.22585801  0.77414202  1
  Gd  Gd7  1  0.22585801  0.77414202  0.77414202  1
  Rb  Rb8  1  0.77414202  0.22585801  0.22585801  1
  Nd  Nd9  1  0.77414202  0.77414202  0.22585801  1
