# generated using pymatgen
data_BaYHoThNp2Be2ZnCrCdInAgTe2POsRhXeBr
_symmetry_space_group_name_H-M   'P 1'
_cell_length_a   5.48505592
_cell_length_b   5.52260494
_cell_length_c   7.72137213
_cell_angle_alpha   90.00000000
_cell_angle_beta   90.00000000
_cell_angle_gamma   90.00000000
_symmetry_Int_Tables_number   1
_chemical_formula_structural   BaYHoThNp2Be2ZnCrCdInAgTe2POsRhXeBr
_chemical_formula_sum
'Ba1 Y1 Ho1 Th1 Np2 Be2 Zn1 Cr1 Cd1 In1 Ag1 Te2 P1 Os1 Rh1 Xe1 Br1'
_cell_volume   233.89423668
_cell_formula_units_Z   1
loop_
 _symmetry_equiv_pos_site_id
 _symmetry_equiv_pos_as_xyz
  1  'x, y, z'
loop_
 _atom_site_type_symbol
 _atom_site_label
 _atom_site_symmetry_multiplicity
 _atom_site_fract_x
 _atom_site_fract_y
 _atom_site_fract_z
 _atom_site_occupancy
  Zn  Zn0  1  0.01023700  0.95750201  0.74999999  1
  Br  Br1  1  0.48976301  0.45750200  0.74999999  1
  Be  Be2  1  0.51023701  0.54249801  0.25000000  1
  Cd  Cd3  1  0.98976301  0.04249800  0.25000000  1
  Te  Te4  1  0.50000001  0.00000000  0.49999999  1
  Ba  Ba5  1  0.00000000  0.50000001  0.00000000  1
  Th  Th6  1  0.00000000  0.50000001  0.49999999  1
  Os  Os7  1  0.50000001  0.00000000  -0.00000000  1
  Ag  Ag8  1  0.71816701  0.28256400  0.45943399  1
  Rh  Rh9  1  0.78183301  0.78256401  0.04056600  1
  Np  Np10  1  0.21816700  0.21743600  0.54056599  1
  Be  Be11  1  0.28183300  0.71743601  0.95943398  1
  Xe  Xe12  1  0.28183300  0.71743601  0.54056599  1
  P  P13  1  0.21816700  0.21743600  0.95943398  1
  Np  Np14  1  0.78183301  0.78256401  0.45943399  1
  Cr  Cr15  1  0.71816701  0.28256400  0.04056600  1
  Te  Te16  1  0.07582900  0.48851201  0.25000000  1
  Ho  Ho17  1  0.42417101  0.98851201  0.25000000  1
  In  In18  1  0.57582901  0.01148800  0.74999999  1
  Y  Y19  1  0.92417101  0.51148801  0.74999999  1
