# generated using pymatgen
data_TbPrScMnCrInBiTeRuAuXeF
_symmetry_space_group_name_H-M   'P 1'
_cell_length_a   3.09488392
_cell_length_b   3.09488392
_cell_length_c   15.18453121
_cell_angle_alpha   90.00000000
_cell_angle_beta   90.00000000
_cell_angle_gamma   120.00000000
_symmetry_Int_Tables_number   1
_chemical_formula_structural   TbPrScMnCrInBiTeRuAuXeF
_chemical_formula_sum
'Tb1 Pr1 Sc1 Mn1 Cr1 In1 Bi1 Te1 Ru1 Au1 Xe1 F1'
_cell_volume   125.95654780
_cell_formula_units_Z   1
loop_
 _symmetry_equiv_pos_site_id
 _symmetry_equiv_pos_as_xyz
  1  'x, y, z'
loop_
 _atom_site_type_symbol
 _atom_site_label
 _atom_site_symmetry_multiplicity
 _atom_site_fract_x
 _atom_site_fract_y
 _atom_site_fract_z
 _atom_site_occupancy
  Cr  Cr0  1  0.66666667  0.33333332  0.16701400  1
  Te  Te1  1  0.33333332  0.66666664  0.66701399  1
  Tb  Tb2  1  0.33333332  0.66666664  0.33349100  1
  In  In3  1  0.66666667  0.33333332  0.83349099  1
  F  F4  1  0.00000000  0.00000000  0.50027699  1
  Pr  Pr5  1  0.00000000  0.00000000  0.00027700  1
  Ru  Ru6  1  0.00000000  0.00000000  0.12564800  1
  Mn  Mn7  1  0.00000000  0.00000000  0.62564799  1
  Xe  Xe8  1  0.66666667  0.33333332  0.29199600  1
  Sc  Sc9  1  0.33333332  0.66666664  0.79199599  1
  Bi  Bi10  1  0.33333332  0.66666664  0.45847399  1
  Au  Au11  1  0.66666667  0.33333332  0.95847399  1
