# generated using pymatgen
data_RbBaNaPu2ThBeMoIrPb
_symmetry_space_group_name_H-M   'P 1'
_cell_length_a   6.05325413
_cell_length_b   7.11325216
_cell_length_c   7.11325216
_cell_angle_alpha   60.00000000
_cell_angle_beta   90.00000000
_cell_angle_gamma   90.00000000
_symmetry_Int_Tables_number   1
_chemical_formula_structural   RbBaNaPu2ThBeMoIrPb
_chemical_formula_sum   'Rb1 Ba1 Na1 Pu2 Th1 Be1 Mo1 Ir1 Pb1'
_cell_volume   265.25033906
_cell_formula_units_Z   1
loop_
 _symmetry_equiv_pos_site_id
 _symmetry_equiv_pos_as_xyz
  1  'x, y, z'
loop_
 _atom_site_type_symbol
 _atom_site_label
 _atom_site_symmetry_multiplicity
 _atom_site_fract_x
 _atom_site_fract_y
 _atom_site_fract_z
 _atom_site_occupancy
  Pb  Pb0  1  0.75324398  0.33333333  0.33333333  1
  Rb  Rb1  1  0.24675599  0.66666665  0.66666665  1
  Mo  Mo2  1  0.00000000  0.00000000  0.00000000  1
  Ba  Ba3  1  0.49999999  0.00000000  0.00000000  1
  Ir  Ir4  1  0.73098998  0.84252198  0.31495599  1
  Na  Na5  1  0.26900999  0.15747800  0.68504399  1
  Be  Be6  1  0.73098998  0.31495699  0.84252099  1
  Pu  Pu7  1  0.26900999  0.68504299  0.15747899  1
  Th  Th8  1  0.73098998  0.84252198  0.84252098  1
  Pu  Pu9  1  0.26900999  0.15747800  0.15747900  1
