# generated using pymatgen
data_LiLaCeSmThMnCrCoCuReTcSnMoHOsBr
_symmetry_space_group_name_H-M   'P 1'
_cell_length_a   3.65038300
_cell_length_b   5.45522499
_cell_length_c   6.23558617
_cell_angle_alpha   90.00000000
_cell_angle_beta   90.00000000
_cell_angle_gamma   90.00000000
_symmetry_Int_Tables_number   1
_chemical_formula_structural   LiLaCeSmThMnCrCoCuReTcSnMoHOsBr
_chemical_formula_sum
'Li1 La1 Ce1 Sm1 Th1 Mn1 Cr1 Co1 Cu1 Re1 Tc1 Sn1 Mo1 Os1 H1 Br1'
_cell_volume   124.17334621
_cell_formula_units_Z   1
loop_
 _symmetry_equiv_pos_site_id
 _symmetry_equiv_pos_as_xyz
  1  'x, y, z'
loop_
 _atom_site_type_symbol
 _atom_site_label
 _atom_site_symmetry_multiplicity
 _atom_site_fract_x
 _atom_site_fract_y
 _atom_site_fract_z
 _atom_site_occupancy
  Ce  Ce0  1  0.01284600  0.70866100  0.62624698  1
  Sn  Sn1  1  0.51284600  0.79133900  0.37375299  1
  Co  Co2  1  0.48715400  0.29133900  0.12624700  1
  Os  Os3  1  0.98715400  0.20866100  0.87375298  1
  Cr  Cr4  1  0.47954600  0.49275700  0.76687998  1
  Th  Th5  1  0.97954600  0.00724300  0.23311999  1
  Mn  Mn6  1  0.02045400  0.50724300  0.26687999  1
  Cu  Cu7  1  0.52045400  0.99275700  0.73311998  1
  Re  Re8  1  0.56463900  0.35235600  0.54433999  1
  Sm  Sm9  1  0.06463900  0.14764400  0.45565999  1
  Tc  Tc10  1  0.93536100  0.64764400  0.04434000  1
  La  La11  1  0.43536100  0.85235600  0.95565997  1
  Li  Li12  1  0.01928200  0.97595500  0.39441799  1
  Br  Br13  1  0.51928200  0.52404500  0.60558198  1
  Mo  Mo14  1  0.48071800  0.02404500  0.89441798  1
  H  H15  1  0.98071800  0.47595500  0.10558200  1
