# generated using pymatgen
data_Cs2RbNdHfMgPaFeHRuPtBr
_symmetry_space_group_name_H-M   'P 1'
_cell_length_a   5.06760025
_cell_length_b   5.06760025
_cell_length_c   6.39011908
_cell_angle_alpha   90.00000000
_cell_angle_beta   90.00000000
_cell_angle_gamma   113.04327393
_symmetry_Int_Tables_number   1
_chemical_formula_structural   Cs2RbNdHfMgPaFeHRuPtBr
_chemical_formula_sum   'Cs2 Rb1 Nd1 Hf1 Mg1 Pa1 Fe1 Ru1 H1 Pt1 Br1'
_cell_volume   151.00813819
_cell_formula_units_Z   1
loop_
 _symmetry_equiv_pos_site_id
 _symmetry_equiv_pos_as_xyz
  1  'x, y, z'
loop_
 _atom_site_type_symbol
 _atom_site_label
 _atom_site_symmetry_multiplicity
 _atom_site_fract_x
 _atom_site_fract_y
 _atom_site_fract_z
 _atom_site_occupancy
  Mg  Mg0  1  0.00000000  0.00000000  0.00000000  1
  Pt  Pt1  1  0.00000000  0.00000000  0.49999999  1
  Cs  Cs2  1  0.35814900  0.64185100  0.74999999  1
  Fe  Fe3  1  0.64185100  0.35814900  0.25000000  1
  Ru  Ru4  1  0.27502100  0.21991400  0.25000000  1
  Nd  Nd5  1  0.21991400  0.27502100  0.74999999  1
  Pa  Pa6  1  0.75441901  0.24558100  0.45831799  1
  Rb  Rb7  1  0.24558100  0.75441900  0.95831799  1
  Br  Br8  1  0.75441901  0.24558100  0.04168200  1
  Hf  Hf9  1  0.24558100  0.75441900  0.54168199  1
  Cs  Cs10  1  0.72497900  0.78008600  0.74999999  1
  H  H11  1  0.78008600  0.72497900  0.25000000  1
