# generated using pymatgen
data_KCaCeNdSmScUAlFeCoReNiRuCNNeXeF
_symmetry_space_group_name_H-M   'P 1'
_cell_length_a   7.37645483
_cell_length_b   9.71439648
_cell_length_c   9.71439743
_cell_angle_alpha   60.00000381
_cell_angle_beta   90.00000000
_cell_angle_gamma   90.00000000
_symmetry_Int_Tables_number   1
_chemical_formula_structural   KCaCeNdSmScUAlFeCoReNiRuCNNeXeF
_chemical_formula_sum
'K1 Ca1 Ce1 Nd1 Sm1 Sc1 U1 Al1 Fe1 Co1 Re1 Ni1 Ru1 C1 N1 Ne1 Xe1 F1'
_cell_volume   602.85105791
_cell_formula_units_Z   1
loop_
 _symmetry_equiv_pos_site_id
 _symmetry_equiv_pos_as_xyz
  1  'x, y, z'
loop_
 _atom_site_type_symbol
 _atom_site_label
 _atom_site_symmetry_multiplicity
 _atom_site_fract_x
 _atom_site_fract_y
 _atom_site_fract_z
 _atom_site_occupancy
  N  N0  1  0.25000001  0.24151799  0.00000000  1
  Sc  Sc1  1  0.25000001  0.00000000  0.75848197  1
  U  U2  1  0.25000001  0.75848196  0.24151799  1
  C  C3  1  0.75000002  0.75848196  0.00000000  1
  K  K4  1  0.75000002  0.00000000  0.24151799  1
  Nd  Nd5  1  0.75000002  0.24151799  0.75848198  1
  Fe  Fe6  1  1.00000002  0.66666663  0.66666665  1
  Ne  Ne7  1  1.00000002  0.33333332  0.33333332  1
  Ca  Ca8  1  0.50000001  0.33333332  0.33333332  1
  Co  Co9  1  0.50000001  0.66666663  0.66666665  1
  Ce  Ce10  1  0.00000000  0.00000000  0.00000000  1
  Xe  Xe11  1  0.50000001  0.00000000  0.00000000  1
  F  F12  1  0.25000001  0.59893097  0.00000000  1
  Sm  Sm13  1  0.25000001  0.00000000  0.40106899  1
  Al  Al14  1  0.25000001  0.40106898  0.59893098  1
  Ru  Ru15  1  0.75000002  0.40106898  0.00000000  1
  Ni  Ni16  1  0.75000002  0.00000000  0.59893098  1
  Re  Re17  1  0.75000002  0.59893097  0.40106899  1
