# generated using pymatgen
data_TbSmV2TcMoPdPb2Xe
_symmetry_space_group_name_H-M   'P 1'
_cell_length_a   5.96537352
_cell_length_b   5.96537352
_cell_length_c   5.96537352
_cell_angle_alpha   60.00000000
_cell_angle_beta   60.00000000
_cell_angle_gamma   60.00000000
_symmetry_Int_Tables_number   1
_chemical_formula_structural   TbSmV2TcMoPdPb2Xe
_chemical_formula_sum   'Tb1 Sm1 V2 Tc1 Mo1 Pd1 Pb2 Xe1'
_cell_volume   150.10595694
_cell_formula_units_Z   1
loop_
 _symmetry_equiv_pos_site_id
 _symmetry_equiv_pos_as_xyz
  1  'x, y, z'
loop_
 _atom_site_type_symbol
 _atom_site_label
 _atom_site_symmetry_multiplicity
 _atom_site_fract_x
 _atom_site_fract_y
 _atom_site_fract_z
 _atom_site_occupancy
  Xe  Xe0  1  0.25000000  0.25000000  0.25000000  1
  V  V1  1  0.74999999  0.74999999  0.74999999  1
  Mo  Mo2  1  0.00000000  0.00000000  0.00000000  1
  V  V3  1  0.49999999  0.49999999  0.49999999  1
  Tc  Tc4  1  0.74870399  0.74870399  0.25129600  1
  Pb  Pb5  1  0.25129600  0.25129600  0.74870399  1
  Tb  Tb6  1  0.74870399  0.25129600  0.25129600  1
  Sm  Sm7  1  0.25129600  0.74870399  0.74870399  1
  Pd  Pd8  1  0.74870399  0.25129600  0.74870399  1
  Pb  Pb9  1  0.25129600  0.74870399  0.25129600  1
