# generated using pymatgen
data_KRbSrLiDy2HoTmGaCuNiBMoAsHIrPtPbSeHe
_symmetry_space_group_name_H-M   'P 1'
_cell_length_a   5.18212700
_cell_length_b   5.47844505
_cell_length_c   7.50870609
_cell_angle_alpha   94.15023804
_cell_angle_beta   89.58925629
_cell_angle_gamma   89.93174744
_symmetry_Int_Tables_number   1
_chemical_formula_structural   KRbSrLiDy2HoTmGaCuNiBMoAsHIrPtPbSeHe
_chemical_formula_sum
;
Rb1 K1 Sr1 Li1 Dy2 Ho1 Tm1 Ga1 Cu1 Ni1 B1 Mo1 As1 H1 Ir1 Pt1 Pb1 Se1
He1
;
_cell_volume   212.60737594
_cell_formula_units_Z   1
loop_
 _symmetry_equiv_pos_site_id
 _symmetry_equiv_pos_as_xyz
  1  'x, y, z'
loop_
 _atom_site_type_symbol
 _atom_site_label
 _atom_site_symmetry_multiplicity
 _atom_site_fract_x
 _atom_site_fract_y
 _atom_site_fract_z
 _atom_site_occupancy
  Dy  Dy0  1  0.99758999  0.55885998  0.69671497  1
  Tm  Tm1  1  0.50401100  0.07878700  0.22963499  1
  Rb  Rb2  1  0.00459399  0.51506498  0.25320498  1
  Ga  Ga3  1  0.49215400  0.07242400  0.70004000  1
  Sr  Sr4  1  0.50077999  0.50121798  0.50212897  1
  Se  Se5  1  0.99710198  0.99829697  0.99425995  1
  Mo  Mo6  1  0.00405898  0.99805497  0.49404496  1
  Pb  Pb7  1  0.50086599  0.50294798  0.00066397  1
  B  B8  1  0.29330798  0.80568797  0.56415396  1
  As  As9  1  0.12409298  0.99245197  0.24821396  1
  H  H10  1  0.30560500  0.17560299  0.94219100  1
  K  K11  1  0.19354599  0.29037799  0.56237199  1
  Ir  Ir12  1  0.81795099  0.29977899  0.07079597  1
  He  He13  1  0.38678599  0.48189398  0.24356997  1
  Cu  Cu14  1  0.61605599  0.48949798  0.75913598  1
  Pt  Pt15  1  0.17581999  0.69074698  0.94059598  1
  Dy  Dy16  1  0.81843699  0.69353898  0.45278696  1
  Ni  Ni17  1  0.69500498  0.81919797  0.06887995  1
  Li  Li18  1  0.87346298  0.99526797  0.75504695  1
  Ho  Ho19  1  0.69877300  0.18270599  0.45036299  1
