# generated using pymatgen
data_BaSrYbYPaVCrCdInN
_symmetry_space_group_name_H-M   'P 1'
_cell_length_a   6.28889036
_cell_length_b   6.28889036
_cell_length_c   6.28889036
_cell_angle_alpha   60.00000000
_cell_angle_beta   60.00000000
_cell_angle_gamma   60.00000000
_symmetry_Int_Tables_number   1
_chemical_formula_structural   BaSrYbYPaVCrCdInN
_chemical_formula_sum   'Ba1 Sr1 Yb1 Y1 Pa1 V1 Cr1 Cd1 In1 N1'
_cell_volume   175.87619956
_cell_formula_units_Z   1
loop_
 _symmetry_equiv_pos_site_id
 _symmetry_equiv_pos_as_xyz
  1  'x, y, z'
loop_
 _atom_site_type_symbol
 _atom_site_label
 _atom_site_symmetry_multiplicity
 _atom_site_fract_x
 _atom_site_fract_y
 _atom_site_fract_z
 _atom_site_occupancy
  In  In0  1  0.25000000  0.25000000  0.25000000  1
  V  V1  1  0.75000000  0.75000000  0.75000000  1
  Y  Y2  1  0.50000000  0.50000000  0.50000000  1
  Pa  Pa3  1  0.00000000  0.00000000  0.00000000  1
  N  N4  1  0.22874400  0.77125600  0.22874400  1
  Cr  Cr5  1  0.22874400  0.22874400  0.77125600  1
  Cd  Cd6  1  0.77125600  0.22874400  0.77125600  1
  Sr  Sr7  1  0.22874400  0.77125600  0.77125600  1
  Ba  Ba8  1  0.77125600  0.22874400  0.22874400  1
  Yb  Yb9  1  0.77125600  0.77125600  0.22874400  1
