# generated using pymatgen
data_TbYbNdHoErUTlInAg2ICl
_symmetry_space_group_name_H-M   'P 1'
_cell_length_a   5.49800777
_cell_length_b   5.49800777
_cell_length_c   6.66317511
_cell_angle_alpha   114.36617279
_cell_angle_beta   114.36617279
_cell_angle_gamma   90.00000000
_symmetry_Int_Tables_number   1
_chemical_formula_structural   TbYbNdHoErUTlInAg2ICl
_chemical_formula_sum   'Tb1 Yb1 Nd1 Ho1 Er1 U1 Tl1 In1 Ag2 I1 Cl1'
_cell_volume   163.57797376
_cell_formula_units_Z   1
loop_
 _symmetry_equiv_pos_site_id
 _symmetry_equiv_pos_as_xyz
  1  'x, y, z'
loop_
 _atom_site_type_symbol
 _atom_site_label
 _atom_site_symmetry_multiplicity
 _atom_site_fract_x
 _atom_site_fract_y
 _atom_site_fract_z
 _atom_site_occupancy
  Cl  Cl0  1  0.50000003  0.50000003  0.00000002  1
  Ag  Ag1  1  0.25000003  0.75000004  0.50000002  1
  U  U2  1  0.00000000  0.00000000  0.00000000  1
  Ho  Ho3  1  0.75000004  0.25000001  0.50000002  1
  Tb  Tb4  1  0.10597402  0.62500003  0.75000001  1
  Ag  Ag5  1  0.87500006  0.89402605  0.25000003  1
  Nd  Nd6  1  0.64402604  0.62500003  0.75000002  1
  Er  Er7  1  0.64402603  0.12500001  0.75000001  1
  Tl  Tl8  1  0.37500004  0.89402605  0.25000003  1
  I  I9  1  0.10597401  0.12500001  0.75000000  1
  In  In10  1  0.37500003  0.35597402  0.25000001  1
  Yb  Yb11  1  0.87500005  0.35597402  0.25000002  1
