# generated using pymatgen
data_RbSrAcHfTiMnBe2NiTeAsPWO
_symmetry_space_group_name_H-M   'P 1'
_cell_length_a   5.35806799
_cell_length_b   7.97906494
_cell_length_c   7.97905111
_cell_angle_alpha   120.00028992
_cell_angle_beta   90.00000000
_cell_angle_gamma   90.00000000
_symmetry_Int_Tables_number   1
_chemical_formula_structural   RbSrAcHfTiMnBe2NiTeAsPWO
_chemical_formula_sum
'Rb1 Sr1 Ac1 Hf1 Ti1 Mn1 Be2 Ni1 Te1 As1 P1 W1 O1'
_cell_volume   295.42063684
_cell_formula_units_Z   1
loop_
 _symmetry_equiv_pos_site_id
 _symmetry_equiv_pos_as_xyz
  1  'x, y, z'
loop_
 _atom_site_type_symbol
 _atom_site_label
 _atom_site_symmetry_multiplicity
 _atom_site_fract_x
 _atom_site_fract_y
 _atom_site_fract_z
 _atom_site_occupancy
  Be  Be0  1  0.75000000  0.09366200  0.74109499  1
  Ni  Ni1  1  0.75000000  0.25890600  0.35256499  1
  Ac  Ac2  1  0.75000000  0.64743500  0.90633899  1
  Ti  Ti3  1  0.25000000  0.90633800  0.25890499  1
  Te  Te4  1  0.25000000  0.74109400  0.64743499  1
  W  W5  1  0.25000000  0.35256500  0.09366100  1
  P  P6  1  0.25000000  0.33333333  0.66666666  1
  Mn  Mn7  1  0.75000000  0.66666667  0.33333333  1
  Rb  Rb8  1  0.25000000  0.11575100  0.69585899  1
  As  As9  1  0.25000000  0.30413800  0.41989399  1
  Sr  Sr10  1  0.25000000  0.58009900  0.88423899  1
  Hf  Hf11  1  0.75000000  0.88424900  0.30414099  1
  O  O12  1  0.75000000  0.69586200  0.58010599  1
  Be  Be13  1  0.75000000  0.41990100  0.11576100  1
