# generated using pymatgen
data_CaAcDyGaFeBPIr2OsPdSIKr
_symmetry_space_group_name_H-M   'P 1'
_cell_length_a   3.88359690
_cell_length_b   3.88359690
_cell_length_c   14.96807480
_cell_angle_alpha   90.00000000
_cell_angle_beta   90.00000000
_cell_angle_gamma   90.00000000
_symmetry_Int_Tables_number   1
_chemical_formula_structural   CaAcDyGaFeBPIr2OsPdSIKr
_chemical_formula_sum
'Ca1 Ac1 Dy1 Ga1 Fe1 B1 P1 Pd1 Ir2 Os1 S1 I1 Kr1'
_cell_volume   225.75336663
_cell_formula_units_Z   1
loop_
 _symmetry_equiv_pos_site_id
 _symmetry_equiv_pos_as_xyz
  1  'x, y, z'
loop_
 _atom_site_type_symbol
 _atom_site_label
 _atom_site_symmetry_multiplicity
 _atom_site_fract_x
 _atom_site_fract_y
 _atom_site_fract_z
 _atom_site_occupancy
  Pd  Pd0  1  0.50000001  0.50000001  0.79825301  1
  Ir  Ir1  1  0.50000001  0.50000001  0.19491800  1
  Ir  Ir2  1  0.00000000  0.00000000  0.36542800  1
  Ac  Ac3  1  0.00000000  0.00000000  0.62903601  1
  B  B4  1  0.00000000  0.00000000  0.00432600  1
  I  I5  1  0.50000001  0.50000001  0.47162801  1
  Ca  Ca6  1  0.50000001  0.00000000  0.71689001  1
  Os  Os7  1  0.00000000  0.50000001  0.71689001  1
  P  P8  1  0.50000001  0.00000000  0.28511600  1
  Ga  Ga9  1  0.00000000  0.50000001  0.28511600  1
  Fe  Fe10  1  0.00000000  0.00000000  0.87857601  1
  S  S11  1  0.00000000  0.00000000  0.13716800  1
  Dy  Dy12  1  0.50000001  0.00000000  0.00832900  1
  Kr  Kr13  1  0.00000000  0.50000001  0.00832900  1
