# generated using pymatgen
data_NaLiCePrNdLuHfTiNbCrCoNiHgI2F
_symmetry_space_group_name_H-M   'P 1'
_cell_length_a   5.35723829
_cell_length_b   5.35923719
_cell_length_c   7.57783461
_cell_angle_alpha   106.24361420
_cell_angle_beta   108.17398071
_cell_angle_gamma   98.67068481
_symmetry_Int_Tables_number   1
_chemical_formula_structural   NaLiCePrNdLuHfTiNbCrCoNiHgI2F
_chemical_formula_sum
'Na1 Li1 Ce1 Pr1 Nd1 Lu1 Hf1 Ti1 Nb1 Cr1 Co1 Ni1 Hg1 I2 F1'
_cell_volume   191.58562215
_cell_formula_units_Z   1
loop_
 _symmetry_equiv_pos_site_id
 _symmetry_equiv_pos_as_xyz
  1  'x, y, z'
loop_
 _atom_site_type_symbol
 _atom_site_label
 _atom_site_symmetry_multiplicity
 _atom_site_fract_x
 _atom_site_fract_y
 _atom_site_fract_z
 _atom_site_occupancy
  Nd  Nd0  1  0.50000000  0.50000000  0.49999996  1
  Cr  Cr1  1  0.00000000  0.00000000  0.00000000  1
  Li  Li2  1  0.09468401  0.42994400  0.76187197  1
  Ni  Ni3  1  0.90531600  0.57005601  0.23812795  1
  F  F4  1  0.65582600  0.02264300  0.68639495  1
  Hf  Hf5  1  0.34417401  0.97735701  0.31360497  1
  Pr  Pr6  1  0.34306200  0.13185900  0.26488698  1
  I  I7  1  0.77595100  0.32467400  0.65067094  1
  Co  Co8  1  0.76695100  0.65153001  0.38785195  1
  Na  Na9  1  0.17647200  0.29255700  0.91683997  1
  Ce  Ce10  1  0.17981401  0.73878301  0.86139097  1
  Ti  Ti11  1  0.82018600  0.26121700  0.13860896  1
  Lu  Lu12  1  0.82352800  0.70744301  0.08315996  1
  Nb  Nb13  1  0.23304900  0.34847000  0.61214797  1
  I  I14  1  0.22404901  0.67532601  0.34932898  1
  Hg  Hg15  1  0.65693801  0.86814101  0.73511295  1
