# generated using pymatgen
data_Ni2NeTmBeGaIrAuKrO
_symmetry_space_group_name_H-M   'P 1'
_cell_length_a   8.62805748
_cell_length_b   8.62805748
_cell_length_c   8.62805748
_cell_angle_alpha   60.00000000
_cell_angle_beta   60.00000000
_cell_angle_gamma   60.00000000
_symmetry_Int_Tables_number   1
_chemical_formula_structural   Ni2NeTmBeGaIrAuKrO
_chemical_formula_sum   'Ni2 Ne1 Tm1 Be1 Ga1 Ir1 Au1 Kr1 O1'
_cell_volume   454.17590606
_cell_formula_units_Z   1
loop_
 _symmetry_equiv_pos_site_id
 _symmetry_equiv_pos_as_xyz
  1  'x, y, z'
loop_
 _atom_site_type_symbol
 _atom_site_label
 _atom_site_symmetry_multiplicity
 _atom_site_fract_x
 _atom_site_fract_y
 _atom_site_fract_z
 _atom_site_occupancy
  Ni  Ni0  1  0.25000000  0.25000000  0.25000000  1
  Ne  Ne1  1  0.75000001  0.75000001  0.75000001  1
  O  O2  1  0.50000000  0.50000000  0.50000000  1
  Ir  Ir3  1  0.00000000  0.00000000  0.00000000  1
  Tm  Tm4  1  0.23094200  0.76905801  0.23094200  1
  Kr  Kr5  1  0.23094200  0.23094200  0.76905801  1
  Be  Be6  1  0.76905801  0.23094200  0.76905801  1
  Au  Au7  1  0.23094200  0.76905801  0.76905801  1
  Ni  Ni8  1  0.76905801  0.23094200  0.23094200  1
  Ga  Ga9  1  0.76905801  0.76905801  0.23094200  1
