# generated using pymatgen
data_DyErPaAgHPdSBrF
_symmetry_space_group_name_H-M   'P 1'
_cell_length_a   7.43916941
_cell_length_b   7.43916941
_cell_length_c   7.43916941
_cell_angle_alpha   60.00000000
_cell_angle_beta   60.00000000
_cell_angle_gamma   60.00000000
_symmetry_Int_Tables_number   1
_chemical_formula_structural   DyErPaAgHPdSBrF
_chemical_formula_sum   'Dy1 Er1 Pa1 Ag1 H1 Pd1 S1 Br1 F1'
_cell_volume   291.11082046
_cell_formula_units_Z   1
loop_
 _symmetry_equiv_pos_site_id
 _symmetry_equiv_pos_as_xyz
  1  'x, y, z'
loop_
 _atom_site_type_symbol
 _atom_site_label
 _atom_site_symmetry_multiplicity
 _atom_site_fract_x
 _atom_site_fract_y
 _atom_site_fract_z
 _atom_site_occupancy
  Dy  Dy0  1  0.74999998  0.74999998  0.74999998  1
  Ag  Ag1  1  0.24999999  0.24999999  0.24999999  1
  Br  Br2  1  0.00000000  0.00000000  0.00000000  1
  Er  Er3  1  0.77664898  0.77664898  0.22335099  1
  Pa  Pa4  1  0.77664898  0.22335099  0.22335099  1
  H  H5  1  0.22335099  0.77664898  0.77664898  1
  F  F6  1  0.22335099  0.22335099  0.77664898  1
  S  S7  1  0.77664898  0.22335099  0.77664898  1
  Pd  Pd8  1  0.22335099  0.77664898  0.22335099  1
