# generated using pymatgen
data_BaCaLaPrNdGdScUNbZnCrInRuWCSe2XeNO
_symmetry_space_group_name_H-M   'P 1'
_cell_length_a   5.67559385
_cell_length_b   6.95963478
_cell_length_c   7.79946804
_cell_angle_alpha   90.00000000
_cell_angle_beta   90.00000000
_cell_angle_gamma   90.00000000
_symmetry_Int_Tables_number   1
_chemical_formula_structural   BaCaLaPrNdGdScUNbZnCrInRuWCSe2XeNO
_chemical_formula_sum
'Ba1 Ca1 La1 Pr1 Nd1 Gd1 Sc1 U1 Nb1 Zn1 Cr1 In1 Ru1 W1 C1 Se2 Xe1 N1 O1'
_cell_volume   308.07945854
_cell_formula_units_Z   1
loop_
 _symmetry_equiv_pos_site_id
 _symmetry_equiv_pos_as_xyz
  1  'x, y, z'
loop_
 _atom_site_type_symbol
 _atom_site_label
 _atom_site_symmetry_multiplicity
 _atom_site_fract_x
 _atom_site_fract_y
 _atom_site_fract_z
 _atom_site_occupancy
  Zn  Zn0  1  0.25000001  0.80900303  0.98351999  1
  Ru  Ru1  1  0.75000002  0.19099701  0.01648000  1
  C  C2  1  0.75000002  0.30900301  0.51648000  1
  Ca  Ca3  1  0.25000001  0.69099702  0.48352000  1
  N  N4  1  0.25000001  0.35933101  0.84596200  1
  Xe  Xe5  1  0.75000002  0.64066902  0.15403800  1
  Gd  Gd6  1  0.75000002  0.85933103  0.65403800  1
  O  O7  1  0.25000001  0.14066900  0.34596200  1
  W  W8  1  0.55633201  0.93518003  0.70025000  1
  La  La9  1  0.05633200  0.06482000  0.29975000  1
  Cr  Cr10  1  0.44366801  0.43518001  0.79975000  1
  Se  Se11  1  0.94366802  0.56482002  0.20025000  1
  In  In12  1  0.25000001  0.28802101  0.44106800  1
  Pr  Pr13  1  0.75000002  0.71197902  0.55893200  1
  Ba  Ba14  1  0.75000002  0.78802102  0.05893200  1
  Nb  Nb15  1  0.25000001  0.21197901  0.94106800  1
  Se  Se16  1  0.44366801  0.06482000  0.29975000  1
  U  U17  1  0.94366802  0.93518003  0.70025000  1
  Sc  Sc18  1  0.55633201  0.56482002  0.20025000  1
  Nd  Nd19  1  0.05633200  0.43518001  0.79975000  1
