# generated using pymatgen
data_BaSr2TbYbLuTlCdSnAsPPt
_symmetry_space_group_name_H-M   'P 1'
_cell_length_a   5.01233912
_cell_length_b   5.01233912
_cell_length_c   5.01233912
_cell_angle_alpha   90.00000000
_cell_angle_beta   90.00000000
_cell_angle_gamma   90.00000000
_symmetry_Int_Tables_number   1
_chemical_formula_structural   BaSr2TbYbLuTlCdSnAsPPt
_chemical_formula_sum   'Ba1 Sr2 Yb1 Tb1 Lu1 Tl1 Cd1 Sn1 As1 P1 Pt1'
_cell_volume   125.92771932
_cell_formula_units_Z   1
loop_
 _symmetry_equiv_pos_site_id
 _symmetry_equiv_pos_as_xyz
  1  'x, y, z'
loop_
 _atom_site_type_symbol
 _atom_site_label
 _atom_site_symmetry_multiplicity
 _atom_site_fract_x
 _atom_site_fract_y
 _atom_site_fract_z
 _atom_site_occupancy
  Lu  Lu0  1  0.00000000  0.49999999  0.49999999  1
  Sr  Sr1  1  0.49999999  0.49999999  0.00000000  1
  P  P2  1  0.49999999  0.00000000  0.49999999  1
  As  As3  1  0.00000000  0.00000000  0.00000000  1
  Yb  Yb4  1  0.33992699  0.16007300  0.83992698  1
  Sr  Sr5  1  0.16007300  0.83992698  0.33992699  1
  Ba  Ba6  1  0.83992698  0.33992699  0.16007300  1
  Pt  Pt7  1  0.66007298  0.66007298  0.66007298  1
  Cd  Cd8  1  0.33992699  0.33992699  0.33992699  1
  Tb  Tb9  1  0.16007300  0.66007298  0.83992698  1
  Sn  Sn10  1  0.83992698  0.16007300  0.66007298  1
  Tl  Tl11  1  0.66007298  0.83992698  0.16007300  1
