# generated using pymatgen
data_CsYbHoFeSn
_symmetry_space_group_name_H-M   'P 1'
_cell_length_a   4.02311420
_cell_length_b   4.02311420
_cell_length_c   7.01616621
_cell_angle_alpha   106.66068268
_cell_angle_beta   106.66068268
_cell_angle_gamma   90.00000000
_symmetry_Int_Tables_number   1
_chemical_formula_structural   CsYbHoFeSn
_chemical_formula_sum   'Cs1 Yb1 Ho1 Fe1 Sn1'
_cell_volume   103.80648264
_cell_formula_units_Z   1
loop_
 _symmetry_equiv_pos_site_id
 _symmetry_equiv_pos_as_xyz
  1  'x, y, z'
loop_
 _atom_site_type_symbol
 _atom_site_label
 _atom_site_symmetry_multiplicity
 _atom_site_fract_x
 _atom_site_fract_y
 _atom_site_fract_z
 _atom_site_occupancy
  Fe  Fe0  1  0.66100198  0.66100197  0.32200403  1
  Sn  Sn1  1  0.33899799  0.33899799  0.67799603  1
  Cs  Cs2  1  0.00000000  0.00000000  0.00000000  1
  Ho  Ho3  1  0.74999997  0.24999999  0.50000003  1
  Yb  Yb4  1  0.25000000  0.74999997  0.50000003  1
