# generated using pymatgen
data_SrCaYbCeBeCrTePdRuWClF
_symmetry_space_group_name_H-M   'P 1'
_cell_length_a   8.30618000
_cell_length_b   8.30618000
_cell_length_c   10.16775322
_cell_angle_alpha   114.10794067
_cell_angle_beta   114.10794067
_cell_angle_gamma   90.00000000
_symmetry_Int_Tables_number   1
_chemical_formula_structural   SrCaYbCeBeCrTePdRuWClF
_chemical_formula_sum
'Sr1 Ca1 Yb1 Ce1 Be1 Cr1 Te1 Pd1 Ru1 W1 Cl1 F1'
_cell_volume   572.62590649
_cell_formula_units_Z   1
loop_
 _symmetry_equiv_pos_site_id
 _symmetry_equiv_pos_as_xyz
  1  'x, y, z'
loop_
 _atom_site_type_symbol
 _atom_site_label
 _atom_site_symmetry_multiplicity
 _atom_site_fract_x
 _atom_site_fract_y
 _atom_site_fract_z
 _atom_site_occupancy
  W  W0  1  0.24999997  0.74999998  0.49999997  1
  Pd  Pd1  1  0.49999998  0.49999999  -0.00000004  1
  Be  Be2  1  0.74999998  0.24999999  0.49999998  1
  Ca  Ca3  1  0.00000000  0.00000000  0.00000000  1
  F  F4  1  0.87746796  0.87746798  0.24549094  1
  Ru  Ru5  1  0.36802296  0.87746798  0.24549096  1
  Sr  Sr6  1  0.63197697  0.63197699  0.75450897  1
  Yb  Yb7  1  0.12253198  0.63197699  0.75450898  1
  Cr  Cr8  1  0.87746798  0.36802299  0.24549096  1
  Cl  Cl9  1  0.36802298  0.36802299  0.24549098  1
  Ce  Ce10  1  0.12253199  0.12253200  0.75450900  1
  Te  Te11  1  0.63197699  0.12253200  0.75450899  1
