# generated using pymatgen
data_HeSrCaCePmPr2SmEuDyYMnNbSiTcRuAuXe
_symmetry_space_group_name_H-M   'P 1'
_cell_length_a   6.36066198
_cell_length_b   7.05078220
_cell_length_c   7.05078268
_cell_angle_alpha   60.00000381
_cell_angle_beta   90.00000000
_cell_angle_gamma   90.00000000
_symmetry_Int_Tables_number   1
_chemical_formula_structural   HeSrCaCePmPr2SmEuDyYMnNbSiTcRuAuXe
_chemical_formula_sum
'He1 Sr1 Ca1 Ce1 Pm1 Pr2 Sm1 Eu1 Y1 Dy1 Mn1 Nb1 Tc1 Si1 Ru1 Au1 Xe1'
_cell_volume   273.84675191
_cell_formula_units_Z   1
loop_
 _symmetry_equiv_pos_site_id
 _symmetry_equiv_pos_as_xyz
  1  'x, y, z'
loop_
 _atom_site_type_symbol
 _atom_site_label
 _atom_site_symmetry_multiplicity
 _atom_site_fract_x
 _atom_site_fract_y
 _atom_site_fract_z
 _atom_site_occupancy
  He  He0  1  0.33333333  0.49999998  0.50000000  1
  Au  Au1  1  0.66666667  0.49999998  0.00000001  1
  Y  Y2  1  0.00000000  0.00000000  0.49999999  1
  Nb  Nb3  1  0.83333300  0.49999998  0.50000000  1
  Ru  Ru4  1  0.16666700  0.49999998  0.00000001  1
  Ca  Ca5  1  0.50000000  0.00000000  0.49999999  1
  Pm  Pm6  1  0.02564900  0.68879597  0.86417200  1
  Sm  Sm7  1  0.35898200  0.86417197  0.44703201  1
  Sr  Sr8  1  0.69231500  0.44703198  0.68879600  1
  Eu  Eu9  1  0.69231500  0.55296798  0.31120401  1
  Pr  Pr10  1  0.64101800  0.13582799  0.31120400  1
  Tc  Tc11  1  0.02564900  0.31120399  0.13582800  1
  Dy  Dy12  1  0.64101800  0.86417197  0.68879601  1
  Si  Si13  1  0.30768500  0.55296798  0.13582801  1
  Mn  Mn14  1  0.97435100  0.31120399  0.55296800  1
  Ce  Ce15  1  0.97435100  0.68879597  0.44703201  1
  Pr  Pr16  1  0.30768500  0.44703198  0.86417200  1
  Xe  Xe17  1  0.35898200  0.13582799  0.55296800  1
