# generated using pymatgen
data_CaNd2HfBeZnCuAgBiBPtPb
_symmetry_space_group_name_H-M   'P 1'
_cell_length_a   4.62570810
_cell_length_b   7.74745798
_cell_length_c   8.52533054
_cell_angle_alpha   90.00000000
_cell_angle_beta   90.00000000
_cell_angle_gamma   90.00000000
_symmetry_Int_Tables_number   1
_chemical_formula_structural   CaNd2HfBeZnCuAgBiBPtPb
_chemical_formula_sum   'Ca1 Nd2 Hf1 Be1 Zn1 Cu1 Ag1 Bi1 B1 Pt1 Pb1'
_cell_volume   305.52635570
_cell_formula_units_Z   1
loop_
 _symmetry_equiv_pos_site_id
 _symmetry_equiv_pos_as_xyz
  1  'x, y, z'
loop_
 _atom_site_type_symbol
 _atom_site_label
 _atom_site_symmetry_multiplicity
 _atom_site_fract_x
 _atom_site_fract_y
 _atom_site_fract_z
 _atom_site_occupancy
  Zn  Zn0  1  0.74999998  0.47883800  0.80667704  1
  Hf  Hf1  1  0.24999999  0.52116200  0.19332301  1
  Nd  Nd2  1  0.24999999  0.02116200  0.30667702  1
  Nd  Nd3  1  0.74999998  0.97883800  0.69332304  1
  Bi  Bi4  1  0.74999998  0.85846500  0.06409900  1
  Pb  Pb5  1  0.74999998  0.35846500  0.43590102  1
  Pt  Pt6  1  0.24999999  0.14153500  0.93590105  1
  Be  Be7  1  0.24999999  0.64153500  0.56409903  1
  Cu  Cu8  1  0.74999998  0.74238700  0.38518602  1
  Ag  Ag9  1  0.24999999  0.25761300  0.61481403  1
  Ca  Ca10  1  0.74999998  0.24238700  0.11481401  1
  B  B11  1  0.24999999  0.75761300  0.88518605  1
