# generated using pymatgen
data_La2GdGaSiAgGeBIrS
_symmetry_space_group_name_H-M   'P 1'
_cell_length_a   8.51058006
_cell_length_b   8.51058006
_cell_length_c   8.51058006
_cell_angle_alpha   60.00000000
_cell_angle_beta   60.00000000
_cell_angle_gamma   60.00000000
_symmetry_Int_Tables_number   1
_chemical_formula_structural   La2GdGaSiAgGeBIrS
_chemical_formula_sum   'La2 Gd1 Ga1 Si1 Ag1 Ge1 B1 Ir1 S1'
_cell_volume   435.87552872
_cell_formula_units_Z   1
loop_
 _symmetry_equiv_pos_site_id
 _symmetry_equiv_pos_as_xyz
  1  'x, y, z'
loop_
 _atom_site_type_symbol
 _atom_site_label
 _atom_site_symmetry_multiplicity
 _atom_site_fract_x
 _atom_site_fract_y
 _atom_site_fract_z
 _atom_site_occupancy
  La  La0  1  0.25000001  0.25000001  0.25000001  1
  S  S1  1  0.75000002  0.75000002  0.75000002  1
  Ag  Ag2  1  0.50000001  0.50000001  0.50000001  1
  Gd  Gd3  1  0.00000000  0.00000000  0.00000000  1
  Ga  Ga4  1  0.23850500  0.76149502  0.23850500  1
  Si  Si5  1  0.23850500  0.23850500  0.76149502  1
  B  B6  1  0.76149502  0.23850500  0.76149502  1
  Ir  Ir7  1  0.23850500  0.76149502  0.76149502  1
  Ge  Ge8  1  0.76149502  0.23850500  0.23850500  1
  La  La9  1  0.76149502  0.76149502  0.23850500  1
