# generated using pymatgen
data_NaCeEuDyPuMgMnAlCrCuReTcAgRuCNClF
_symmetry_space_group_name_H-M   'P 1'
_cell_length_a   5.31228924
_cell_length_b   7.13230085
_cell_length_c   7.47295856
_cell_angle_alpha   90.00000000
_cell_angle_beta   91.52150726
_cell_angle_gamma   90.00000000
_symmetry_Int_Tables_number   1
_chemical_formula_structural   NaCeEuDyPuMgMnAlCrCuReTcAgRuCNClF
_chemical_formula_sum
'Na1 Ce1 Eu1 Dy1 Pu1 Mg1 Mn1 Al1 Cr1 Tc1 Cu1 Re1 Ag1 Ru1 C1 N1 Cl1 F1'
_cell_volume   283.04194152
_cell_formula_units_Z   1
loop_
 _symmetry_equiv_pos_site_id
 _symmetry_equiv_pos_as_xyz
  1  'x, y, z'
loop_
 _atom_site_type_symbol
 _atom_site_label
 _atom_site_symmetry_multiplicity
 _atom_site_fract_x
 _atom_site_fract_y
 _atom_site_fract_z
 _atom_site_occupancy
  Tc  Tc0  1  0.00000000  0.00000000  0.50000001  1
  F  F1  1  0.49999998  0.50000001  0.00000002  1
  Na  Na2  1  0.47906598  0.15788600  0.28450703  1
  Mn  Mn3  1  0.52093398  0.84211402  0.71549304  1
  Pu  Pu4  1  0.97906596  0.34211401  0.78450706  1
  Mg  Mg5  1  0.02093400  0.65788601  0.21549301  1
  Cr  Cr6  1  0.44376298  0.58398301  0.75923004  1
  Cu  Cu7  1  0.55623698  0.41601701  0.24077003  1
  Eu  Eu8  1  0.31591599  0.71378901  0.08582301  1
  Cl  Cl9  1  0.18408399  0.21378900  0.41417702  1
  Ag  Ag10  1  0.94376296  0.91601702  0.25923004  1
  C  C11  1  0.19885999  0.35096901  0.99478303  1
  Dy  Dy12  1  0.30113999  0.85096902  0.50521702  1
  Al  Al13  1  0.80113997  0.64903101  0.00521703  1
  Ru  Ru14  1  0.69885997  0.14903100  0.49478304  1
  Re  Re15  1  0.68408397  0.28621101  0.91417705  1
  Ce  Ce16  1  0.81591596  0.78621102  0.58582305  1
  N  N17  1  0.05623700  0.08398300  0.74077002  1
