# generated using pymatgen
data_BaPrSmPu3MgZnGaCoBiSbAsPPtPb2NF2
_symmetry_space_group_name_H-M   'P 1'
_cell_length_a   4.27680588
_cell_length_b   8.96519470
_cell_length_c   13.88051128
_cell_angle_alpha   90.00000000
_cell_angle_beta   90.00000000
_cell_angle_gamma   100.14528656
_symmetry_Int_Tables_number   1
_chemical_formula_structural   BaPrSmPu3MgZnGaCoBiSbAsPPtPb2NF2
_chemical_formula_sum
'Ba1 Pr1 Sm1 Pu3 Mg1 Zn1 Ga1 Co1 Bi1 Sb1 As1 P1 Pt1 Pb2 N1 F2'
_cell_volume   523.89055144
_cell_formula_units_Z   1
loop_
 _symmetry_equiv_pos_site_id
 _symmetry_equiv_pos_as_xyz
  1  'x, y, z'
loop_
 _atom_site_type_symbol
 _atom_site_label
 _atom_site_symmetry_multiplicity
 _atom_site_fract_x
 _atom_site_fract_y
 _atom_site_fract_z
 _atom_site_occupancy
  Pt  Pt0  1  0.22068796  0.44128499  0.16752000  1
  Pu  Pu1  1  0.77931202  0.05871500  0.66751999  1
  Co  Co2  1  0.77931197  0.55871498  0.83247998  1
  F  F3  1  0.22068791  0.94128497  0.33247999  1
  Ga  Ga4  1  0.75763599  0.34509599  0.45023299  1
  Sm  Sm5  1  0.24236399  0.15490400  0.95023298  1
  Mg  Mg6  1  0.24236394  0.65490398  0.54976699  1
  Sb  Sb7  1  0.75763594  0.84509597  0.04976700  1
  N  N8  1  0.66235399  0.32181099  0.00898000  1
  Pr  Pr9  1  0.83250293  0.96465497  0.90175498  1
  As  As10  1  0.83250298  0.46465499  0.59824499  1
  Pu  Pu11  1  0.16749700  0.03534500  0.09824500  1
  Ba  Ba12  1  0.72230695  0.73984998  0.19847200  1
  Pb  Pb13  1  0.27769293  0.76014998  0.69847199  1
  Pu  Pu14  1  0.27769298  0.26014999  0.80152798  1
  Zn  Zn15  1  0.33764599  0.17818899  0.50897999  1
  Bi  Bi16  1  0.33764594  0.67818898  0.99101998  1
  Pb  Pb17  1  0.66235394  0.82181097  0.49101999  1
  F  F18  1  0.72230700  0.23984999  0.30152799  1
  P  P19  1  0.16749695  0.53534498  0.40175499  1
