# generated using pymatgen
data_Tm2ZrTcRhPbCSeKrN
_symmetry_space_group_name_H-M   'P 1'
_cell_length_a   4.17146206
_cell_length_b   6.51339817
_cell_length_c   7.82548714
_cell_angle_alpha   104.78454590
_cell_angle_beta   90.00000000
_cell_angle_gamma   90.00000000
_symmetry_Int_Tables_number   1
_chemical_formula_structural   Tm2ZrTcRhPbCSeKrN
_chemical_formula_sum   'Tm2 Zr1 Tc1 Rh1 Pb1 C1 Se1 Kr1 N1'
_cell_volume   205.58214279
_cell_formula_units_Z   1
loop_
 _symmetry_equiv_pos_site_id
 _symmetry_equiv_pos_as_xyz
  1  'x, y, z'
loop_
 _atom_site_type_symbol
 _atom_site_label
 _atom_site_symmetry_multiplicity
 _atom_site_fract_x
 _atom_site_fract_y
 _atom_site_fract_z
 _atom_site_occupancy
  Rh  Rh0  1  0.74999999  0.32934999  0.07875799  1
  Tc  Tc1  1  0.25000000  0.67064998  0.92124200  1
  Tm  Tm2  1  0.74999999  0.32425699  0.59285100  1
  N  N3  1  0.25000000  0.67574298  0.40714899  1
  Kr  Kr4  1  0.74999999  0.94444997  0.18496898  1
  Zr  Zr5  1  0.25000000  0.05555000  0.81503102  1
  Pb  Pb6  1  0.25000000  0.47089598  0.59805800  1
  C  C7  1  0.74999999  0.52910398  0.40194199  1
  Tm  Tm8  1  0.25000000  0.48864398  0.14280499  1
  Se  Se9  1  0.74999999  0.51135598  0.85719501  1
