# generated using pymatgen
data_NaHfNpTaMnAlTlCdHgGeMoPSCl
_symmetry_space_group_name_H-M   'P 1'
_cell_length_a   2.94757009
_cell_length_b   2.95455694
_cell_length_c   12.93342590
_cell_angle_alpha   90.00000000
_cell_angle_beta   90.00000000
_cell_angle_gamma   90.00000000
_symmetry_Int_Tables_number   1
_chemical_formula_structural   NaHfNpTaMnAlTlCdHgGeMoPSCl
_chemical_formula_sum
'Na1 Hf1 Np1 Ta1 Mn1 Al1 Tl1 Cd1 Hg1 Ge1 Mo1 P1 S1 Cl1'
_cell_volume   112.63414948
_cell_formula_units_Z   1
loop_
 _symmetry_equiv_pos_site_id
 _symmetry_equiv_pos_as_xyz
  1  'x, y, z'
loop_
 _atom_site_type_symbol
 _atom_site_label
 _atom_site_symmetry_multiplicity
 _atom_site_fract_x
 _atom_site_fract_y
 _atom_site_fract_z
 _atom_site_occupancy
  Cd  Cd0  1  0.00000000  0.00000000  0.18602300  1
  Hg  Hg1  1  0.00000000  0.50000001  0.99898301  1
  S  S2  1  0.49999999  0.00000000  0.49947900  1
  Hf  Hf3  1  0.00000000  0.00000000  0.81417901  1
  Na  Na4  1  0.49999999  0.50000001  0.31406800  1
  Np  Np5  1  0.49999999  0.50000001  0.68615001  1
  Mo  Mo6  1  0.00000000  0.50000001  0.56585100  1
  Ge  Ge7  1  0.49999999  0.00000000  0.06725700  1
  Cl  Cl8  1  0.49999999  0.00000000  0.93444201  1
  Tl  Tl9  1  0.00000000  0.50000001  0.43317800  1
  Ta  Ta10  1  0.00000000  0.00000000  0.64001000  1
  P  P11  1  0.49999999  0.50000001  0.14183900  1
  Al  Al12  1  0.49999999  0.50000001  0.86015501  1
  Mn  Mn13  1  0.00000000  0.00000000  0.35838600  1
