# generated using pymatgen
data_CsNaNdUBeVNiPtAuNe
_symmetry_space_group_name_H-M   'P 1'
_cell_length_a   6.02434206
_cell_length_b   6.02434206
_cell_length_c   6.02434206
_cell_angle_alpha   60.00000000
_cell_angle_beta   60.00000000
_cell_angle_gamma   60.00000000
_symmetry_Int_Tables_number   1
_chemical_formula_structural   CsNaNdUBeVNiPtAuNe
_chemical_formula_sum   'Cs1 Na1 Nd1 U1 Be1 V1 Ni1 Pt1 Au1 Ne1'
_cell_volume   154.60155975
_cell_formula_units_Z   1
loop_
 _symmetry_equiv_pos_site_id
 _symmetry_equiv_pos_as_xyz
  1  'x, y, z'
loop_
 _atom_site_type_symbol
 _atom_site_label
 _atom_site_symmetry_multiplicity
 _atom_site_fract_x
 _atom_site_fract_y
 _atom_site_fract_z
 _atom_site_occupancy
  V  V0  1  0.24999999  0.24999999  0.24999999  1
  Be  Be1  1  0.74999998  0.74999998  0.74999998  1
  Nd  Nd2  1  0.49999999  0.49999999  0.49999999  1
  Au  Au3  1  0.00000000  0.00000000  0.00000000  1
  Pt  Pt4  1  0.23613299  0.76386698  0.23613299  1
  Ni  Ni5  1  0.23613299  0.23613299  0.76386698  1
  U  U6  1  0.76386698  0.23613299  0.76386698  1
  Na  Na7  1  0.23613299  0.76386698  0.76386698  1
  Ne  Ne8  1  0.76386698  0.23613299  0.23613299  1
  Cs  Cs9  1  0.76386698  0.76386698  0.23613299  1
