# generated using pymatgen
data_CsNaLiCa2NdHoErThTaNbTlCrInCuSiB2TeCl
_symmetry_space_group_name_H-M   'P 1'
_cell_length_a   6.69674778
_cell_length_b   8.15640068
_cell_length_c   10.62069225
_cell_angle_alpha   90.00000000
_cell_angle_beta   90.00000000
_cell_angle_gamma   93.66262054
_symmetry_Int_Tables_number   1
_chemical_formula_structural   CsNaLiCa2NdHoErThTaNbTlCrInCuSiB2TeCl
_chemical_formula_sum
'Cs1 Na1 Li1 Ca2 Nd1 Ho1 Er1 Th1 Ta1 Nb1 Tl1 Cr1 In1 Cu1 Si1 B2 Te1 Cl1'
_cell_volume   578.93175085
_cell_formula_units_Z   1
loop_
 _symmetry_equiv_pos_site_id
 _symmetry_equiv_pos_as_xyz
  1  'x, y, z'
loop_
 _atom_site_type_symbol
 _atom_site_label
 _atom_site_symmetry_multiplicity
 _atom_site_fract_x
 _atom_site_fract_y
 _atom_site_fract_z
 _atom_site_occupancy
  Cu  Cu0  1  0.00000001  0.49999998  0.49999999  1
  Na  Na1  1  0.50000002  0.00000000  0.49999999  1
  Er  Er2  1  0.00000001  0.49999998  -0.00000000  1
  Ca  Ca3  1  0.50000002  0.00000000  0.99999998  1
  Ta  Ta4  1  0.96952905  0.96193197  0.74999998  1
  Nd  Nd5  1  0.13481202  0.75709297  0.24999999  1
  Si  Si6  1  0.03047100  0.03806800  0.24999999  1
  Te  Te7  1  0.86518803  0.24290699  0.74999998  1
  In  In8  1  0.33376802  0.68602098  0.43075699  1
  B  B9  1  0.66623203  0.31397899  0.56924299  1
  Nb  Nb10  1  0.33376802  0.68602098  0.06924300  1
  Li  Li11  1  0.67254102  0.06901700  0.24999999  1
  Tl  Tl12  1  0.82353404  0.81225897  0.93023398  1
  Cs  Cs13  1  0.17646601  0.18774099  0.43023399  1
  Cr  Cr14  1  0.17646601  0.18774099  0.06976600  1
  Ca  Ca15  1  0.82353404  0.81225897  0.56976599  1
  Th  Th16  1  0.66623203  0.31397899  0.93075698  1
  B  B17  1  0.86980804  0.54088198  0.24999999  1
  Cl  Cl18  1  0.13019201  0.45911798  0.74999998  1
  Ho  Ho19  1  0.32745903  0.93098297  0.74999998  1
