# generated using pymatgen
data_IrNeVGaOsPt
_symmetry_space_group_name_H-M   'P 1'
_cell_length_a   6.03883600
_cell_length_b   6.03883600
_cell_length_c   6.03883600
_cell_angle_alpha   60.00000000
_cell_angle_beta   60.00000000
_cell_angle_gamma   60.00000000
_symmetry_Int_Tables_number   1
_chemical_formula_structural   IrNeVGaOsPt
_chemical_formula_sum   'Ir1 Ne1 V1 Ga1 Os1 Pt1'
_cell_volume   155.72011252
_cell_formula_units_Z   1
loop_
 _symmetry_equiv_pos_site_id
 _symmetry_equiv_pos_as_xyz
  1  'x, y, z'
loop_
 _atom_site_type_symbol
 _atom_site_label
 _atom_site_symmetry_multiplicity
 _atom_site_fract_x
 _atom_site_fract_y
 _atom_site_fract_z
 _atom_site_occupancy
  Ir  Ir0  1  0.50000001  0.50000001  0.50000001  1
  Ne  Ne1  1  0.25000001  0.25000001  0.25000001  1
  Os  Os2  1  0.37500001  0.87500002  0.87500002  1
  V  V3  1  0.87500002  0.87500002  0.37500001  1
  Ga  Ga4  1  0.87500002  0.87500002  0.87500002  1
  Pt  Pt5  1  0.87500002  0.37500001  0.87500002  1
