# generated using pymatgen
data_LiYbCe3PrGdDyYMgMnCoSiPt
_symmetry_space_group_name_H-M   'P 1'
_cell_length_a   6.92231655
_cell_length_b   6.92231655
_cell_length_c   6.92231655
_cell_angle_alpha   60.00000000
_cell_angle_beta   60.00000000
_cell_angle_gamma   60.00000000
_symmetry_Int_Tables_number   1
_chemical_formula_structural   LiYbCe3PrGdDyYMgMnCoSiPt
_chemical_formula_sum
'Li1 Yb1 Ce3 Pr1 Gd1 Y1 Dy1 Mg1 Mn1 Co1 Si1 Pt1'
_cell_volume   234.55212292
_cell_formula_units_Z   1
loop_
 _symmetry_equiv_pos_site_id
 _symmetry_equiv_pos_as_xyz
  1  'x, y, z'
loop_
 _atom_site_type_symbol
 _atom_site_label
 _atom_site_symmetry_multiplicity
 _atom_site_fract_x
 _atom_site_fract_y
 _atom_site_fract_z
 _atom_site_occupancy
  Si  Si0  1  0.25000000  0.25000000  0.25000000  1
  Y  Y1  1  0.50000000  0.50000000  0.50000000  1
  Pr  Pr2  1  0.87500000  0.87500000  0.87500000  1
  Ce  Ce3  1  0.87500000  0.87500000  0.37500000  1
  Mn  Mn4  1  0.37500000  0.87500000  0.87500000  1
  Li  Li5  1  0.87500000  0.37500000  0.87500000  1
  Dy  Dy6  1  0.66070000  0.11310000  0.11310000  1
  Gd  Gd7  1  0.63689900  0.08930100  0.63690000  1
  Mg  Mg8  1  0.11310100  0.11310000  0.66069900  1
  Yb  Yb9  1  0.11310100  0.11310000  0.11310000  1
  Ce  Ce10  1  0.08930000  0.63690000  0.63690000  1
  Ce  Ce11  1  0.11310100  0.66069900  0.11310000  1
  Co  Co12  1  0.63689900  0.63690000  0.08930100  1
  Pt  Pt13  1  0.63689900  0.63690000  0.63690000  1
