# generated using pymatgen
data_TbPmPrPuBe2NbInBiPdPtC
_symmetry_space_group_name_H-M   'P 1'
_cell_length_a   4.28722000
_cell_length_b   6.69300699
_cell_length_c   7.09945107
_cell_angle_alpha   90.00000000
_cell_angle_beta   90.00000000
_cell_angle_gamma   90.00000000
_symmetry_Int_Tables_number   1
_chemical_formula_structural   TbPmPrPuBe2NbInBiPdPtC
_chemical_formula_sum   'Tb1 Pr1 Pm1 Pu1 Be2 Nb1 In1 Bi1 Pd1 Pt1 C1'
_cell_volume   203.71444211
_cell_formula_units_Z   1
loop_
 _symmetry_equiv_pos_site_id
 _symmetry_equiv_pos_as_xyz
  1  'x, y, z'
loop_
 _atom_site_type_symbol
 _atom_site_label
 _atom_site_symmetry_multiplicity
 _atom_site_fract_x
 _atom_site_fract_y
 _atom_site_fract_z
 _atom_site_occupancy
  C  C0  1  0.25000000  0.01721400  0.79647799  1
  In  In1  1  0.25000000  0.51721400  0.70352199  1
  Nb  Nb2  1  0.75000000  0.98278600  0.20352200  1
  Pt  Pt3  1  0.75000000  0.48278600  0.29647800  1
  Tb  Tb4  1  0.25000000  0.28372900  0.07201300  1
  Pr  Pr5  1  0.25000000  0.78372900  0.42798700  1
  Pm  Pm6  1  0.75000000  0.71627100  0.92798699  1
  Bi  Bi7  1  0.75000000  0.21627100  0.57201299  1
  Pd  Pd8  1  0.25000000  0.69011700  0.09201400  1
  Pu  Pu9  1  0.25000000  0.19011700  0.40798600  1
  Be  Be10  1  0.75000000  0.30988300  0.90798599  1
  Be  Be11  1  0.75000000  0.80988300  0.59201399  1
