# generated using pymatgen
data_SmTmScTa2AlReSbAsSeSBrKr2
_symmetry_space_group_name_H-M   'P 1'
_cell_length_a   7.71829224
_cell_length_b   7.71829224
_cell_length_c   7.71829224
_cell_angle_alpha   109.47122192
_cell_angle_beta   109.47122192
_cell_angle_gamma   109.47122192
_symmetry_Int_Tables_number   1
_chemical_formula_structural   SmTmScTa2AlReSbAsSeSBrKr2
_chemical_formula_sum
'Sm1 Tm1 Sc1 Ta2 Al1 Re1 Sb1 As1 Se1 S1 Br1 Kr2'
_cell_volume   353.94985846
_cell_formula_units_Z   1
loop_
 _symmetry_equiv_pos_site_id
 _symmetry_equiv_pos_as_xyz
  1  'x, y, z'
loop_
 _atom_site_type_symbol
 _atom_site_label
 _atom_site_symmetry_multiplicity
 _atom_site_fract_x
 _atom_site_fract_y
 _atom_site_fract_z
 _atom_site_occupancy
  Sm  Sm0  1  0.12500001  0.25000000  0.37500001  1
  S  S1  1  0.75000003  0.62500001  0.87500003  1
  Re  Re2  1  0.37500004  0.75000001  0.12500005  1
  Sb  Sb3  1  0.87500000  0.12500000  0.75000001  1
  Sc  Sc4  1  0.62500001  0.37500001  0.25000003  1
  Kr  Kr5  1  0.25000005  0.87500001  0.62500004  1
  Se  Se6  1  0.34860702  0.34860701  0.84860701  1
  Kr  Kr7  1  0.50000000  0.15139300  0.50000001  1
  Al  Al8  1  0.00000003  0.50000001  0.65139301  1
  Tm  Tm9  1  0.50000003  0.65139301  0.50000004  1
  Ta  Ta10  1  0.15139300  0.00000000  0.00000000  1
  Br  Br11  1  0.65139299  0.00000000  0.00000002  1
  Ta  Ta12  1  1.00000002  0.50000001  0.15139305  1
  As  As13  1  0.84860704  0.84860701  0.34860706  1
