# generated using pymatgen
data_NaYbPrEuGdZrZnFe2NiSb2HPdPbAuCKr
_symmetry_space_group_name_H-M   'P 1'
_cell_length_a   5.05668020
_cell_length_b   5.24511290
_cell_length_c   7.81662321
_cell_angle_alpha   108.98451996
_cell_angle_beta   108.00302887
_cell_angle_gamma   90.42179108
_symmetry_Int_Tables_number   1
_chemical_formula_structural   NaYbPrEuGdZrZnFe2NiSb2HPdPbAuCKr
_chemical_formula_sum
'Na1 Yb1 Pr1 Eu1 Gd1 Zr1 Zn1 Fe2 Ni1 Sb2 Pd1 H1 Pb1 Au1 C1 Kr1'
_cell_volume   185.09721335
_cell_formula_units_Z   1
loop_
 _symmetry_equiv_pos_site_id
 _symmetry_equiv_pos_as_xyz
  1  'x, y, z'
loop_
 _atom_site_type_symbol
 _atom_site_label
 _atom_site_symmetry_multiplicity
 _atom_site_fract_x
 _atom_site_fract_y
 _atom_site_fract_z
 _atom_site_occupancy
  Na  Na0  1  0.50000004  0.50000004  0.50000004  1
  Zn  Zn1  1  0.00000000  0.00000000  0.00000000  1
  Eu  Eu2  1  0.82273902  0.40462003  0.77843204  1
  Yb  Yb3  1  0.17726106  0.59538004  0.22156804  1
  Zr  Zr4  1  0.02075305  0.50845704  0.68527502  1
  Pb  Pb5  1  0.97924703  0.49154304  0.31472506  1
  Pd  Pd6  1  0.39164500  0.07025301  0.75513600  1
  Ni  Ni7  1  0.60835509  0.92974707  0.24486408  1
  Au  Au8  1  0.74023207  0.83662706  0.09257608  1
  Sb  Sb9  1  0.25976801  0.16337301  0.90742400  1
  Kr  Kr10  1  0.29467108  0.84179406  0.15391006  1
  Fe  Fe11  1  0.70532900  0.15820601  0.84609002  1
  C  C12  1  0.66187801  0.23353502  0.32684203  1
  H  H13  1  0.33812207  0.76646506  0.67315805  1
  Gd  Gd14  1  0.71260407  0.80183406  0.38978607  1
  Sb  Sb15  1  0.28739601  0.19816601  0.61021401  1
  Fe  Fe16  1  0.14689105  0.45302903  0.27592903  1
  Pr  Pr17  1  0.85310904  0.54697104  0.72407105  1
