# generated using pymatgen
data_YbBeCrInHgRhPbBr
_symmetry_space_group_name_H-M   'P 1'
_cell_length_a   3.80470204
_cell_length_b   3.80470204
_cell_length_c   7.89353991
_cell_angle_alpha   90.00000000
_cell_angle_beta   90.00000000
_cell_angle_gamma   90.00000000
_symmetry_Int_Tables_number   1
_chemical_formula_structural   YbBeCrInHgRhPbBr
_chemical_formula_sum   'Yb1 Be1 Cr1 In1 Hg1 Rh1 Pb1 Br1'
_cell_volume   114.26497059
_cell_formula_units_Z   1
loop_
 _symmetry_equiv_pos_site_id
 _symmetry_equiv_pos_as_xyz
  1  'x, y, z'
loop_
 _atom_site_type_symbol
 _atom_site_label
 _atom_site_symmetry_multiplicity
 _atom_site_fract_x
 _atom_site_fract_y
 _atom_site_fract_z
 _atom_site_occupancy
  Br  Br0  1  0.00000000  0.00000000  0.00000000  1
  Pb  Pb1  1  0.00000000  0.00000000  0.50000001  1
  Yb  Yb2  1  0.49999999  0.00000000  -0.00000000  1
  Cr  Cr3  1  0.00000000  0.49999999  0.50000001  1
  In  In4  1  0.49999999  0.00000000  0.50000001  1
  Be  Be5  1  0.00000000  0.49999999  -0.00000000  1
  Hg  Hg6  1  0.00000000  0.00000000  0.25000000  1
  Rh  Rh7  1  0.00000000  0.00000000  0.75000001  1
