# generated using pymatgen
data_CaTbSmDyUMnNbAlTlFeAgTe2RhWHe
_symmetry_space_group_name_H-M   'P 1'
_cell_length_a   5.32639885
_cell_length_b   5.92445898
_cell_length_c   6.36267710
_cell_angle_alpha   90.00000000
_cell_angle_beta   90.00000000
_cell_angle_gamma   90.00000000
_symmetry_Int_Tables_number   1
_chemical_formula_structural   CaTbSmDyUMnNbAlTlFeAgTe2RhWHe
_chemical_formula_sum
'Ca1 Tb1 Sm1 Dy1 U1 Mn1 Nb1 Al1 Tl1 Fe1 Ag1 Te2 Rh1 W1 He1'
_cell_volume   200.78083889
_cell_formula_units_Z   1
loop_
 _symmetry_equiv_pos_site_id
 _symmetry_equiv_pos_as_xyz
  1  'x, y, z'
loop_
 _atom_site_type_symbol
 _atom_site_label
 _atom_site_symmetry_multiplicity
 _atom_site_fract_x
 _atom_site_fract_y
 _atom_site_fract_z
 _atom_site_occupancy
  Tl  Tl0  1  0.75000002  0.48881000  0.16312700  1
  Fe  Fe1  1  0.75000002  0.98881000  0.33687299  1
  Ag  Ag2  1  0.25000001  0.51119000  0.83687299  1
  Te  Te3  1  0.25000001  0.01119000  0.66312699  1
  Sm  Sm4  1  0.91560003  0.13016800  0.96145099  1
  Dy  Dy5  1  0.58440002  0.63016800  0.53854899  1
  Nb  Nb6  1  0.41560001  0.86983200  0.03854900  1
  Al  Al7  1  0.08440000  0.36983200  0.46145099  1
  U  U8  1  0.08440000  0.86983200  0.03854900  1
  Te  Te9  1  0.41560001  0.36983200  0.46145099  1
  W  W10  1  0.58440002  0.13016800  0.96145099  1
  Rh  Rh11  1  0.91560003  0.63016800  0.53854899  1
  Mn  Mn12  1  0.75000002  0.31874000  0.68164799  1
  He  He13  1  0.75000002  0.81874000  0.81835199  1
  Tb  Tb14  1  0.25000001  0.68126000  0.31835200  1
  Ca  Ca15  1  0.25000001  0.18126000  0.18164800  1
