# generated using pymatgen
data_CsGdYPuHfNbVGaSiWCKr
_symmetry_space_group_name_H-M   'P 1'
_cell_length_a   5.06400013
_cell_length_b   5.06400013
_cell_length_c   8.24055290
_cell_angle_alpha   90.00000000
_cell_angle_beta   90.00000000
_cell_angle_gamma   119.98829651
_symmetry_Int_Tables_number   1
_chemical_formula_structural   CsGdYPuHfNbVGaSiWCKr
_chemical_formula_sum   'Cs1 Gd1 Y1 Pu1 Hf1 Nb1 V1 Ga1 Si1 W1 C1 Kr1'
_cell_volume   183.03140140
_cell_formula_units_Z   1
loop_
 _symmetry_equiv_pos_site_id
 _symmetry_equiv_pos_as_xyz
  1  'x, y, z'
loop_
 _atom_site_type_symbol
 _atom_site_label
 _atom_site_symmetry_multiplicity
 _atom_site_fract_x
 _atom_site_fract_y
 _atom_site_fract_z
 _atom_site_occupancy
  Ga  Ga0  1  0.33333336  0.66666667  0.43771501  1
  Y  Y1  1  0.66666667  0.33333333  0.56228501  1
  Gd  Gd2  1  0.66666667  0.33333333  0.93771501  1
  Hf  Hf3  1  0.33333336  0.66666667  0.06228500  1
  Pu  Pu4  1  0.00000000  0.00000000  0.50000001  1
  C  C5  1  0.00000000  0.00000000  0.00000000  1
  Si  Si6  1  0.33380100  0.16691400  0.25000000  1
  Nb  Nb7  1  0.83310699  0.16689300  0.25000000  1
  V  V8  1  0.83308602  0.66619900  0.25000000  1
  W  W9  1  0.66619903  0.83308600  0.75000001  1
  Kr  Kr10  1  0.16689304  0.83310700  0.75000001  1
  Cs  Cs11  1  0.16691401  0.33380100  0.75000001  1
