# generated using pymatgen
data_CsBaPrYThMnTl2VGa2CuAgIrPtRhAuSXeF
_symmetry_space_group_name_H-M   'P 1'
_cell_length_a   5.50653648
_cell_length_b   5.65190125
_cell_length_c   7.92046022
_cell_angle_alpha   90.00543213
_cell_angle_beta   89.86111450
_cell_angle_gamma   89.99005890
_symmetry_Int_Tables_number   1
_chemical_formula_structural   CsBaPrYThMnTl2VGa2CuAgIrPtRhAuSXeF
_chemical_formula_sum
'Cs1 Ba1 Pr1 Y1 Th1 Mn1 Tl2 V1 Ga2 Cu1 Ag1 Ir1 Rh1 Pt1 Au1 S1 Xe1 F1'
_cell_volume   246.50300548
_cell_formula_units_Z   1
loop_
 _symmetry_equiv_pos_site_id
 _symmetry_equiv_pos_as_xyz
  1  'x, y, z'
loop_
 _atom_site_type_symbol
 _atom_site_label
 _atom_site_symmetry_multiplicity
 _atom_site_fract_x
 _atom_site_fract_y
 _atom_site_fract_z
 _atom_site_occupancy
  Ag  Ag0  1  0.98756898  0.05624600  0.25330504  1
  Rh  Rh1  1  0.51236299  0.55620098  0.24675304  1
  Xe  Xe2  1  0.01244800  0.94375496  0.74669606  1
  Pt  Pt3  1  0.48764699  0.44380398  0.75325005  1
  F  F4  1  0.49996699  0.99995796  0.99997608  1
  V  V5  1  0.99991798  0.49999898  0.50000106  1
  Th  Th6  1  0.49999899  0.00000000  0.50000103  1
  S  S7  1  0.00000800  0.50000198  0.00000302  1
  Au  Au8  1  0.68309898  0.28468999  0.44312404  1
  Tl  Tl9  1  0.81684798  0.78475897  0.05681706  1
  Ga  Ga10  1  0.31691300  0.71531597  0.55687805  1
  Tl  Tl11  1  0.18316800  0.21524899  0.94318304  1
  Ir  Ir12  1  0.21091900  0.19256099  0.54947103  1
  Ga  Ga13  1  0.28901900  0.69256197  0.95057406  1
  Pr  Pr14  1  0.78909498  0.80743897  0.45053307  1
  Mn  Mn15  1  0.71099698  0.30744599  0.04942903  1
  Cu  Cu16  1  0.09960400  0.46558298  0.23507103  1
  Y  Y17  1  0.40031599  0.96549196  0.26497706  1
  Ba  Ba18  1  0.59970299  0.03451500  0.73502503  1
  Cs  Cs19  1  0.90040498  0.53442098  0.76493306  1
