# generated using pymatgen
data_CaThPaBeNbZnCdSiAgIrPtWXeKr
_symmetry_space_group_name_H-M   'P 1'
_cell_length_a   5.25089407
_cell_length_b   7.82880020
_cell_length_c   7.82880020
_cell_angle_alpha   120.00000000
_cell_angle_beta   90.00000000
_cell_angle_gamma   90.00000000
_symmetry_Int_Tables_number   1
_chemical_formula_structural   CaThPaBeNbZnCdSiAgIrPtWXeKr
_chemical_formula_sum
'Ca1 Th1 Pa1 Be1 Nb1 Zn1 Cd1 Si1 Ag1 Ir1 Pt1 W1 Xe1 Kr1'
_cell_volume   278.71112730
_cell_formula_units_Z   1
loop_
 _symmetry_equiv_pos_site_id
 _symmetry_equiv_pos_as_xyz
  1  'x, y, z'
loop_
 _atom_site_type_symbol
 _atom_site_label
 _atom_site_symmetry_multiplicity
 _atom_site_fract_x
 _atom_site_fract_y
 _atom_site_fract_z
 _atom_site_occupancy
  Th  Th0  1  0.74999999  0.27462400  0.35826301  1
  Pa  Pa1  1  0.25000000  0.35826400  0.08364001  1
  Pt  Pt2  1  0.25000000  0.91636099  0.27462502  1
  Cd  Cd3  1  0.74999999  0.08363900  0.72537501  1
  Ir  Ir4  1  0.74999999  0.64173599  0.91636002  1
  Ca  Ca5  1  0.25000000  0.72537599  0.64173702  1
  Si  Si6  1  0.74999999  0.66666666  0.33333335  1
  Ag  Ag7  1  0.25000000  0.33333333  0.66666668  1
  Nb  Nb8  1  0.25000000  0.31491400  0.43689701  1
  Zn  Zn9  1  0.74999999  0.43689799  0.12198401  1
  Be  Be10  1  0.74999999  0.87801699  0.31491502  1
  Kr  Kr11  1  0.25000000  0.12198300  0.68508501  1
  Xe  Xe12  1  0.25000000  0.56310199  0.87801602  1
  W  W13  1  0.74999999  0.68508599  0.56310302  1
