# generated using pymatgen
data_YPuCu2HC
_symmetry_space_group_name_H-M   'P 1'
_cell_length_a   3.03671598
_cell_length_b   5.50909996
_cell_length_c   5.50909948
_cell_angle_alpha   120.00000000
_cell_angle_beta   90.00000000
_cell_angle_gamma   90.00000000
_symmetry_Int_Tables_number   1
_chemical_formula_structural   YPuCu2HC
_chemical_formula_sum   'Y1 Pu1 Cu2 H1 C1'
_cell_volume   79.81712392
_cell_formula_units_Z   1
loop_
 _symmetry_equiv_pos_site_id
 _symmetry_equiv_pos_as_xyz
  1  'x, y, z'
loop_
 _atom_site_type_symbol
 _atom_site_label
 _atom_site_symmetry_multiplicity
 _atom_site_fract_x
 _atom_site_fract_y
 _atom_site_fract_z
 _atom_site_occupancy
  Cu  Cu0  1  0.00000000  0.00000000  0.00000000  1
  Y  Y1  1  -0.00000000  0.66666665  0.33333330  1
  H  H2  1  -0.00000000  0.33333333  0.66666665  1
  C  C3  1  0.50000000  0.49999999  0.49999997  1
  Pu  Pu4  1  0.50000000  0.49999999  -0.00000003  1
  Cu  Cu5  1  0.50000000  0.00000000  0.50000000  1
