# generated using pymatgen
data_GeBIrN
_symmetry_space_group_name_H-M   'P 1'
_cell_length_a   4.63713980
_cell_length_b   4.63713980
_cell_length_c   4.63713980
_cell_angle_alpha   60.00000000
_cell_angle_beta   60.00000000
_cell_angle_gamma   60.00000000
_symmetry_Int_Tables_number   1
_chemical_formula_structural   GeBIrN
_chemical_formula_sum   'Ge1 B1 Ir1 N1'
_cell_volume   70.50754104
_cell_formula_units_Z   1
loop_
 _symmetry_equiv_pos_site_id
 _symmetry_equiv_pos_as_xyz
  1  'x, y, z'
loop_
 _atom_site_type_symbol
 _atom_site_label
 _atom_site_symmetry_multiplicity
 _atom_site_fract_x
 _atom_site_fract_y
 _atom_site_fract_z
 _atom_site_occupancy
  N  N0  1  0.50000000  0.50000000  0.50000000  1
  Ir  Ir1  1  0.75000000  0.75000000  0.75000000  1
  Ge  Ge2  1  0.25000000  0.25000000  0.25000000  1
  B  B3  1  0.00000000  0.00000000  0.00000000  1
