# generated using pymatgen
data_RbHfTlSiNiBiBAu
_symmetry_space_group_name_H-M   'P 1'
_cell_length_a   5.21272278
_cell_length_b   6.62190342
_cell_length_c   6.62436628
_cell_angle_alpha   119.83702087
_cell_angle_beta   89.96806335
_cell_angle_gamma   90.05153656
_symmetry_Int_Tables_number   1
_chemical_formula_structural   RbHfTlSiNiBiBAu
_chemical_formula_sum   'Rb1 Hf1 Tl1 Si1 Ni1 Bi1 B1 Au1'
_cell_volume   198.35043505
_cell_formula_units_Z   1
loop_
 _symmetry_equiv_pos_site_id
 _symmetry_equiv_pos_as_xyz
  1  'x, y, z'
loop_
 _atom_site_type_symbol
 _atom_site_label
 _atom_site_symmetry_multiplicity
 _atom_site_fract_x
 _atom_site_fract_y
 _atom_site_fract_z
 _atom_site_occupancy
  Bi  Bi0  1  0.25002099  0.17537200  0.35100101  1
  Tl  Tl1  1  0.25007298  0.64912901  0.82475104  1
  Si  Si2  1  0.24993699  0.17542500  0.82466203  1
  Au  Au3  1  0.74996595  0.82448201  0.64866404  1
  Ni  Ni4  1  0.74992496  0.35128100  0.17547701  1
  Rb  Rb5  1  0.75008495  0.82443701  0.17552702  1
  Hf  Hf6  1  0.74989696  0.33326100  0.66666669  1
  B  B7  1  0.25009298  0.66666667  0.33322003  1
