# generated using pymatgen
data_NaCaPrErLuNpUAlTlCrGaReAgSbTeMoRhWAuO
_symmetry_space_group_name_H-M   'P 1'
_cell_length_a   6.00051737
_cell_length_b   6.00051737
_cell_length_c   8.75233269
_cell_angle_alpha   90.00000000
_cell_angle_beta   90.00000000
_cell_angle_gamma   90.00000000
_symmetry_Int_Tables_number   1
_chemical_formula_structural   NaCaPrErLuNpUAlTlCrGaReAgSbTeMoRhWAuO
_chemical_formula_sum
;
Na1 Ca1 Pr1 Er1 Lu1 Np1 U1 Al1 Tl1 Cr1 Ga1 Re1 Ag1 Sb1 Te1 Mo1 Rh1 W1
Au1 O1
;
_cell_volume   315.13831724
_cell_formula_units_Z   1
loop_
 _symmetry_equiv_pos_site_id
 _symmetry_equiv_pos_as_xyz
  1  'x, y, z'
loop_
 _atom_site_type_symbol
 _atom_site_label
 _atom_site_symmetry_multiplicity
 _atom_site_fract_x
 _atom_site_fract_y
 _atom_site_fract_z
 _atom_site_occupancy
  W  W0  1  0.00000000  0.49999999  0.24999999  1
  Pr  Pr1  1  0.49999999  0.00000000  0.74999998  1
  Ga  Ga2  1  0.49999999  0.00000000  0.24999999  1
  Al  Al3  1  0.00000000  0.49999999  0.74999998  1
  Np  Np4  1  0.00000000  0.00000000  0.00000000  1
  Te  Te5  1  0.49999999  0.49999999  0.49999999  1
  Re  Re6  1  0.00000000  0.00000000  0.49999999  1
  Tl  Tl7  1  0.49999999  0.49999999  -0.00000000  1
  Au  Au8  1  0.00000000  0.00000000  0.27241135  1
  Er  Er9  1  0.49999999  0.49999999  0.22758863  1
  Lu  Lu10  1  0.00000000  0.00000000  0.72758862  1
  O  O11  1  0.49999999  0.49999999  0.77241134  1
  Cr  Cr12  1  0.33767355  0.21419453  0.01179790  1
  Rh  Rh13  1  0.66232642  0.78580545  0.01179790  1
  Ag  Ag14  1  0.78580545  0.33767355  0.98820207  1
  U  U15  1  0.21419453  0.66232642  0.98820207  1
  Sb  Sb16  1  0.83767354  0.28580546  0.51179789  1
  Na  Na17  1  0.16232644  0.71419451  0.51179789  1
  Ca  Ca18  1  0.28580546  0.16232644  0.48820209  1
  Mo  Mo19  1  0.71419451  0.83767354  0.48820209  1
