# generated using pymatgen
data_SrCePmGaNiAgAsIrOsO
_symmetry_space_group_name_H-M   'P 1'
_cell_length_a   5.77648306
_cell_length_b   5.78274822
_cell_length_c   7.81224632
_cell_angle_alpha   68.27772522
_cell_angle_beta   90.00000000
_cell_angle_gamma   90.00000000
_symmetry_Int_Tables_number   1
_chemical_formula_structural   SrCePmGaNiAgAsIrOsO
_chemical_formula_sum   'Sr1 Ce1 Pm1 Ga1 Ni1 Ag1 As1 Os1 Ir1 O1'
_cell_volume   242.42877856
_cell_formula_units_Z   1
loop_
 _symmetry_equiv_pos_site_id
 _symmetry_equiv_pos_as_xyz
  1  'x, y, z'
loop_
 _atom_site_type_symbol
 _atom_site_label
 _atom_site_symmetry_multiplicity
 _atom_site_fract_x
 _atom_site_fract_y
 _atom_site_fract_z
 _atom_site_occupancy
  O  O0  1  0.75146899  0.00000000  0.49999999  1
  Ga  Ga1  1  0.24853100  0.49999999  0.49999997  1
  Sr  Sr2  1  0.49999999  0.49999999  -0.00000002  1
  Pm  Pm3  1  0.00000000  0.49999999  -0.00000002  1
  Os  Os4  1  0.49999999  0.00000000  -0.00000000  1
  Ni  Ni5  1  0.00000000  0.00000000  0.00000000  1
  Ce  Ce6  1  0.23310400  0.12717300  0.21129599  1
  Ag  Ag7  1  0.76689599  0.66153099  0.21129597  1
  As  As8  1  0.76689599  0.33846899  0.78870397  1
  Ir  Ir9  1  0.23310400  0.87282699  0.78870395  1
