# generated using pymatgen
data_NaAcCeSmPuMgTiMnSiTc2TePdPbClO
_symmetry_space_group_name_H-M   'P 1'
_cell_length_a   6.65035009
_cell_length_b   6.86060190
_cell_length_c   8.12441063
_cell_angle_alpha   90.00000000
_cell_angle_beta   90.00000000
_cell_angle_gamma   90.00000000
_symmetry_Int_Tables_number   1
_chemical_formula_structural   NaAcCeSmPuMgTiMnSiTc2TePdPbClO
_chemical_formula_sum
'Na1 Ac1 Ce1 Sm1 Pu1 Mg1 Ti1 Mn1 Si1 Tc2 Te1 Pd1 Pb1 Cl1 O1'
_cell_volume   370.67952131
_cell_formula_units_Z   1
loop_
 _symmetry_equiv_pos_site_id
 _symmetry_equiv_pos_as_xyz
  1  'x, y, z'
loop_
 _atom_site_type_symbol
 _atom_site_label
 _atom_site_symmetry_multiplicity
 _atom_site_fract_x
 _atom_site_fract_y
 _atom_site_fract_z
 _atom_site_occupancy
  O  O0  1  0.51139099  0.82380801  0.75254603  1
  Mn  Mn1  1  0.01139100  0.17619200  0.74745403  1
  Si  Si2  1  0.01139100  0.17619200  0.25254601  1
  Ac  Ac3  1  0.51139099  0.82380801  0.24745401  1
  Mg  Mg4  1  0.00031100  0.67889501  -0.00000000  1
  Cl  Cl5  1  0.50031099  0.32110500  0.50000002  1
  Tc  Tc6  1  0.51383299  0.34904800  -0.00000000  1
  Ti  Ti7  1  0.01383300  0.65095201  0.50000002  1
  Te  Te8  1  0.91784899  0.34898600  0.00000000  1
  Ce  Ce9  1  0.41784899  0.65101401  0.50000002  1
  Pd  Pd10  1  0.87380199  0.84473801  0.77301104  1
  Tc  Tc11  1  0.37380199  0.15526200  0.72698903  1
  Pu  Pu12  1  0.37380199  0.15526200  0.27301101  1
  Sm  Sm13  1  0.87380199  0.84473801  0.22698901  1
  Na  Na14  1  0.35012100  0.70852701  0.00000000  1
  Pb  Pb15  1  0.85012099  0.29147300  0.50000002  1
