# generated using pymatgen
data_RbCeDyNpCdInGaSbHI
_symmetry_space_group_name_H-M   'P 1'
_cell_length_a   5.73815298
_cell_length_b   5.73815298
_cell_length_c   5.73815298
_cell_angle_alpha   60.00000000
_cell_angle_beta   60.00000000
_cell_angle_gamma   60.00000000
_symmetry_Int_Tables_number   1
_chemical_formula_structural   RbCeDyNpCdInGaSbHI
_chemical_formula_sum   'Rb1 Ce1 Dy1 Np1 Cd1 In1 Ga1 Sb1 H1 I1'
_cell_volume   133.59843465
_cell_formula_units_Z   1
loop_
 _symmetry_equiv_pos_site_id
 _symmetry_equiv_pos_as_xyz
  1  'x, y, z'
loop_
 _atom_site_type_symbol
 _atom_site_label
 _atom_site_symmetry_multiplicity
 _atom_site_fract_x
 _atom_site_fract_y
 _atom_site_fract_z
 _atom_site_occupancy
  Ga  Ga0  1  0.25000001  0.25000001  0.25000001  1
  I  I1  1  0.75000002  0.75000002  0.75000002  1
  Dy  Dy2  1  0.50000001  0.50000001  0.50000001  1
  Ce  Ce3  1  0.00000000  0.00000000  0.00000000  1
  Rb  Rb4  1  0.76214902  0.76214902  0.23785101  1
  Cd  Cd5  1  0.23785101  0.23785101  0.76214902  1
  Sb  Sb6  1  0.76214902  0.23785101  0.23785101  1
  Np  Np7  1  0.23785101  0.76214902  0.76214902  1
  In  In8  1  0.76214902  0.23785101  0.76214902  1
  H  H9  1  0.23785101  0.76214902  0.23785101  1
