# generated using pymatgen
data_BaCaLaGdHfScMn2AlCrCdCuBAsIr2PdWNeI
_symmetry_space_group_name_H-M   'P 1'
_cell_length_a   3.84618092
_cell_length_b   8.60624409
_cell_length_c   14.06768227
_cell_angle_alpha   90.00000000
_cell_angle_beta   90.00000000
_cell_angle_gamma   90.00000000
_symmetry_Int_Tables_number   1
_chemical_formula_structural   BaCaLaGdHfScMn2AlCrCdCuBAsIr2PdWNeI
_chemical_formula_sum
'Ba1 Ca1 La1 Gd1 Hf1 Sc1 Mn2 Al1 Cr1 Cd1 Cu1 B1 As1 Ir2 Pd1 W1 Ne1 I1'
_cell_volume   465.65676703
_cell_formula_units_Z   1
loop_
 _symmetry_equiv_pos_site_id
 _symmetry_equiv_pos_as_xyz
  1  'x, y, z'
loop_
 _atom_site_type_symbol
 _atom_site_label
 _atom_site_symmetry_multiplicity
 _atom_site_fract_x
 _atom_site_fract_y
 _atom_site_fract_z
 _atom_site_occupancy
  Ir  Ir0  1  0.25000001  0.06686400  0.17904500  1
  As  As1  1  0.75000002  0.93313599  0.82095498  1
  Ir  Ir2  1  0.25000001  0.56686399  0.32095499  1
  Hf  Hf3  1  0.75000002  0.43313600  0.67904499  1
  W  W4  1  0.75000002  0.67179699  0.05726600  1
  Ba  Ba5  1  0.75000002  0.17179700  0.44273399  1
  Ne  Ne6  1  0.25000001  0.82820299  0.55726599  1
  Cu  Cu7  1  0.25000001  0.32820300  0.94273398  1
  B  B8  1  0.75000002  0.66270099  0.48639999  1
  Mn  Mn9  1  0.25000001  0.20610900  0.78419299  1
  La  La10  1  0.25000001  0.48353800  0.10634300  1
  I  I11  1  0.25000001  0.98353799  0.39365699  1
  Al  Al12  1  0.25000001  0.33729900  0.51359999  1
  Gd  Gd13  1  0.75000002  0.01646200  0.60634299  1
  Mn  Mn14  1  0.75000002  0.16270100  0.01360000  1
  Sc  Sc15  1  0.25000001  0.70610899  0.71580699  1
  Pd  Pd16  1  0.75000002  0.29389100  0.28419299  1
  Cr  Cr17  1  0.75000002  0.79389099  0.21580700  1
  Ca  Ca18  1  0.25000001  0.83729899  0.98639998  1
  Cd  Cd19  1  0.75000002  0.51646199  0.89365698  1
