# generated using pymatgen
data_SrUCrFeBiBSbS
_symmetry_space_group_name_H-M   'P 1'
_cell_length_a   6.80781221
_cell_length_b   6.80781221
_cell_length_c   6.80781221
_cell_angle_alpha   104.77452087
_cell_angle_beta   104.77452087
_cell_angle_gamma   119.33850861
_symmetry_Int_Tables_number   1
_chemical_formula_structural   SrUCrFeBiBSbS
_chemical_formula_sum   'Sr1 U1 Cr1 Fe1 Bi1 B1 Sb1 S1'
_cell_volume   237.40140474
_cell_formula_units_Z   1
loop_
 _symmetry_equiv_pos_site_id
 _symmetry_equiv_pos_as_xyz
  1  'x, y, z'
loop_
 _atom_site_type_symbol
 _atom_site_label
 _atom_site_symmetry_multiplicity
 _atom_site_fract_x
 _atom_site_fract_y
 _atom_site_fract_z
 _atom_site_occupancy
  U  U0  1  0.75000004  0.75000003  1.00000006  1
  B  B1  1  0.25000001  0.25000001  1.00000003  1
  Sr  Sr2  1  0.75000002  0.25000001  0.50000003  1
  Sb  Sb3  1  0.25000003  0.75000003  0.50000004  1
  S  S4  1  0.82669304  0.67330603  0.50000005  1
  Fe  Fe5  1  0.67330702  0.17330701  0.84661403  1
  Bi  Bi6  1  0.32669303  0.82669303  0.15338604  1
  Cr  Cr7  1  0.17330701  0.32669401  0.50000002  1
