# generated using pymatgen
data_Ba2Pr2GdDyHoSbINe
_symmetry_space_group_name_H-M   'P 1'
_cell_length_a   5.79565191
_cell_length_b   6.64363623
_cell_length_c   7.77945566
_cell_angle_alpha   64.72275543
_cell_angle_beta   90.00000000
_cell_angle_gamma   90.00000000
_symmetry_Int_Tables_number   1
_chemical_formula_structural   Ba2Pr2GdDyHoSbINe
_chemical_formula_sum   'Ba2 Pr2 Gd1 Dy1 Ho1 Sb1 I1 Ne1'
_cell_volume   270.86127942
_cell_formula_units_Z   1
loop_
 _symmetry_equiv_pos_site_id
 _symmetry_equiv_pos_as_xyz
  1  'x, y, z'
loop_
 _atom_site_type_symbol
 _atom_site_label
 _atom_site_symmetry_multiplicity
 _atom_site_fract_x
 _atom_site_fract_y
 _atom_site_fract_z
 _atom_site_occupancy
  Gd  Gd0  1  0.25000000  0.20775999  0.58448000  1
  Ba  Ba1  1  0.75000001  0.79223997  0.41552000  1
  Pr  Pr2  1  0.25000000  0.58912798  0.82174401  1
  Ba  Ba3  1  0.75000001  0.41087199  0.17825600  1
  Ho  Ho4  1  0.00000000  0.00000000  0.00000000  1
  Pr  Pr5  1  0.50000001  0.00000000  -0.00000000  1
  I  I6  1  0.25000000  0.08367400  0.20186200  1
  Sb  Sb7  1  0.75000001  0.91632597  0.79813801  1
  Ne  Ne8  1  0.75000001  0.28553599  0.79813801  1
  Dy  Dy9  1  0.25000000  0.71446398  0.20186200  1
