# generated using pymatgen
data_LiAcYNbZnHeCd
_symmetry_space_group_name_H-M   'P 1'
_cell_length_a   3.79722810
_cell_length_b   3.79722810
_cell_length_c   6.67865849
_cell_angle_alpha   106.51586151
_cell_angle_beta   106.51586151
_cell_angle_gamma   90.00000000
_symmetry_Int_Tables_number   1
_chemical_formula_structural   LiAcYNbZnHeCd
_chemical_formula_sum   'Li1 Ac1 Y1 Nb1 Zn1 He1 Cd1'
_cell_volume   88.17392726
_cell_formula_units_Z   1
loop_
 _symmetry_equiv_pos_site_id
 _symmetry_equiv_pos_as_xyz
  1  'x, y, z'
loop_
 _atom_site_type_symbol
 _atom_site_label
 _atom_site_symmetry_multiplicity
 _atom_site_fract_x
 _atom_site_fract_y
 _atom_site_fract_z
 _atom_site_occupancy
  Ac  Ac0  1  0.64054700  0.64054699  0.28109403  1
  Nb  Nb1  1  0.35826500  0.35826499  0.71653003  1
  Y  Y2  1  0.00509700  0.00509700  0.01019400  1
  Zn  Zn3  1  0.83065900  0.83065899  0.66131805  1
  Li  Li4  1  0.17012400  0.17012400  0.34024801  1
  He  He5  1  0.49765401  0.99765399  0.99530805  1
  Cd  Cd6  1  0.99765399  0.49765399  0.99530805  1
