# generated using pymatgen
data_RbTaCrGaNiWKr
_symmetry_space_group_name_H-M   'P 1'
_cell_length_a   4.28035641
_cell_length_b   4.28035641
_cell_length_c   9.33392811
_cell_angle_alpha   76.74472046
_cell_angle_beta   76.74472046
_cell_angle_gamma   59.99999237
_symmetry_Int_Tables_number   1
_chemical_formula_structural   RbTaCrGaNiWKr
_chemical_formula_sum   'Rb1 Ta1 Cr1 Ga1 Ni1 W1 Kr1'
_cell_volume   142.81485037
_cell_formula_units_Z   1
loop_
 _symmetry_equiv_pos_site_id
 _symmetry_equiv_pos_as_xyz
  1  'x, y, z'
loop_
 _atom_site_type_symbol
 _atom_site_label
 _atom_site_symmetry_multiplicity
 _atom_site_fract_x
 _atom_site_fract_y
 _atom_site_fract_z
 _atom_site_occupancy
  Kr  Kr0  1  0.59941800  0.59941801  0.20174601  1
  Ni  Ni1  1  0.40058200  0.40058201  0.79825401  1
  Ta  Ta2  1  0.70031100  0.70031101  0.89906701  1
  Ga  Ga3  1  0.88857699  0.88857701  0.33426902  1
  W  W4  1  0.29968900  0.29968900  0.10093301  1
  Cr  Cr5  1  0.11142300  0.11142300  0.66573100  1
  Rb  Rb6  1  0.50000000  0.50000001  0.50000001  1
