# generated using pymatgen
data_SrTbPmEuLuNp2ScUSiAgBiAsIrRu2AuXeBrNe
_symmetry_space_group_name_H-M   'P 1'
_cell_length_a   5.92319345
_cell_length_b   5.92319345
_cell_length_c   8.59899139
_cell_angle_alpha   90.00000000
_cell_angle_beta   90.00000000
_cell_angle_gamma   90.00000000
_symmetry_Int_Tables_number   1
_chemical_formula_structural   SrTbPmEuLuNp2ScUSiAgBiAsIrRu2AuXeBrNe
_chemical_formula_sum
'Sr1 Tb1 Pm1 Eu1 Lu1 Sc1 Np2 U1 Si1 Ag1 Bi1 As1 Ir1 Ru2 Au1 Xe1 Br1 Ne1'
_cell_volume   301.68891189
_cell_formula_units_Z   1
loop_
 _symmetry_equiv_pos_site_id
 _symmetry_equiv_pos_as_xyz
  1  'x, y, z'
loop_
 _atom_site_type_symbol
 _atom_site_label
 _atom_site_symmetry_multiplicity
 _atom_site_fract_x
 _atom_site_fract_y
 _atom_site_fract_z
 _atom_site_occupancy
  Ir  Ir0  1  0.50000000  0.00000000  0.25000001  1
  Sr  Sr1  1  0.00000000  0.50000000  0.75000003  1
  Ag  Ag2  1  0.00000000  0.50000000  0.25000001  1
  Si  Si3  1  0.50000000  0.00000000  0.75000003  1
  Bi  Bi4  1  0.00000000  0.00000000  0.50000002  1
  U  U5  1  0.50000000  0.50000000  0.00000000  1
  Sc  Sc6  1  0.00000000  0.00000000  0.00000000  1
  Br  Br7  1  0.50000000  0.50000000  0.50000002  1
  Xe  Xe8  1  0.00000000  0.00000000  0.24503989  1
  Ne  Ne9  1  0.50000000  0.50000000  0.25496013  1
  Ru  Ru10  1  0.00000000  0.00000000  0.75496015  1
  Np  Np11  1  0.50000000  0.50000000  0.74503991  1
  Eu  Eu12  1  0.31936198  0.16485242  0.98949955  1
  Lu  Lu13  1  0.68063803  0.83514759  0.98949955  1
  Np  Np14  1  0.83514759  0.31936198  0.01050048  1
  As  As15  1  0.16485242  0.68063803  0.01050048  1
  Pm  Pm16  1  0.81936199  0.33514758  0.48949954  1
  Tb  Tb17  1  0.18063802  0.66485243  0.48949954  1
  Ru  Ru18  1  0.33514758  0.18063802  0.51050050  1
  Au  Au19  1  0.66485243  0.81936199  0.51050050  1
