# generated using pymatgen
data_SrAcTbSmHf2TiNbCrSbHRuPt2SBr
_symmetry_space_group_name_H-M   'P 1'
_cell_length_a   5.97311783
_cell_length_b   8.64694881
_cell_length_c   8.64694881
_cell_angle_alpha   83.14867401
_cell_angle_beta   69.79447174
_cell_angle_gamma   69.79447174
_symmetry_Int_Tables_number   1
_chemical_formula_structural   SrAcTbSmHf2TiNbCrSbHRuPt2SBr
_chemical_formula_sum
'Sr1 Tb1 Ac1 Sm1 Hf2 Ti1 Nb1 Cr1 Sb1 Ru1 H1 Pt2 S1 Br1'
_cell_volume   393.33094464
_cell_formula_units_Z   1
loop_
 _symmetry_equiv_pos_site_id
 _symmetry_equiv_pos_as_xyz
  1  'x, y, z'
loop_
 _atom_site_type_symbol
 _atom_site_label
 _atom_site_symmetry_multiplicity
 _atom_site_fract_x
 _atom_site_fract_y
 _atom_site_fract_z
 _atom_site_occupancy
  Sm  Sm0  1  0.28835403  0.29376698  0.12952499  1
  Tb  Tb1  1  0.71164606  0.70623296  0.87047496  1
  Pt  Pt2  1  0.21164606  0.87047495  0.70623295  1
  Sb  Sb3  1  0.78835402  0.12952499  0.29376700  1
  Nb  Nb4  1  0.41787907  0.87047495  0.29376697  1
  Ti  Ti5  1  0.58212102  0.12952499  0.70623298  1
  Hf  Hf6  1  0.91787904  0.29376698  0.87047498  1
  Ru  Ru7  1  0.08212105  0.70623296  0.12952498  1
  Pt  Pt8  1  0.75000005  0.49999997  0.49999998  1
  Ac  Ac9  1  0.25000004  0.49999997  0.49999997  1
  H  H10  1  0.84408307  0.81183396  0.49999998  1
  Sr  Sr11  1  0.15591702  0.18816599  0.49999998  1
  Hf  Hf12  1  0.65591705  0.49999997  0.18816599  1
  Br  Br13  1  0.34408304  0.49999997  0.81183396  1
  Cr  Cr14  1  0.25000007  0.99999995  -0.00000002  1
  S  S15  1  0.75000008  0.99999995  0.99999995  1
