# generated using pymatgen
data_CaPmZrTa2VSiNiHgPPbC
_symmetry_space_group_name_H-M   'P 1'
_cell_length_a   4.31369400
_cell_length_b   4.31369400
_cell_length_c   13.50640297
_cell_angle_alpha   90.00000000
_cell_angle_beta   90.00000000
_cell_angle_gamma   90.00000000
_symmetry_Int_Tables_number   1
_chemical_formula_structural   CaPmZrTa2VSiNiHgPPbC
_chemical_formula_sum   'Ca1 Pm1 Zr1 Ta2 V1 Si1 Ni1 Hg1 P1 Pb1 C1'
_cell_volume   251.32655120
_cell_formula_units_Z   1
loop_
 _symmetry_equiv_pos_site_id
 _symmetry_equiv_pos_as_xyz
  1  'x, y, z'
loop_
 _atom_site_type_symbol
 _atom_site_label
 _atom_site_symmetry_multiplicity
 _atom_site_fract_x
 _atom_site_fract_y
 _atom_site_fract_z
 _atom_site_occupancy
  Ni  Ni0  1  0.00000000  0.00000000  0.50000000  1
  Zr  Zr1  1  0.50000000  0.00000000  0.74906300  1
  Ta  Ta2  1  0.00000000  0.50000000  0.25093700  1
  V  V3  1  0.50000000  0.50000000  0.00000000  1
  Si  Si4  1  0.00000000  0.00000000  0.91481400  1
  Pm  Pm5  1  0.50000000  0.50000000  0.41510000  1
  P  P6  1  0.00000000  0.50000000  0.83532000  1
  Pb  Pb7  1  0.50000000  0.00000000  0.33508900  1
  Ta  Ta8  1  0.00000000  0.00000000  0.08518600  1
  Hg  Hg9  1  0.50000000  0.50000000  0.58490000  1
  Ca  Ca10  1  0.50000000  0.00000000  0.16468000  1
  C  C11  1  0.00000000  0.50000000  0.66491100  1
