# generated using pymatgen
data_KYb2CePrNdEuTaTlCrGaFeCoBiBRuPbAu
_symmetry_space_group_name_H-M   'P 1'
_cell_length_a   4.62573481
_cell_length_b   4.62573481
_cell_length_c   9.10721302
_cell_angle_alpha   90.00000000
_cell_angle_beta   90.00000000
_cell_angle_gamma   90.00000000
_symmetry_Int_Tables_number   1
_chemical_formula_structural   KYb2CePrNdEuTaTlCrGaFeCoBiBRuPbAu
_chemical_formula_sum
'K1 Yb2 Ce1 Pr1 Nd1 Eu1 Ta1 Tl1 Cr1 Ga1 Fe1 Co1 Bi1 B1 Ru1 Pb1 Au1'
_cell_volume   194.87088476
_cell_formula_units_Z   1
loop_
 _symmetry_equiv_pos_site_id
 _symmetry_equiv_pos_as_xyz
  1  'x, y, z'
loop_
 _atom_site_type_symbol
 _atom_site_label
 _atom_site_symmetry_multiplicity
 _atom_site_fract_x
 _atom_site_fract_y
 _atom_site_fract_z
 _atom_site_occupancy
  Cr  Cr0  1  0.00000000  0.00000000  0.33480300  1
  Fe  Fe1  1  0.50000002  0.50000002  0.83480300  1
  Ce  Ce2  1  0.50000002  0.50000002  0.16519700  1
  Eu  Eu3  1  0.00000000  0.00000000  0.66519700  1
  Tl  Tl4  1  0.50000002  0.50000002  0.50000000  1
  Au  Au5  1  0.00000000  0.00000000  0.00000000  1
  Pb  Pb6  1  0.80745403  0.80745403  0.83651600  1
  Ga  Ga7  1  0.19254601  0.19254601  0.83651600  1
  K  K8  1  0.80745403  0.80745403  0.16348400  1
  Co  Co9  1  0.30745401  0.69254603  0.33651600  1
  Nd  Nd10  1  0.69254603  0.30745401  0.33651600  1
  B  B11  1  0.69254603  0.30745401  0.66348400  1
  Bi  Bi12  1  0.30145501  0.69854503  0.00000000  1
  Pr  Pr13  1  0.80145503  0.80145503  0.50000000  1
  Ru  Ru14  1  0.19854501  0.19854501  0.50000000  1
  Yb  Yb15  1  0.69854503  0.30145501  0.00000000  1
  Ta  Ta16  1  0.19254601  0.19254601  0.16348400  1
  Yb  Yb17  1  0.30745401  0.69254603  0.66348400  1
