# generated using pymatgen
data_BaDyPuHfVZnCdHgRhI
_symmetry_space_group_name_H-M   'P 1'
_cell_length_a   4.27459621
_cell_length_b   7.48678064
_cell_length_c   10.85052681
_cell_angle_alpha   90.00000000
_cell_angle_beta   90.00000000
_cell_angle_gamma   106.58731842
_symmetry_Int_Tables_number   1
_chemical_formula_structural   BaDyPuHfVZnCdHgRhI
_chemical_formula_sum   'Ba1 Dy1 Pu1 Hf1 V1 Zn1 Cd1 Hg1 Rh1 I1'
_cell_volume   332.79852520
_cell_formula_units_Z   1
loop_
 _symmetry_equiv_pos_site_id
 _symmetry_equiv_pos_as_xyz
  1  'x, y, z'
loop_
 _atom_site_type_symbol
 _atom_site_label
 _atom_site_symmetry_multiplicity
 _atom_site_fract_x
 _atom_site_fract_y
 _atom_site_fract_z
 _atom_site_occupancy
  Hg  Hg0  1  0.00000000  0.00000000  0.00000000  1
  I  I1  1  0.00000000  0.00000000  0.50000001  1
  Pu  Pu2  1  0.74551597  0.49103199  0.75000001  1
  Ba  Ba3  1  0.25448399  0.50896799  0.25000000  1
  V  V4  1  0.36889199  0.73778399  0.94879802  1
  Cd  Cd5  1  0.63110797  0.26221600  0.05120200  1
  Zn  Zn6  1  0.63110797  0.26221600  0.44879801  1
  Rh  Rh7  1  0.36889199  0.73778399  0.55120201  1
  Dy  Dy8  1  0.06964800  0.13929600  0.75000001  1
  Hf  Hf9  1  0.93035196  0.86070398  0.25000000  1
