# generated using pymatgen
data_TbCePrNdMn(VMo)2
_symmetry_space_group_name_H-M   'P 1'
_cell_length_a   3.64125991
_cell_length_b   6.41829586
_cell_length_c   6.62226391
_cell_angle_alpha   118.98625946
_cell_angle_beta   105.95758057
_cell_angle_gamma   90.00000000
_symmetry_Int_Tables_number   1
_chemical_formula_structural   TbCePrNdMn(VMo)2
_chemical_formula_sum   'Tb1 Ce1 Pr1 Nd1 Mn1 V2 Mo2'
_cell_volume   128.51975112
_cell_formula_units_Z   1
loop_
 _symmetry_equiv_pos_site_id
 _symmetry_equiv_pos_as_xyz
  1  'x, y, z'
loop_
 _atom_site_type_symbol
 _atom_site_label
 _atom_site_symmetry_multiplicity
 _atom_site_fract_x
 _atom_site_fract_y
 _atom_site_fract_z
 _atom_site_occupancy
  V  V0  1  0.79922702  0.29922701  0.59845403  1
  Tb  Tb1  1  0.00000000  0.00000000  0.00000000  1
  Pr  Pr2  1  0.20077302  0.70077303  0.40154605  1
  Ce  Ce3  1  0.50000002  0.64252603  0.00000003  1
  Nd  Nd4  1  0.50000002  0.35747402  0.00000002  1
  Mo  Mo5  1  0.38247702  0.63748303  0.76495506  1
  Mn  Mn6  1  0.61752203  0.87252804  0.23504405  1
  V  V7  1  0.61752302  0.36251702  0.23504502  1
  Mo  Mo8  1  0.38247801  0.12747201  0.76495603  1
