# generated using pymatgen
data_CsK2RbBaPrEuHoErHfPa2ZnAsBrKrNClFHe
_symmetry_space_group_name_H-M   'P 1'
_cell_length_a   5.58795691
_cell_length_b   5.64612103
_cell_length_c   7.88006163
_cell_angle_alpha   90.00000000
_cell_angle_beta   89.77117920
_cell_angle_gamma   90.00000000
_symmetry_Int_Tables_number   1
_chemical_formula_structural   CsK2RbBaPrEuHoErHfPa2ZnAsBrKrNClFHe
_chemical_formula_sum
'Cs1 K2 Rb1 Ba1 Pr1 Eu1 Ho1 Er1 Hf1 Pa2 Zn1 As1 Br1 Kr1 N1 Cl1 F1 He1'
_cell_volume   248.61617572
_cell_formula_units_Z   1
loop_
 _symmetry_equiv_pos_site_id
 _symmetry_equiv_pos_as_xyz
  1  'x, y, z'
loop_
 _atom_site_type_symbol
 _atom_site_label
 _atom_site_symmetry_multiplicity
 _atom_site_fract_x
 _atom_site_fract_y
 _atom_site_fract_z
 _atom_site_occupancy
  K  K0  1  0.50371301  0.71966800  0.24977599  1
  Zn  Zn1  1  0.00371300  0.28033200  0.74977602  1
  Pr  Pr2  1  0.98544902  0.20167200  0.25067398  1
  Kr  Kr3  1  0.48544901  0.79832800  0.75067401  1
  Rb  Rb4  1  0.49926001  0.25488400  0.00034698  1
  Ba  Ba5  1  0.99926002  0.74511600  0.50034698  1
  As  As6  1  0.50022601  0.25200800  0.49948400  1
  Pa  Pa7  1  0.00022600  0.74799200  0.99948403  1
  Cs  Cs8  1  0.22528000  0.02588900  0.53877301  1
  F  F9  1  0.29202600  0.54265500  0.95591402  1
  Eu  Eu10  1  0.79507201  0.45960400  0.04442698  1
  Cl  Cl11  1  0.72291001  0.97531800  0.46057599  1
  Pa  Pa12  1  0.79202601  0.45734500  0.45591399  1
  K  K13  1  0.72528001  0.97411100  0.03877298  1
  Er  Er14  1  0.22291000  0.02468200  0.96057602  1
  N  N15  1  0.29507201  0.54039600  0.54442701  1
  Ho  Ho16  1  0.41084001  0.26201100  0.24987999  1
  He  He17  1  0.06522600  0.77352800  0.25014700  1
  Br  Br18  1  0.56522601  0.22647200  0.75014700  1
  Hf  Hf19  1  0.91084002  0.73798900  0.74987999  1
