# generated using pymatgen
data_CsBaPrEuHoErZrTiAlV2SnTeHIrNePdN
_symmetry_space_group_name_H-M   'P 1'
_cell_length_a   6.03624296
_cell_length_b   7.85276318
_cell_length_c   7.85276318
_cell_angle_alpha   90.00000000
_cell_angle_beta   90.00000000
_cell_angle_gamma   90.00000000
_symmetry_Int_Tables_number   1
_chemical_formula_structural   CsBaPrEuHoErZrTiAlV2SnTeHIrNePdN
_chemical_formula_sum
'Cs1 Ba1 Pr1 Eu1 Ho1 Er1 Zr1 Ti1 Al1 V2 Sn1 Te1 Ir1 H1 Ne1 Pd1 N1'
_cell_volume   372.23029147
_cell_formula_units_Z   1
loop_
 _symmetry_equiv_pos_site_id
 _symmetry_equiv_pos_as_xyz
  1  'x, y, z'
loop_
 _atom_site_type_symbol
 _atom_site_label
 _atom_site_symmetry_multiplicity
 _atom_site_fract_x
 _atom_site_fract_y
 _atom_site_fract_z
 _atom_site_occupancy
  Zr  Zr0  1  0.00000000  0.49999999  0.49999999  1
  Al  Al1  1  0.00000000  0.00000000  0.00000000  1
  Er  Er2  1  0.50000000  0.18365000  0.68364998  1
  Ti  Ti3  1  0.50000000  0.81634998  0.31634999  1
  Ir  Ir4  1  0.50000000  0.68364998  0.81634998  1
  Cs  Cs5  1  0.50000000  0.31634999  0.18365000  1
  Te  Te6  1  0.50000000  0.49999999  0.49999999  1
  H  H7  1  0.50000000  0.00000000  -0.00000000  1
  Pr  Pr8  1  0.80830501  0.60787399  0.10787400  1
  Eu  Eu9  1  0.80830501  0.39212599  0.89212598  1
  Sn  Sn10  1  0.80830501  0.10787400  0.39212599  1
  Ho  Ho11  1  0.80830501  0.89212598  0.60787399  1
  Ne  Ne12  1  0.19169500  0.39212599  0.89212598  1
  Pd  Pd13  1  0.19169500  0.60787399  0.10787400  1
  V  V14  1  0.19169500  0.89212598  0.60787399  1
  Ba  Ba15  1  0.19169500  0.10787400  0.39212599  1
  V  V16  1  0.00000000  0.49999999  -0.00000000  1
  N  N17  1  0.00000000  0.00000000  0.49999999  1
