# generated using pymatgen
data_YbCePrEuHfUAlCo
_symmetry_space_group_name_H-M   'P 1'
_cell_length_a   3.74049401
_cell_length_b   4.99555206
_cell_length_c   4.99555206
_cell_angle_alpha   97.46150208
_cell_angle_beta   90.00000000
_cell_angle_gamma   90.00000000
_symmetry_Int_Tables_number   1
_chemical_formula_structural   YbCePrEuHfUAlCo
_chemical_formula_sum   'Yb1 Ce1 Pr1 Eu1 Hf1 U1 Al1 Co1'
_cell_volume   92.55562691
_cell_formula_units_Z   1
loop_
 _symmetry_equiv_pos_site_id
 _symmetry_equiv_pos_as_xyz
  1  'x, y, z'
loop_
 _atom_site_type_symbol
 _atom_site_label
 _atom_site_symmetry_multiplicity
 _atom_site_fract_x
 _atom_site_fract_y
 _atom_site_fract_z
 _atom_site_occupancy
  Ce  Ce0  1  0.50000000  0.27553200  0.72446800  1
  U  U1  1  0.50000000  0.72446799  0.27553203  1
  Al  Al2  1  0.00000000  0.00000000  0.00000000  1
  Yb  Yb3  1  0.50000000  0.77410099  0.77410102  1
  Hf  Hf4  1  0.50000000  0.22589900  0.22589901  1
  Co  Co5  1  1.00000000  0.00000000  0.49999999  1
  Pr  Pr6  1  -0.00000000  0.50000000  0.00000002  1
  Eu  Eu7  1  -0.00000000  0.50000000  0.50000001  1
