# generated using pymatgen
data_NaSmMgScMnAlTlFeCuReTcTePPdRu
_symmetry_space_group_name_H-M   'P 1'
_cell_length_a   5.86466217
_cell_length_b   5.86466217
_cell_length_c   5.95218086
_cell_angle_alpha   60.48520279
_cell_angle_beta   60.48520279
_cell_angle_gamma   60.00000000
_symmetry_Int_Tables_number   1
_chemical_formula_structural   NaSmMgScMnAlTlFeCuReTcTePPdRu
_chemical_formula_sum
'Na1 Sm1 Mg1 Sc1 Mn1 Al1 Tl1 Fe1 Cu1 Re1 Tc1 Te1 P1 Ru1 Pd1'
_cell_volume   145.81209042
_cell_formula_units_Z   1
loop_
 _symmetry_equiv_pos_site_id
 _symmetry_equiv_pos_as_xyz
  1  'x, y, z'
loop_
 _atom_site_type_symbol
 _atom_site_label
 _atom_site_symmetry_multiplicity
 _atom_site_fract_x
 _atom_site_fract_y
 _atom_site_fract_z
 _atom_site_occupancy
  Fe  Fe0  1  0.00000003  0.50000000  0.49999995  1
  Tl  Tl1  1  0.50000000  0.00000000  0.49999996  1
  Mg  Mg2  1  0.00000000  0.00000000  0.49999998  1
  Cu  Cu3  1  0.50000003  0.50000000  -0.00000005  1
  Re  Re4  1  0.00000003  0.50000000  -0.00000003  1
  Sc  Sc5  1  0.50000000  0.00000000  -0.00000002  1
  Na  Na6  1  0.00000000  0.00000000  0.00000000  1
  Ru  Ru7  1  0.23241902  0.23241900  0.79303895  1
  Mn  Mn8  1  0.74958705  0.74958699  0.75123890  1
  Tc  Tc9  1  0.23241904  0.74212299  0.79303892  1
  P  P10  1  0.74212302  0.23241900  0.79303893  1
  Sm  Sm11  1  0.25787705  0.76758099  0.20696094  1
  Te  Te12  1  0.76758102  0.25787700  0.20696095  1
  Pd  Pd13  1  0.25041302  0.25041300  0.24876097  1
  Al  Al14  1  0.76758105  0.76758099  0.20696092  1
