# generated using pymatgen
data_GdErPaTiPWKrF2
_symmetry_space_group_name_H-M   'P 1'
_cell_length_a   6.82696915
_cell_length_b   7.18384218
_cell_length_c   7.18384218
_cell_angle_alpha   60.00000000
_cell_angle_beta   90.00000000
_cell_angle_gamma   90.00000000
_symmetry_Int_Tables_number   1
_chemical_formula_structural   GdErPaTiPWKrF2
_chemical_formula_sum   'Gd1 Er1 Pa1 Ti1 P1 W1 Kr1 F2'
_cell_volume   305.12102723
_cell_formula_units_Z   1
loop_
 _symmetry_equiv_pos_site_id
 _symmetry_equiv_pos_as_xyz
  1  'x, y, z'
loop_
 _atom_site_type_symbol
 _atom_site_label
 _atom_site_symmetry_multiplicity
 _atom_site_fract_x
 _atom_site_fract_y
 _atom_site_fract_z
 _atom_site_occupancy
  P  P0  1  0.49075199  0.33333333  0.33333333  1
  F  F1  1  0.52779299  0.00000000  0.00000000  1
  Gd  Gd2  1  0.54860599  0.66666666  0.66666666  1
  Er  Er3  1  0.75435998  0.65891799  0.32958299  1
  Kr  Kr4  1  0.29022299  0.33859700  0.67191100  1
  Ti  Ti5  1  0.29022299  0.67191099  0.98949200  1
  W  W6  1  0.75435998  0.01149900  0.65891801  1
  Pa  Pa7  1  0.29022299  0.98949199  0.33859698  1
  F  F8  1  0.75435998  0.32958300  0.01149899  1
