# generated using pymatgen
data_YbNpMnAlVCdXeI
_symmetry_space_group_name_H-M   'P 1'
_cell_length_a   3.71197605
_cell_length_b   3.71197605
_cell_length_c   9.69880390
_cell_angle_alpha   90.00000000
_cell_angle_beta   90.00000000
_cell_angle_gamma   90.00000000
_symmetry_Int_Tables_number   1
_chemical_formula_structural   YbNpMnAlVCdXeI
_chemical_formula_sum   'Yb1 Np1 Mn1 Al1 V1 Cd1 Xe1 I1'
_cell_volume   133.63755144
_cell_formula_units_Z   1
loop_
 _symmetry_equiv_pos_site_id
 _symmetry_equiv_pos_as_xyz
  1  'x, y, z'
loop_
 _atom_site_type_symbol
 _atom_site_label
 _atom_site_symmetry_multiplicity
 _atom_site_fract_x
 _atom_site_fract_y
 _atom_site_fract_z
 _atom_site_occupancy
  Cd  Cd0  1  0.49999999  0.00000000  0.23164800  1
  Mn  Mn1  1  -0.00000000  0.49999999  0.76835201  1
  V  V2  1  0.00000000  0.00000000  0.50000001  1
  Al  Al3  1  0.49999999  0.49999999  0.50000001  1
  Np  Np4  1  0.49999999  0.49999999  -0.00000000  1
  Xe  Xe5  1  0.00000000  0.00000000  0.00000000  1
  I  I6  1  -0.00000000  0.49999999  0.34296000  1
  Yb  Yb7  1  0.49999999  0.00000000  0.65704001  1
