# generated using pymatgen
data_EuYHfU2TaTiMnNbTlCrGeSbOsPbSe
_symmetry_space_group_name_H-M   'P 1'
_cell_length_a   5.64190435
_cell_length_b   5.64190435
_cell_length_c   7.45987940
_cell_angle_alpha   104.50370026
_cell_angle_beta   104.50370026
_cell_angle_gamma   106.04042816
_symmetry_Int_Tables_number   1
_chemical_formula_structural   EuYHfU2TaTiMnNbTlCrGeSbOsPbSe
_chemical_formula_sum
'Eu1 Y1 Hf1 U2 Ta1 Ti1 Mn1 Nb1 Tl1 Cr1 Ge1 Sb1 Os1 Pb1 Se1'
_cell_volume   207.49161609
_cell_formula_units_Z   1
loop_
 _symmetry_equiv_pos_site_id
 _symmetry_equiv_pos_as_xyz
  1  'x, y, z'
loop_
 _atom_site_type_symbol
 _atom_site_label
 _atom_site_symmetry_multiplicity
 _atom_site_fract_x
 _atom_site_fract_y
 _atom_site_fract_z
 _atom_site_occupancy
  Os  Os0  1  0.66414000  0.33062800  0.77041294  1
  Pb  Pb1  1  0.33062797  0.66414000  0.27041295  1
  Se  Se2  1  0.99655203  0.00140600  0.50075995  1
  Ge  Ge3  1  0.00140593  0.99655200  0.00075995  1
  U  U4  1  0.68277800  0.31324200  0.25077495  1
  Y  Y5  1  0.31324196  0.68277800  0.75077494  1
  Nb  Nb6  1  0.92668402  0.07503100  0.75131595  1
  Mn  Mn7  1  0.07503094  0.92668400  0.25131594  1
  Cr  Cr8  1  0.36744399  0.24960700  0.08771797  1
  Ta  Ta9  1  0.75232298  0.63157200  0.41230093  1
  Hf  Hf10  1  0.63157197  0.75232300  0.91230092  1
  Eu  Eu11  1  0.24960698  0.36744400  0.58771796  1
  Sb  Sb12  1  0.68930001  0.09385300  0.38458396  1
  Tl  Tl13  1  0.89910201  0.30633900  0.11393395  1
  Ti  Ti14  1  0.30633895  0.89910200  0.61393393  1
  U  U15  1  0.09385296  0.68930000  0.88458394  1
