# generated using pymatgen
data_NaSrCaEuDy2NpAlCrAuBr2O
_symmetry_space_group_name_H-M   'P 1'
_cell_length_a   5.73410368
_cell_length_b   5.73410368
_cell_length_c   8.36721992
_cell_angle_alpha   77.82333374
_cell_angle_beta   77.82333374
_cell_angle_gamma   66.79622650
_symmetry_Int_Tables_number   1
_chemical_formula_structural   NaSrCaEuDy2NpAlCrAuBr2O
_chemical_formula_sum   'Na1 Sr1 Ca1 Eu1 Dy2 Np1 Al1 Cr1 Au1 Br2 O1'
_cell_volume   244.65644776
_cell_formula_units_Z   1
loop_
 _symmetry_equiv_pos_site_id
 _symmetry_equiv_pos_as_xyz
  1  'x, y, z'
loop_
 _atom_site_type_symbol
 _atom_site_label
 _atom_site_symmetry_multiplicity
 _atom_site_fract_x
 _atom_site_fract_y
 _atom_site_fract_z
 _atom_site_occupancy
  Al  Al0  1  0.91007797  0.91007800  0.36721395  1
  Au  Au1  1  0.49999998  0.50000000  0.49999996  1
  Na  Na2  1  0.08992200  0.08992200  0.63278598  1
  Br  Br3  1  0.67293898  0.67293900  0.75607495  1
  Dy  Dy4  1  0.32706099  0.32706100  0.24392498  1
  Eu  Eu5  1  0.79469297  0.79469300  0.13910996  1
  Dy  Dy6  1  0.20530699  0.20530700  0.86088997  1
  Ca  Ca7  1  0.13851000  0.13851000  0.37696899  1
  Np  Np8  1  0.77633898  0.38802300  0.63046296  1
  Cr  Cr9  1  0.22366098  0.61197700  0.36953697  1
  O  O10  1  0.38802298  0.77633900  0.63046296  1
  Br  Br11  1  0.61197699  0.22366100  0.36953697  1
  Sr  Sr12  1  0.86148997  0.86149000  0.62303094  1
