# generated using pymatgen
data_YbEuGdDyNpTi2TlCrIrRhPbHe
_symmetry_space_group_name_H-M   'P 1'
_cell_length_a   4.62299013
_cell_length_b   6.31122398
_cell_length_c   6.31122398
_cell_angle_alpha   82.29109955
_cell_angle_beta   68.51538086
_cell_angle_gamma   68.51538086
_symmetry_Int_Tables_number   1
_chemical_formula_structural   YbEuGdDyNpTi2TlCrIrRhPbHe
_chemical_formula_sum
'Yb1 Eu1 Gd1 Dy1 Np1 Ti2 Tl1 Cr1 Ir1 Rh1 Pb1 He1'
_cell_volume   159.44017753
_cell_formula_units_Z   1
loop_
 _symmetry_equiv_pos_site_id
 _symmetry_equiv_pos_as_xyz
  1  'x, y, z'
loop_
 _atom_site_type_symbol
 _atom_site_label
 _atom_site_symmetry_multiplicity
 _atom_site_fract_x
 _atom_site_fract_y
 _atom_site_fract_z
 _atom_site_occupancy
  Eu  Eu0  1  0.00000000  0.00000000  0.00000000  1
  Pb  Pb1  1  0.27327200  0.22672800  0.22672800  1
  Rh  Rh2  1  0.50000001  0.99999999  0.50000001  1
  Ti  Ti3  1  0.99999998  0.50000000  0.00000001  1
  Gd  Gd4  1  0.49999999  0.50000000  0.00000001  1
  Ti  Ti5  1  0.00000000  0.00000000  0.50000000  1
  Np  Np6  1  0.63798899  0.36201100  0.36201101  1
  Ir  Ir7  1  0.00000001  0.63798900  0.36201100  1
  Yb  Yb8  1  0.00000001  0.36201100  0.63798900  1
  Dy  Dy9  1  0.36201100  0.63798900  0.63798901  1
  He  He10  1  0.72672799  0.77327199  0.77327201  1
  Cr  Cr11  1  0.49999999  0.22672800  0.77327201  1
  Tl  Tl12  1  0.50000000  0.77327199  0.22672801  1
