# generated using pymatgen
data_NpCoTcBiCF
_symmetry_space_group_name_H-M   'P 1'
_cell_length_a   3.01198602
_cell_length_b   4.63231850
_cell_length_c   4.63231850
_cell_angle_alpha   94.25595856
_cell_angle_beta   90.00000000
_cell_angle_gamma   90.00000000
_symmetry_Int_Tables_number   1
_chemical_formula_structural   NpCoTcBiCF
_chemical_formula_sum   'Np1 Co1 Tc1 Bi1 C1 F1'
_cell_volume   64.45409901
_cell_formula_units_Z   1
loop_
 _symmetry_equiv_pos_site_id
 _symmetry_equiv_pos_as_xyz
  1  'x, y, z'
loop_
 _atom_site_type_symbol
 _atom_site_label
 _atom_site_symmetry_multiplicity
 _atom_site_fract_x
 _atom_site_fract_y
 _atom_site_fract_z
 _atom_site_occupancy
  C  C0  1  -0.00000000  0.98360701  0.01639296  1
  Np  Np1  1  0.50000000  0.51204100  0.48795898  1
  Tc  Tc2  1  0.50000000  0.80611200  0.19388796  1
  F  F3  1  0.99999999  0.30767200  0.30217699  1
  Bi  Bi4  1  -0.00000000  0.69782300  0.69232797  1
  Co  Co5  1  0.50000000  0.19274400  0.80725600  1
