# generated using pymatgen
data_Ba2Mg
_symmetry_space_group_name_H-M   'P 1'
_cell_length_a   4.31587601
_cell_length_b   4.31587601
_cell_length_c   8.24671459
_cell_angle_alpha   105.16931915
_cell_angle_beta   105.16931915
_cell_angle_gamma   90.00000000
_symmetry_Int_Tables_number   1
_chemical_formula_structural   Ba2Mg
_chemical_formula_sum   'Ba2 Mg1'
_cell_volume   142.70465795
_cell_formula_units_Z   1
loop_
 _symmetry_equiv_pos_site_id
 _symmetry_equiv_pos_as_xyz
  1  'x, y, z'
loop_
 _atom_site_type_symbol
 _atom_site_label
 _atom_site_symmetry_multiplicity
 _atom_site_fract_x
 _atom_site_fract_y
 _atom_site_fract_z
 _atom_site_occupancy
  Ba  Ba0  1  0.63270996  0.63270999  0.26541994  1
  Ba  Ba1  1  0.36728998  0.36728999  0.73457995  1
  Mg  Mg2  1  0.00000000  0.00000000  0.00000000  1
