# generated using pymatgen
data_Al2Re3
_symmetry_space_group_name_H-M   'P 1'
_cell_length_a   3.10502791
_cell_length_b   3.10502791
_cell_length_c   7.49197483
_cell_angle_alpha   101.95970154
_cell_angle_beta   101.95970154
_cell_angle_gamma   90.00000000
_symmetry_Int_Tables_number   1
_chemical_formula_structural   Al2Re3
_chemical_formula_sum   'Al2 Re3'
_cell_volume   69.06025053
_cell_formula_units_Z   1
loop_
 _symmetry_equiv_pos_site_id
 _symmetry_equiv_pos_as_xyz
  1  'x, y, z'
loop_
 _atom_site_type_symbol
 _atom_site_label
 _atom_site_symmetry_multiplicity
 _atom_site_fract_x
 _atom_site_fract_y
 _atom_site_fract_z
 _atom_site_occupancy
  Al  Al0  1  0.00000000  0.00000000  0.00000000  1
  Al  Al1  1  0.80650206  0.80650203  0.61300403  1
  Re  Re2  1  0.19349801  0.19349801  0.38699600  1
  Re  Re3  1  0.60628704  0.60628703  0.21257403  1
  Re  Re4  1  0.39371303  0.39371302  0.78742600  1
