# generated using pymatgen
data_Cu2TeF6
_symmetry_space_group_name_H-M   'P 1'
_cell_length_a   4.94715023
_cell_length_b   4.94714928
_cell_length_c   5.52334213
_cell_angle_alpha   90.00000000
_cell_angle_beta   90.00000000
_cell_angle_gamma   120.00000000
_symmetry_Int_Tables_number   1
_chemical_formula_structural   Cu2TeF6
_chemical_formula_sum   'Cu2 Te1 F6'
_cell_volume   117.06921094
_cell_formula_units_Z   1
loop_
 _symmetry_equiv_pos_site_id
 _symmetry_equiv_pos_as_xyz
  1  'x, y, z'
loop_
 _atom_site_type_symbol
 _atom_site_label
 _atom_site_symmetry_multiplicity
 _atom_site_fract_x
 _atom_site_fract_y
 _atom_site_fract_z
 _atom_site_occupancy
  Te  Te0  1  0.00000000  0.00000000  0.00000000  1
  Cu  Cu1  1  0.66666661  0.33333334  0.49999999  1
  Cu  Cu2  1  0.33333327  0.66666667  0.49999999  1
  F  F3  1  -0.00000004  0.61751501  0.30848199  1
  F  F4  1  -0.00000003  0.38248500  0.69151798  1
  F  F5  1  0.61751497  0.00000000  0.30848199  1
  F  F6  1  0.38248498  0.00000000  0.69151798  1
  F  F7  1  0.61751493  0.61751501  0.69151798  1
  F  F8  1  0.38248496  0.38248500  0.30848199  1
