# generated using pymatgen
data_MnIn2CuSe4
_symmetry_space_group_name_H-M   'P 1'
_cell_length_a   5.92217779
_cell_length_b   5.92217779
_cell_length_c   7.17400980
_cell_angle_alpha   114.37784576
_cell_angle_beta   114.37784576
_cell_angle_gamma   90.00000000
_symmetry_Int_Tables_number   1
_chemical_formula_structural   MnIn2CuSe4
_chemical_formula_sum   'Mn1 In2 Cu1 Se4'
_cell_volume   204.29459485
_cell_formula_units_Z   1
loop_
 _symmetry_equiv_pos_site_id
 _symmetry_equiv_pos_as_xyz
  1  'x, y, z'
loop_
 _atom_site_type_symbol
 _atom_site_label
 _atom_site_symmetry_multiplicity
 _atom_site_fract_x
 _atom_site_fract_y
 _atom_site_fract_z
 _atom_site_occupancy
  Mn  Mn0  1  0.24999999  0.75000002  0.49999998  1
  In  In1  1  0.50000000  0.50000001  -0.00000002  1
  In  In2  1  0.75000001  0.25000001  0.49999999  1
  Cu  Cu3  1  0.00000000  0.00000000  0.00000000  1
  Se  Se4  1  0.62751201  0.12500000  0.75000000  1
  Se  Se5  1  0.87500000  0.87751202  0.24999997  1
  Se  Se6  1  0.37500000  0.37248801  0.24999999  1
  Se  Se7  1  0.12248799  0.62500001  0.74999999  1
