# generated using pymatgen
data_MnZnCd(CoS3)2
_symmetry_space_group_name_H-M   'P 1'
_cell_length_a   3.95086408
_cell_length_b   3.95086408
_cell_length_c   11.19501686
_cell_angle_alpha   90.00000000
_cell_angle_beta   90.00000000
_cell_angle_gamma   90.00000000
_symmetry_Int_Tables_number   1
_chemical_formula_structural   MnZnCd(CoS3)2
_chemical_formula_sum   'Mn1 Zn1 Cd1 Co2 S6'
_cell_volume   174.74667841
_cell_formula_units_Z   1
loop_
 _symmetry_equiv_pos_site_id
 _symmetry_equiv_pos_as_xyz
  1  'x, y, z'
loop_
 _atom_site_type_symbol
 _atom_site_label
 _atom_site_symmetry_multiplicity
 _atom_site_fract_x
 _atom_site_fract_y
 _atom_site_fract_z
 _atom_site_occupancy
  Mn  Mn0  1  0.49999999  0.00000000  0.86747201  1
  Cd  Cd1  1  -0.00000000  0.49999999  0.13252800  1
  Zn  Zn2  1  0.49999999  0.00000000  0.37381600  1
  Co  Co3  1  -0.00000000  0.49999999  0.62618401  1
  Co  Co4  1  0.49999999  0.49999999  0.00000000  1
  S  S5  1  0.00000000  0.00000000  0.23946900  1
  S  S6  1  0.49999999  0.49999999  0.25553100  1
  S  S7  1  0.49999999  0.49999999  0.50000001  1
  S  S8  1  0.00000000  0.00000000  0.50000001  1
  S  S9  1  0.49999999  0.49999999  0.74446901  1
  S  S10  1  0.00000000  0.00000000  0.76053101  1
