# generated using pymatgen
data_Ta4SnGe
_symmetry_space_group_name_H-M   'P 1'
_cell_length_a   5.42535400
_cell_length_b   6.49946308
_cell_length_c   6.49946308
_cell_angle_alpha   90.00000000
_cell_angle_beta   90.00000000
_cell_angle_gamma   90.00000000
_symmetry_Int_Tables_number   1
_chemical_formula_structural   Ta4SnGe
_chemical_formula_sum   'Ta8 Sn2 Ge2'
_cell_volume   229.18333957
_cell_formula_units_Z   2
loop_
 _symmetry_equiv_pos_site_id
 _symmetry_equiv_pos_as_xyz
  1  'x, y, z'
loop_
 _atom_site_type_symbol
 _atom_site_label
 _atom_site_symmetry_multiplicity
 _atom_site_fract_x
 _atom_site_fract_y
 _atom_site_fract_z
 _atom_site_occupancy
  Ta  Ta0  1  0.50000000  0.16103800  0.65349699  1
  Ta  Ta1  1  0.50000000  0.65349699  0.83896199  1
  Ta  Ta2  1  0.50000000  0.34650300  0.16103800  1
  Ta  Ta3  1  0.00000000  0.83896199  0.65349699  1
  Ta  Ta4  1  0.50000000  0.83896199  0.34650300  1
  Ta  Ta5  1  1.00000000  0.34650300  0.83896199  1
  Ta  Ta6  1  0.00000000  0.65349699  0.16103800  1
  Ta  Ta7  1  0.00000000  0.16103800  0.34650300  1
  Sn  Sn8  1  0.25000000  0.00000000  0.00000000  1
  Sn  Sn9  1  0.75000000  0.00000000  -0.00000000  1
  Ge  Ge10  1  0.75000000  0.49999999  0.49999999  1
  Ge  Ge11  1  0.25000000  0.49999999  0.49999999  1
