# generated using pymatgen
data_Ba2LiNdBi2O7
_symmetry_space_group_name_H-M   'P 1'
_cell_length_a   3.89441705
_cell_length_b   3.99856496
_cell_length_c   11.50324535
_cell_angle_alpha   90.00016022
_cell_angle_beta   89.99945831
_cell_angle_gamma   89.98279572
_symmetry_Int_Tables_number   1
_chemical_formula_structural   Ba2LiNdBi2O7
_chemical_formula_sum   'Ba2 Li1 Nd1 Bi2 O7'
_cell_volume   179.12944353
_cell_formula_units_Z   1
loop_
 _symmetry_equiv_pos_site_id
 _symmetry_equiv_pos_as_xyz
  1  'x, y, z'
loop_
 _atom_site_type_symbol
 _atom_site_label
 _atom_site_symmetry_multiplicity
 _atom_site_fract_x
 _atom_site_fract_y
 _atom_site_fract_z
 _atom_site_occupancy
  Ba  Ba0  1  0.50000503  0.50000301  0.18351801  1
  Ba  Ba1  1  0.49999503  0.50000301  0.81666099  1
  Nd  Nd2  1  0.49999903  0.49999501  0.50003900  1
  Li  Li3  1  0.99999906  0.99999302  0.34217202  1
  Bi  Bi4  1  0.99999900  0.00000000  0.65779199  1
  Bi  Bi5  1  1.00000000  0.00000400  0.00000201  1
  O  O6  1  1.00000003  0.50000601  0.99998799  1
  O  O7  1  0.49999906  0.99999102  0.37595701  1
  O  O8  1  0.50000000  0.00000000  0.62388199  1
  O  O9  1  1.00000003  0.49999301  0.37618801  1
  O  O10  1  0.99999903  0.49999901  0.62374900  1
  O  O11  1  0.00001200  0.00001000  0.16256300  1
  O  O12  1  0.99999300  0.00000300  0.83748898  1
