# generated using pymatgen
data_Ce2BiI5
_symmetry_space_group_name_H-M   'P 1'
_cell_length_a   4.35071421
_cell_length_b   4.36979389
_cell_length_c   26.73552513
_cell_angle_alpha   90.00000000
_cell_angle_beta   90.00000000
_cell_angle_gamma   90.00000000
_symmetry_Int_Tables_number   1
_chemical_formula_structural   Ce2BiI5
_chemical_formula_sum   'Ce4 Bi2 I10'
_cell_volume   508.28843457
_cell_formula_units_Z   2
loop_
 _symmetry_equiv_pos_site_id
 _symmetry_equiv_pos_as_xyz
  1  'x, y, z'
loop_
 _atom_site_type_symbol
 _atom_site_label
 _atom_site_symmetry_multiplicity
 _atom_site_fract_x
 _atom_site_fract_y
 _atom_site_fract_z
 _atom_site_occupancy
  Ce  Ce0  1  0.49999998  0.50000001  0.09036900  1
  Ce  Ce1  1  0.49999998  0.50000001  0.42083200  1
  Ce  Ce2  1  0.49999998  0.50000001  0.75369800  1
  Ce  Ce3  1  0.00000000  0.00000000  0.24663700  1
  Bi  Bi4  1  0.00000000  0.00000000  0.57848700  1
  Bi  Bi5  1  0.00000000  0.00000000  0.91024200  1
  I  I6  1  0.49999998  0.50000001  0.21244900  1
  I  I7  1  0.49999998  0.50000001  0.54589100  1
  I  I8  1  0.49999998  0.50000001  0.87708000  1
  I  I9  1  0.00000000  0.00000000  0.12395600  1
  I  I10  1  0.00000000  0.00000000  0.45560500  1
  I  I11  1  0.00000000  0.00000000  0.78857500  1
  I  I12  1  0.00000000  0.50000001  0.99809400  1
  I  I13  1  0.00000000  0.50000001  0.33377200  1
  I  I14  1  0.00000000  0.50000001  0.66614000  1
  I  I15  1  0.49999998  0.00000000  0.99817300  1
