# generated using pymatgen
data_Li2TiN3
_symmetry_space_group_name_H-M   'P 1'
_cell_length_a   3.54878998
_cell_length_b   3.54878998
_cell_length_c   5.76144123
_cell_angle_alpha   107.93739319
_cell_angle_beta   107.93739319
_cell_angle_gamma   90.00000000
_symmetry_Int_Tables_number   1
_chemical_formula_structural   Li2TiN3
_chemical_formula_sum   'Li2 Ti1 N3'
_cell_volume   65.31524269
_cell_formula_units_Z   1
loop_
 _symmetry_equiv_pos_site_id
 _symmetry_equiv_pos_as_xyz
  1  'x, y, z'
loop_
 _atom_site_type_symbol
 _atom_site_label
 _atom_site_symmetry_multiplicity
 _atom_site_fract_x
 _atom_site_fract_y
 _atom_site_fract_z
 _atom_site_occupancy
  Li  Li0  1  0.49999999  0.50000000  -0.00000002  1
  Li  Li1  1  0.74999999  0.25000000  0.49999999  1
  Ti  Ti2  1  0.24999999  0.75000000  0.49999999  1
  N  N3  1  0.14390200  0.14390200  0.28780400  1
  N  N4  1  0.85609798  0.85609800  0.71219598  1
  N  N5  1  0.00000000  0.00000000  0.00000000  1
