# generated using pymatgen
data_GdNbO4
_symmetry_space_group_name_H-M   'P 1'
_cell_length_a   5.14867640
_cell_length_b   5.53612423
_cell_length_c   6.67424297
_cell_angle_alpha   112.03137207
_cell_angle_beta   110.06627655
_cell_angle_gamma   95.89633179
_symmetry_Int_Tables_number   1
_chemical_formula_structural   GdNbO4
_chemical_formula_sum   'Gd2 Nb2 O8'
_cell_volume   159.68556469
_cell_formula_units_Z   2
loop_
 _symmetry_equiv_pos_site_id
 _symmetry_equiv_pos_as_xyz
  1  'x, y, z'
loop_
 _atom_site_type_symbol
 _atom_site_label
 _atom_site_symmetry_multiplicity
 _atom_site_fract_x
 _atom_site_fract_y
 _atom_site_fract_z
 _atom_site_occupancy
  Gd  Gd0  1  0.61664604  0.36664601  0.73329206  1
  Gd  Gd1  1  0.38335407  0.63335401  0.26670805  1
  Nb  Nb2  1  0.15254411  0.90254402  0.80508806  1
  Nb  Nb3  1  0.84745601  0.09745600  0.19491205  1
  O  O4  1  0.99817602  0.20393600  0.93953008  1
  O  O5  1  0.44135409  0.73559401  0.93953007  1
  O  O6  1  0.00182410  0.79606401  0.06047004  1
  O  O7  1  0.55864603  0.26440600  0.06047004  1
  O  O8  1  0.80307207  0.64081601  0.58521108  1
  O  O9  1  0.28213911  0.94439502  0.58521107  1
  O  O10  1  0.19692804  0.35918401  0.41478903  1
  O  O11  1  0.71786100  0.05560500  0.41478905  1
