# generated using pymatgen
data_Cr(NiS2)2
_symmetry_space_group_name_H-M   'P 1'
_cell_length_a   7.05739355
_cell_length_b   7.05739355
_cell_length_c   7.05739355
_cell_angle_alpha   60.00000000
_cell_angle_beta   60.00000000
_cell_angle_gamma   60.00000000
_symmetry_Int_Tables_number   1
_chemical_formula_structural   Cr(NiS2)2
_chemical_formula_sum   'Cr2 Ni4 S8'
_cell_volume   248.55242857
_cell_formula_units_Z   2
loop_
 _symmetry_equiv_pos_site_id
 _symmetry_equiv_pos_as_xyz
  1  'x, y, z'
loop_
 _atom_site_type_symbol
 _atom_site_label
 _atom_site_symmetry_multiplicity
 _atom_site_fract_x
 _atom_site_fract_y
 _atom_site_fract_z
 _atom_site_occupancy
  Ni  Ni0  1  0.50000002  0.50000002  0.50000002  1
  Ni  Ni1  1  0.87860103  0.87860203  0.36419501  1
  Cr  Cr2  1  0.87860103  0.87860203  0.87860203  1
  Cr  Cr3  1  0.87860103  0.36419501  0.87860203  1
  Ni  Ni4  1  0.36419401  0.87860203  0.87860203  1
  Ni  Ni5  1  0.25000001  0.25000001  0.25000001  1
  S  S6  1  0.11628600  0.11628700  0.65114002  1
  S  S7  1  0.11628600  0.11628700  0.11628700  1
  S  S8  1  0.11628600  0.65114002  0.11628700  1
  S  S9  1  0.65113902  0.11628700  0.11628700  1
  S  S10  1  0.63289202  0.63289202  0.10132400  1
  S  S11  1  0.63289202  0.63289202  0.63289202  1
  S  S12  1  0.63289202  0.10132400  0.63289202  1
  S  S13  1  0.10132400  0.63289202  0.63289202  1
