# generated using pymatgen
data_ZnO
_symmetry_space_group_name_H-M   'P 1'
_cell_length_a   4.21620989
_cell_length_b   6.19886780
_cell_length_c   8.18373585
_cell_angle_alpha   112.25509644
_cell_angle_beta   104.92752075
_cell_angle_gamma   90.00000000
_symmetry_Int_Tables_number   1
_chemical_formula_structural   ZnO
_chemical_formula_sum   'Zn8 O8'
_cell_volume   190.13258405
_cell_formula_units_Z   8
loop_
 _symmetry_equiv_pos_site_id
 _symmetry_equiv_pos_as_xyz
  1  'x, y, z'
loop_
 _atom_site_type_symbol
 _atom_site_label
 _atom_site_symmetry_multiplicity
 _atom_site_fract_x
 _atom_site_fract_y
 _atom_site_fract_z
 _atom_site_occupancy
  Zn  Zn0  1  0.92921504  0.26287301  0.85843101  1
  Zn  Zn1  1  0.07078502  0.73712702  0.14156900  1
  Zn  Zn2  1  0.57078403  0.40444201  0.14156801  1
  Zn  Zn3  1  0.42921603  0.59555802  0.85843200  1
  Zn  Zn4  1  0.31001803  0.97382703  0.62003700  1
  Zn  Zn5  1  0.68998203  0.02617300  0.37996301  1
  Zn  Zn6  1  0.18998101  0.35379001  0.37996200  1
  Zn  Zn7  1  0.81001904  0.64621002  0.62003801  1
  O  O8  1  0.80984205  0.97411303  0.61968401  1
  O  O9  1  0.19015801  0.02588700  0.38031600  1
  O  O10  1  0.69015803  0.35442901  0.38031601  1
  O  O11  1  0.30984202  0.64557102  0.61968400  1
  O  O12  1  0.42921802  0.25845501  0.85843700  1
  O  O13  1  0.57078204  0.74154502  0.14156301  1
  O  O14  1  0.07078101  0.40001801  0.14156200  1
  O  O15  1  0.92921905  0.59998202  0.85843801  1
