# generated using pymatgen
data_TbGa3
_symmetry_space_group_name_H-M   'P 1'
_cell_length_a   6.08096981
_cell_length_b   6.08097029
_cell_length_c   9.74802208
_cell_angle_alpha   90.00000000
_cell_angle_beta   90.00000000
_cell_angle_gamma   120.00000000
_symmetry_Int_Tables_number   1
_chemical_formula_structural   TbGa3
_chemical_formula_sum   'Tb4 Ga12'
_cell_volume   312.17122211
_cell_formula_units_Z   4
loop_
 _symmetry_equiv_pos_site_id
 _symmetry_equiv_pos_as_xyz
  1  'x, y, z'
loop_
 _atom_site_type_symbol
 _atom_site_label
 _atom_site_symmetry_multiplicity
 _atom_site_fract_x
 _atom_site_fract_y
 _atom_site_fract_z
 _atom_site_occupancy
  Tb  Tb0  1  0.00000000  0.00000000  0.50000000  1
  Tb  Tb1  1  0.00000000  0.00000000  0.00000000  1
  Tb  Tb2  1  0.66666670  0.33333335  0.74999999  1
  Tb  Tb3  1  0.33333338  0.66666670  0.25000000  1
  Ga  Ga4  1  0.17783304  0.82216804  0.74999999  1
  Ga  Ga5  1  0.64433506  0.82216804  0.74999999  1
  Ga  Ga6  1  0.17783302  0.35566602  0.74999999  1
  Ga  Ga7  1  0.82216703  0.17783201  0.25000000  1
  Ga  Ga8  1  0.35566502  0.17783201  0.25000000  1
  Ga  Ga9  1  0.82216706  0.64433403  0.25000000  1
  Ga  Ga10  1  0.50000006  1.00000005  0.50000000  1
  Ga  Ga11  1  0.50000004  0.50000002  0.50000000  1
  Ga  Ga12  1  0.00000002  0.50000002  0.50000000  1
  Ga  Ga13  1  0.50000006  1.00000005  0.99999999  1
  Ga  Ga14  1  0.50000004  0.50000002  0.99999999  1
  Ga  Ga15  1  0.00000002  0.50000002  -0.00000000  1
