# generated using pymatgen
data_MgTl3
_symmetry_space_group_name_H-M   'P 1'
_cell_length_a   5.09515095
_cell_length_b   6.45130205
_cell_length_c   6.45130253
_cell_angle_alpha   60.00000381
_cell_angle_beta   90.00000000
_cell_angle_gamma   90.00000000
_symmetry_Int_Tables_number   1
_chemical_formula_structural   MgTl3
_chemical_formula_sum   'Mg2 Tl6'
_cell_volume   183.64642887
_cell_formula_units_Z   2
loop_
 _symmetry_equiv_pos_site_id
 _symmetry_equiv_pos_as_xyz
  1  'x, y, z'
loop_
 _atom_site_type_symbol
 _atom_site_label
 _atom_site_symmetry_multiplicity
 _atom_site_fract_x
 _atom_site_fract_y
 _atom_site_fract_z
 _atom_site_occupancy
  Mg  Mg0  1  0.75000001  0.66644399  0.16677802  1
  Mg  Mg1  1  0.75000001  0.16677800  0.66644400  1
  Tl  Tl2  1  0.75000001  0.16677800  0.16677800  1
  Tl  Tl3  1  0.25000000  0.83322198  0.83322202  1
  Tl  Tl4  1  0.25000000  0.83322198  0.33355602  1
  Tl  Tl5  1  0.25000000  0.33355599  0.83322200  1
  Tl  Tl6  1  0.75000001  0.66666665  0.66666668  1
  Tl  Tl7  1  0.25000000  0.33333333  0.33333334  1
