# generated using pymatgen
data_MnInCu6Se7
_symmetry_space_group_name_H-M   'P 1'
_cell_length_a   6.84307384
_cell_length_b   6.86545944
_cell_length_c   6.87016439
_cell_angle_alpha   93.49192810
_cell_angle_beta   90.48763275
_cell_angle_gamma   93.87402344
_symmetry_Int_Tables_number   1
_chemical_formula_structural   MnInCu6Se7
_chemical_formula_sum   'Mn1 In1 Cu6 Se7'
_cell_volume   321.40490251
_cell_formula_units_Z   1
loop_
 _symmetry_equiv_pos_site_id
 _symmetry_equiv_pos_as_xyz
  1  'x, y, z'
loop_
 _atom_site_type_symbol
 _atom_site_label
 _atom_site_symmetry_multiplicity
 _atom_site_fract_x
 _atom_site_fract_y
 _atom_site_fract_z
 _atom_site_occupancy
  Mn  Mn0  1  0.49396198  0.87372001  0.95436901  1
  In  In1  1  0.44486398  0.76882501  0.58400801  1
  Cu  Cu2  1  0.55045500  0.24127900  0.41797899  1
  Cu  Cu3  1  0.76048099  0.58567900  0.44739300  1
  Cu  Cu4  1  0.23510499  0.41930400  0.54596001  1
  Cu  Cu5  1  0.57789900  0.46519300  0.77158700  1
  Cu  Cu6  1  0.42081199  0.54597500  0.23389801  1
  Cu  Cu7  1  0.86609801  0.27899100  0.62473199  1
  Se  Se8  1  0.13155298  0.73005701  0.37666102  1
  Se  Se9  1  0.24287998  0.61348100  0.88551301  1
  Se  Se10  1  0.73679100  0.37545900  0.12225600  1
  Se  Se11  1  0.78692899  0.79498701  0.77898701  1
  Se  Se12  1  0.22887200  0.21282400  0.22062800  1
  Se  Se13  1  0.64085398  0.88184401  0.27964701  1
  Se  Se14  1  0.37014300  0.13048200  0.73568299  1
