# generated using pymatgen
data_Eu3Cu2Ge9
_symmetry_space_group_name_H-M   'P 1'
_cell_length_a   4.26801586
_cell_length_b   4.31959581
_cell_length_c   15.39924145
_cell_angle_alpha   90.00000000
_cell_angle_beta   90.00000000
_cell_angle_gamma   90.00000000
_symmetry_Int_Tables_number   1
_chemical_formula_structural   Eu3Cu2Ge9
_chemical_formula_sum   'Eu3 Cu2 Ge9'
_cell_volume   283.90200835
_cell_formula_units_Z   1
loop_
 _symmetry_equiv_pos_site_id
 _symmetry_equiv_pos_as_xyz
  1  'x, y, z'
loop_
 _atom_site_type_symbol
 _atom_site_label
 _atom_site_symmetry_multiplicity
 _atom_site_fract_x
 _atom_site_fract_y
 _atom_site_fract_z
 _atom_site_occupancy
  Eu  Eu0  1  0.00000000  0.50000002  0.49999999  1
  Eu  Eu1  1  0.00000000  0.00000000  0.24706999  1
  Eu  Eu2  1  0.00000000  0.00000000  0.75292998  1
  Cu  Cu3  1  0.50000002  0.50000002  0.18291099  1
  Cu  Cu4  1  0.50000002  0.50000002  0.81708898  1
  Ge  Ge5  1  0.50000002  0.50000002  0.34202199  1
  Ge  Ge6  1  0.50000002  0.50000002  0.65797798  1
  Ge  Ge7  1  0.50000002  0.00000000  0.41913199  1
  Ge  Ge8  1  0.50000002  0.00000000  0.58086798  1
  Ge  Ge9  1  0.50000002  0.00000000  0.08482900  1
  Ge  Ge10  1  0.50000002  0.00000000  0.91517097  1
  Ge  Ge11  1  0.00000000  0.50000002  0.08369600  1
  Ge  Ge12  1  0.00000000  0.50000002  0.91630397  1
  Ge  Ge13  1  0.00000000  0.00000000  0.00000000  1
