# generated using pymatgen
data_CsBa4La(CO4)2
_symmetry_space_group_name_H-M   'P 1'
_cell_length_a   7.02067900
_cell_length_b   7.02067900
_cell_length_c   7.02067900
_cell_angle_alpha   65.34563446
_cell_angle_beta   65.34563446
_cell_angle_gamma   65.34562683
_symmetry_Int_Tables_number   1
_chemical_formula_structural   CsBa4La(CO4)2
_chemical_formula_sum   'Cs1 Ba4 La1 C2 O8'
_cell_volume   273.16980847
_cell_formula_units_Z   1
loop_
 _symmetry_equiv_pos_site_id
 _symmetry_equiv_pos_as_xyz
  1  'x, y, z'
loop_
 _atom_site_type_symbol
 _atom_site_label
 _atom_site_symmetry_multiplicity
 _atom_site_fract_x
 _atom_site_fract_y
 _atom_site_fract_z
 _atom_site_occupancy
  Cs  Cs0  1  0.25000000  0.67505198  0.82494800  1
  Ba  Ba1  1  0.67505198  0.82494797  0.25000003  1
  Ba  Ba2  1  0.82494798  0.24999999  0.67505201  1
  Ba  Ba3  1  0.74999998  0.32494799  0.17505202  1
  Ba  Ba4  1  0.32494799  0.17505199  0.75000000  1
  La  La5  1  0.17505200  0.74999997  0.32494801  1
  C  C6  1  0.74999998  0.74999997  0.75000002  1
  C  C7  1  0.24999999  0.24999999  0.25000001  1
  O  O8  1  0.24999999  0.07729600  0.42270400  1
  O  O9  1  0.07729600  0.42270399  0.25000001  1
  O  O10  1  0.42270399  0.24999999  0.07729601  1
  O  O11  1  0.74999998  0.92270397  0.57729602  1
  O  O12  1  0.57729599  0.74999997  0.92270401  1
  O  O13  1  0.92270398  0.57729598  0.75000002  1
  O  O14  1  0.00000000  0.00000000  0.00000000  1
  O  O15  1  0.49999999  0.49999998  0.50000001  1
