# generated using pymatgen
data_SrBiO3
_symmetry_space_group_name_H-M   'P 1'
_cell_length_a   5.90998459
_cell_length_b   6.05261517
_cell_length_c   8.42822361
_cell_angle_alpha   90.00000000
_cell_angle_beta   90.06591034
_cell_angle_gamma   90.00000000
_symmetry_Int_Tables_number   1
_chemical_formula_structural   SrBiO3
_chemical_formula_sum   'Sr4 Bi4 O12'
_cell_volume   301.48462713
_cell_formula_units_Z   4
loop_
 _symmetry_equiv_pos_site_id
 _symmetry_equiv_pos_as_xyz
  1  'x, y, z'
loop_
 _atom_site_type_symbol
 _atom_site_label
 _atom_site_symmetry_multiplicity
 _atom_site_fract_x
 _atom_site_fract_y
 _atom_site_fract_z
 _atom_site_occupancy
  Sr  Sr0  1  0.01171800  0.45519699  0.25168700  1
  Sr  Sr1  1  0.98828202  0.54480299  0.74831300  1
  Sr  Sr2  1  0.48828101  0.95519697  0.24831300  1
  Sr  Sr3  1  0.51171801  0.04480300  0.75168699  1
  Bi  Bi4  1  0.00000000  0.00000000  0.49999999  1
  Bi  Bi5  1  0.50000001  0.49999999  0.00000001  1
  Bi  Bi6  1  0.00000000  0.00000000  0.00000000  1
  Bi  Bi7  1  0.50000001  0.49999999  0.50000000  1
  O  O8  1  0.90943002  0.03273700  0.24524201  1
  O  O9  1  0.09057000  0.96726297  0.75475799  1
  O  O10  1  0.59057001  0.53273699  0.25475800  1
  O  O11  1  0.40943001  0.46726299  0.74524199  1
  O  O12  1  0.20071700  0.71290398  0.05040500  1
  O  O13  1  0.79928301  0.28709599  0.94959499  1
  O  O14  1  0.29928301  0.21290399  0.44959500  1
  O  O15  1  0.70071701  0.78709598  0.55040500  1
  O  O16  1  0.28993100  0.20259399  0.04581400  1
  O  O17  1  0.71006901  0.79740598  0.95418599  1
  O  O18  1  0.21006900  0.70259398  0.45418599  1
  O  O19  1  0.78993101  0.29740599  0.54581400  1
