# generated using pymatgen
data_LiReO3
_symmetry_space_group_name_H-M   'P 1'
_cell_length_a   5.20806217
_cell_length_b   5.53821278
_cell_length_c   7.58419418
_cell_angle_alpha   90.00000000
_cell_angle_beta   90.00000000
_cell_angle_gamma   90.00000000
_symmetry_Int_Tables_number   1
_chemical_formula_structural   LiReO3
_chemical_formula_sum   'Li4 Re4 O12'
_cell_volume   218.75361629
_cell_formula_units_Z   4
loop_
 _symmetry_equiv_pos_site_id
 _symmetry_equiv_pos_as_xyz
  1  'x, y, z'
loop_
 _atom_site_type_symbol
 _atom_site_label
 _atom_site_symmetry_multiplicity
 _atom_site_fract_x
 _atom_site_fract_y
 _atom_site_fract_z
 _atom_site_occupancy
  Li  Li0  1  0.02209300  0.07160300  0.74999998  1
  Li  Li1  1  0.47790698  0.57160302  0.74999998  1
  Li  Li2  1  0.52209298  0.42839702  0.24999999  1
  Li  Li3  1  0.97790697  0.92839704  0.24999999  1
  Re  Re4  1  0.00000000  0.50000002  0.49999999  1
  Re  Re5  1  0.49999998  0.00000000  0.49999999  1
  Re  Re6  1  0.49999998  0.00000000  0.00000000  1
  Re  Re7  1  0.00000000  0.50000002  0.00000000  1
  O  O8  1  0.12451700  0.54878202  0.24999999  1
  O  O9  1  0.19031499  0.80670903  0.56334599  1
  O  O10  1  0.19031499  0.80670903  0.93665398  1
  O  O11  1  0.30968499  0.30670901  0.93665398  1
  O  O12  1  0.30968499  0.30670901  0.56334599  1
  O  O13  1  0.37548299  0.04878200  0.24999999  1
  O  O14  1  0.62451698  0.95121804  0.74999998  1
  O  O15  1  0.69031498  0.69329103  0.06334600  1
  O  O16  1  0.69031498  0.69329103  0.43665399  1
  O  O17  1  0.80968497  0.19329101  0.43665399  1
  O  O18  1  0.80968497  0.19329101  0.06334600  1
  O  O19  1  0.87548297  0.45121802  0.74999998  1
