# generated using pymatgen
data_TbGa2
_symmetry_space_group_name_H-M   'P 1'
_cell_length_a   5.21101999
_cell_length_b   5.39063597
_cell_length_c   5.39063597
_cell_angle_alpha   61.91404724
_cell_angle_beta   61.09622955
_cell_angle_gamma   61.09622955
_symmetry_Int_Tables_number   1
_chemical_formula_structural   TbGa2
_chemical_formula_sum   'Tb2 Ga4'
_cell_volume   110.35353576
_cell_formula_units_Z   2
loop_
 _symmetry_equiv_pos_site_id
 _symmetry_equiv_pos_as_xyz
  1  'x, y, z'
loop_
 _atom_site_type_symbol
 _atom_site_label
 _atom_site_symmetry_multiplicity
 _atom_site_fract_x
 _atom_site_fract_y
 _atom_site_fract_z
 _atom_site_occupancy
  Tb  Tb0  1  0.87545999  0.37453999  0.87454001  1
  Tb  Tb1  1  0.12454000  0.62545998  0.12546002  1
  Ga  Ga2  1  1.00000000  0.99999997  0.50000004  1
  Ga  Ga3  1  0.50000000  0.00000000  0.50000000  1
  Ga  Ga4  1  0.50000000  0.49999998  0.50000002  1
  Ga  Ga5  1  0.50000000  0.99999997  0.00000004  1
