# generated using pymatgen
data_U2GeC
_symmetry_space_group_name_H-M   'P 1'
_cell_length_a   3.16751409
_cell_length_b   3.16751361
_cell_length_c   14.53347969
_cell_angle_alpha   90.00000000
_cell_angle_beta   90.00000000
_cell_angle_gamma   120.00000763
_symmetry_Int_Tables_number   1
_chemical_formula_structural   U2GeC
_chemical_formula_sum   'U4 Ge2 C2'
_cell_volume   126.28077853
_cell_formula_units_Z   2
loop_
 _symmetry_equiv_pos_site_id
 _symmetry_equiv_pos_as_xyz
  1  'x, y, z'
loop_
 _atom_site_type_symbol
 _atom_site_label
 _atom_site_symmetry_multiplicity
 _atom_site_fract_x
 _atom_site_fract_y
 _atom_site_fract_z
 _atom_site_occupancy
  U  U0  1  0.66666666  0.33333333  0.91702802  1
  U  U1  1  0.33333336  0.66666666  0.41702801  1
  U  U2  1  0.33333336  0.66666666  0.08297200  1
  U  U3  1  0.66666666  0.33333333  0.58297201  1
  Ge  Ge4  1  0.66666666  0.33333333  0.25000001  1
  Ge  Ge5  1  0.33333336  0.66666666  0.75000002  1
  C  C6  1  0.00000000  0.00000000  0.00000000  1
  C  C7  1  0.00000000  0.00000000  0.50000001  1
