# generated using pymatgen
data_HfAl2Si
_symmetry_space_group_name_H-M   'P 1'
_cell_length_a   4.06623220
_cell_length_b   5.70468187
_cell_length_c   9.51320839
_cell_angle_alpha   97.32454681
_cell_angle_beta   90.00000000
_cell_angle_gamma   90.00000000
_symmetry_Int_Tables_number   1
_chemical_formula_structural   HfAl2Si
_chemical_formula_sum   'Hf2 Al4 Si2'
_cell_volume   218.87300364
_cell_formula_units_Z   2
loop_
 _symmetry_equiv_pos_site_id
 _symmetry_equiv_pos_as_xyz
  1  'x, y, z'
loop_
 _atom_site_type_symbol
 _atom_site_label
 _atom_site_symmetry_multiplicity
 _atom_site_fract_x
 _atom_site_fract_y
 _atom_site_fract_z
 _atom_site_occupancy
  Hf  Hf0  1  0.74999996  0.28127600  0.14738500  1
  Hf  Hf1  1  0.24999999  0.71872401  0.85261501  1
  Al  Al2  1  0.74999996  0.46594101  0.67588701  1
  Al  Al3  1  0.24999999  0.53405901  0.32411300  1
  Si  Si4  1  0.74999996  0.76601001  0.06845799  1
  Si  Si5  1  0.24999999  0.23399000  0.93154202  1
  Al  Al6  1  0.74999996  0.87886002  0.66563400  1
  Al  Al7  1  0.24999999  0.12114000  0.33436601  1
