# generated using pymatgen
data_CaLa(FeO3)2
_symmetry_space_group_name_H-M   'P 1'
_cell_length_a   5.50652599
_cell_length_b   5.52926922
_cell_length_c   7.71058321
_cell_angle_alpha   90.00043488
_cell_angle_beta   89.74754333
_cell_angle_gamma   89.99929810
_symmetry_Int_Tables_number   1
_chemical_formula_structural   CaLa(FeO3)2
_chemical_formula_sum   'Ca2 La2 Fe4 O12'
_cell_volume   234.76234673
_cell_formula_units_Z   2
loop_
 _symmetry_equiv_pos_site_id
 _symmetry_equiv_pos_as_xyz
  1  'x, y, z'
loop_
 _atom_site_type_symbol
 _atom_site_label
 _atom_site_symmetry_multiplicity
 _atom_site_fract_x
 _atom_site_fract_y
 _atom_site_fract_z
 _atom_site_occupancy
  Ca  Ca0  1  0.48860102  0.46249898  0.74959401  1
  Ca  Ca1  1  0.98860699  0.03749800  0.24960197  1
  La  La2  1  0.00864506  0.97157096  0.75148104  1
  La  La3  1  0.50864603  0.52842998  0.25147700  1
  Fe  Fe4  1  0.00022503  0.49950798  0.50105402  1
  Fe  Fe5  1  0.50021799  0.00048700  0.00106298  1
  Fe  Fe6  1  0.00056503  0.50028498  0.99990303  1
  Fe  Fe7  1  0.50056006  0.99971396  0.49990502  1
  O  O8  1  0.41924906  0.98643296  0.24311102  1
  O  O9  1  0.78348304  0.78378197  0.04422600  1
  O  O10  1  0.79186804  0.77603897  0.45756500  1
  O  O11  1  0.29186004  0.72396597  0.95756303  1
  O  O12  1  0.28347704  0.71621297  0.54422402  1
  O  O13  1  0.91925702  0.51357098  0.74310799  1
  O  O14  1  0.07294103  0.48289498  0.25613602  1
  O  O15  1  0.72094801  0.27949299  0.45830599  1
  O  O16  1  0.71348501  0.27273599  0.03862398  1
  O  O17  1  0.21347801  0.22726299  0.53862501  1
  O  O18  1  0.22094501  0.22051099  0.95830501  1
  O  O19  1  0.57294199  0.01710500  0.75612899  1
