# generated using pymatgen
data_Ca2FeRuO6
_symmetry_space_group_name_H-M   'P 1'
_cell_length_a   5.50877523
_cell_length_b   5.60277987
_cell_length_c   7.83460283
_cell_angle_alpha   90.00000000
_cell_angle_beta   90.00000000
_cell_angle_gamma   89.87688446
_symmetry_Int_Tables_number   1
_chemical_formula_structural   Ca2FeRuO6
_chemical_formula_sum   'Ca4 Fe2 Ru2 O12'
_cell_volume   241.81018805
_cell_formula_units_Z   2
loop_
 _symmetry_equiv_pos_site_id
 _symmetry_equiv_pos_as_xyz
  1  'x, y, z'
loop_
 _atom_site_type_symbol
 _atom_site_label
 _atom_site_symmetry_multiplicity
 _atom_site_fract_x
 _atom_site_fract_y
 _atom_site_fract_z
 _atom_site_occupancy
  Ca  Ca0  1  0.49165497  0.45673201  0.00000000  1
  Ca  Ca1  1  0.01069098  0.95344401  0.00000000  1
  Ca  Ca2  1  0.51098797  0.54624901  0.50000001  1
  Ca  Ca3  1  0.99028596  0.04695500  0.50000001  1
  Fe  Fe4  1  0.49960398  0.00192100  0.24605501  1
  Fe  Fe5  1  0.00104899  0.49926001  0.75448202  1
  Ru  Ru6  1  0.49960398  0.00192100  0.75394502  1
  Ru  Ru7  1  0.00104899  0.49926001  0.24551801  1
  O  O8  1  0.20379999  0.20398400  0.21228400  1
  O  O9  1  0.29150298  0.70802201  0.79338902  1
  O  O10  1  0.79059595  0.79043701  0.70662202  1
  O  O11  1  0.71224997  0.28825100  0.29698401  1
  O  O12  1  0.79059595  0.79043701  0.29337801  1
  O  O13  1  0.71224997  0.28825100  0.70301602  1
  O  O14  1  0.20379999  0.20398400  0.78771602  1
  O  O15  1  0.29150298  0.70802201  0.20661100  1
  O  O16  1  0.58114997  0.02737900  0.00000000  1
  O  O17  1  0.91445995  0.52249301  0.00000000  1
  O  O18  1  0.42204697  0.98013301  0.50000001  1
  O  O19  1  0.08111699  0.48286501  0.50000001  1
