# generated using pymatgen
data_MnGe
_symmetry_space_group_name_H-M   'P 1'
_cell_length_a   3.63631439
_cell_length_b   3.63631439
_cell_length_c   6.26443529
_cell_angle_alpha   73.12799072
_cell_angle_beta   73.12799072
_cell_angle_gamma   59.99999237
_symmetry_Int_Tables_number   1
_chemical_formula_structural   MnGe
_chemical_formula_sum   'Mn2 Ge2'
_cell_volume   67.58725927
_cell_formula_units_Z   2
loop_
 _symmetry_equiv_pos_site_id
 _symmetry_equiv_pos_as_xyz
  1  'x, y, z'
loop_
 _atom_site_type_symbol
 _atom_site_label
 _atom_site_symmetry_multiplicity
 _atom_site_fract_x
 _atom_site_fract_y
 _atom_site_fract_z
 _atom_site_occupancy
  Mn  Mn0  1  0.50000000  0.50000000  0.49999998  1
  Mn  Mn1  1  0.00000000  0.00000000  0.00000000  1
  Ge  Ge2  1  0.25275000  0.25275000  0.24174999  1
  Ge  Ge3  1  0.74725000  0.74725000  0.75824997  1
