# generated using pymatgen
data_Na3Ge2BiO8
_symmetry_space_group_name_H-M   'P 1'
_cell_length_a   6.31964779
_cell_length_b   6.34946442
_cell_length_c   6.91956139
_cell_angle_alpha   76.86458588
_cell_angle_beta   62.82879257
_cell_angle_gamma   60.15522003
_symmetry_Int_Tables_number   1
_chemical_formula_structural   Na3Ge2BiO8
_chemical_formula_sum   'Na3 Ge2 Bi1 O8'
_cell_volume   214.25626835
_cell_formula_units_Z   1
loop_
 _symmetry_equiv_pos_site_id
 _symmetry_equiv_pos_as_xyz
  1  'x, y, z'
loop_
 _atom_site_type_symbol
 _atom_site_label
 _atom_site_symmetry_multiplicity
 _atom_site_fract_x
 _atom_site_fract_y
 _atom_site_fract_z
 _atom_site_occupancy
  Na  Na0  1  0.18681004  0.62638000  0.49999998  1
  Na  Na1  1  0.43681002  0.12638000  -0.00000001  1
  Na  Na2  1  0.56067806  0.87864401  0.49999997  1
  Bi  Bi3  1  0.81067805  0.37864400  -0.00000002  1
  Ge  Ge4  1  0.87902305  0.24195400  0.49999999  1
  Ge  Ge5  1  0.12902304  0.74195401  0.99999999  1
  O  O6  1  0.83952706  0.44633500  0.66137998  1
  O  O7  1  0.20881501  0.05517600  0.34865700  1
  O  O8  1  0.71413805  0.44633500  0.33861998  1
  O  O9  1  0.73600903  0.05517600  0.65134300  1
  O  O10  1  0.13735203  0.55517600  0.84865699  1
  O  O11  1  0.80275808  0.94633501  0.16137996  1
  O  O12  1  0.30747204  0.55517600  0.15134298  1
  O  O13  1  0.25090706  0.94633501  0.83861998  1
