# generated using pymatgen
data_Ce2Ge2Rh
_symmetry_space_group_name_H-M   'P 1'
_cell_length_a   4.36612797
_cell_length_b   6.02968502
_cell_length_c   9.49424362
_cell_angle_alpha   82.85665894
_cell_angle_beta   76.70672607
_cell_angle_gamma   68.77368164
_symmetry_Int_Tables_number   1
_chemical_formula_structural   Ce2Ge2Rh
_chemical_formula_sum   'Ce4 Ge4 Rh2'
_cell_volume   226.51620826
_cell_formula_units_Z   2
loop_
 _symmetry_equiv_pos_site_id
 _symmetry_equiv_pos_as_xyz
  1  'x, y, z'
loop_
 _atom_site_type_symbol
 _atom_site_label
 _atom_site_symmetry_multiplicity
 _atom_site_fract_x
 _atom_site_fract_y
 _atom_site_fract_z
 _atom_site_occupancy
  Ce  Ce0  1  0.99947592  0.67344504  0.32760303  1
  Ce  Ce1  1  0.00052396  0.32655502  0.67239698  1
  Ce  Ce2  1  0.81495797  0.25966601  0.11041802  1
  Ce  Ce3  1  0.18504192  0.74033404  0.88958199  1
  Ge  Ge4  1  0.65336997  0.26086501  0.43239501  1
  Ge  Ge5  1  0.34662992  0.73913504  0.56760501  1
  Ge  Ge6  1  0.50427790  0.86474505  0.12669904  1
  Ge  Ge7  1  0.49572198  0.13525501  0.87330098  1
  Rh  Rh8  1  0.72564989  0.92536005  0.62334002  1
  Rh  Rh9  1  0.27434999  0.07464000  0.37665999  1
