# generated using pymatgen
data_NaNbO3
_symmetry_space_group_name_H-M   'P 1'
_cell_length_a   5.59090376
_cell_length_b   5.67741346
_cell_length_c   7.94167471
_cell_angle_alpha   89.99732208
_cell_angle_beta   89.94659424
_cell_angle_gamma   90.11474609
_symmetry_Int_Tables_number   1
_chemical_formula_structural   NaNbO3
_chemical_formula_sum   'Na4 Nb4 O12'
_cell_volume   252.08300894
_cell_formula_units_Z   4
loop_
 _symmetry_equiv_pos_site_id
 _symmetry_equiv_pos_as_xyz
  1  'x, y, z'
loop_
 _atom_site_type_symbol
 _atom_site_label
 _atom_site_symmetry_multiplicity
 _atom_site_fract_x
 _atom_site_fract_y
 _atom_site_fract_z
 _atom_site_occupancy
  Na  Na0  1  0.98872498  0.04382600  0.74984305  1
  Na  Na1  1  0.48873600  0.45626801  0.24986400  1
  Na  Na2  1  0.51125200  0.54373302  0.75013501  1
  Na  Na3  1  0.01127703  0.95616603  0.25015596  1
  Nb  Nb4  1  0.00003901  0.49999201  0.50003799  1
  Nb  Nb5  1  0.00005201  0.50000801  0.99997500  1
  Nb  Nb6  1  0.49995199  0.00004300  0.50002803  1
  Nb  Nb7  1  0.49998802  0.99998203  0.99995500  1
  O  O8  1  0.91259899  0.51839502  0.24989902  1
  O  O9  1  0.41281502  0.98112703  0.74984699  1
  O  O10  1  0.58717999  0.01887100  0.25015503  1
  O  O11  1  0.08739901  0.48160401  0.75010100  1
  O  O12  1  0.79243900  0.78604502  0.95470402  1
  O  O13  1  0.29231901  0.71421702  0.04530698  1
  O  O14  1  0.70798999  0.28617001  0.54547203  1
  O  O15  1  0.20775800  0.21404101  0.45456301  1
  O  O16  1  0.20755900  0.21394801  0.04529400  1
  O  O17  1  0.70767599  0.28578001  0.95468803  1
  O  O18  1  0.29200601  0.71382802  0.45453499  1
  O  O19  1  0.79223900  0.78595602  0.54544201  1
