# generated using pymatgen
data_Si4SN7
_symmetry_space_group_name_H-M   'P 1'
_cell_length_a   5.06443214
_cell_length_b   5.12824965
_cell_length_c   8.37876701
_cell_angle_alpha   90.00000000
_cell_angle_beta   90.00000000
_cell_angle_gamma   119.58918762
_symmetry_Int_Tables_number   1
_chemical_formula_structural   Si4SN7
_chemical_formula_sum   'Si4 S1 N7'
_cell_volume   189.23158663
_cell_formula_units_Z   1
loop_
 _symmetry_equiv_pos_site_id
 _symmetry_equiv_pos_as_xyz
  1  'x, y, z'
loop_
 _atom_site_type_symbol
 _atom_site_label
 _atom_site_symmetry_multiplicity
 _atom_site_fract_x
 _atom_site_fract_y
 _atom_site_fract_z
 _atom_site_occupancy
  Si  Si0  1  0.66963196  0.33025900  0.93739600  1
  Si  Si1  1  0.33937295  0.66974100  0.43739600  1
  Si  Si2  1  0.66963196  0.33025900  0.56260400  1
  Si  Si3  1  0.33937295  0.66974100  0.06260400  1
  N  N4  1  0.59313292  1.00000000  -0.00000000  1
  S  S5  1  0.03074797  0.55940700  0.54064400  1
  N  N6  1  0.26256195  0.67957500  0.25000000  1
  N  N7  1  0.47134096  0.44059300  0.45935600  1
  N  N8  1  0.58298696  0.32042500  0.75000000  1
  N  N9  1  0.47134096  0.44059300  0.04064400  1
  N  N10  1  0.59313292  1.00000000  0.50000000  1
  N  N11  1  0.03074797  0.55940700  0.95935600  1
