# generated using pymatgen
data_CsAgBr3
_symmetry_space_group_name_H-M   'P 1'
_cell_length_a   7.78259897
_cell_length_b   8.36803913
_cell_length_c   11.40551662
_cell_angle_alpha   90.00000000
_cell_angle_beta   90.00000000
_cell_angle_gamma   90.00000000
_symmetry_Int_Tables_number   1
_chemical_formula_structural   CsAgBr3
_chemical_formula_sum   'Cs4 Ag4 Br12'
_cell_volume   742.78532794
_cell_formula_units_Z   4
loop_
 _symmetry_equiv_pos_site_id
 _symmetry_equiv_pos_as_xyz
  1  'x, y, z'
loop_
 _atom_site_type_symbol
 _atom_site_label
 _atom_site_symmetry_multiplicity
 _atom_site_fract_x
 _atom_site_fract_y
 _atom_site_fract_z
 _atom_site_occupancy
  Cs  Cs0  1  0.97493100  0.42247499  0.74941402  1
  Cs  Cs1  1  0.47493100  0.07752500  0.24941401  1
  Cs  Cs2  1  0.52506900  0.92247499  0.74941402  1
  Cs  Cs3  1  0.02506900  0.57752499  0.24941401  1
  Ag  Ag4  1  0.48371600  0.46921999  0.51905802  1
  Ag  Ag5  1  0.51628400  0.53077999  0.01905800  1
  Ag  Ag6  1  0.01628400  0.96921998  0.51905802  1
  Ag  Ag7  1  0.98371600  0.03078000  0.01905800  1
  Br  Br8  1  0.32368100  0.78128199  0.03742900  1
  Br  Br9  1  0.17631900  0.28128200  0.03742900  1
  Br  Br10  1  0.82368100  0.71871799  0.53742902  1
  Br  Br11  1  0.29275100  0.81626699  0.46886102  1
  Br  Br12  1  0.20724900  0.31626700  0.46886102  1
  Br  Br13  1  0.79275200  0.68373299  0.96886103  1
  Br  Br14  1  0.42815200  0.49888099  0.74043702  1
  Br  Br15  1  0.70724800  0.18373300  0.96886103  1
  Br  Br16  1  0.92815200  0.00111900  0.24043701  1
  Br  Br17  1  0.57184800  0.50111899  0.24043701  1
  Br  Br18  1  0.07184800  0.99888098  0.74043702  1
  Br  Br19  1  0.67631900  0.21871800  0.53742902  1
