# generated using pymatgen
data_Ta2MnCo3
_symmetry_space_group_name_H-M   'P 1'
_cell_length_a   4.78451777
_cell_length_b   4.80974483
_cell_length_c   5.00492525
_cell_angle_alpha   76.24698639
_cell_angle_beta   61.44638062
_cell_angle_gamma   60.17334747
_symmetry_Int_Tables_number   1
_chemical_formula_structural   Ta2MnCo3
_chemical_formula_sum   'Ta2 Mn1 Co3'
_cell_volume   87.76512688
_cell_formula_units_Z   1
loop_
 _symmetry_equiv_pos_site_id
 _symmetry_equiv_pos_as_xyz
  1  'x, y, z'
loop_
 _atom_site_type_symbol
 _atom_site_label
 _atom_site_symmetry_multiplicity
 _atom_site_fract_x
 _atom_site_fract_y
 _atom_site_fract_z
 _atom_site_occupancy
  Ta  Ta0  1  0.91823904  0.16352200  0.49999999  1
  Ta  Ta1  1  0.58176098  0.83647799  0.50000002  1
  Co  Co2  1  0.83176102  0.33647800  0.00000001  1
  Mn  Mn3  1  0.16823897  0.66352199  0.00000003  1
  Co  Co4  1  0.24999998  0.50000000  0.50000001  1
  Co  Co5  1  0.50000002  0.00000000  -0.00000000  1
