# generated using pymatgen
data_Cs2BrO4
_symmetry_space_group_name_H-M   'P 1'
_cell_length_a   6.70127010
_cell_length_b   7.62815380
_cell_length_c   8.44223976
_cell_angle_alpha   113.25279236
_cell_angle_beta   90.00000000
_cell_angle_gamma   116.05577087
_symmetry_Int_Tables_number   1
_chemical_formula_structural   Cs2BrO4
_chemical_formula_sum   'Cs4 Br2 O8'
_cell_volume   348.25160468
_cell_formula_units_Z   2
loop_
 _symmetry_equiv_pos_site_id
 _symmetry_equiv_pos_as_xyz
  1  'x, y, z'
loop_
 _atom_site_type_symbol
 _atom_site_label
 _atom_site_symmetry_multiplicity
 _atom_site_fract_x
 _atom_site_fract_y
 _atom_site_fract_z
 _atom_site_occupancy
  Cs  Cs0  1  0.51288599  0.02577200  0.23999700  1
  Cs  Cs1  1  0.15623898  0.31247801  0.74249601  1
  Cs  Cs2  1  0.84376095  0.68752202  0.25750403  1
  Cs  Cs3  1  0.48711395  0.97422802  0.76000304  1
  Br  Br4  1  0.17478498  0.34957001  0.22157001  1
  Br  Br5  1  0.82521496  0.65043001  0.77843002  1
  O  O6  1  0.09508399  0.19016800  0.34653801  1
  O  O7  1  0.67971897  0.35943801  0.63286701  1
  O  O8  1  0.07910797  0.71237602  0.91543002  1
  O  O9  1  0.63326796  0.71237602  0.91543002  1
  O  O10  1  0.92089197  0.28762401  0.08457001  1
  O  O11  1  0.36673198  0.28762401  0.08457001  1
  O  O12  1  0.32028096  0.64056201  0.36713303  1
  O  O13  1  0.90491595  0.80983202  0.65346203  1
