# generated using pymatgen
data_LiCuP2S7
_symmetry_space_group_name_H-M   'P 1'
_cell_length_a   5.62808418
_cell_length_b   5.94499922
_cell_length_c   5.94499922
_cell_angle_alpha   71.87934875
_cell_angle_beta   83.94818115
_cell_angle_gamma   96.05181885
_symmetry_Int_Tables_number   1
_chemical_formula_structural   LiCuP2S7
_chemical_formula_sum   'Li1 Cu1 P2 S7'
_cell_volume   185.97325579
_cell_formula_units_Z   1
loop_
 _symmetry_equiv_pos_site_id
 _symmetry_equiv_pos_as_xyz
  1  'x, y, z'
loop_
 _atom_site_type_symbol
 _atom_site_label
 _atom_site_symmetry_multiplicity
 _atom_site_fract_x
 _atom_site_fract_y
 _atom_site_fract_z
 _atom_site_occupancy
  Li  Li0  1  -0.00000001  0.31013900  0.31013901  1
  Cu  Cu1  1  -0.00000003  0.68986100  0.68986103  1
  P  P2  1  0.39706197  0.25660800  0.74339203  1
  P  P3  1  0.60293794  0.74339200  0.25660804  1
  S  S4  1  0.19727397  0.40427600  0.94223403  1
  S  S5  1  0.19727399  0.05776600  0.59572402  1
  S  S6  1  0.73067795  0.44224200  0.55775804  1
  S  S7  1  0.49999998  0.00000000  0.00000001  1
  S  S8  1  0.26932196  0.55775800  0.44224203  1
  S  S9  1  0.80272594  0.59572400  0.05776604  1
  S  S10  1  0.80272593  0.94223400  0.40427605  1
