# generated using pymatgen
data_LiCrO2
_symmetry_space_group_name_H-M   'P 1'
_cell_length_a   4.83855629
_cell_length_b   5.36836720
_cell_length_c   4.83855629
_cell_angle_alpha   116.78567505
_cell_angle_beta   90.00001526
_cell_angle_gamma   116.78567505
_symmetry_Int_Tables_number   1
_chemical_formula_structural   LiCrO2
_chemical_formula_sum   'Li2 Cr2 O4'
_cell_volume   96.85045181
_cell_formula_units_Z   2
loop_
 _symmetry_equiv_pos_site_id
 _symmetry_equiv_pos_as_xyz
  1  'x, y, z'
loop_
 _atom_site_type_symbol
 _atom_site_label
 _atom_site_symmetry_multiplicity
 _atom_site_fract_x
 _atom_site_fract_y
 _atom_site_fract_z
 _atom_site_occupancy
  Li  Li0  1  0.25000005  0.50000004  0.75000004  1
  Li  Li1  1  0.50000009  1.00000007  0.50000009  1
  Cr  Cr2  1  0.75000002  0.50000004  0.25000007  1
  Cr  Cr3  1  0.00000000  0.00000000  0.00000000  1
  O  O4  1  0.87499999  0.25000002  0.28092406  1
  O  O5  1  0.37500001  0.25000002  0.96907603  1
  O  O6  1  0.71907605  0.75000005  0.62500009  1
  O  O7  1  0.03092408  0.75000005  0.12500005  1
