# generated using pymatgen
data_Al3Ga2NiS7
_symmetry_space_group_name_H-M   'P 1'
_cell_length_a   7.42457294
_cell_length_b   7.42457294
_cell_length_c   7.42457294
_cell_angle_alpha   60.00000000
_cell_angle_beta   60.00000000
_cell_angle_gamma   60.00000000
_symmetry_Int_Tables_number   1
_chemical_formula_structural   Al3Ga2NiS7
_chemical_formula_sum   'Al3 Ga2 Ni1 S7'
_cell_volume   289.40060687
_cell_formula_units_Z   1
loop_
 _symmetry_equiv_pos_site_id
 _symmetry_equiv_pos_as_xyz
  1  'x, y, z'
loop_
 _atom_site_type_symbol
 _atom_site_label
 _atom_site_symmetry_multiplicity
 _atom_site_fract_x
 _atom_site_fract_y
 _atom_site_fract_z
 _atom_site_occupancy
  Ni  Ni0  1  0.87253602  0.87253502  0.38239401  1
  Al  Al1  1  0.87253602  0.87253502  0.87253502  1
  Al  Al2  1  0.87253602  0.38239401  0.87253502  1
  Al  Al3  1  0.38239501  0.87253502  0.87253502  1
  Ga  Ga4  1  0.25000001  0.25000001  0.25000001  1
  Ga  Ga5  1  0.12242700  0.12242800  0.63271701  1
  S  S6  1  0.12242700  0.12242800  0.12242800  1
  S  S7  1  0.12242700  0.63271701  0.12242800  1
  S  S8  1  0.63271601  0.12242800  0.12242800  1
  S  S9  1  0.62880401  0.62880301  0.11359000  1
  S  S10  1  0.62880401  0.62880301  0.62880301  1
  S  S11  1  0.62880401  0.11359000  0.62880301  1
  S  S12  1  0.11359100  0.62880301  0.62880301  1
