# generated using pymatgen
data_CeSe
_symmetry_space_group_name_H-M   'P 1'
_cell_length_a   4.25580215
_cell_length_b   6.03736782
_cell_length_c   7.42431450
_cell_angle_alpha   113.99107361
_cell_angle_beta   106.65525818
_cell_angle_gamma   90.00000000
_symmetry_Int_Tables_number   1
_chemical_formula_structural   CeSe
_chemical_formula_sum   'Ce3 Se3'
_cell_volume   165.48117333
_cell_formula_units_Z   3
loop_
 _symmetry_equiv_pos_site_id
 _symmetry_equiv_pos_as_xyz
  1  'x, y, z'
loop_
 _atom_site_type_symbol
 _atom_site_label
 _atom_site_symmetry_multiplicity
 _atom_site_fract_x
 _atom_site_fract_y
 _atom_site_fract_z
 _atom_site_occupancy
  Ce  Ce0  1  0.00000000  0.00000000  0.00000000  1
  Ce  Ce1  1  0.33625699  0.33625701  0.67251399  1
  Ce  Ce2  1  0.66374298  0.66374302  0.32748600  1
  Se  Se3  1  0.00000000  0.50000001  -0.00000000  1
  Se  Se4  1  0.33343800  0.83343802  0.66687599  1
  Se  Se5  1  0.66656198  0.16656200  0.33312400  1
