# generated using pymatgen
data_K2Zr2Cu4P5SCl4
_symmetry_space_group_name_H-M   'P 1'
_cell_length_a   3.91495299
_cell_length_b   9.01488876
_cell_length_c   9.60712719
_cell_angle_alpha   90.00000000
_cell_angle_beta   90.00000000
_cell_angle_gamma   90.00000000
_symmetry_Int_Tables_number   1
_chemical_formula_structural   K2Zr2Cu4P5SCl4
_chemical_formula_sum   'K2 Zr2 Cu4 P5 S1 Cl4'
_cell_volume   339.06305014
_cell_formula_units_Z   1
loop_
 _symmetry_equiv_pos_site_id
 _symmetry_equiv_pos_as_xyz
  1  'x, y, z'
loop_
 _atom_site_type_symbol
 _atom_site_label
 _atom_site_symmetry_multiplicity
 _atom_site_fract_x
 _atom_site_fract_y
 _atom_site_fract_z
 _atom_site_occupancy
  K  K0  1  0.00000000  0.05898800  0.25000000  1
  K  K1  1  -0.00000000  0.94101202  0.74999999  1
  Zr  Zr2  1  0.50000000  0.71444402  0.25000000  1
  Zr  Zr3  1  0.50000000  0.57675502  0.88672898  1
  Cu  Cu4  1  0.00000000  0.63998102  0.07809300  1
  Cu  Cu5  1  0.50000000  0.42324501  0.38672899  1
  Cu  Cu6  1  0.50000000  0.42324501  0.11327100  1
  Cu  Cu7  1  0.00000000  0.36001901  0.92190698  1
  S  S8  1  0.00000000  0.36001901  0.57809299  1
  P  P9  1  0.50000000  0.57675502  0.61327099  1
  P  P10  1  0.00000000  0.63998102  0.42190699  1
  Cl  Cl11  1  0.50000000  0.28555601  0.74999999  1
  P  P12  1  0.50000000  0.22032201  0.52799899  1
  P  P13  1  0.00000000  0.45750201  0.25000000  1
  Cl  Cl14  1  0.50000000  0.77967802  0.02799900  1
  Cl  Cl15  1  -0.00000000  0.54249801  0.74999999  1
  P  P16  1  0.50000000  0.22032201  0.97200098  1
  Cl  Cl17  1  0.50000000  0.77967802  0.47200099  1
