# generated using pymatgen
data_TlAg2
_symmetry_space_group_name_H-M   'P 1'
_cell_length_a   5.63033676
_cell_length_b   5.63033676
_cell_length_c   5.87681437
_cell_angle_alpha   105.95120239
_cell_angle_beta   105.95120239
_cell_angle_gamma   115.23307800
_symmetry_Int_Tables_number   1
_chemical_formula_structural   TlAg2
_chemical_formula_sum   'Tl2 Ag4'
_cell_volume   144.64577870
_cell_formula_units_Z   2
loop_
 _symmetry_equiv_pos_site_id
 _symmetry_equiv_pos_as_xyz
  1  'x, y, z'
loop_
 _atom_site_type_symbol
 _atom_site_label
 _atom_site_symmetry_multiplicity
 _atom_site_fract_x
 _atom_site_fract_y
 _atom_site_fract_z
 _atom_site_occupancy
  Tl  Tl0  1  0.33333339  0.66666669  0.00000003  1
  Tl  Tl1  1  0.66666668  0.33333334  0.00000002  1
  Ag  Ag2  1  0.75000001  0.25000001  0.50000004  1
  Ag  Ag3  1  0.25000007  0.75000002  0.50000006  1
  Ag  Ag4  1  0.16467101  0.16467100  0.32934202  1
  Ag  Ag5  1  0.83532906  0.83532902  0.67065807  1
