# generated using pymatgen
data_Sr4Si(SO5)2
_symmetry_space_group_name_H-M   'P 1'
_cell_length_a   6.68464708
_cell_length_b   6.70404959
_cell_length_c   6.70404959
_cell_angle_alpha   70.58194733
_cell_angle_beta   70.53740692
_cell_angle_gamma   109.46259308
_symmetry_Int_Tables_number   1
_chemical_formula_structural   Sr4Si(SO5)2
_chemical_formula_sum   'Sr4 Si1 S2 O10'
_cell_volume   231.47699817
_cell_formula_units_Z   1
loop_
 _symmetry_equiv_pos_site_id
 _symmetry_equiv_pos_as_xyz
  1  'x, y, z'
loop_
 _atom_site_type_symbol
 _atom_site_label
 _atom_site_symmetry_multiplicity
 _atom_site_fract_x
 _atom_site_fract_y
 _atom_site_fract_z
 _atom_site_occupancy
  Sr  Sr0  1  -0.00000001  0.50375298  0.50375300  1
  Sr  Sr1  1  0.50000000  0.97604596  0.97604600  1
  Sr  Sr2  1  0.02608199  0.55493198  0.97731699  1
  Sr  Sr3  1  0.97391802  0.97731696  0.55493201  1
  Si  Si4  1  0.50000001  0.50417298  0.50417300  1
  S  S5  1  0.53527202  0.03857400  0.43090399  1
  O  O6  1  -0.00000000  0.03933100  0.03933100  1
  S  S7  1  0.46472801  0.43090398  0.03857401  1
  O  O8  1  0.23858800  0.24668699  0.02214401  1
  O  O9  1  0.37370900  0.57366098  0.16626501  1
  O  O10  1  0.70146901  0.57661398  0.76979300  1
  O  O11  1  0.62629102  0.16626499  0.57366099  1
  O  O12  1  0.29853100  0.76979297  0.57661401  1
  O  O13  1  0.97226602  0.77272797  0.16207202  1
  O  O14  1  0.76141203  0.02214400  0.24668700  1
  O  O15  1  0.50000001  0.23700599  0.23700600  1
  O  O16  1  0.02773400  0.16207199  0.77272798  1
