# generated using pymatgen
data_Li2TeO6
_symmetry_space_group_name_H-M   'P 1'
_cell_length_a   4.54121590
_cell_length_b   4.54121590
_cell_length_c   9.00405216
_cell_angle_alpha   89.64699554
_cell_angle_beta   89.64699554
_cell_angle_gamma   88.25421906
_symmetry_Int_Tables_number   1
_chemical_formula_structural   Li2TeO6
_chemical_formula_sum   'Li4 Te2 O12'
_cell_volume   185.59431646
_cell_formula_units_Z   2
loop_
 _symmetry_equiv_pos_site_id
 _symmetry_equiv_pos_as_xyz
  1  'x, y, z'
loop_
 _atom_site_type_symbol
 _atom_site_label
 _atom_site_symmetry_multiplicity
 _atom_site_fract_x
 _atom_site_fract_y
 _atom_site_fract_z
 _atom_site_occupancy
  Li  Li0  1  0.00616300  0.00616300  0.15980699  1
  Li  Li1  1  0.99383703  0.99383703  0.84019301  1
  Li  Li2  1  0.00000000  0.00000000  0.49999997  1
  Li  Li3  1  0.47689602  0.47689601  0.33252701  1
  Te  Te4  1  0.50000002  0.50000001  0.99999998  1
  Te  Te5  1  0.52310402  0.52310401  0.66747300  1
  O  O6  1  0.19356501  0.19356501  0.99872396  1
  O  O7  1  0.18854201  0.18854201  0.32967199  1
  O  O8  1  0.69085102  0.30117401  0.16611502  1
  O  O9  1  0.69882602  0.30914901  0.83388499  1
  O  O10  1  0.69247102  0.30752901  0.50000000  1
  O  O11  1  0.30117401  0.69085102  0.16611502  1
  O  O12  1  0.30914901  0.69882602  0.83388499  1
  O  O13  1  0.30752901  0.69247102  0.50000000  1
  O  O14  1  0.80643503  0.80643502  0.00127605  1
  O  O15  1  0.81145803  0.81145802  0.67032801  1
  O  O16  1  0.21000301  0.21000301  0.67726198  1
  O  O17  1  0.78999703  0.78999702  0.32273803  1
