# generated using pymatgen
data_Na2TaO4
_symmetry_space_group_name_H-M   'P 1'
_cell_length_a   3.98774314
_cell_length_b   3.98774314
_cell_length_c   6.52367830
_cell_angle_alpha   106.06587982
_cell_angle_beta   106.06587982
_cell_angle_gamma   90.08129883
_symmetry_Int_Tables_number   1
_chemical_formula_structural   Na2TaO4
_chemical_formula_sum   'Na2 Ta1 O4'
_cell_volume   95.45266148
_cell_formula_units_Z   1
loop_
 _symmetry_equiv_pos_site_id
 _symmetry_equiv_pos_as_xyz
  1  'x, y, z'
loop_
 _atom_site_type_symbol
 _atom_site_label
 _atom_site_symmetry_multiplicity
 _atom_site_fract_x
 _atom_site_fract_y
 _atom_site_fract_z
 _atom_site_occupancy
  Na  Na0  1  0.65531603  0.65531601  0.29902802  1
  Na  Na1  1  0.34468402  0.34468400  0.70097199  1
  Ta  Ta2  1  0.00000000  0.00000000  0.00000000  1
  O  O3  1  1.00000003  0.50000001  1.00000000  1
  O  O4  1  0.24740103  0.75259901  0.50000001  1
  O  O5  1  0.50000000  0.00000000  0.00000001  1
  O  O6  1  0.75259902  0.24740100  0.50000001  1
