# generated using pymatgen
data_Ba
_symmetry_space_group_name_H-M   'P 1'
_cell_length_a   8.29287434
_cell_length_b   10.38452625
_cell_length_c   10.38452625
_cell_angle_alpha   60.00000000
_cell_angle_beta   90.00000000
_cell_angle_gamma   90.00000000
_symmetry_Int_Tables_number   1
_chemical_formula_structural   Ba
_chemical_formula_sum   Ba8
_cell_volume   774.47801382
_cell_formula_units_Z   8
loop_
 _symmetry_equiv_pos_site_id
 _symmetry_equiv_pos_as_xyz
  1  'x, y, z'
loop_
 _atom_site_type_symbol
 _atom_site_label
 _atom_site_symmetry_multiplicity
 _atom_site_fract_x
 _atom_site_fract_y
 _atom_site_fract_z
 _atom_site_occupancy
  Ba  Ba0  1  0.24999999  0.33333333  0.33333333  1
  Ba  Ba1  1  0.74999997  0.66666666  0.66666666  1
  Ba  Ba2  1  0.74999997  0.67109400  0.16445298  1
  Ba  Ba3  1  0.74999997  0.16445300  0.16445300  1
  Ba  Ba4  1  0.74999997  0.16445300  0.67109402  1
  Ba  Ba5  1  0.24999999  0.32890600  0.83554701  1
  Ba  Ba6  1  0.24999999  0.83554700  0.83554700  1
  Ba  Ba7  1  0.24999999  0.83554700  0.32890598  1
