# generated using pymatgen
data_CsTlF4
_symmetry_space_group_name_H-M   'P 1'
_cell_length_a   7.34942770
_cell_length_b   7.34942770
_cell_length_c   7.34942770
_cell_angle_alpha   60.00000000
_cell_angle_beta   60.00000000
_cell_angle_gamma   60.00000000
_symmetry_Int_Tables_number   1
_chemical_formula_structural   CsTlF4
_chemical_formula_sum   'Cs2 Tl2 F8'
_cell_volume   280.70203932
_cell_formula_units_Z   2
loop_
 _symmetry_equiv_pos_site_id
 _symmetry_equiv_pos_as_xyz
  1  'x, y, z'
loop_
 _atom_site_type_symbol
 _atom_site_label
 _atom_site_symmetry_multiplicity
 _atom_site_fract_x
 _atom_site_fract_y
 _atom_site_fract_z
 _atom_site_occupancy
  Cs  Cs0  1  0.05308400  0.64897198  0.64897198  1
  Cs  Cs1  1  0.64897298  0.05308300  0.64897198  1
  Tl  Tl2  1  0.64897298  0.64897198  0.64897198  1
  Tl  Tl3  1  0.64897298  0.64897198  0.05308300  1
  F  F4  1  0.36349499  0.87883497  0.87883497  1
  F  F5  1  0.87883597  0.36349399  0.87883497  1
  F  F6  1  0.87883597  0.87883497  0.87883497  1
  F  F7  1  0.87883597  0.87883497  0.36349399  1
  F  F8  1  0.86564597  0.37811799  0.37811799  1
  F  F9  1  0.37811899  0.86564497  0.37811799  1
  F  F10  1  0.37811899  0.37811799  0.37811799  1
  F  F11  1  0.37811899  0.37811799  0.86564497  1
