# generated using pymatgen
data_ErCoP
_symmetry_space_group_name_H-M   'P 1'
_cell_length_a   3.84588408
_cell_length_b   3.84588385
_cell_length_c   15.02009201
_cell_angle_alpha   90.00000000
_cell_angle_beta   90.00000000
_cell_angle_gamma   120.00000000
_symmetry_Int_Tables_number   1
_chemical_formula_structural   ErCoP
_chemical_formula_sum   'Er4 Co4 P4'
_cell_volume   192.39579626
_cell_formula_units_Z   4
loop_
 _symmetry_equiv_pos_site_id
 _symmetry_equiv_pos_as_xyz
  1  'x, y, z'
loop_
 _atom_site_type_symbol
 _atom_site_label
 _atom_site_symmetry_multiplicity
 _atom_site_fract_x
 _atom_site_fract_y
 _atom_site_fract_z
 _atom_site_occupancy
  Er  Er0  1  0.00000000  0.00000000  0.50000000  1
  Er  Er1  1  0.00000000  0.00000000  0.00000000  1
  Er  Er2  1  0.00000000  0.00000000  0.75000000  1
  Er  Er3  1  0.00000000  0.00000000  0.25000000  1
  Co  Co4  1  0.66666664  0.33333332  0.62991200  1
  Co  Co5  1  0.33333330  0.66666664  0.37008800  1
  Co  Co6  1  0.33333330  0.66666664  0.12991200  1
  Co  Co7  1  0.66666664  0.33333332  0.87008800  1
  P  P8  1  0.66666664  0.33333332  0.12068600  1
  P  P9  1  0.33333330  0.66666664  0.87931400  1
  P  P10  1  0.33333330  0.66666664  0.62068600  1
  P  P11  1  0.66666664  0.33333332  0.37931400  1
