# generated using pymatgen
data_Li2Cu3F11
_symmetry_space_group_name_H-M   'P 1'
_cell_length_a   5.25306988
_cell_length_b   5.41337013
_cell_length_c   7.60928202
_cell_angle_alpha   92.54403687
_cell_angle_beta   90.00024414
_cell_angle_gamma   90.00021362
_symmetry_Int_Tables_number   1
_chemical_formula_structural   Li2Cu3F11
_chemical_formula_sum   'Li2 Cu3 F11'
_cell_volume   216.17045142
_cell_formula_units_Z   1
loop_
 _symmetry_equiv_pos_site_id
 _symmetry_equiv_pos_as_xyz
  1  'x, y, z'
loop_
 _atom_site_type_symbol
 _atom_site_label
 _atom_site_symmetry_multiplicity
 _atom_site_fract_x
 _atom_site_fract_y
 _atom_site_fract_z
 _atom_site_occupancy
  Li  Li0  1  0.51757700  0.52405998  0.50532705  1
  Li  Li1  1  0.48242299  0.52404898  0.00532603  1
  Cu  Cu2  1  0.99957099  0.99951796  0.49968808  1
  Cu  Cu3  1  0.00042597  0.99954396  0.99969306  1
  Cu  Cu4  1  0.29971998  0.77777297  0.03685104  1
  F  F5  1  0.70028499  0.77777397  0.53684406  1
  F  F6  1  0.09709597  0.99909196  0.74924605  1
  F  F7  1  0.20263198  0.69992498  0.45043604  1
  F  F8  1  0.20621000  0.29248999  0.05153602  1
  F  F9  1  0.30079900  0.21725699  0.45701803  1
  F  F10  1  0.40483799  0.48986698  0.74989905  1
  F  F11  1  0.59516100  0.48986598  0.24989604  1
  F  F12  1  0.69920301  0.21726899  0.95701506  1
  F  F13  1  0.79736500  0.69993698  0.95043007  1
  F  F14  1  0.79379001  0.29249499  0.55154105  1
  F  F15  1  0.90290499  0.99908196  0.24925407  1
