# generated using pymatgen
data_Zr(CoSn)6
_symmetry_space_group_name_H-M   'P 1'
_cell_length_a   5.44570017
_cell_length_b   5.44570017
_cell_length_c   8.99373436
_cell_angle_alpha   90.00000000
_cell_angle_beta   90.00000000
_cell_angle_gamma   120.00000000
_symmetry_Int_Tables_number   1
_chemical_formula_structural   Zr(CoSn)6
_chemical_formula_sum   'Zr1 Co6 Sn6'
_cell_volume   230.98200134
_cell_formula_units_Z   1
loop_
 _symmetry_equiv_pos_site_id
 _symmetry_equiv_pos_as_xyz
  1  'x, y, z'
loop_
 _atom_site_type_symbol
 _atom_site_label
 _atom_site_symmetry_multiplicity
 _atom_site_fract_x
 _atom_site_fract_y
 _atom_site_fract_z
 _atom_site_occupancy
  Zr  Zr0  1  0.00000000  0.00000000  0.00000000  1
  Co  Co1  1  0.50000001  0.50000003  0.75091097  1
  Co  Co2  1  0.50000001  0.50000003  0.24908899  1
  Co  Co3  1  0.00000002  0.50000003  0.75091097  1
  Co  Co4  1  0.00000002  0.50000003  0.24908899  1
  Co  Co5  1  0.50000003  1.00000007  0.75091097  1
  Co  Co6  1  0.50000003  1.00000007  0.24908899  1
  Sn  Sn7  1  0.00000000  0.00000000  0.67424397  1
  Sn  Sn8  1  0.00000000  0.00000000  0.32575599  1
  Sn  Sn9  1  0.66666666  0.33333336  0.99999996  1
  Sn  Sn10  1  0.33333336  0.66666671  0.99999996  1
  Sn  Sn11  1  0.66666666  0.33333336  0.49999998  1
  Sn  Sn12  1  0.33333336  0.66666671  0.49999998  1
