# generated using pymatgen
data_Li3YCu2F12
_symmetry_space_group_name_H-M   'P 1'
_cell_length_a   5.14801407
_cell_length_b   5.14801407
_cell_length_c   9.87019253
_cell_angle_alpha   90.00000000
_cell_angle_beta   90.00000000
_cell_angle_gamma   120.00000000
_symmetry_Int_Tables_number   1
_chemical_formula_structural   Li3YCu2F12
_chemical_formula_sum   'Li3 Y1 Cu2 F12'
_cell_volume   226.53520618
_cell_formula_units_Z   1
loop_
 _symmetry_equiv_pos_site_id
 _symmetry_equiv_pos_as_xyz
  1  'x, y, z'
loop_
 _atom_site_type_symbol
 _atom_site_label
 _atom_site_symmetry_multiplicity
 _atom_site_fract_x
 _atom_site_fract_y
 _atom_site_fract_z
 _atom_site_occupancy
  Y  Y0  1  0.66666666  0.33333334  0.75000004  1
  Li  Li1  1  0.33333334  0.66666667  0.25000001  1
  Li  Li2  1  0.00000000  0.00000000  0.00000000  1
  Li  Li3  1  0.00000000  0.00000000  0.50000002  1
  Cu  Cu4  1  0.66666666  0.33333334  0.25000001  1
  Cu  Cu5  1  0.33333334  0.66666667  0.75000004  1
  F  F6  1  0.63323200  0.65213800  0.85968304  1
  F  F7  1  0.36676800  0.01890600  0.35968302  1
  F  F8  1  0.65213800  0.63323200  0.35968302  1
  F  F9  1  0.98109399  0.34786200  0.35968302  1
  F  F10  1  0.01890601  0.65213800  0.64031703  1
  F  F11  1  0.01890600  0.36676800  0.85968304  1
  F  F12  1  0.34786201  0.98109401  0.85968304  1
  F  F13  1  0.34786200  0.36676800  0.64031703  1
  F  F14  1  0.98109399  0.63323200  0.14031701  1
  F  F15  1  0.63323200  0.98109401  0.64031703  1
  F  F16  1  0.36676800  0.34786200  0.14031701  1
  F  F17  1  0.65213799  0.01890600  0.14031701  1
