# generated using pymatgen
data_Cr5Ge3
_symmetry_space_group_name_H-M   'P 1'
_cell_length_a   4.66159010
_cell_length_b   6.88907003
_cell_length_c   13.27130032
_cell_angle_alpha   98.38270569
_cell_angle_beta   90.00000000
_cell_angle_gamma   109.77529907
_symmetry_Int_Tables_number   1
_chemical_formula_structural   Cr5Ge3
_chemical_formula_sum   'Cr10 Ge6'
_cell_volume   396.21866887
_cell_formula_units_Z   2
loop_
 _symmetry_equiv_pos_site_id
 _symmetry_equiv_pos_as_xyz
  1  'x, y, z'
loop_
 _atom_site_type_symbol
 _atom_site_label
 _atom_site_symmetry_multiplicity
 _atom_site_fract_x
 _atom_site_fract_y
 _atom_site_fract_z
 _atom_site_occupancy
  Cr  Cr0  1  0.49999999  0.00000000  0.00000000  1
  Cr  Cr1  1  0.00211300  0.00000000  0.75000000  1
  Cr  Cr2  1  0.49999999  0.00000000  0.50000000  1
  Cr  Cr3  1  0.99788698  0.00000000  0.25000000  1
  Cr  Cr4  1  0.22681796  0.50781501  0.62614601  1
  Cr  Cr5  1  0.71900295  0.49218501  0.87385401  1
  Cr  Cr6  1  0.77318195  0.49218501  0.37385401  1
  Cr  Cr7  1  0.28099696  0.50781501  0.12614601  1
  Ge  Ge8  1  0.91617997  0.21900700  0.91489200  1
  Cr  Cr9  1  0.69717293  0.78099301  0.58510802  1
  Ge  Ge10  1  0.08381995  0.78099301  0.08510802  1
  Cr  Cr11  1  0.30282698  0.21900700  0.41489201  1
  Ge  Ge12  1  0.79723696  0.28918800  0.19794601  1
  Ge  Ge13  1  0.49195097  0.28918800  0.69794601  1
  Ge  Ge14  1  0.20276295  0.71081201  0.80205402  1
  Ge  Ge15  1  0.50804894  0.71081201  0.30205402  1
