# generated using pymatgen
data_NdSb
_symmetry_space_group_name_H-M   'P 1'
_cell_length_a   5.99320602
_cell_length_b   9.19579697
_cell_length_c   9.19579697
_cell_angle_alpha   83.90431976
_cell_angle_beta   70.98191071
_cell_angle_gamma   70.98191071
_symmetry_Int_Tables_number   1
_chemical_formula_structural   NdSb
_chemical_formula_sum   'Nd8 Sb8'
_cell_volume   452.98478290
_cell_formula_units_Z   8
loop_
 _symmetry_equiv_pos_site_id
 _symmetry_equiv_pos_as_xyz
  1  'x, y, z'
loop_
 _atom_site_type_symbol
 _atom_site_label
 _atom_site_symmetry_multiplicity
 _atom_site_fract_x
 _atom_site_fract_y
 _atom_site_fract_z
 _atom_site_occupancy
  Nd  Nd0  1  0.28053500  0.13621300  0.30271697  1
  Nd  Nd1  1  0.71946495  0.86378698  0.69728290  1
  Nd  Nd2  1  0.41674899  0.30271599  0.86378693  1
  Nd  Nd3  1  0.78053599  0.30271599  0.13621295  1
  Nd  Nd4  1  0.08325199  0.13621300  0.69728296  1
  Nd  Nd5  1  0.74999998  0.49999999  0.49999993  1
  Nd  Nd6  1  0.24999997  0.49999999  0.49999995  1
  Nd  Nd7  1  0.21946396  0.69728398  0.86378692  1
  Sb  Sb8  1  0.58325096  0.69728398  0.13621294  1
  Sb  Sb9  1  0.91674796  0.86378698  0.30271691  1
  Sb  Sb10  1  0.16135997  0.49999999  0.17727996  1
  Sb  Sb11  1  0.66136000  0.17728000  0.49999995  1
  Sb  Sb12  1  0.75000001  0.00000000  -0.00000003  1
  Sb  Sb13  1  0.33863995  0.82271998  0.49999993  1
  Sb  Sb14  1  0.83863998  0.49999999  0.82271991  1
  Sb  Sb15  1  0.25000000  0.00000000  -0.00000001  1
