# generated using pymatgen
data_Li2MnOF4
_symmetry_space_group_name_H-M   'P 1'
_cell_length_a   5.18906069
_cell_length_b   5.70252419
_cell_length_c   7.09586859
_cell_angle_alpha   109.40525055
_cell_angle_beta   90.57332611
_cell_angle_gamma   116.52487946
_symmetry_Int_Tables_number   1
_chemical_formula_structural   Li2MnOF4
_chemical_formula_sum   'Li4 Mn2 O2 F8'
_cell_volume   174.04929021
_cell_formula_units_Z   2
loop_
 _symmetry_equiv_pos_site_id
 _symmetry_equiv_pos_as_xyz
  1  'x, y, z'
loop_
 _atom_site_type_symbol
 _atom_site_label
 _atom_site_symmetry_multiplicity
 _atom_site_fract_x
 _atom_site_fract_y
 _atom_site_fract_z
 _atom_site_occupancy
  Li  Li0  1  0.63224904  0.76238704  0.22298999  1
  Li  Li1  1  0.62845204  0.75875404  0.72051800  1
  Mn  Mn2  1  0.36775401  0.23761601  0.77701000  1
  Li  Li3  1  0.37154602  0.24124301  0.27948200  1
  Li  Li4  1  0.00000102  0.50000703  0.49999900  1
  Mn  Mn5  1  1.00000003  0.49999803  1.00000000  1
  O  O6  1  0.19396202  0.49093003  0.74705401  1
  F  F7  1  0.80603703  0.50906903  0.25294599  1
  F  F8  1  0.05345904  0.89713605  0.66666667  1
  F  F9  1  0.34699804  0.87206005  0.16150699  1
  F  F10  1  0.94654002  0.10286501  0.33327299  1
  O  O11  1  0.65300102  0.12793801  0.83849300  1
  F  F12  1  0.72869904  0.66233003  0.94787500  1
  F  F13  1  0.41915703  0.65418903  0.43763000  1
  F  F14  1  0.27130202  0.33766802  0.05212500  1
  F  F15  1  0.58084402  0.34581102  0.56237000  1
