# generated using pymatgen
data_Ta2GeN
_symmetry_space_group_name_H-M   'P 1'
_cell_length_a   3.00111604
_cell_length_b   3.00111532
_cell_length_c   13.65120888
_cell_angle_alpha   90.00000000
_cell_angle_beta   90.00000000
_cell_angle_gamma   120.00000763
_symmetry_Int_Tables_number   1
_chemical_formula_structural   Ta2GeN
_chemical_formula_sum   'Ta4 Ge2 N2'
_cell_volume   106.47978901
_cell_formula_units_Z   2
loop_
 _symmetry_equiv_pos_site_id
 _symmetry_equiv_pos_as_xyz
  1  'x, y, z'
loop_
 _atom_site_type_symbol
 _atom_site_label
 _atom_site_symmetry_multiplicity
 _atom_site_fract_x
 _atom_site_fract_y
 _atom_site_fract_z
 _atom_site_occupancy
  Ta  Ta0  1  0.66666667  0.33333335  0.58535801  1
  Ta  Ta1  1  0.33333334  0.66666669  0.41464200  1
  Ta  Ta2  1  0.33333334  0.66666669  0.08535800  1
  Ta  Ta3  1  0.66666667  0.33333335  0.91464201  1
  Ge  Ge4  1  0.66666667  0.33333335  0.25000000  1
  Ge  Ge5  1  0.33333334  0.66666669  0.75000001  1
  N  N6  1  0.00000000  0.00000000  0.50000000  1
  N  N7  1  0.00000000  0.00000000  0.00000000  1
