# generated using pymatgen
data_Ag6SCl9
_symmetry_space_group_name_H-M   'P 1'
_cell_length_a   3.99918604
_cell_length_b   7.12085009
_cell_length_c   13.81212711
_cell_angle_alpha   90.00000000
_cell_angle_beta   90.00000000
_cell_angle_gamma   106.30844879
_symmetry_Int_Tables_number   1
_chemical_formula_structural   Ag6SCl9
_chemical_formula_sum   'Ag6 S1 Cl9'
_cell_volume   377.50996939
_cell_formula_units_Z   1
loop_
 _symmetry_equiv_pos_site_id
 _symmetry_equiv_pos_as_xyz
  1  'x, y, z'
loop_
 _atom_site_type_symbol
 _atom_site_label
 _atom_site_symmetry_multiplicity
 _atom_site_fract_x
 _atom_site_fract_y
 _atom_site_fract_z
 _atom_site_occupancy
  Ag  Ag0  1  0.60843502  0.21687001  0.74999999  1
  Ag  Ag1  1  0.39156508  0.78313002  0.25000000  1
  Ag  Ag2  1  0.13413403  0.26826801  0.06219800  1
  Ag  Ag3  1  0.86586607  0.73173202  0.93780199  1
  Ag  Ag4  1  0.86586607  0.73173202  0.56219800  1
  Ag  Ag5  1  0.13413403  0.26826801  0.43780200  1
  Cl  Cl6  1  0.33705507  0.67411002  0.74999999  1
  S  S7  1  0.66294503  0.32589001  0.25000000  1
  Cl  Cl8  1  0.23787705  0.47575401  0.61201399  1
  Cl  Cl9  1  0.76212305  0.52424601  0.38798600  1
  Cl  Cl10  1  0.49999999  0.00000000  0.00000000  1
  Cl  Cl11  1  0.49999999  0.00000000  0.50000000  1
  Cl  Cl12  1  0.23787705  0.47575401  0.88798599  1
  Cl  Cl13  1  0.76212305  0.52424601  0.11201400  1
  Cl  Cl14  1  0.07055201  0.14110400  0.25000000  1
  Cl  Cl15  1  0.92944808  0.85889602  0.74999999  1
