# generated using pymatgen
data_SrLa(MoO4)2
_symmetry_space_group_name_H-M   'P 1'
_cell_length_a   5.28808737
_cell_length_b   5.39218187
_cell_length_c   6.87670279
_cell_angle_alpha   113.01311493
_cell_angle_beta   112.54141235
_cell_angle_gamma   90.16686249
_symmetry_Int_Tables_number   1
_chemical_formula_structural   SrLa(MoO4)2
_chemical_formula_sum   'Sr1 La1 Mo2 O8'
_cell_volume   163.97700289
_cell_formula_units_Z   1
loop_
 _symmetry_equiv_pos_site_id
 _symmetry_equiv_pos_as_xyz
  1  'x, y, z'
loop_
 _atom_site_type_symbol
 _atom_site_label
 _atom_site_symmetry_multiplicity
 _atom_site_fract_x
 _atom_site_fract_y
 _atom_site_fract_z
 _atom_site_occupancy
  Sr  Sr0  1  0.62419795  0.62419800  0.24839597  1
  La  La1  1  0.87662095  0.37662100  0.75324196  1
  Mo  Mo2  1  0.12375799  0.12375800  0.24751599  1
  Mo  Mo3  1  0.37541696  0.87541700  0.75083397  1
  O  O4  1  0.45296998  0.07168700  0.42676898  1
  O  O5  1  0.04918497  0.94370600  0.58229298  1
  O  O6  1  0.53310796  0.63858700  0.58229297  1
  O  O7  1  0.97379894  0.35508200  0.42676896  1
  O  O8  1  0.29833697  0.72121300  0.91802797  1
  O  O9  1  0.18797098  0.27421000  0.07291699  1
  O  O10  1  0.88494593  0.79870700  0.07291696  1
  O  O11  1  0.61969096  0.19681500  0.91802797  1
