# generated using pymatgen
data_TiP2
_symmetry_space_group_name_H-M   'P 1'
_cell_length_a   4.06254387
_cell_length_b   5.53218317
_cell_length_c   7.67230988
_cell_angle_alpha   90.00000000
_cell_angle_beta   90.00000000
_cell_angle_gamma   90.00000000
_symmetry_Int_Tables_number   1
_chemical_formula_structural   TiP2
_chemical_formula_sum   'Ti4 P8'
_cell_volume   172.43314526
_cell_formula_units_Z   4
loop_
 _symmetry_equiv_pos_site_id
 _symmetry_equiv_pos_as_xyz
  1  'x, y, z'
loop_
 _atom_site_type_symbol
 _atom_site_label
 _atom_site_symmetry_multiplicity
 _atom_site_fract_x
 _atom_site_fract_y
 _atom_site_fract_z
 _atom_site_occupancy
  Ti  Ti0  1  0.75000002  0.78688298  0.10413700  1
  Ti  Ti1  1  0.25000001  0.21311699  0.89586301  1
  Ti  Ti2  1  0.75000002  0.28688299  0.39586301  1
  Ti  Ti3  1  0.25000001  0.71311698  0.60413701  1
  P  P4  1  0.75000002  0.47068199  0.70490001  1
  P  P5  1  0.25000001  0.52931798  0.29510000  1
  P  P6  1  0.75000002  0.97068197  0.79510001  1
  P  P7  1  0.25000001  0.02931800  0.20490000  1
  P  P8  1  0.75000002  0.33720199  0.06956800  1
  P  P9  1  0.25000001  0.66279798  0.93043202  1
  P  P10  1  0.75000002  0.83720197  0.43043201  1
  P  P11  1  0.25000001  0.16279799  0.56956801  1
