# generated using pymatgen
data_NdCoSb2
_symmetry_space_group_name_H-M   'P 1'
_cell_length_a   4.36918592
_cell_length_b   4.36918592
_cell_length_c   10.13619137
_cell_angle_alpha   90.00000000
_cell_angle_beta   90.00000000
_cell_angle_gamma   90.00000000
_symmetry_Int_Tables_number   1
_chemical_formula_structural   NdCoSb2
_chemical_formula_sum   'Nd2 Co2 Sb4'
_cell_volume   193.49772045
_cell_formula_units_Z   2
loop_
 _symmetry_equiv_pos_site_id
 _symmetry_equiv_pos_as_xyz
  1  'x, y, z'
loop_
 _atom_site_type_symbol
 _atom_site_label
 _atom_site_symmetry_multiplicity
 _atom_site_fract_x
 _atom_site_fract_y
 _atom_site_fract_z
 _atom_site_occupancy
  Nd  Nd0  1  0.00000000  0.50000001  0.75058597  1
  Nd  Nd1  1  0.50000001  0.00000000  0.24941399  1
  Co  Co2  1  0.50000001  0.50000001  0.49999998  1
  Co  Co3  1  0.00000000  0.00000000  0.49999998  1
  Sb  Sb4  1  0.50000001  0.50000001  -0.00000000  1
  Sb  Sb5  1  0.00000000  0.00000000  0.00000000  1
  Sb  Sb6  1  0.00000000  0.50000001  0.34610499  1
  Sb  Sb7  1  0.50000001  0.00000000  0.65389498  1
