# generated using pymatgen
data_BaCa6O8
_symmetry_space_group_name_H-M   'P 1'
_cell_length_a   6.56606483
_cell_length_b   6.66054964
_cell_length_c   6.69145203
_cell_angle_alpha   90.64104462
_cell_angle_beta   90.29033661
_cell_angle_gamma   91.06092072
_symmetry_Int_Tables_number   1
_chemical_formula_structural   BaCa6O8
_chemical_formula_sum   'Ba1 Ca6 O8'
_cell_volume   292.56874048
_cell_formula_units_Z   1
loop_
 _symmetry_equiv_pos_site_id
 _symmetry_equiv_pos_as_xyz
  1  'x, y, z'
loop_
 _atom_site_type_symbol
 _atom_site_label
 _atom_site_symmetry_multiplicity
 _atom_site_fract_x
 _atom_site_fract_y
 _atom_site_fract_z
 _atom_site_occupancy
  Ca  Ca0  1  0.56262605  0.58070801  0.22742501  1
  Ba  Ba1  1  0.43737404  0.41929201  0.77257499  1
  Ca  Ca2  1  0.23573203  0.43886101  0.41994101  1
  Ca  Ca3  1  0.76426805  0.56113901  0.58005899  1
  Ca  Ca4  1  0.41784106  0.77193102  0.56160202  1
  Ca  Ca5  1  0.58215903  0.22806901  0.43839798  1
  Ca  Ca6  1  0.00000000  0.00000000  0.00000000  1
  O  O7  1  0.37985903  0.26165901  0.12684700  1
  O  O8  1  0.62014106  0.73834102  0.87315300  1
  O  O9  1  0.24918105  0.75743002  0.24503103  1
  O  O10  1  0.75081903  0.24257001  0.75496897  1
  O  O11  1  0.73563507  0.87284502  0.37651601  1
  O  O12  1  0.26436501  0.12715500  0.62348398  1
  O  O13  1  0.12792104  0.62101902  0.73847902  1
  O  O14  1  0.87207905  0.37898101  0.26152098  1
