# generated using pymatgen
data_Mg2Ga3
_symmetry_space_group_name_H-M   'P 1'
_cell_length_a   3.48391795
_cell_length_b   3.48391795
_cell_length_c   7.77899265
_cell_angle_alpha   102.94003296
_cell_angle_beta   102.94003296
_cell_angle_gamma   90.00000000
_symmetry_Int_Tables_number   1
_chemical_formula_structural   Mg2Ga3
_chemical_formula_sum   'Mg2 Ga3'
_cell_volume   89.55923979
_cell_formula_units_Z   1
loop_
 _symmetry_equiv_pos_site_id
 _symmetry_equiv_pos_as_xyz
  1  'x, y, z'
loop_
 _atom_site_type_symbol
 _atom_site_label
 _atom_site_symmetry_multiplicity
 _atom_site_fract_x
 _atom_site_fract_y
 _atom_site_fract_z
 _atom_site_occupancy
  Mg  Mg0  1  0.88914998  0.88915000  0.77829997  1
  Mg  Mg1  1  0.11085000  0.11085000  0.22170000  1
  Ga  Ga2  1  0.49999999  0.50000000  -0.00000002  1
  Ga  Ga3  1  0.30534499  0.30534500  0.61068999  1
  Ga  Ga4  1  0.69465499  0.69465500  0.38930997  1
