# generated using pymatgen
data_MgZn5RhO9
_symmetry_space_group_name_H-M   'P 1'
_cell_length_a   6.00447226
_cell_length_b   6.00447226
_cell_length_c   6.00447226
_cell_angle_alpha   60.00000000
_cell_angle_beta   60.00000000
_cell_angle_gamma   60.00000000
_symmetry_Int_Tables_number   1
_chemical_formula_structural   MgZn5RhO9
_chemical_formula_sum   'Mg1 Zn5 Rh1 O9'
_cell_volume   153.07685450
_cell_formula_units_Z   1
loop_
 _symmetry_equiv_pos_site_id
 _symmetry_equiv_pos_as_xyz
  1  'x, y, z'
loop_
 _atom_site_type_symbol
 _atom_site_label
 _atom_site_symmetry_multiplicity
 _atom_site_fract_x
 _atom_site_fract_y
 _atom_site_fract_z
 _atom_site_occupancy
  Mg  Mg0  1  0.49999999  0.00000000  -0.00000000  1
  Zn  Zn1  1  0.99999999  0.49999999  0.49999999  1
  Zn  Zn2  1  0.00000000  0.00000000  0.49999999  1
  Zn  Zn3  1  0.49999999  0.49999999  -0.00000000  1
  Zn  Zn4  1  0.00000000  0.49999999  -0.00000000  1
  Zn  Zn5  1  0.49999999  0.00000000  0.49999999  1
  Rh  Rh6  1  0.49999999  0.49999999  0.49999999  1
  O  O7  1  0.00000000  0.00000000  0.00000000  1
  O  O8  1  0.74999999  0.74999999  0.74999999  1
  O  O9  1  0.25000000  0.25000000  0.25000000  1
  O  O10  1  0.25000000  0.74999999  0.74999999  1
  O  O11  1  0.74999999  0.25000000  0.25000000  1
  O  O12  1  0.74999999  0.25000000  0.74999999  1
  O  O13  1  0.25000000  0.74999999  0.25000000  1
  O  O14  1  0.74999999  0.74999999  0.25000000  1
  O  O15  1  0.25000000  0.25000000  0.74999999  1
