# generated using pymatgen
data_Zr2P
_symmetry_space_group_name_H-M   'P 1'
_cell_length_a   4.52037382
_cell_length_b   6.62434816
_cell_length_c   8.25413990
_cell_angle_alpha   90.00000000
_cell_angle_beta   90.00000000
_cell_angle_gamma   90.00000000
_symmetry_Int_Tables_number   1
_chemical_formula_structural   Zr2P
_chemical_formula_sum   'Zr8 P4'
_cell_volume   247.16634004
_cell_formula_units_Z   4
loop_
 _symmetry_equiv_pos_site_id
 _symmetry_equiv_pos_as_xyz
  1  'x, y, z'
loop_
 _atom_site_type_symbol
 _atom_site_label
 _atom_site_symmetry_multiplicity
 _atom_site_fract_x
 _atom_site_fract_y
 _atom_site_fract_z
 _atom_site_occupancy
  Zr  Zr0  1  0.25000001  0.98715798  0.32613700  1
  Zr  Zr1  1  0.75000003  0.01284200  0.67386301  1
  Zr  Zr2  1  0.25000001  0.48715799  0.17386300  1
  Zr  Zr3  1  0.75000003  0.51284199  0.82613701  1
  Zr  Zr4  1  0.75000003  0.64810498  0.42311501  1
  Zr  Zr5  1  0.25000001  0.35189499  0.57688501  1
  Zr  Zr6  1  0.75000003  0.14810500  0.07688500  1
  Zr  Zr7  1  0.25000001  0.85189498  0.92311501  1
  P  P8  1  0.25000001  0.25923999  0.90265301  1
  P  P9  1  0.75000003  0.74075998  0.09734700  1
  P  P10  1  0.25000001  0.75923998  0.59734701  1
  P  P11  1  0.75000003  0.24075999  0.40265300  1
