# generated using pymatgen
data_CeGe3Ir
_symmetry_space_group_name_H-M   'P 1'
_cell_length_a   4.19630384
_cell_length_b   4.19630384
_cell_length_c   5.86713171
_cell_angle_alpha   110.95355988
_cell_angle_beta   110.95355988
_cell_angle_gamma   90.00000000
_symmetry_Int_Tables_number   1
_chemical_formula_structural   CeGe3Ir
_chemical_formula_sum   'Ce1 Ge3 Ir1'
_cell_volume   89.12773208
_cell_formula_units_Z   1
loop_
 _symmetry_equiv_pos_site_id
 _symmetry_equiv_pos_as_xyz
  1  'x, y, z'
loop_
 _atom_site_type_symbol
 _atom_site_label
 _atom_site_symmetry_multiplicity
 _atom_site_fract_x
 _atom_site_fract_y
 _atom_site_fract_z
 _atom_site_occupancy
  Ce  Ce0  1  0.00000000  0.00000000  0.00000000  1
  Ge  Ge1  1  0.24999996  0.75000000  0.49999995  1
  Ge  Ge2  1  0.75000000  0.25000000  0.49999996  1
  Ge  Ge3  1  0.62399197  0.62399200  0.24798393  1
  Ir  Ir4  1  0.37600798  0.37600800  0.75201597  1
