# generated using pymatgen
data_NaReO3
_symmetry_space_group_name_H-M   'P 1'
_cell_length_a   5.57714319
_cell_length_b   5.57719469
_cell_length_c   5.57707024
_cell_angle_alpha   60.47241592
_cell_angle_beta   60.47161484
_cell_angle_gamma   60.47128296
_symmetry_Int_Tables_number   1
_chemical_formula_structural   NaReO3
_chemical_formula_sum   'Na2 Re2 O6'
_cell_volume   123.97253681
_cell_formula_units_Z   2
loop_
 _symmetry_equiv_pos_site_id
 _symmetry_equiv_pos_as_xyz
  1  'x, y, z'
loop_
 _atom_site_type_symbol
 _atom_site_label
 _atom_site_symmetry_multiplicity
 _atom_site_fract_x
 _atom_site_fract_y
 _atom_site_fract_z
 _atom_site_occupancy
  Na  Na0  1  0.25013899  0.25031899  0.25022101  1
  Na  Na1  1  0.74973798  0.74988396  0.74981403  1
  Re  Re2  1  0.50024998  0.49951298  0.49994202  1
  Re  Re3  1  0.00004501  0.99994695  0.99998300  1
  O  O4  1  0.20597199  0.29095799  0.75180799  1
  O  O5  1  0.75181597  0.20608899  0.29076202  1
  O  O6  1  0.29084000  0.75184396  0.20614403  1
  O  O7  1  0.79381397  0.70920997  0.24829004  1
  O  O8  1  0.24827500  0.79393496  0.70905001  1
  O  O9  1  0.70911197  0.24830099  0.79398701  1
