# generated using pymatgen
data_Br4Cl2O5F3
_symmetry_space_group_name_H-M   'P 1'
_cell_length_a   4.26543999
_cell_length_b   5.87661552
_cell_length_c   9.49006176
_cell_angle_alpha   90.00000000
_cell_angle_beta   90.00000000
_cell_angle_gamma   91.36653137
_symmetry_Int_Tables_number   1
_chemical_formula_structural   Br4Cl2O5F3
_chemical_formula_sum   'Br4 Cl2 O5 F3'
_cell_volume   237.81356207
_cell_formula_units_Z   1
loop_
 _symmetry_equiv_pos_site_id
 _symmetry_equiv_pos_as_xyz
  1  'x, y, z'
loop_
 _atom_site_type_symbol
 _atom_site_label
 _atom_site_symmetry_multiplicity
 _atom_site_fract_x
 _atom_site_fract_y
 _atom_site_fract_z
 _atom_site_occupancy
  Br  Br0  1  0.50000000  0.00000000  0.50000001  1
  Br  Br1  1  0.50000000  0.00000000  0.00000000  1
  Br  Br2  1  0.91349696  0.71049098  0.75000002  1
  Br  Br3  1  0.08650298  0.28950899  0.25000001  1
  Cl  Cl4  1  0.52865296  0.80054298  0.75000002  1
  Cl  Cl5  1  0.47134699  0.19945699  0.25000001  1
  F  F6  1  0.00891695  0.87648498  0.60353302  1
  O  O7  1  0.99108300  0.12351500  0.10353300  1
  F  F8  1  0.99108300  0.12351500  0.39646701  1
  O  O9  1  0.00891695  0.87648498  0.89646702  1
  O  O10  1  0.50405299  0.26661299  0.59074001  1
  O  O11  1  0.49594696  0.73338698  0.09074000  1
  F  F12  1  0.49594696  0.73338698  0.40926001  1
  O  O13  1  0.50405299  0.26661299  0.90926002  1
