# generated using pymatgen
data_NpFe2
_symmetry_space_group_name_H-M   'P 1'
_cell_length_a   5.31365871
_cell_length_b   5.31365871
_cell_length_c   5.31365871
_cell_angle_alpha   60.00000000
_cell_angle_beta   60.00000000
_cell_angle_gamma   60.00000000
_symmetry_Int_Tables_number   1
_chemical_formula_structural   NpFe2
_chemical_formula_sum   'Np2 Fe4'
_cell_volume   106.08792951
_cell_formula_units_Z   2
loop_
 _symmetry_equiv_pos_site_id
 _symmetry_equiv_pos_as_xyz
  1  'x, y, z'
loop_
 _atom_site_type_symbol
 _atom_site_label
 _atom_site_symmetry_multiplicity
 _atom_site_fract_x
 _atom_site_fract_y
 _atom_site_fract_z
 _atom_site_occupancy
  Np  Np0  1  0.24999999  0.24999999  0.24999999  1
  Np  Np1  1  0.49999999  0.49999999  0.49999999  1
  Fe  Fe2  1  0.87499997  0.87499997  0.87499997  1
  Fe  Fe3  1  0.87499997  0.37499999  0.87499997  1
  Fe  Fe4  1  0.87499997  0.87499997  0.37499999  1
  Fe  Fe5  1  0.37499999  0.87499997  0.87499997  1
