# generated using pymatgen
data_SrTiFeO5
_symmetry_space_group_name_H-M   'P 1'
_cell_length_a   3.65155125
_cell_length_b   5.10106802
_cell_length_c   11.46721935
_cell_angle_alpha   89.99350739
_cell_angle_beta   89.99646759
_cell_angle_gamma   89.99473572
_symmetry_Int_Tables_number   1
_chemical_formula_structural   SrTiFeO5
_chemical_formula_sum   'Sr2 Ti2 Fe2 O10'
_cell_volume   213.59772819
_cell_formula_units_Z   2
loop_
 _symmetry_equiv_pos_site_id
 _symmetry_equiv_pos_as_xyz
  1  'x, y, z'
loop_
 _atom_site_type_symbol
 _atom_site_label
 _atom_site_symmetry_multiplicity
 _atom_site_fract_x
 _atom_site_fract_y
 _atom_site_fract_z
 _atom_site_occupancy
  Sr  Sr0  1  0.99999803  0.86673900  0.98845603  1
  Sr  Sr1  1  0.50015601  0.13524100  0.48815901  1
  Ti  Ti2  1  0.49988402  0.39123300  0.84891002  1
  Ti  Ti3  1  0.99991502  0.59756100  0.65100302  1
  Fe  Fe4  1  0.50015302  0.40468800  0.15091101  1
  Fe  Fe5  1  0.00000902  0.61079400  0.34888601  1
  O  O6  1  0.49999102  0.53592000  0.00716900  1
  O  O7  1  0.00002401  0.46630200  0.50725401  1
  O  O8  1  0.00009802  0.50971100  0.17915601  1
  O  O9  1  0.99988702  0.52116300  0.82175002  1
  O  O10  1  0.50003502  0.48116700  0.32163701  1
  O  O11  1  0.49993702  0.49233900  0.67924302  1
  O  O12  1  0.50029601  0.08608100  0.13283800  1
  O  O13  1  0.49976701  0.06984100  0.87103802  1
  O  O14  1  0.99991404  0.93221100  0.37087801  1
  O  O15  1  0.99993703  0.91611000  0.63271102  1
