# generated using pymatgen
data_GdHO4
_symmetry_space_group_name_H-M   'P 1'
_cell_length_a   4.32688379
_cell_length_b   4.32688379
_cell_length_c   5.88888884
_cell_angle_alpha   90.00000000
_cell_angle_beta   90.00000000
_cell_angle_gamma   90.00000000
_symmetry_Int_Tables_number   1
_chemical_formula_structural   GdHO4
_chemical_formula_sum   'Gd2 H2 O8'
_cell_volume   110.25132544
_cell_formula_units_Z   2
loop_
 _symmetry_equiv_pos_site_id
 _symmetry_equiv_pos_as_xyz
  1  'x, y, z'
loop_
 _atom_site_type_symbol
 _atom_site_label
 _atom_site_symmetry_multiplicity
 _atom_site_fract_x
 _atom_site_fract_y
 _atom_site_fract_z
 _atom_site_occupancy
  Gd  Gd0  1  0.50000002  0.50000002  0.50000001  1
  Gd  Gd1  1  0.00000000  0.00000000  0.00000000  1
  H  H2  1  0.50000002  0.50000002  -0.00000000  1
  H  H3  1  0.00000000  0.00000000  0.50000001  1
  O  O4  1  0.27187801  0.53859203  0.87933102  1
  O  O5  1  0.77187804  0.96140805  0.62066902  1
  O  O6  1  0.72812203  0.46140802  0.87933102  1
  O  O7  1  0.22812201  0.03859200  0.62066902  1
  O  O8  1  0.53859203  0.72812203  0.12066900  1
  O  O9  1  0.96140805  0.22812201  0.37933101  1
  O  O10  1  0.46140802  0.27187801  0.12066900  1
  O  O11  1  0.03859200  0.77187804  0.37933101  1
