# generated using pymatgen
data_U2Ga3Ni
_symmetry_space_group_name_H-M   'P 1'
_cell_length_a   4.18890381
_cell_length_b   5.29746342
_cell_length_c   5.75387096
_cell_angle_alpha   76.19621277
_cell_angle_beta   68.65349579
_cell_angle_gamma   66.71102142
_symmetry_Int_Tables_number   1
_chemical_formula_structural   U2Ga3Ni
_chemical_formula_sum   'U2 Ga3 Ni1'
_cell_volume   108.56168350
_cell_formula_units_Z   1
loop_
 _symmetry_equiv_pos_site_id
 _symmetry_equiv_pos_as_xyz
  1  'x, y, z'
loop_
 _atom_site_type_symbol
 _atom_site_label
 _atom_site_symmetry_multiplicity
 _atom_site_fract_x
 _atom_site_fract_y
 _atom_site_fract_z
 _atom_site_occupancy
  U  U0  1  0.55741406  0.69789797  0.18727302  1
  U  U1  1  0.44258604  0.30210199  0.81272701  1
  Ga  Ga2  1  0.17577102  0.24654299  0.40191501  1
  Ga  Ga3  1  0.82422908  0.75345697  0.59808502  1
  Ga  Ga4  1  0.84348105  0.11141499  0.20162399  1
  Ni  Ni5  1  0.15651904  0.88858496  0.79837604  1
