# generated using pymatgen
data_SrGe3Rh
_symmetry_space_group_name_H-M   'P 1'
_cell_length_a   4.43489790
_cell_length_b   4.43489790
_cell_length_c   5.94364643
_cell_angle_alpha   111.90562439
_cell_angle_beta   111.90562439
_cell_angle_gamma   90.00000000
_symmetry_Int_Tables_number   1
_chemical_formula_structural   SrGe3Rh
_chemical_formula_sum   'Sr1 Ge3 Rh1'
_cell_volume   99.30607140
_cell_formula_units_Z   1
loop_
 _symmetry_equiv_pos_site_id
 _symmetry_equiv_pos_as_xyz
  1  'x, y, z'
loop_
 _atom_site_type_symbol
 _atom_site_label
 _atom_site_symmetry_multiplicity
 _atom_site_fract_x
 _atom_site_fract_y
 _atom_site_fract_z
 _atom_site_occupancy
  Sr  Sr0  1  0.57680600  0.57680601  0.15361198  1
  Ge  Ge1  1  0.34392899  0.84392901  0.68785800  1
  Ge  Ge2  1  0.84392901  0.34392900  0.68785800  1
  Ge  Ge3  1  0.00140400  0.00140400  0.00280800  1
  Rh  Rh4  1  0.23960200  0.23960200  0.47920400  1
