# generated using pymatgen
data_Nb5Co3
_symmetry_space_group_name_H-M   'P 1'
_cell_length_a   6.55351686
_cell_length_b   6.55351686
_cell_length_c   7.09896278
_cell_angle_alpha   90.00000000
_cell_angle_beta   90.00000000
_cell_angle_gamma   90.00000000
_symmetry_Int_Tables_number   1
_chemical_formula_structural   Nb5Co3
_chemical_formula_sum   'Nb10 Co6'
_cell_volume   304.89039444
_cell_formula_units_Z   2
loop_
 _symmetry_equiv_pos_site_id
 _symmetry_equiv_pos_as_xyz
  1  'x, y, z'
loop_
 _atom_site_type_symbol
 _atom_site_label
 _atom_site_symmetry_multiplicity
 _atom_site_fract_x
 _atom_site_fract_y
 _atom_site_fract_z
 _atom_site_occupancy
  Nb  Nb0  1  0.00000000  0.50000001  0.50000002  1
  Nb  Nb1  1  0.50000001  0.00000000  -0.00000000  1
  Nb  Nb2  1  0.50000001  0.00000000  0.50000002  1
  Nb  Nb3  1  0.00000000  0.50000001  -0.00000000  1
  Nb  Nb4  1  0.33772001  0.66228001  0.24820101  1
  Nb  Nb5  1  0.66228001  0.33772001  0.24820101  1
  Nb  Nb6  1  0.16228000  0.16228000  0.74820102  1
  Nb  Nb7  1  0.83772002  0.83772002  0.74820102  1
  Nb  Nb8  1  0.66228001  0.33772001  0.75179902  1
  Nb  Nb9  1  0.33772001  0.66228001  0.75179902  1
  Co  Co10  1  0.83772002  0.83772002  0.25179901  1
  Co  Co11  1  0.16228000  0.16228000  0.25179901  1
  Co  Co12  1  0.14387100  0.85612902  0.50000002  1
  Co  Co13  1  0.85612902  0.14387100  0.50000002  1
  Co  Co14  1  0.35612901  0.35612901  -0.00000000  1
  Co  Co15  1  0.64387101  0.64387101  -0.00000000  1
