# generated using pymatgen
data_CeSiGe2Ru
_symmetry_space_group_name_H-M   'P 1'
_cell_length_a   4.17286205
_cell_length_b   4.17286205
_cell_length_c   5.67915630
_cell_angle_alpha   111.55436707
_cell_angle_beta   111.55436707
_cell_angle_gamma   90.00000000
_symmetry_Int_Tables_number   1
_chemical_formula_structural   CeSiGe2Ru
_chemical_formula_sum   'Ce1 Si1 Ge2 Ru1'
_cell_volume   84.49491873
_cell_formula_units_Z   1
loop_
 _symmetry_equiv_pos_site_id
 _symmetry_equiv_pos_as_xyz
  1  'x, y, z'
loop_
 _atom_site_type_symbol
 _atom_site_label
 _atom_site_symmetry_multiplicity
 _atom_site_fract_x
 _atom_site_fract_y
 _atom_site_fract_z
 _atom_site_occupancy
  Ce  Ce0  1  0.00400000  0.00400000  0.00800000  1
  Si  Si1  1  0.66236993  0.66236997  0.32473991  1
  Ge  Ge2  1  0.42631896  0.42631898  0.85263793  1
  Ge  Ge3  1  0.26115494  0.76115496  0.52230992  1
  Ru  Ru4  1  0.76115496  0.26115499  0.52230993  1
