# generated using pymatgen
data_Ho2CuSn3
_symmetry_space_group_name_H-M   'P 1'
_cell_length_a   4.66198015
_cell_length_b   4.66198063
_cell_length_c   7.31293583
_cell_angle_alpha   90.00000000
_cell_angle_beta   90.00000000
_cell_angle_gamma   119.99999237
_symmetry_Int_Tables_number   1
_chemical_formula_structural   Ho2CuSn3
_chemical_formula_sum   'Ho2 Cu1 Sn3'
_cell_volume   137.64591036
_cell_formula_units_Z   1
loop_
 _symmetry_equiv_pos_site_id
 _symmetry_equiv_pos_as_xyz
  1  'x, y, z'
loop_
 _atom_site_type_symbol
 _atom_site_label
 _atom_site_symmetry_multiplicity
 _atom_site_fract_x
 _atom_site_fract_y
 _atom_site_fract_z
 _atom_site_occupancy
  Ho  Ho0  1  0.00000000  0.00000000  0.50000001  1
  Ho  Ho1  1  0.00000000  0.00000000  0.00000000  1
  Sn  Sn2  1  0.66666663  0.33333334  0.25000001  1
  Cu  Cu3  1  0.33333329  0.66666667  0.75000002  1
  Sn  Sn4  1  0.66666663  0.33333334  0.75000002  1
  Sn  Sn5  1  0.33333329  0.66666667  0.25000001  1
