# generated using pymatgen
data_Mn3(FeSi4)2
_symmetry_space_group_name_H-M   'P 1'
_cell_length_a   4.89449406
_cell_length_b   4.90883303
_cell_length_c   7.61262703
_cell_angle_alpha   90.00000000
_cell_angle_beta   90.00000000
_cell_angle_gamma   119.90341949
_symmetry_Int_Tables_number   1
_chemical_formula_structural   Mn3(FeSi4)2
_chemical_formula_sum   'Mn3 Fe2 Si8'
_cell_volume   158.55249735
_cell_formula_units_Z   1
loop_
 _symmetry_equiv_pos_site_id
 _symmetry_equiv_pos_as_xyz
  1  'x, y, z'
loop_
 _atom_site_type_symbol
 _atom_site_label
 _atom_site_symmetry_multiplicity
 _atom_site_fract_x
 _atom_site_fract_y
 _atom_site_fract_z
 _atom_site_occupancy
  Mn  Mn0  1  0.99998096  0.00000000  0.00000000  1
  Mn  Mn1  1  0.99999296  0.00000000  0.34629800  1
  Si  Si2  1  0.99999296  0.00000000  0.65370200  1
  Mn  Mn3  1  0.33298498  0.66601302  0.00000000  1
  Fe  Fe4  1  0.66697197  0.33398701  0.00000000  1
  Fe  Fe5  1  0.33300698  0.66608002  0.50000000  1
  Si  Si6  1  0.66692697  0.33392001  0.50000000  1
  Si  Si7  1  0.49999298  0.00000000  0.25012000  1
  Si  Si8  1  0.49998998  0.50000302  0.25013600  1
  Si  Si9  1  0.99998796  0.49999702  0.25013600  1
  Si  Si10  1  0.49999298  0.00000000  0.74988000  1
  Si  Si11  1  0.49998998  0.50000302  0.74986400  1
  Si  Si12  1  0.99998796  0.49999702  0.74986400  1
