# generated using pymatgen
data_Eu5Bi3
_symmetry_space_group_name_H-M   'P 1'
_cell_length_a   8.79884434
_cell_length_b   9.17061424
_cell_length_c   8.79884434
_cell_angle_alpha   61.33220673
_cell_angle_beta   90.00000000
_cell_angle_gamma   118.66779327
_symmetry_Int_Tables_number   1
_chemical_formula_structural   Eu5Bi3
_chemical_formula_sum   'Eu10 Bi6'
_cell_volume   521.59445456
_cell_formula_units_Z   2
loop_
 _symmetry_equiv_pos_site_id
 _symmetry_equiv_pos_as_xyz
  1  'x, y, z'
loop_
 _atom_site_type_symbol
 _atom_site_label
 _atom_site_symmetry_multiplicity
 _atom_site_fract_x
 _atom_site_fract_y
 _atom_site_fract_z
 _atom_site_occupancy
  Eu  Eu0  1  0.50529299  0.71670700  0.99470695  1
  Eu  Eu1  1  0.00529301  0.71670700  0.78858596  1
  Eu  Eu2  1  0.71141398  0.71670700  0.49470697  1
  Eu  Eu3  1  0.99470697  0.28329300  0.21141399  1
  Eu  Eu4  1  0.21141400  0.71670700  0.28858598  1
  Eu  Eu5  1  0.49470699  0.28329300  0.00529300  1
  Eu  Eu6  1  0.78858597  0.28329300  0.71141397  1
  Eu  Eu7  1  0.28858599  0.28329300  0.50529298  1
  Eu  Eu8  1  0.00000000  0.00000000  0.00000000  1
  Eu  Eu9  1  0.49999998  0.00000000  0.49999998  1
  Bi  Bi10  1  0.65838797  0.00000000  0.15838799  1
  Bi  Bi11  1  0.15838799  0.00000000  0.34161199  1
  Bi  Bi12  1  0.84161197  0.00000000  0.65838797  1
  Bi  Bi13  1  0.34161199  0.00000000  0.84161197  1
  Bi  Bi14  1  0.25000000  0.50000000  0.74999996  1
  Bi  Bi15  1  0.74999998  0.50000000  0.24999998  1
