# generated using pymatgen
data_CeGa3
_symmetry_space_group_name_H-M   'P 1'
_cell_length_a   6.14355516
_cell_length_b   6.14355516
_cell_length_c   12.51424885
_cell_angle_alpha   75.79084015
_cell_angle_beta   75.79084015
_cell_angle_gamma   60.00000763
_symmetry_Int_Tables_number   1
_chemical_formula_structural   CeGa3
_chemical_formula_sum   'Ce5 Ga15'
_cell_volume   392.27410419
_cell_formula_units_Z   5
loop_
 _symmetry_equiv_pos_site_id
 _symmetry_equiv_pos_as_xyz
  1  'x, y, z'
loop_
 _atom_site_type_symbol
 _atom_site_label
 _atom_site_symmetry_multiplicity
 _atom_site_fract_x
 _atom_site_fract_y
 _atom_site_fract_z
 _atom_site_occupancy
  Ce  Ce0  1  0.00000000  0.00000000  0.00000000  1
  Ce  Ce1  1  0.86924100  0.86924101  0.39227699  1
  Ce  Ce2  1  0.13075900  0.13075900  0.60772302  1
  Ce  Ce3  1  0.59983500  0.59983501  0.20049499  1
  Ce  Ce4  1  0.40016500  0.40016501  0.79950502  1
  Ga  Ga5  1  0.50000000  0.50000001  -0.00000001  1
  Ga  Ga6  1  0.50000001  0.00000000  -0.00000001  1
  Ga  Ga7  1  -0.00000001  0.50000001  -0.00000001  1
  Ga  Ga8  1  0.87184800  0.36354101  0.40107000  1
  Ga  Ga9  1  0.36354100  0.36354101  0.40107000  1
  Ga  Ga10  1  0.36354099  0.87184801  0.40107000  1
  Ga  Ga11  1  0.12815199  0.63645901  0.59893001  1
  Ga  Ga12  1  0.63645900  0.63645901  0.59893000  1
  Ga  Ga13  1  0.63645900  0.12815200  0.59893001  1
  Ga  Ga14  1  0.56281600  0.11896100  0.19926200  1
  Ga  Ga15  1  0.11896100  0.11896100  0.19926200  1
  Ga  Ga16  1  0.11896099  0.56281601  0.19926200  1
  Ga  Ga17  1  0.43718399  0.88103901  0.80073801  1
  Ga  Ga18  1  0.88103900  0.88103901  0.80073800  1
  Ga  Ga19  1  0.88103900  0.43718401  0.80073801  1
