# generated using pymatgen
data_U2Si7Ni5
_symmetry_space_group_name_H-M   'P 1'
_cell_length_a   3.79808497
_cell_length_b   7.27945805
_cell_length_c   7.27945805
_cell_angle_alpha   90.00000000
_cell_angle_beta   90.00000000
_cell_angle_gamma   90.00000000
_symmetry_Int_Tables_number   1
_chemical_formula_structural   U2Si7Ni5
_chemical_formula_sum   'U2 Si7 Ni5'
_cell_volume   201.26245769
_cell_formula_units_Z   1
loop_
 _symmetry_equiv_pos_site_id
 _symmetry_equiv_pos_as_xyz
  1  'x, y, z'
loop_
 _atom_site_type_symbol
 _atom_site_label
 _atom_site_symmetry_multiplicity
 _atom_site_fract_x
 _atom_site_fract_y
 _atom_site_fract_z
 _atom_site_occupancy
  U  U0  1  0.00000000  0.00000000  0.00000000  1
  U  U1  1  0.50000000  0.50000000  0.50000000  1
  Ni  Ni2  1  0.50000000  0.66383200  0.91501699  1
  Si  Si3  1  0.00000000  0.16383200  0.58498300  1
  Si  Si4  1  -0.00000000  0.41501700  0.83616799  1
  Ni  Ni5  1  0.50000000  0.91501699  0.66383200  1
  Si  Si6  1  0.00000000  0.83616799  0.41501700  1
  Ni  Ni7  1  -0.00000000  0.58498300  0.16383200  1
  Ni  Ni8  1  0.50000000  0.08498300  0.33616800  1
  Ni  Ni9  1  0.50000000  0.33616800  0.08498300  1
  Si  Si10  1  0.00000000  0.28109000  0.28109000  1
  Si  Si11  1  0.00000000  0.71891000  0.71891000  1
  Si  Si12  1  0.50000000  0.78109000  0.21891000  1
  Si  Si13  1  0.50000000  0.21891000  0.78109000  1
