# generated using pymatgen
data_DyNi12
_symmetry_space_group_name_H-M   'P 1'
_cell_length_a   4.65412712
_cell_length_b   6.36539030
_cell_length_c   6.36539030
_cell_angle_alpha   82.05382538
_cell_angle_beta   68.55668640
_cell_angle_gamma   68.55667114
_symmetry_Int_Tables_number   1
_chemical_formula_structural   DyNi12
_chemical_formula_sum   'Dy1 Ni12'
_cell_volume   163.37138382
_cell_formula_units_Z   1
loop_
 _symmetry_equiv_pos_site_id
 _symmetry_equiv_pos_as_xyz
  1  'x, y, z'
loop_
 _atom_site_type_symbol
 _atom_site_label
 _atom_site_symmetry_multiplicity
 _atom_site_fract_x
 _atom_site_fract_y
 _atom_site_fract_z
 _atom_site_occupancy
  Dy  Dy0  1  0.00123292  0.99876706  0.99876694  1
  Ni  Ni1  1  0.64134994  0.35865002  0.35865000  1
  Ni  Ni2  1  0.35785593  0.64214404  0.64214397  1
  Ni  Ni3  1  0.99942388  0.99882906  0.50146299  1
  Ni  Ni4  1  0.50028390  0.99882906  0.50146297  1
  Ni  Ni5  1  0.50028394  0.50146303  0.99882898  1
  Ni  Ni6  1  0.99942391  0.50146303  0.99882900  1
  Ni  Ni7  1  0.27499897  0.22500101  0.22500100  1
  Ni  Ni8  1  0.49939092  0.77564905  0.22556898  1
  Ni  Ni9  1  0.49939096  0.22556901  0.77564899  1
  Ni  Ni10  1  0.72398891  0.77601105  0.77601098  1
  Ni  Ni11  1  0.00118697  0.35776902  0.63985597  1
  Ni  Ni12  1  0.00118795  0.63985604  0.35776897  1
