# generated using pymatgen
data_Ca5CuGe2
_symmetry_space_group_name_H-M   'P 1'
_cell_length_a   5.65296221
_cell_length_b   8.33674622
_cell_length_c   9.29834175
_cell_angle_alpha   90.00000000
_cell_angle_beta   90.00000000
_cell_angle_gamma   97.51572418
_symmetry_Int_Tables_number   1
_chemical_formula_structural   Ca5CuGe2
_chemical_formula_sum   'Ca10 Cu2 Ge4'
_cell_volume   434.44122093
_cell_formula_units_Z   2
loop_
 _symmetry_equiv_pos_site_id
 _symmetry_equiv_pos_as_xyz
  1  'x, y, z'
loop_
 _atom_site_type_symbol
 _atom_site_label
 _atom_site_symmetry_multiplicity
 _atom_site_fract_x
 _atom_site_fract_y
 _atom_site_fract_z
 _atom_site_occupancy
  Ca  Ca0  1  0.59459299  0.68917696  0.07607800  1
  Ca  Ca1  1  0.40540700  0.31082298  0.57607802  1
  Ca  Ca2  1  0.40540700  0.31082298  0.92392202  1
  Ca  Ca3  1  0.59459299  0.68917696  0.42392201  1
  Ca  Ca4  1  0.17971296  0.88412895  0.57245102  1
  Ca  Ca5  1  0.82028703  0.11587099  0.07245100  1
  Ca  Ca6  1  0.82028703  0.11587099  0.42754901  1
  Ca  Ca7  1  0.17971296  0.88412895  0.92754902  1
  Ca  Ca8  1  0.93316301  0.51782897  0.75000002  1
  Ca  Ca9  1  0.06683698  0.48217097  0.25000001  1
  Cu  Cu10  1  0.69028298  0.90645295  0.75000002  1
  Cu  Cu11  1  0.30971701  0.09354699  0.25000001  1
  Ge  Ge12  1  0.46180098  0.64513196  0.75000002  1
  Ge  Ge13  1  0.53819900  0.35486798  0.25000001  1
  Ge  Ge14  1  0.93166903  0.16147499  0.75000002  1
  Ge  Ge15  1  0.06833096  0.83852495  0.25000001  1
