# generated using pymatgen
data_NaNb2VZn2NiSe6
_symmetry_space_group_name_H-M   'P 1'
_cell_length_a   3.88851810
_cell_length_b   7.34268188
_cell_length_c   11.46830273
_cell_angle_alpha   92.79953766
_cell_angle_beta   99.76068115
_cell_angle_gamma   90.00000000
_symmetry_Int_Tables_number   1
_chemical_formula_structural   NaNb2VZn2NiSe6
_chemical_formula_sum   'Na1 Nb2 V1 Zn2 Ni1 Se6'
_cell_volume   322.30823816
_cell_formula_units_Z   1
loop_
 _symmetry_equiv_pos_site_id
 _symmetry_equiv_pos_as_xyz
  1  'x, y, z'
loop_
 _atom_site_type_symbol
 _atom_site_label
 _atom_site_symmetry_multiplicity
 _atom_site_fract_x
 _atom_site_fract_y
 _atom_site_fract_z
 _atom_site_occupancy
  Na  Na0  1  0.00000000  0.00000000  0.00000000  1
  Nb  Nb1  1  0.94626696  0.53162099  0.89253398  1
  Nb  Nb2  1  0.05373299  0.46837899  0.10746599  1
  V  V3  1  0.68067797  0.67023399  0.36135598  1
  Zn  Zn4  1  0.31932198  0.32976599  0.63864399  1
  Zn  Zn5  1  0.67989997  0.32420999  0.35979998  1
  Ni  Ni6  1  0.32009998  0.67578999  0.64019998  1
  Se  Se7  1  0.88222597  0.23764600  0.76445199  1
  Se  Se8  1  0.11777398  0.76235398  0.23554798  1
  Se  Se9  1  0.77932796  0.84587998  0.55865597  1
  Se  Se10  1  0.22067199  0.15411900  0.44134400  1
  Se  Se11  1  0.42872897  0.74164099  0.85745798  1
  Se  Se12  1  0.57127098  0.25835899  0.14254199  1
