# generated using pymatgen
data_Mn2NiGe2P
_symmetry_space_group_name_H-M   'P 1'
_cell_length_a   3.69018292
_cell_length_b   5.95375681
_cell_length_c   7.09694672
_cell_angle_alpha   89.77715302
_cell_angle_beta   90.00000000
_cell_angle_gamma   90.00000000
_symmetry_Int_Tables_number   1
_chemical_formula_structural   Mn2NiGe2P
_chemical_formula_sum   'Mn4 Ni2 Ge4 P2'
_cell_volume   155.92194577
_cell_formula_units_Z   2
loop_
 _symmetry_equiv_pos_site_id
 _symmetry_equiv_pos_as_xyz
  1  'x, y, z'
loop_
 _atom_site_type_symbol
 _atom_site_label
 _atom_site_symmetry_multiplicity
 _atom_site_fract_x
 _atom_site_fract_y
 _atom_site_fract_z
 _atom_site_occupancy
  Mn  Mn0  1  0.00000000  0.53257602  0.68020900  1
  Mn  Mn1  1  0.00000000  0.03268200  0.82215800  1
  Mn  Mn2  1  0.50000001  0.46846001  0.32004100  1
  Mn  Mn3  1  0.50000001  0.96644803  0.17838901  1
  Ni  Ni4  1  -0.00000000  0.64731902  0.05736501  1
  Ni  Ni5  1  0.00000000  0.14482200  0.44173700  1
  P  P6  1  0.50000001  0.35228801  0.94095100  1
  P  P7  1  0.50000001  0.85333403  0.55875701  1
  Ge  Ge8  1  0.00000000  0.25837501  0.12671800  1
  Ge  Ge9  1  0.00000000  0.75362002  0.37167001  1
  Ge  Ge10  1  0.50000001  0.74446502  0.87617201  1
  Ge  Ge11  1  0.50000001  0.24561101  0.62583200  1
