# generated using pymatgen
data_Ce5Ge3
_symmetry_space_group_name_H-M   'P 1'
_cell_length_a   6.54740715
_cell_length_b   8.81231213
_cell_length_c   8.83190823
_cell_angle_alpha   119.92662811
_cell_angle_beta   90.00000000
_cell_angle_gamma   90.00000000
_symmetry_Int_Tables_number   1
_chemical_formula_structural   Ce5Ge3
_chemical_formula_sum   'Ce10 Ge6'
_cell_volume   441.63655872
_cell_formula_units_Z   2
loop_
 _symmetry_equiv_pos_site_id
 _symmetry_equiv_pos_as_xyz
  1  'x, y, z'
loop_
 _atom_site_type_symbol
 _atom_site_label
 _atom_site_symmetry_multiplicity
 _atom_site_fract_x
 _atom_site_fract_y
 _atom_site_fract_z
 _atom_site_occupancy
  Ce  Ce0  1  0.49999999  0.33324698  0.66649495  1
  Ce  Ce1  1  0.49999999  0.66675297  0.33350494  1
  Ce  Ce2  1  0.00000000  0.66675297  0.33350494  1
  Ce  Ce3  1  0.00000000  0.33324698  0.66649495  1
  Ce  Ce4  1  0.74999998  0.24766699  -0.00000002  1
  Ce  Ce5  1  0.74999998  0.75244496  0.75227492  1
  Ce  Ce6  1  0.74999998  0.00017000  0.24772499  1
  Ce  Ce7  1  0.24999999  0.75233296  -0.00000005  1
  Ce  Ce8  1  0.24999999  0.24755499  0.24772497  1
  Ce  Ce9  1  0.24999999  0.99982995  0.75227490  1
  Ge  Ge10  1  0.74999998  0.60773297  -0.00000004  1
  Ge  Ge11  1  0.74999998  0.39187898  0.39199996  1
  Ge  Ge12  1  0.74999998  0.99987795  0.60799991  1
  Ge  Ge13  1  0.24999999  0.39226698  -0.00000003  1
  Ge  Ge14  1  0.24999999  0.60812097  0.60799993  1
  Ge  Ge15  1  0.24999999  0.00012200  0.39199998  1
