# generated using pymatgen
data_PrYScAl2Fe7
_symmetry_space_group_name_H-M   'P 1'
_cell_length_a   4.99299002
_cell_length_b   4.99299002
_cell_length_c   8.51645184
_cell_angle_alpha   72.95408630
_cell_angle_beta   72.95408630
_cell_angle_gamma   60.00000381
_symmetry_Int_Tables_number   1
_chemical_formula_structural   PrYScAl2Fe7
_chemical_formula_sum   'Pr1 Y1 Sc1 Al2 Fe7'
_cell_volume   173.01632556
_cell_formula_units_Z   1
loop_
 _symmetry_equiv_pos_site_id
 _symmetry_equiv_pos_as_xyz
  1  'x, y, z'
loop_
 _atom_site_type_symbol
 _atom_site_label
 _atom_site_symmetry_multiplicity
 _atom_site_fract_x
 _atom_site_fract_y
 _atom_site_fract_z
 _atom_site_occupancy
  Pr  Pr0  1  0.00414200  0.00414100  0.98757497  1
  Y  Y1  1  0.85705402  0.85705396  0.42883796  1
  Sc  Sc2  1  0.14096100  0.14096099  0.57711698  1
  Al  Al3  1  0.66621201  0.66621097  0.00136498  1
  Al  Al4  1  0.33270201  0.33270198  0.00189399  1
  Fe  Fe5  1  0.41531203  0.91900496  0.25037097  1
  Fe  Fe6  1  0.41531201  0.41531198  0.25037098  1
  Fe  Fe7  1  0.91900399  0.41531198  0.25037097  1
  Fe  Fe8  1  0.58260199  0.08544800  0.74934696  1
  Fe  Fe9  1  0.58260201  0.58260197  0.74934695  1
  Fe  Fe10  1  0.08544802  0.58260197  0.74934696  1
  Fe  Fe11  1  0.49864801  0.49864798  0.50405697  1
