# generated using pymatgen
data_Zn3Cu
_symmetry_space_group_name_H-M   'P 1'
_cell_length_a   3.84330010
_cell_length_b   3.84330010
_cell_length_c   4.79306936
_cell_angle_alpha   113.63587189
_cell_angle_beta   113.63587189
_cell_angle_gamma   90.00000000
_symmetry_Int_Tables_number   1
_chemical_formula_structural   Zn3Cu
_chemical_formula_sum   'Zn3 Cu1'
_cell_volume   58.31822307
_cell_formula_units_Z   1
loop_
 _symmetry_equiv_pos_site_id
 _symmetry_equiv_pos_as_xyz
  1  'x, y, z'
loop_
 _atom_site_type_symbol
 _atom_site_label
 _atom_site_symmetry_multiplicity
 _atom_site_fract_x
 _atom_site_fract_y
 _atom_site_fract_z
 _atom_site_occupancy
  Zn  Zn0  1  0.00000000  0.00000000  0.00000000  1
  Zn  Zn1  1  0.75000002  0.25000000  0.50000008  1
  Zn  Zn2  1  0.25000005  0.75000001  0.50000009  1
  Cu  Cu3  1  0.50000003  0.50000001  0.00000006  1
