# generated using pymatgen
data_CaAgO4
_symmetry_space_group_name_H-M   'P 1'
_cell_length_a   3.06114602
_cell_length_b   3.06114674
_cell_length_c   13.54427338
_cell_angle_alpha   90.00000000
_cell_angle_beta   90.00000000
_cell_angle_gamma   119.99999237
_symmetry_Int_Tables_number   1
_chemical_formula_structural   CaAgO4
_chemical_formula_sum   'Ca2 Ag2 O8'
_cell_volume   109.91439420
_cell_formula_units_Z   2
loop_
 _symmetry_equiv_pos_site_id
 _symmetry_equiv_pos_as_xyz
  1  'x, y, z'
loop_
 _atom_site_type_symbol
 _atom_site_label
 _atom_site_symmetry_multiplicity
 _atom_site_fract_x
 _atom_site_fract_y
 _atom_site_fract_z
 _atom_site_occupancy
  Ca  Ca0  1  0.00000000  0.00000000  0.25420299  1
  Ca  Ca1  1  0.00000000  0.00000000  0.49999999  1
  Ag  Ag2  1  0.00000000  0.00000000  0.74579698  1
  Ag  Ag3  1  0.00000000  0.00000000  0.00000000  1
  O  O4  1  0.33333333  0.66666666  0.12086100  1
  O  O5  1  0.33333333  0.66666666  0.37552899  1
  O  O6  1  0.33333333  0.66666666  0.62447098  1
  O  O7  1  0.33333333  0.66666666  0.87913898  1
  O  O8  1  0.66666666  0.33333333  0.12086100  1
  O  O9  1  0.66666666  0.33333333  0.37552899  1
  O  O10  1  0.66666666  0.33333333  0.62447098  1
  O  O11  1  0.66666666  0.33333333  0.87913898  1
