# generated using pymatgen
data_Zr5Ge4
_symmetry_space_group_name_H-M   'P 1'
_cell_length_a   5.79175806
_cell_length_b   8.63158417
_cell_length_c   8.63158417
_cell_angle_alpha   120.00000000
_cell_angle_beta   90.00000000
_cell_angle_gamma   90.00000000
_symmetry_Int_Tables_number   1
_chemical_formula_structural   Zr5Ge4
_chemical_formula_sum   'Zr10 Ge8'
_cell_volume   373.69910948
_cell_formula_units_Z   2
loop_
 _symmetry_equiv_pos_site_id
 _symmetry_equiv_pos_as_xyz
  1  'x, y, z'
loop_
 _atom_site_type_symbol
 _atom_site_label
 _atom_site_symmetry_multiplicity
 _atom_site_fract_x
 _atom_site_fract_y
 _atom_site_fract_z
 _atom_site_occupancy
  Zr  Zr0  1  0.74999999  0.75441798  0.99999998  1
  Zr  Zr1  1  0.25000000  0.24558199  0.99999998  1
  Zr  Zr2  1  0.74999999  0.24558199  0.24558199  1
  Zr  Zr3  1  0.25000000  0.75441798  0.75441798  1
  Zr  Zr4  1  0.74999999  0.99999998  0.75441798  1
  Zr  Zr5  1  0.25000000  0.00000000  0.24558199  1
  Zr  Zr6  1  -0.00000000  0.33333333  0.66666665  1
  Zr  Zr7  1  -0.00000000  0.66666665  0.33333333  1
  Zr  Zr8  1  0.49999999  0.66666665  0.33333333  1
  Zr  Zr9  1  0.49999999  0.33333333  0.66666665  1
  Ge  Ge10  1  0.00000000  0.00000000  0.00000000  1
  Ge  Ge11  1  0.49999999  0.00000000  -0.00000000  1
  Ge  Ge12  1  0.74999999  0.39799599  0.99999998  1
  Ge  Ge13  1  0.25000000  0.60200399  0.99999998  1
  Ge  Ge14  1  0.74999999  0.60200399  0.60200399  1
  Ge  Ge15  1  0.25000000  0.39799599  0.39799599  1
  Ge  Ge16  1  0.74999999  0.00000000  0.39799599  1
  Ge  Ge17  1  0.25000000  0.99999998  0.60200399  1
