# generated using pymatgen
data_RbHgBr3
_symmetry_space_group_name_H-M   'P 1'
_cell_length_a   5.73371363
_cell_length_b   5.73561716
_cell_length_c   5.73561716
_cell_angle_alpha   89.92772675
_cell_angle_beta   90.07440186
_cell_angle_gamma   89.92559814
_symmetry_Int_Tables_number   1
_chemical_formula_structural   RbHgBr3
_chemical_formula_sum   'Rb1 Hg1 Br3'
_cell_volume   188.62325293
_cell_formula_units_Z   1
loop_
 _symmetry_equiv_pos_site_id
 _symmetry_equiv_pos_as_xyz
  1  'x, y, z'
loop_
 _atom_site_type_symbol
 _atom_site_label
 _atom_site_symmetry_multiplicity
 _atom_site_fract_x
 _atom_site_fract_y
 _atom_site_fract_z
 _atom_site_occupancy
  Rb  Rb0  1  0.99858001  0.00086200  0.99913804  1
  Hg  Hg1  1  0.48309299  0.50439200  0.49560803  1
  Br  Br2  1  0.48540300  0.00057900  0.49560402  1
  Br  Br3  1  0.98450999  0.49420100  0.50579905  1
  Br  Br4  1  0.48540299  0.50439600  0.99942104  1
