# generated using pymatgen
data_Li2MnNiO4
_symmetry_space_group_name_H-M   'P 1'
_cell_length_a   5.26554108
_cell_length_b   5.97872448
_cell_length_c   6.00694084
_cell_angle_alpha   60.17482758
_cell_angle_beta   72.60839081
_cell_angle_gamma   89.93116760
_symmetry_Int_Tables_number   1
_chemical_formula_structural   Li2MnNiO4
_chemical_formula_sum   'Li4 Mn2 Ni2 O8'
_cell_volume   154.05472523
_cell_formula_units_Z   2
loop_
 _symmetry_equiv_pos_site_id
 _symmetry_equiv_pos_as_xyz
  1  'x, y, z'
loop_
 _atom_site_type_symbol
 _atom_site_label
 _atom_site_symmetry_multiplicity
 _atom_site_fract_x
 _atom_site_fract_y
 _atom_site_fract_z
 _atom_site_occupancy
  Li  Li0  1  0.99998505  0.49999600  0.99999803  1
  Li  Li1  1  0.99998407  0.99999801  0.99999701  1
  Li  Li2  1  0.50149402  0.25340500  0.99920903  1
  Li  Li3  1  0.49845504  0.74657000  0.00078698  1
  Mn  Mn4  1  0.47592404  0.74630400  0.50767699  1
  Mn  Mn5  1  0.52403302  0.25366400  0.49233102  1
  Ni  Ni6  1  0.99992105  0.50010100  0.49992902  1
  Ni  Ni7  1  0.00039200  0.00003700  0.50010601  1
  O  O8  1  0.74484605  0.64271500  0.71425301  1
  O  O9  1  0.71951902  0.13061900  0.73794204  1
  O  O10  1  0.25510702  0.35728400  0.28573800  1
  O  O11  1  0.28043204  0.86935301  0.26203597  1
  O  O12  1  0.27606304  0.87850601  0.73300698  1
  O  O13  1  0.27633202  0.38932800  0.73297701  1
  O  O14  1  0.72389102  0.12146600  0.26700003  1
  O  O15  1  0.72362104  0.61065200  0.26701400  1
