# generated using pymatgen
data_TaGe
_symmetry_space_group_name_H-M   'P 1'
_cell_length_a   4.15825796
_cell_length_b   4.15825796
_cell_length_c   5.70795107
_cell_angle_alpha   90.00000000
_cell_angle_beta   90.00000000
_cell_angle_gamma   120.00000000
_symmetry_Int_Tables_number   1
_chemical_formula_structural   TaGe
_chemical_formula_sum   'Ta2 Ge2'
_cell_volume   85.47394097
_cell_formula_units_Z   2
loop_
 _symmetry_equiv_pos_site_id
 _symmetry_equiv_pos_as_xyz
  1  'x, y, z'
loop_
 _atom_site_type_symbol
 _atom_site_label
 _atom_site_symmetry_multiplicity
 _atom_site_fract_x
 _atom_site_fract_y
 _atom_site_fract_z
 _atom_site_occupancy
  Ta  Ta0  1  0.00000000  0.00000000  0.25778200  1
  Ta  Ta1  1  0.00000000  0.00000000  0.74221799  1
  Ge  Ge2  1  0.33333333  0.66666666  0.49999999  1
  Ge  Ge3  1  0.66666667  0.33333333  0.99999999  1
