# generated using pymatgen
data_Ac3Er
_symmetry_space_group_name_H-M   'P 1'
_cell_length_a   6.06967783
_cell_length_b   7.53080416
_cell_length_c   7.53080368
_cell_angle_alpha   120.00000000
_cell_angle_beta   90.00000000
_cell_angle_gamma   90.00000000
_symmetry_Int_Tables_number   1
_chemical_formula_structural   Ac3Er
_chemical_formula_sum   'Ac6 Er2'
_cell_volume   298.11165219
_cell_formula_units_Z   2
loop_
 _symmetry_equiv_pos_site_id
 _symmetry_equiv_pos_as_xyz
  1  'x, y, z'
loop_
 _atom_site_type_symbol
 _atom_site_label
 _atom_site_symmetry_multiplicity
 _atom_site_fract_x
 _atom_site_fract_y
 _atom_site_fract_z
 _atom_site_occupancy
  Ac  Ac0  1  0.75000002  0.82937296  0.17062596  1
  Ac  Ac1  1  0.75000002  0.82937296  0.65874595  1
  Ac  Ac2  1  0.75000002  0.34125299  0.17062598  1
  Ac  Ac3  1  0.25000001  0.65874697  0.82937395  1
  Ac  Ac4  1  0.25000001  0.17062699  0.34125398  1
  Ac  Ac5  1  0.25000001  0.17062699  0.82937397  1
  Er  Er6  1  0.75000002  0.33333332  0.66666664  1
  Er  Er7  1  0.25000001  0.66666664  0.33333330  1
