# generated using pymatgen
data_SrCaMnPbO4
_symmetry_space_group_name_H-M   'P 1'
_cell_length_a   3.89268208
_cell_length_b   3.89268208
_cell_length_c   16.24844360
_cell_angle_alpha   90.00000000
_cell_angle_beta   90.00000000
_cell_angle_gamma   90.00000000
_symmetry_Int_Tables_number   1
_chemical_formula_structural   SrCaMnPbO4
_chemical_formula_sum   'Sr2 Ca2 Mn2 Pb2 O8'
_cell_volume   246.21223925
_cell_formula_units_Z   2
loop_
 _symmetry_equiv_pos_site_id
 _symmetry_equiv_pos_as_xyz
  1  'x, y, z'
loop_
 _atom_site_type_symbol
 _atom_site_label
 _atom_site_symmetry_multiplicity
 _atom_site_fract_x
 _atom_site_fract_y
 _atom_site_fract_z
 _atom_site_occupancy
  Sr  Sr0  1  0.49999999  0.49999999  0.81608302  1
  Sr  Sr1  1  0.49999999  0.49999999  0.18391700  1
  Ca  Ca2  1  0.49999999  0.49999999  0.59907101  1
  Ca  Ca3  1  0.49999999  0.49999999  0.40092901  1
  Mn  Mn4  1  0.00000000  0.00000000  0.69191802  1
  Mn  Mn5  1  0.00000000  0.00000000  0.30808201  1
  Pb  Pb6  1  0.00000000  0.00000000  0.50000001  1
  Pb  Pb7  1  0.00000000  0.00000000  0.00000000  1
  O  O8  1  0.49999999  0.00000000  0.50000001  1
  O  O9  1  0.00000000  0.49999999  0.50000001  1
  O  O10  1  0.00000000  0.00000000  0.87627102  1
  O  O11  1  0.00000000  0.00000000  0.12372900  1
  O  O12  1  0.49999999  0.00000000  0.30369501  1
  O  O13  1  0.49999999  0.00000000  0.69630502  1
  O  O14  1  0.00000000  0.49999999  0.30369501  1
  O  O15  1  0.00000000  0.49999999  0.69630502  1
