# generated using pymatgen
data_TiV2FeMoSe8
_symmetry_space_group_name_H-M   'P 1'
_cell_length_a   6.82842445
_cell_length_b   6.82842445
_cell_length_c   7.40216970
_cell_angle_alpha   62.53254318
_cell_angle_beta   62.53254318
_cell_angle_gamma   59.99999619
_symmetry_Int_Tables_number   1
_chemical_formula_structural   TiV2FeMoSe8
_chemical_formula_sum   'Ti1 V2 Fe1 Mo1 Se8'
_cell_volume   252.98198034
_cell_formula_units_Z   1
loop_
 _symmetry_equiv_pos_site_id
 _symmetry_equiv_pos_as_xyz
  1  'x, y, z'
loop_
 _atom_site_type_symbol
 _atom_site_label
 _atom_site_symmetry_multiplicity
 _atom_site_fract_x
 _atom_site_fract_y
 _atom_site_fract_z
 _atom_site_occupancy
  Ti  Ti0  1  0.49999996  0.49999999  0.50000002  1
  V  V1  1  0.49999998  0.00000000  0.00000001  1
  Fe  Fe2  1  -0.00000002  0.49999999  0.99999999  1
  V  V3  1  0.49999996  0.49999999  0.00000003  1
  Mo  Mo4  1  0.00000000  0.00000000  0.00000000  1
  Se  Se5  1  0.75601496  0.25444399  0.23352602  1
  Se  Se6  1  0.24398498  0.24398499  0.76647400  1
  Se  Se7  1  0.24398496  0.74555598  0.76647401  1
  Se  Se8  1  0.74555596  0.24398499  0.76647401  1
  Se  Se9  1  0.25793498  0.25793499  0.22619501  1
  Se  Se10  1  0.74206494  0.74206498  0.77380503  1
  Se  Se11  1  0.25444396  0.75601498  0.23352603  1
  Se  Se12  1  0.75601494  0.75601498  0.23352604  1
