# generated using pymatgen
data_SrFe4(CuO4)3
_symmetry_space_group_name_H-M   'P 1'
_cell_length_a   6.53212309
_cell_length_b   6.53212309
_cell_length_c   6.53212309
_cell_angle_alpha   109.47122192
_cell_angle_beta   109.47122192
_cell_angle_gamma   109.47122192
_symmetry_Int_Tables_number   1
_chemical_formula_structural   SrFe4(CuO4)3
_chemical_formula_sum   'Sr1 Fe4 Cu3 O12'
_cell_volume   214.55624900
_cell_formula_units_Z   1
loop_
 _symmetry_equiv_pos_site_id
 _symmetry_equiv_pos_as_xyz
  1  'x, y, z'
loop_
 _atom_site_type_symbol
 _atom_site_label
 _atom_site_symmetry_multiplicity
 _atom_site_fract_x
 _atom_site_fract_y
 _atom_site_fract_z
 _atom_site_occupancy
  Sr  Sr0  1  0.00000000  0.00000000  0.00000000  1
  Fe  Fe1  1  0.50000003  0.50000002  0.00000004  1
  Fe  Fe2  1  0.50000000  0.00000000  0.50000001  1
  Fe  Fe3  1  0.00000003  0.50000002  0.50000002  1
  Fe  Fe4  1  0.50000003  0.50000002  0.50000004  1
  Cu  Cu5  1  0.00000000  0.00000000  0.50000000  1
  Cu  Cu6  1  0.00000003  0.50000002  0.00000003  1
  Cu  Cu7  1  0.50000000  0.00000000  1.00000001  1
  O  O8  1  0.31082701  0.17999701  0.49082401  1
  O  O9  1  0.68917305  0.82000303  0.50917606  1
  O  O10  1  0.31082705  0.82000303  0.13083005  1
  O  O11  1  0.68917301  0.17999701  0.86917002  1
  O  O12  1  0.82000303  0.50917602  0.68917304  1
  O  O13  1  0.17999703  0.49082402  0.31082703  1
  O  O14  1  0.17999706  0.86917003  0.68917305  1
  O  O15  1  0.82000301  0.13083000  0.31082702  1
  O  O16  1  0.13083002  0.31082701  0.82000302  1
  O  O17  1  0.86917005  0.68917302  0.17999706  1
  O  O18  1  0.49082402  0.31082701  0.17999703  1
  O  O19  1  0.50917604  0.68917302  0.82000305  1
