# generated using pymatgen
data_Tb2AlNi3
_symmetry_space_group_name_H-M   'P 1'
_cell_length_a   5.23760700
_cell_length_b   5.23760700
_cell_length_c   5.23760700
_cell_angle_alpha   66.03429413
_cell_angle_beta   66.03429413
_cell_angle_gamma   66.03430176
_symmetry_Int_Tables_number   1
_chemical_formula_structural   Tb2AlNi3
_chemical_formula_sum   'Tb2 Al1 Ni3'
_cell_volume   114.86057744
_cell_formula_units_Z   1
loop_
 _symmetry_equiv_pos_site_id
 _symmetry_equiv_pos_as_xyz
  1  'x, y, z'
loop_
 _atom_site_type_symbol
 _atom_site_label
 _atom_site_symmetry_multiplicity
 _atom_site_fract_x
 _atom_site_fract_y
 _atom_site_fract_z
 _atom_site_occupancy
  Tb  Tb0  1  0.37189706  0.37189701  0.37189694  1
  Tb  Tb1  1  0.62810310  0.62810302  0.62810290  1
  Al  Al2  1  0.00000000  0.00000000  0.00000000  1
  Ni  Ni3  1  0.00000000  0.00000000  0.49999998  1
  Ni  Ni4  1  0.00000004  0.50000002  -0.00000004  1
  Ni  Ni5  1  0.50000003  0.00000000  -0.00000003  1
