# generated using pymatgen
data_Ce(GeRh)2
_symmetry_space_group_name_H-M   'P 1'
_cell_length_a   4.19270420
_cell_length_b   4.19270420
_cell_length_c   9.86578274
_cell_angle_alpha   90.00000000
_cell_angle_beta   90.00000000
_cell_angle_gamma   90.00000000
_symmetry_Int_Tables_number   1
_chemical_formula_structural   Ce(GeRh)2
_chemical_formula_sum   'Ce2 Ge4 Rh4'
_cell_volume   173.42831097
_cell_formula_units_Z   2
loop_
 _symmetry_equiv_pos_site_id
 _symmetry_equiv_pos_as_xyz
  1  'x, y, z'
loop_
 _atom_site_type_symbol
 _atom_site_label
 _atom_site_symmetry_multiplicity
 _atom_site_fract_x
 _atom_site_fract_y
 _atom_site_fract_z
 _atom_site_occupancy
  Ce  Ce0  1  0.00000000  0.49999998  0.74661502  1
  Ce  Ce1  1  0.49999998  0.00000000  0.25338501  1
  Ge  Ge2  1  0.00000000  0.49999998  0.13444800  1
  Ge  Ge3  1  0.49999998  0.49999998  0.50000001  1
  Ge  Ge4  1  0.49999998  0.00000000  0.86555202  1
  Ge  Ge5  1  0.00000000  0.00000000  0.50000001  1
  Rh  Rh6  1  0.49999998  0.00000000  0.62419902  1
  Rh  Rh7  1  0.00000000  0.00000000  0.00000000  1
  Rh  Rh8  1  0.49999998  0.49999998  -0.00000000  1
  Rh  Rh9  1  0.00000000  0.49999998  0.37580101  1
