# generated using pymatgen
data_Ce2In2SnSe9
_symmetry_space_group_name_H-M   'P 1'
_cell_length_a   6.07033682
_cell_length_b   6.07033682
_cell_length_c   10.20738697
_cell_angle_alpha   90.00000000
_cell_angle_beta   90.00000000
_cell_angle_gamma   114.40130615
_symmetry_Int_Tables_number   1
_chemical_formula_structural   Ce2In2SnSe9
_chemical_formula_sum   'Ce2 In2 Sn1 Se9'
_cell_volume   342.53362529
_cell_formula_units_Z   1
loop_
 _symmetry_equiv_pos_site_id
 _symmetry_equiv_pos_as_xyz
  1  'x, y, z'
loop_
 _atom_site_type_symbol
 _atom_site_label
 _atom_site_symmetry_multiplicity
 _atom_site_fract_x
 _atom_site_fract_y
 _atom_site_fract_z
 _atom_site_occupancy
  Ce  Ce0  1  0.49999997  0.49999999  0.25000000  1
  Ce  Ce1  1  0.49999997  0.49999999  0.75000000  1
  In  In2  1  0.22240895  0.78172398  0.50000000  1
  In  In3  1  0.77759099  0.21827600  0.50000000  1
  Sn  Sn4  1  0.21827595  0.77759098  -0.00000000  1
  Se  Se5  1  0.78172399  0.22240899  -0.00000000  1
  Se  Se6  1  0.22114498  0.35747599  0.50000000  1
  Se  Se7  1  0.77885496  0.64252399  0.50000000  1
  Se  Se8  1  0.64252395  0.77885498  -0.00000000  1
  Se  Se9  1  0.35747599  0.22114499  -0.00000000  1
  Se  Se10  1  -0.00000003  0.49999999  0.18422800  1
  Se  Se11  1  0.50000000  0.00000000  0.31577200  1
  Se  Se12  1  -0.00000003  0.49999999  0.81577200  1
  Se  Se13  1  0.50000000  0.00000000  0.68422800  1
