# generated using pymatgen
data_EuCu
_symmetry_space_group_name_H-M   'P 1'
_cell_length_a   4.34376812
_cell_length_b   4.34376764
_cell_length_c   15.35803223
_cell_angle_alpha   90.00000000
_cell_angle_beta   90.00000000
_cell_angle_gamma   120.00000000
_symmetry_Int_Tables_number   1
_chemical_formula_structural   EuCu
_chemical_formula_sum   'Eu4 Cu4'
_cell_volume   250.95706453
_cell_formula_units_Z   4
loop_
 _symmetry_equiv_pos_site_id
 _symmetry_equiv_pos_as_xyz
  1  'x, y, z'
loop_
 _atom_site_type_symbol
 _atom_site_label
 _atom_site_symmetry_multiplicity
 _atom_site_fract_x
 _atom_site_fract_y
 _atom_site_fract_z
 _atom_site_occupancy
  Eu  Eu0  1  0.66666663  0.33333332  0.61974899  1
  Eu  Eu1  1  0.33333329  0.66666664  0.38025099  1
  Eu  Eu2  1  0.33333329  0.66666664  0.11974900  1
  Eu  Eu3  1  0.66666663  0.33333332  0.88025099  1
  Cu  Cu4  1  0.00000000  0.00000000  0.74999999  1
  Cu  Cu5  1  0.00000000  0.00000000  0.25000000  1
  Cu  Cu6  1  0.66666663  0.33333332  0.25000000  1
  Cu  Cu7  1  0.33333329  0.66666664  0.74999999  1
