# generated using pymatgen
data_Li2Cu
_symmetry_space_group_name_H-M   'P 1'
_cell_length_a   4.94623327
_cell_length_b   4.94623327
_cell_length_c   4.94623280
_cell_angle_alpha   65.44602203
_cell_angle_beta   65.44602203
_cell_angle_gamma   65.44602203
_symmetry_Int_Tables_number   1
_chemical_formula_structural   Li2Cu
_chemical_formula_sum   'Li4 Cu2'
_cell_volume   95.70331268
_cell_formula_units_Z   2
loop_
 _symmetry_equiv_pos_site_id
 _symmetry_equiv_pos_as_xyz
  1  'x, y, z'
loop_
 _atom_site_type_symbol
 _atom_site_label
 _atom_site_symmetry_multiplicity
 _atom_site_fract_x
 _atom_site_fract_y
 _atom_site_fract_z
 _atom_site_occupancy
  Li  Li0  1  0.36992101  0.36992099  0.36992097  1
  Li  Li1  1  0.63007901  0.63007899  0.63007895  1
  Li  Li2  1  0.00000000  0.00000000  0.00000000  1
  Li  Li3  1  0.49999999  0.00000000  -0.00000002  1
  Cu  Cu4  1  0.00000002  0.49999999  -0.00000002  1
  Cu  Cu5  1  0.00000000  0.00000000  0.50000000  1
