# generated using pymatgen
data_LiFe4NiO7
_symmetry_space_group_name_H-M   'P 1'
_cell_length_a   5.33476305
_cell_length_b   5.33476305
_cell_length_c   5.33476305
_cell_angle_alpha   60.00000000
_cell_angle_beta   60.00000000
_cell_angle_gamma   60.00000000
_symmetry_Int_Tables_number   1
_chemical_formula_structural   LiFe4NiO7
_chemical_formula_sum   'Li1 Fe4 Ni1 O7'
_cell_volume   107.35700954
_cell_formula_units_Z   1
loop_
 _symmetry_equiv_pos_site_id
 _symmetry_equiv_pos_as_xyz
  1  'x, y, z'
loop_
 _atom_site_type_symbol
 _atom_site_label
 _atom_site_symmetry_multiplicity
 _atom_site_fract_x
 _atom_site_fract_y
 _atom_site_fract_z
 _atom_site_occupancy
  Li  Li0  1  0.00000000  0.00000000  0.00000000  1
  Fe  Fe1  1  0.16278899  0.49999998  0.49999998  1
  Fe  Fe2  1  0.83721097  0.49999998  0.49999998  1
  Fe  Fe3  1  0.83721097  0.49999998  0.16278899  1
  Fe  Fe4  1  0.49999998  0.83721097  0.49999998  1
  Ni  Ni5  1  0.49999998  0.16278899  0.83721097  1
  O  O6  1  0.49999998  0.83721097  0.16278899  1
  O  O7  1  0.83721097  0.16278899  0.49999998  1
  O  O8  1  0.49999998  0.49999998  0.83721097  1
  O  O9  1  0.49999998  0.16278899  0.49999998  1
  O  O10  1  0.16278899  0.83721097  0.49999998  1
  O  O11  1  0.49999998  0.49999998  0.16278899  1
  O  O12  1  0.16278899  0.49999998  0.83721097  1
