# generated using pymatgen
data_ZrGa12
_symmetry_space_group_name_H-M   'P 1'
_cell_length_a   5.51848412
_cell_length_b   5.51848459
_cell_length_c   9.23082447
_cell_angle_alpha   90.00000000
_cell_angle_beta   90.00000000
_cell_angle_gamma   120.00000000
_symmetry_Int_Tables_number   1
_chemical_formula_structural   ZrGa12
_chemical_formula_sum   'Zr1 Ga12'
_cell_volume   243.45054748
_cell_formula_units_Z   1
loop_
 _symmetry_equiv_pos_site_id
 _symmetry_equiv_pos_as_xyz
  1  'x, y, z'
loop_
 _atom_site_type_symbol
 _atom_site_label
 _atom_site_symmetry_multiplicity
 _atom_site_fract_x
 _atom_site_fract_y
 _atom_site_fract_z
 _atom_site_occupancy
  Zr  Zr0  1  0.00000000  0.00000000  0.00000000  1
  Ga  Ga1  1  0.49999999  0.00000000  0.24884099  1
  Ga  Ga2  1  0.50000002  0.50000002  0.24884099  1
  Ga  Ga3  1  0.00000003  0.50000002  0.24884099  1
  Ga  Ga4  1  0.49999999  0.00000000  0.75115896  1
  Ga  Ga5  1  0.50000002  0.50000002  0.75115896  1
  Ga  Ga6  1  0.00000003  0.50000002  0.75115896  1
  Ga  Ga7  1  0.00000000  0.00000000  0.33172698  1
  Ga  Ga8  1  0.00000000  0.00000000  0.66827297  1
  Ga  Ga9  1  0.33333337  0.66666669  0.49999997  1
  Ga  Ga10  1  0.66666668  0.33333334  0.49999997  1
  Ga  Ga11  1  0.33333337  0.66666669  0.99999995  1
  Ga  Ga12  1  0.66666668  0.33333334  -0.00000000  1
