# generated using pymatgen
data_Ce3Sb5
_symmetry_space_group_name_H-M   'P 1'
_cell_length_a   6.42161512
_cell_length_b   6.42161512
_cell_length_c   10.39387894
_cell_angle_alpha   90.00000000
_cell_angle_beta   90.00000000
_cell_angle_gamma   102.16551208
_symmetry_Int_Tables_number   1
_chemical_formula_structural   Ce3Sb5
_chemical_formula_sum   'Ce6 Sb10'
_cell_volume   418.98843341
_cell_formula_units_Z   2
loop_
 _symmetry_equiv_pos_site_id
 _symmetry_equiv_pos_as_xyz
  1  'x, y, z'
loop_
 _atom_site_type_symbol
 _atom_site_label
 _atom_site_symmetry_multiplicity
 _atom_site_fract_x
 _atom_site_fract_y
 _atom_site_fract_z
 _atom_site_occupancy
  Ce  Ce0  1  0.20163802  0.79836200  1.00000001  1
  Ce  Ce1  1  0.79836200  0.20163800  1.00000001  1
  Ce  Ce2  1  0.79836200  0.20163800  0.50000000  1
  Ce  Ce3  1  0.20163802  0.79836200  0.50000000  1
  Ce  Ce4  1  0.62771001  0.62771000  0.75000000  1
  Ce  Ce5  1  0.37229001  0.37229000  0.25000000  1
  Sb  Sb6  1  0.51075200  0.07011700  0.75000000  1
  Sb  Sb7  1  0.48924802  0.92988300  0.25000000  1
  Sb  Sb8  1  0.07011701  0.51075200  0.75000000  1
  Sb  Sb9  1  0.92988300  0.48924800  0.25000000  1
  Sb  Sb10  1  0.01368900  0.01368900  0.75000000  1
  Sb  Sb11  1  0.98631102  0.98631100  0.25000000  1
  Sb  Sb12  1  0.31095100  0.31095100  0.95326101  1
  Sb  Sb13  1  0.68904901  0.68904900  0.04673900  1
  Sb  Sb14  1  0.68904901  0.68904900  0.45326100  1
  Sb  Sb15  1  0.31095100  0.31095100  0.54673900  1
