# generated using pymatgen
data_Ti3Sn
_symmetry_space_group_name_H-M   'P 1'
_cell_length_a   5.19348907
_cell_length_b   5.19348907
_cell_length_c   5.19348907
_cell_angle_alpha   90.00000000
_cell_angle_beta   90.00000000
_cell_angle_gamma   90.00000000
_symmetry_Int_Tables_number   1
_chemical_formula_structural   Ti3Sn
_chemical_formula_sum   'Ti6 Sn2'
_cell_volume   140.08049478
_cell_formula_units_Z   2
loop_
 _symmetry_equiv_pos_site_id
 _symmetry_equiv_pos_as_xyz
  1  'x, y, z'
loop_
 _atom_site_type_symbol
 _atom_site_label
 _atom_site_symmetry_multiplicity
 _atom_site_fract_x
 _atom_site_fract_y
 _atom_site_fract_z
 _atom_site_occupancy
  Ti  Ti0  1  0.00000000  0.49999999  0.74988799  1
  Ti  Ti1  1  0.49999999  0.25011200  0.00000000  1
  Ti  Ti2  1  0.74988799  0.00000000  0.49999999  1
  Ti  Ti3  1  0.00000000  0.49999999  0.25011200  1
  Ti  Ti4  1  0.49999999  0.74988799  0.00000000  1
  Ti  Ti5  1  0.25011200  0.00000000  0.49999999  1
  Sn  Sn6  1  0.00000000  0.00000000  0.00000000  1
  Sn  Sn7  1  0.49999999  0.49999999  0.49999999  1
