# generated using pymatgen
data_Li2TeO7
_symmetry_space_group_name_H-M   'P 1'
_cell_length_a   5.11170816
_cell_length_b   5.35738850
_cell_length_c   7.42393970
_cell_angle_alpha   86.41378784
_cell_angle_beta   89.97121429
_cell_angle_gamma   89.82259369
_symmetry_Int_Tables_number   1
_chemical_formula_structural   Li2TeO7
_chemical_formula_sum   'Li4 Te2 O14'
_cell_volume   202.90850940
_cell_formula_units_Z   2
loop_
 _symmetry_equiv_pos_site_id
 _symmetry_equiv_pos_as_xyz
  1  'x, y, z'
loop_
 _atom_site_type_symbol
 _atom_site_label
 _atom_site_symmetry_multiplicity
 _atom_site_fract_x
 _atom_site_fract_y
 _atom_site_fract_z
 _atom_site_occupancy
  Li  Li0  1  0.99797795  0.42793301  0.72201204  1
  Li  Li1  1  0.49964095  0.92989403  0.20489704  1
  Li  Li2  1  0.00252498  0.43078601  0.20980402  1
  Li  Li3  1  0.50081795  0.96090103  0.73488605  1
  Te  Te4  1  0.49700097  0.49076202  0.49111303  1
  Te  Te5  1  0.00056296  0.99661903  0.99978305  1
  O  O6  1  0.00027796  0.98855103  0.49989004  1
  O  O7  1  0.49576497  0.49895802  0.99171404  1
  O  O8  1  0.69442997  0.20583401  0.56740203  1
  O  O9  1  0.87355397  0.01902000  0.25913302  1
  O  O10  1  0.66992595  0.81608203  0.95260105  1
  O  O11  1  0.80284295  0.69408702  0.57235804  1
  O  O12  1  0.20271697  0.68850502  0.07290702  1
  O  O13  1  0.61962296  0.50969702  0.26299403  1
  O  O14  1  0.37556397  0.51072802  0.74330704  1
  O  O15  1  0.81605396  0.32878201  0.94886404  1
  O  O16  1  0.19358198  0.32022901  0.44453902  1
  O  O17  1  0.31390798  0.20073001  0.06968601  1
  O  O18  1  0.12311500  0.02407900  0.74019702  1
  O  O19  1  0.32011596  0.81542103  0.44071204  1
