# generated using pymatgen
data_Mg5In3Au2
_symmetry_space_group_name_H-M   'P 1'
_cell_length_a   4.65757275
_cell_length_b   4.65757275
_cell_length_c   19.17080116
_cell_angle_alpha   83.02272797
_cell_angle_beta   83.02272797
_cell_angle_gamma   59.99999237
_symmetry_Int_Tables_number   1
_chemical_formula_structural   Mg5In3Au2
_chemical_formula_sum   'Mg5 In3 Au2'
_cell_volume   356.59493651
_cell_formula_units_Z   1
loop_
 _symmetry_equiv_pos_site_id
 _symmetry_equiv_pos_as_xyz
  1  'x, y, z'
loop_
 _atom_site_type_symbol
 _atom_site_label
 _atom_site_symmetry_multiplicity
 _atom_site_fract_x
 _atom_site_fract_y
 _atom_site_fract_z
 _atom_site_occupancy
  Mg  Mg0  1  0.59973899  0.59973898  0.20078299  1
  Mg  Mg1  1  0.99859198  0.99859196  0.00422400  1
  Mg  Mg2  1  0.39978999  0.39978998  0.80062998  1
  Mg  Mg3  1  0.80035699  0.80035697  0.59892898  1
  Mg  Mg4  1  0.20208300  0.20208299  0.39375099  1
  In  In5  1  0.04893600  0.04893600  0.85319198  1
  In  In6  1  0.44986399  0.44986398  0.65040798  1
  In  In7  1  0.85066098  0.85066097  0.44801699  1
  Au  Au8  1  0.25288800  0.25288799  0.24133599  1
  Au  Au9  1  0.64709099  0.64709097  0.05872700  1
