# generated using pymatgen
data_SmNiO3
_symmetry_space_group_name_H-M   'P 1'
_cell_length_a   5.40601683
_cell_length_b   5.65445900
_cell_length_c   7.72661686
_cell_angle_alpha   90.00000000
_cell_angle_beta   90.00000000
_cell_angle_gamma   90.00000000
_symmetry_Int_Tables_number   1
_chemical_formula_structural   SmNiO3
_chemical_formula_sum   'Sm4 Ni4 O12'
_cell_volume   236.18800066
_cell_formula_units_Z   4
loop_
 _symmetry_equiv_pos_site_id
 _symmetry_equiv_pos_as_xyz
  1  'x, y, z'
loop_
 _atom_site_type_symbol
 _atom_site_label
 _atom_site_symmetry_multiplicity
 _atom_site_fract_x
 _atom_site_fract_y
 _atom_site_fract_z
 _atom_site_occupancy
  Sm  Sm0  1  0.51801002  0.56459400  0.25000000  1
  Sm  Sm1  1  0.98199003  0.06459400  0.25000000  1
  Sm  Sm2  1  0.48199002  0.43540600  0.75000001  1
  Sm  Sm3  1  0.01801000  0.93540600  0.75000001  1
  Ni  Ni4  1  0.50000002  0.00000000  0.00000000  1
  Ni  Ni5  1  0.00000000  0.50000000  0.50000001  1
  Ni  Ni6  1  0.50000002  0.00000000  0.50000001  1
  Ni  Ni7  1  0.00000000  0.50000000  0.00000000  1
  O  O8  1  0.39265601  0.96300800  0.25000000  1
  O  O9  1  0.10734400  0.46300800  0.25000000  1
  O  O10  1  0.60734402  0.03699200  0.75000001  1
  O  O11  1  0.89265603  0.53699200  0.75000001  1
  O  O12  1  0.80632603  0.80173600  0.05485500  1
  O  O13  1  0.69367402  0.30173600  0.44514501  1
  O  O14  1  0.19367401  0.19826400  0.55485501  1
  O  O15  1  0.30632601  0.69826400  0.94514502  1
  O  O16  1  0.19367401  0.19826400  0.94514502  1
  O  O17  1  0.30632601  0.69826400  0.55485501  1
  O  O18  1  0.80632603  0.80173600  0.44514501  1
  O  O19  1  0.69367402  0.30173600  0.05485500  1
