# generated using pymatgen
data_CeU4Sb11
_symmetry_space_group_name_H-M   'P 1'
_cell_length_a   6.44395018
_cell_length_b   6.44395065
_cell_length_c   10.39245796
_cell_angle_alpha   90.00000000
_cell_angle_beta   90.00000000
_cell_angle_gamma   120.00000000
_symmetry_Int_Tables_number   1
_chemical_formula_structural   CeU4Sb11
_chemical_formula_sum   'Ce1 U4 Sb11'
_cell_volume   373.72597879
_cell_formula_units_Z   1
loop_
 _symmetry_equiv_pos_site_id
 _symmetry_equiv_pos_as_xyz
  1  'x, y, z'
loop_
 _atom_site_type_symbol
 _atom_site_label
 _atom_site_symmetry_multiplicity
 _atom_site_fract_x
 _atom_site_fract_y
 _atom_site_fract_z
 _atom_site_occupancy
  Ce  Ce0  1  0.00000000  0.00000000  0.50000000  1
  U  U1  1  0.00000000  0.00000000  0.00000000  1
  U  U2  1  0.99903000  0.49951500  0.50000000  1
  U  U3  1  0.00005803  0.50002900  1.00000000  1
  Sb  Sb4  1  0.50048499  0.00097000  0.50000000  1
  U  U5  1  0.49997104  0.99994201  1.00000000  1
  Sb  Sb6  1  0.50048501  0.49951500  0.50000000  1
  Sb  Sb7  1  0.49997101  0.50002900  1.00000000  1
  Sb  Sb8  1  0.83266499  0.16733500  0.75257400  1
  Sb  Sb9  1  0.83266499  0.16733500  0.24742600  1
  Sb  Sb10  1  0.83266501  0.66533000  0.75257400  1
  Sb  Sb11  1  0.83266501  0.66533000  0.24742600  1
  Sb  Sb12  1  0.33467000  0.16733500  0.75257400  1
  Sb  Sb13  1  0.33467000  0.16733500  0.24742600  1
  Sb  Sb14  1  0.33333336  0.66666667  0.74977000  1
  Sb  Sb15  1  0.33333336  0.66666667  0.25023000  1
