# generated using pymatgen
data_SrGdFe2O5
_symmetry_space_group_name_H-M   'P 1'
_cell_length_a   3.96020198
_cell_length_b   3.96020198
_cell_length_c   7.98722219
_cell_angle_alpha   90.00000000
_cell_angle_beta   90.00000000
_cell_angle_gamma   90.00000000
_symmetry_Int_Tables_number   1
_chemical_formula_structural   SrGdFe2O5
_chemical_formula_sum   'Sr1 Gd1 Fe2 O5'
_cell_volume   125.26520082
_cell_formula_units_Z   1
loop_
 _symmetry_equiv_pos_site_id
 _symmetry_equiv_pos_as_xyz
  1  'x, y, z'
loop_
 _atom_site_type_symbol
 _atom_site_label
 _atom_site_symmetry_multiplicity
 _atom_site_fract_x
 _atom_site_fract_y
 _atom_site_fract_z
 _atom_site_occupancy
  Sr  Sr0  1  0.50000000  0.50000000  0.76472998  1
  Gd  Gd1  1  0.50000000  0.50000000  0.23530599  1
  Fe  Fe2  1  0.00000000  0.00000000  0.48611699  1
  Fe  Fe3  1  0.00000000  0.00000000  0.01346300  1
  O  O4  1  0.50000000  0.00000000  0.03793800  1
  O  O5  1  0.00000000  0.50000000  0.03793800  1
  O  O6  1  0.50000000  0.00000000  0.42193699  1
  O  O7  1  0.00000000  0.50000000  0.42193699  1
  O  O8  1  0.00000000  0.00000000  0.71863398  1
