# generated using pymatgen
data_CsCaCl3
_symmetry_space_group_name_H-M   'P 1'
_cell_length_a   5.88267517
_cell_length_b   5.88982582
_cell_length_c   8.01599884
_cell_angle_alpha   111.55409241
_cell_angle_beta   90.00000000
_cell_angle_gamma   90.00000000
_symmetry_Int_Tables_number   1
_chemical_formula_structural   CsCaCl3
_chemical_formula_sum   'Cs2 Ca2 Cl6'
_cell_volume   258.31589792
_cell_formula_units_Z   2
loop_
 _symmetry_equiv_pos_site_id
 _symmetry_equiv_pos_as_xyz
  1  'x, y, z'
loop_
 _atom_site_type_symbol
 _atom_site_label
 _atom_site_symmetry_multiplicity
 _atom_site_fract_x
 _atom_site_fract_y
 _atom_site_fract_z
 _atom_site_occupancy
  Cs  Cs0  1  0.75092198  0.50000002  0.49999999  1
  Cs  Cs1  1  0.24907799  0.00000000  0.49999998  1
  Ca  Ca2  1  0.49999999  0.50000002  0.00000001  1
  Ca  Ca3  1  -0.00000000  0.50000002  0.00000001  1
  Cl  Cl4  1  0.49999999  0.00000000  -0.00000000  1
  Cl  Cl5  1  0.00000000  0.00000000  0.00000000  1
  Cl  Cl6  1  0.24285999  0.34531901  0.20554900  1
  Cl  Cl7  1  0.75713998  0.86023004  0.20554901  1
  Cl  Cl8  1  0.75713998  0.13977001  0.79445097  1
  Cl  Cl9  1  0.24285999  0.65468103  0.79445098  1
