# generated using pymatgen
data_Sm3(Pd2Pb)2
_symmetry_space_group_name_H-M   'P 1'
_cell_length_a   4.47632122
_cell_length_b   7.35866022
_cell_length_c   7.35866022
_cell_angle_alpha   120.00000000
_cell_angle_beta   90.00000000
_cell_angle_gamma   90.00000000
_symmetry_Int_Tables_number   1
_chemical_formula_structural   Sm3(Pd2Pb)2
_chemical_formula_sum   'Sm3 Pd4 Pb2'
_cell_volume   209.91785315
_cell_formula_units_Z   1
loop_
 _symmetry_equiv_pos_site_id
 _symmetry_equiv_pos_as_xyz
  1  'x, y, z'
loop_
 _atom_site_type_symbol
 _atom_site_label
 _atom_site_symmetry_multiplicity
 _atom_site_fract_x
 _atom_site_fract_y
 _atom_site_fract_z
 _atom_site_occupancy
  Sm  Sm0  1  0.99999995  0.99999999  0.43070905  1
  Sm  Sm1  1  -0.00000000  0.43070900  0.00000002  1
  Sm  Sm2  1  0.99999995  0.56929099  0.56929104  1
  Pd  Pd3  1  0.49999998  0.75320199  0.00000003  1
  Pb  Pb4  1  0.49999998  0.24679800  0.24679802  1
  Pb  Pb5  1  0.49999998  0.99999999  0.75320206  1
  Pd  Pd6  1  0.49999998  0.66666666  0.33333337  1
  Pd  Pd7  1  0.00000000  0.00000000  0.00000000  1
  Pd  Pd8  1  0.49999998  0.33333333  0.66666670  1
