# generated using pymatgen
data_ErBr3
_symmetry_space_group_name_H-M   'P 1'
_cell_length_a   4.23345089
_cell_length_b   7.56219816
_cell_length_c   7.56219816
_cell_angle_alpha   120.00000000
_cell_angle_beta   90.00000000
_cell_angle_gamma   90.00000000
_symmetry_Int_Tables_number   1
_chemical_formula_structural   ErBr3
_chemical_formula_sum   'Er2 Br6'
_cell_volume   209.66274375
_cell_formula_units_Z   2
loop_
 _symmetry_equiv_pos_site_id
 _symmetry_equiv_pos_as_xyz
  1  'x, y, z'
loop_
 _atom_site_type_symbol
 _atom_site_label
 _atom_site_symmetry_multiplicity
 _atom_site_fract_x
 _atom_site_fract_y
 _atom_site_fract_z
 _atom_site_occupancy
  Er  Er0  1  0.75000002  0.66666666  0.33333336  1
  Er  Er1  1  0.25000001  0.33333333  0.66666670  1
  Br  Br2  1  0.75000002  0.60971600  0.91340404  1
  Br  Br3  1  0.75000002  0.08659600  0.69631202  1
  Br  Br4  1  0.25000001  0.69631200  0.60971604  1
  Br  Br5  1  0.25000001  0.39028400  0.08659602  1
  Br  Br6  1  0.25000001  0.91340400  0.30368804  1
  Br  Br7  1  0.75000002  0.30368800  0.39028402  1
