# generated using pymatgen
data_Ce7Ge4Sb
_symmetry_space_group_name_H-M   'P 1'
_cell_length_a   4.27560520
_cell_length_b   7.50526524
_cell_length_c   8.74301720
_cell_angle_alpha   90.00000000
_cell_angle_beta   90.00000000
_cell_angle_gamma   90.00000000
_symmetry_Int_Tables_number   1
_chemical_formula_structural   Ce7Ge4Sb
_chemical_formula_sum   'Ce7 Ge4 Sb1'
_cell_volume   280.55949695
_cell_formula_units_Z   1
loop_
 _symmetry_equiv_pos_site_id
 _symmetry_equiv_pos_as_xyz
  1  'x, y, z'
loop_
 _atom_site_type_symbol
 _atom_site_label
 _atom_site_symmetry_multiplicity
 _atom_site_fract_x
 _atom_site_fract_y
 _atom_site_fract_z
 _atom_site_occupancy
  Ce  Ce0  1  0.00000000  0.40058899  0.24999999  1
  Ce  Ce1  1  0.00000000  0.59941098  0.74999998  1
  Ce  Ce2  1  0.49999998  0.31536199  0.56302599  1
  Ce  Ce3  1  0.49999998  0.31536199  0.93697398  1
  Ce  Ce4  1  0.49999998  0.68463798  0.43697399  1
  Ce  Ce5  1  0.49999998  0.68463798  0.06302600  1
  Ce  Ce6  1  0.00000000  0.00000000  0.00000000  1
  Sb  Sb7  1  0.49999998  0.93194997  0.74999998  1
  Ge  Ge8  1  0.49999998  0.06805000  0.24999999  1
  Ge  Ge9  1  0.00000000  0.00000000  0.49999999  1
  Ge  Ge10  1  0.00000000  0.80308697  0.24999999  1
  Ge  Ge11  1  0.00000000  0.19691299  0.74999998  1
