# generated using pymatgen
data_Y(Co2As)2
_symmetry_space_group_name_H-M   'P 1'
_cell_length_a   3.77493596
_cell_length_b   7.20882177
_cell_length_c   7.20882177
_cell_angle_alpha   90.00000000
_cell_angle_beta   90.00000000
_cell_angle_gamma   90.00000000
_symmetry_Int_Tables_number   1
_chemical_formula_structural   Y(Co2As)2
_chemical_formula_sum   'Y2 Co8 As4'
_cell_volume   196.17251746
_cell_formula_units_Z   2
loop_
 _symmetry_equiv_pos_site_id
 _symmetry_equiv_pos_as_xyz
  1  'x, y, z'
loop_
 _atom_site_type_symbol
 _atom_site_label
 _atom_site_symmetry_multiplicity
 _atom_site_fract_x
 _atom_site_fract_y
 _atom_site_fract_z
 _atom_site_occupancy
  Y  Y0  1  0.50000001  0.00000000  -0.00000000  1
  Y  Y1  1  1.00000001  0.50000002  0.50000002  1
  Co  Co2  1  1.00000001  0.09038200  0.34698301  1
  Co  Co3  1  0.50000001  0.84698303  0.40961801  1
  Co  Co4  1  0.50000001  0.15301700  0.59038202  1
  Co  Co5  1  1.00000001  0.90961803  0.65301702  1
  Co  Co6  1  0.50000001  0.40961801  0.84698303  1
  Co  Co7  1  0.50000001  0.59038202  0.15301700  1
  Co  Co8  1  1.00000001  0.34698301  0.09038200  1
  Co  Co9  1  1.00000001  0.65301702  0.90961803  1
  As  As10  1  1.00000001  0.78313102  0.21686901  1
  As  As11  1  0.50000001  0.71686902  0.71686902  1
  As  As12  1  0.50000001  0.28313101  0.28313101  1
  As  As13  1  1.00000001  0.21686901  0.78313102  1
