# generated using pymatgen
data_LiAgF3
_symmetry_space_group_name_H-M   'P 1'
_cell_length_a   5.42523098
_cell_length_b   5.46548605
_cell_length_c   5.70432520
_cell_angle_alpha   63.51467133
_cell_angle_beta   85.85289001
_cell_angle_gamma   61.99838257
_symmetry_Int_Tables_number   1
_chemical_formula_structural   LiAgF3
_chemical_formula_sum   'Li2 Ag2 F6'
_cell_volume   131.64187643
_cell_formula_units_Z   2
loop_
 _symmetry_equiv_pos_site_id
 _symmetry_equiv_pos_as_xyz
  1  'x, y, z'
loop_
 _atom_site_type_symbol
 _atom_site_label
 _atom_site_symmetry_multiplicity
 _atom_site_fract_x
 _atom_site_fract_y
 _atom_site_fract_z
 _atom_site_occupancy
  Li  Li0  1  0.62504302  0.71547499  0.93588295  1
  Li  Li1  1  0.37504501  0.28438000  0.06429097  1
  Ag  Ag2  1  0.83827703  0.30429400  0.54169695  1
  Ag  Ag3  1  0.16175800  0.69563799  0.45840697  1
  F  F4  1  0.93835503  0.50499199  0.75227994  1
  F  F5  1  0.40848901  0.86534599  0.20448495  1
  F  F6  1  0.70284702  0.24399800  0.23811095  1
  F  F7  1  0.29714501  0.75613899  0.76174497  1
  F  F8  1  0.59144402  0.13467000  0.79543097  1
  F  F9  1  0.06159700  0.49506799  0.24766998  1
