# generated using pymatgen
data_Ce4P2CI7
_symmetry_space_group_name_H-M   'P 1'
_cell_length_a   3.95161533
_cell_length_b   8.78355503
_cell_length_c   11.89346695
_cell_angle_alpha   92.21472168
_cell_angle_beta   90.00000000
_cell_angle_gamma   90.00000000
_symmetry_Int_Tables_number   1
_chemical_formula_structural   Ce4P2CI7
_chemical_formula_sum   'Ce4 P2 C1 I7'
_cell_volume   412.50472556
_cell_formula_units_Z   1
loop_
 _symmetry_equiv_pos_site_id
 _symmetry_equiv_pos_as_xyz
  1  'x, y, z'
loop_
 _atom_site_type_symbol
 _atom_site_label
 _atom_site_symmetry_multiplicity
 _atom_site_fract_x
 _atom_site_fract_y
 _atom_site_fract_z
 _atom_site_occupancy
  Ce  Ce0  1  0.25000000  0.91803278  0.59992683  1
  Ce  Ce1  1  0.75000000  0.08196726  0.40007318  1
  Ce  Ce2  1  0.25000000  0.88508257  0.18040175  1
  Ce  Ce3  1  0.75000000  0.11491747  0.81959826  1
  P  P4  1  0.25000000  0.29713387  0.61665859  1
  P  P5  1  0.75000000  0.70286617  0.38334143  1
  C  C6  1  0.25000000  0.87984929  0.38336776  1
  I  I7  1  0.75000000  0.12015076  0.61663226  1
  I  I8  1  0.25000000  0.85444568  0.87653161  1
  I  I9  1  0.75000000  0.14555437  0.12346840  1
  I  I10  1  0.25000000  0.38057508  0.87566015  1
  I  I11  1  0.75000000  0.61942497  0.12433986  1
  I  I12  1  0.25000000  0.38309676  0.36453166  1
  I  I13  1  0.75000000  0.61690329  0.63546836  1
