# generated using pymatgen
data_Ta4Br2ClO11
_symmetry_space_group_name_H-M   'P 1'
_cell_length_a   5.90417290
_cell_length_b   6.37091303
_cell_length_c   8.57507133
_cell_angle_alpha   101.85242462
_cell_angle_beta   90.00000000
_cell_angle_gamma   90.00000000
_symmetry_Int_Tables_number   1
_chemical_formula_structural   Ta4Br2ClO11
_chemical_formula_sum   'Ta4 Br2 Cl1 O11'
_cell_volume   315.67423736
_cell_formula_units_Z   1
loop_
 _symmetry_equiv_pos_site_id
 _symmetry_equiv_pos_as_xyz
  1  'x, y, z'
loop_
 _atom_site_type_symbol
 _atom_site_label
 _atom_site_symmetry_multiplicity
 _atom_site_fract_x
 _atom_site_fract_y
 _atom_site_fract_z
 _atom_site_occupancy
  Ta  Ta0  1  0.79815401  0.34282300  0.31182101  1
  Ta  Ta1  1  0.29815401  0.65717699  0.68817902  1
  Ta  Ta2  1  0.78936901  0.18698700  0.77513603  1
  Ta  Ta3  1  0.28936901  0.81301299  0.22486400  1
  O  O4  1  0.61916901  0.55542299  0.52780001  1
  O  O5  1  0.11916900  0.44457700  0.47220001  1
  Cl  Cl6  1  0.08296700  0.06680200  0.23319201  1
  Br  Br7  1  0.58296701  0.93319799  0.76680802  1
  O  O8  1  0.54978401  0.02217200  0.23649101  1
  Br  Br9  1  0.04978400  0.97782799  0.76350902  1
  O  O10  1  0.49527101  0.55809799  0.21327000  1
  O  O11  1  0.99527102  0.44190200  0.78673003  1
  O  O12  1  0.79425701  0.24081400  0.01495400  1
  O  O13  1  0.29425701  0.75918599  0.98504603  1
  O  O14  1  0.78643801  0.14217000  0.53620502  1
  O  O15  1  0.28643800  0.85782999  0.46379500  1
  O  O16  1  0.00823100  0.62919899  0.21675100  1
  O  O17  1  0.50823101  0.37080100  0.78324903  1
