# generated using pymatgen
data_BaNaBiO5
_symmetry_space_group_name_H-M   'P 1'
_cell_length_a   4.17698193
_cell_length_b   4.17698193
_cell_length_c   7.34957552
_cell_angle_alpha   73.49105835
_cell_angle_beta   73.49105835
_cell_angle_gamma   60.00000000
_symmetry_Int_Tables_number   1
_chemical_formula_structural   BaNaBiO5
_chemical_formula_sum   'Ba1 Na1 Bi1 O5'
_cell_volume   104.90150653
_cell_formula_units_Z   1
loop_
 _symmetry_equiv_pos_site_id
 _symmetry_equiv_pos_as_xyz
  1  'x, y, z'
loop_
 _atom_site_type_symbol
 _atom_site_label
 _atom_site_symmetry_multiplicity
 _atom_site_fract_x
 _atom_site_fract_y
 _atom_site_fract_z
 _atom_site_occupancy
  Na  Na0  1  0.24777300  0.24777300  0.25668099  1
  Ba  Ba1  1  0.75222701  0.75222701  0.74331898  1
  Bi  Bi2  1  0.50000001  0.50000001  0.49999999  1
  O  O3  1  0.61896301  0.61896301  0.14311099  1
  O  O4  1  0.12902500  0.12902500  0.61292500  1
  O  O5  1  0.87097502  0.87097501  0.38707498  1
  O  O6  1  0.38103701  0.38103701  0.85688899  1
  O  O7  1  0.00000000  0.00000000  0.00000000  1
