# generated using pymatgen
data_Ti4NiO5
_symmetry_space_group_name_H-M   'P 1'
_cell_length_a   3.00509405
_cell_length_b   4.24524784
_cell_length_c   7.95056629
_cell_angle_alpha   105.48450470
_cell_angle_beta   100.89362335
_cell_angle_gamma   90.00000000
_symmetry_Int_Tables_number   1
_chemical_formula_structural   Ti4NiO5
_chemical_formula_sum   'Ti4 Ni1 O5'
_cell_volume   95.84879114
_cell_formula_units_Z   1
loop_
 _symmetry_equiv_pos_site_id
 _symmetry_equiv_pos_as_xyz
  1  'x, y, z'
loop_
 _atom_site_type_symbol
 _atom_site_label
 _atom_site_symmetry_multiplicity
 _atom_site_fract_x
 _atom_site_fract_y
 _atom_site_fract_z
 _atom_site_occupancy
  Ti  Ti0  1  0.00000000  0.00000000  0.00000000  1
  Ti  Ti1  1  0.39931400  0.39931402  0.79862801  1
  Ti  Ti2  1  0.79943500  0.79943504  0.59887002  1
  Ti  Ti3  1  0.20056500  0.20056501  0.40113001  1
  Ni  Ni4  1  0.60068600  0.60068603  0.20137202  1
  O  O5  1  0.19958100  0.69958104  0.39916202  1
  O  O6  1  0.60235699  0.10235701  0.20471400  1
  O  O7  1  0.00000001  0.50000003  0.00000001  1
  O  O8  1  0.39764300  0.89764305  0.79528603  1
  O  O9  1  0.80041899  0.30041902  0.60083801  1
