# generated using pymatgen
data_La2CoSiAs2
_symmetry_space_group_name_H-M   'P 1'
_cell_length_a   4.08271217
_cell_length_b   4.08271170
_cell_length_c   8.06707954
_cell_angle_alpha   90.00000000
_cell_angle_beta   90.00000000
_cell_angle_gamma   120.00000000
_symmetry_Int_Tables_number   1
_chemical_formula_structural   La2CoSiAs2
_chemical_formula_sum   'La2 Co1 Si1 As2'
_cell_volume   116.45132858
_cell_formula_units_Z   1
loop_
 _symmetry_equiv_pos_site_id
 _symmetry_equiv_pos_as_xyz
  1  'x, y, z'
loop_
 _atom_site_type_symbol
 _atom_site_label
 _atom_site_symmetry_multiplicity
 _atom_site_fract_x
 _atom_site_fract_y
 _atom_site_fract_z
 _atom_site_occupancy
  La  La0  1  0.00000000  0.00000000  0.50000003  1
  La  La1  1  0.00000000  0.00000000  0.00000000  1
  Co  Co2  1  0.66666662  0.33333333  0.75000004  1
  Si  Si3  1  0.33333329  0.66666666  0.25000001  1
  As  As4  1  0.33333329  0.66666666  0.75000004  1
  As  As5  1  0.66666662  0.33333333  0.25000001  1
