# generated using pymatgen
data_LiPO4
_symmetry_space_group_name_H-M   'P 1'
_cell_length_a   5.71330118
_cell_length_b   5.71330118
_cell_length_c   5.71330118
_cell_angle_alpha   105.97296143
_cell_angle_beta   105.97296143
_cell_angle_gamma   116.72011566
_symmetry_Int_Tables_number   1
_chemical_formula_structural   LiPO4
_chemical_formula_sum   'Li2 P2 O8'
_cell_volume   141.81777008
_cell_formula_units_Z   2
loop_
 _symmetry_equiv_pos_site_id
 _symmetry_equiv_pos_as_xyz
  1  'x, y, z'
loop_
 _atom_site_type_symbol
 _atom_site_label
 _atom_site_symmetry_multiplicity
 _atom_site_fract_x
 _atom_site_fract_y
 _atom_site_fract_z
 _atom_site_occupancy
  Li  Li0  1  0.50000002  0.50000001  -0.00000001  1
  Li  Li1  1  0.25000003  0.75000002  0.50000000  1
  P  P2  1  0.75000001  0.25000001  0.49999999  1
  P  P3  1  0.00000000  0.00000000  0.00000000  1
  O  O4  1  0.16263204  0.98678702  0.82415500  1
  O  O5  1  0.73678802  0.41263301  0.32415599  1
  O  O6  1  0.08847702  0.41263201  0.67584500  1
  O  O7  1  0.16263201  0.33847701  0.17584400  1
  O  O8  1  0.01321203  0.83736702  0.17584400  1
  O  O9  1  0.58736801  0.26321301  0.67584499  1
  O  O10  1  0.58736804  0.91152302  0.32415599  1
  O  O11  1  0.66152303  0.83736802  0.82415499  1
