# generated using pymatgen
data_Ta2AlInSbS7
_symmetry_space_group_name_H-M   'P 1'
_cell_length_a   7.20784187
_cell_length_b   7.20784187
_cell_length_c   7.20784187
_cell_angle_alpha   60.00000000
_cell_angle_beta   60.00000000
_cell_angle_gamma   60.00000000
_symmetry_Int_Tables_number   1
_chemical_formula_structural   Ta2AlInSbS7
_chemical_formula_sum   'Ta2 Al1 In1 Sb1 S7'
_cell_volume   264.78949633
_cell_formula_units_Z   1
loop_
 _symmetry_equiv_pos_site_id
 _symmetry_equiv_pos_as_xyz
  1  'x, y, z'
loop_
 _atom_site_type_symbol
 _atom_site_label
 _atom_site_symmetry_multiplicity
 _atom_site_fract_x
 _atom_site_fract_y
 _atom_site_fract_z
 _atom_site_occupancy
  Ta  Ta0  1  0.45717601  0.84760802  0.84760802  1
  Ta  Ta1  1  0.84760802  0.84760802  0.45717601  1
  In  In2  1  0.84760802  0.45717601  0.84760802  1
  Al  Al3  1  0.84760802  0.84760802  0.84760802  1
  Sb  Sb4  1  0.12220900  0.12220900  0.12220900  1
  S  S5  1  0.12220900  0.63337302  0.12220900  1
  S  S6  1  0.12220900  0.12220900  0.63337302  1
  S  S7  1  0.63337302  0.12220900  0.12220900  1
  S  S8  1  0.13569200  0.62143602  0.62143602  1
  S  S9  1  0.62143702  0.62143602  0.13569100  1
  S  S10  1  0.62143702  0.13569100  0.62143602  1
  S  S11  1  0.62143702  0.62143602  0.62143602  1
