# generated using pymatgen
data_Sr5Bi3
_symmetry_space_group_name_H-M   'P 1'
_cell_length_a   7.58187199
_cell_length_b   9.77769756
_cell_length_c   9.77769852
_cell_angle_alpha   60.00000381
_cell_angle_beta   90.00000000
_cell_angle_gamma   90.00000000
_symmetry_Int_Tables_number   1
_chemical_formula_structural   Sr5Bi3
_chemical_formula_sum   'Sr10 Bi6'
_cell_volume   627.74077306
_cell_formula_units_Z   2
loop_
 _symmetry_equiv_pos_site_id
 _symmetry_equiv_pos_as_xyz
  1  'x, y, z'
loop_
 _atom_site_type_symbol
 _atom_site_label
 _atom_site_symmetry_multiplicity
 _atom_site_fract_x
 _atom_site_fract_y
 _atom_site_fract_z
 _atom_site_occupancy
  Sr  Sr0  1  1.00000000  0.33333335  0.33333335  1
  Sr  Sr1  1  0.50000000  0.66666669  0.66666671  1
  Sr  Sr2  1  1.00000000  0.66666669  0.66666671  1
  Sr  Sr3  1  0.50000000  0.33333335  0.33333335  1
  Sr  Sr4  1  0.75000000  0.00000000  0.25121801  1
  Sr  Sr5  1  0.25000000  0.25121801  1.00000005  1
  Sr  Sr6  1  0.25000000  0.74878203  0.25121802  1
  Sr  Sr7  1  0.75000000  0.25121801  0.74878204  1
  Sr  Sr8  1  0.75000000  0.74878203  1.00000006  1
  Sr  Sr9  1  0.25000000  0.00000000  0.74878204  1
  Bi  Bi10  1  0.75000000  0.00000000  0.60871203  1
  Bi  Bi11  1  0.25000000  0.60871202  0.00000001  1
  Bi  Bi12  1  0.25000000  0.39128802  0.60871203  1
  Bi  Bi13  1  0.75000000  0.60871202  0.39128802  1
  Bi  Bi14  1  0.75000000  0.39128802  1.00000005  1
  Bi  Bi15  1  0.25000000  0.00000000  0.39128802  1
