# generated using pymatgen
data_TaFe2Si4Mo
_symmetry_space_group_name_H-M   'P 1'
_cell_length_a   5.29345083
_cell_length_b   5.29345083
_cell_length_c   6.77028704
_cell_angle_alpha   90.00000000
_cell_angle_beta   90.00000000
_cell_angle_gamma   90.00000000
_symmetry_Int_Tables_number   1
_chemical_formula_structural   TaFe2Si4Mo
_chemical_formula_sum   'Ta2 Fe4 Si8 Mo2'
_cell_volume   189.70765196
_cell_formula_units_Z   2
loop_
 _symmetry_equiv_pos_site_id
 _symmetry_equiv_pos_as_xyz
  1  'x, y, z'
loop_
 _atom_site_type_symbol
 _atom_site_label
 _atom_site_symmetry_multiplicity
 _atom_site_fract_x
 _atom_site_fract_y
 _atom_site_fract_z
 _atom_site_occupancy
  Ta  Ta0  1  0.50000002  0.00000000  0.00000000  1
  Ta  Ta1  1  0.00000000  0.00000000  0.50000000  1
  Fe  Fe2  1  -0.00000000  0.50000002  -0.00000000  1
  Fe  Fe3  1  0.00000000  0.00000000  0.00000000  1
  Fe  Fe4  1  -0.00000000  0.50000002  0.50000000  1
  Fe  Fe5  1  0.50000002  0.00000000  0.50000000  1
  Si  Si6  1  0.50000002  0.50000002  -0.00000000  1
  Si  Si7  1  0.24774601  0.24774601  0.25035100  1
  Mo  Mo8  1  0.24774601  0.75225402  0.74964900  1
  Si  Si9  1  0.75225402  0.24774601  0.74964900  1
  Si  Si10  1  0.75225402  0.75225402  0.25035100  1
  Si  Si11  1  0.24774601  0.24774601  0.74964900  1
  Si  Si12  1  0.24774601  0.75225402  0.25035100  1
  Si  Si13  1  0.75225402  0.24774601  0.25035100  1
  Si  Si14  1  0.75225402  0.75225402  0.74964900  1
  Mo  Mo15  1  0.50000002  0.50000002  0.50000000  1
