# generated using pymatgen
data_Sr2USnO6
_symmetry_space_group_name_H-M   'P 1'
_cell_length_a   5.90670776
_cell_length_b   6.00731802
_cell_length_c   8.40829372
_cell_angle_alpha   90.00000000
_cell_angle_beta   90.09529114
_cell_angle_gamma   90.00000000
_symmetry_Int_Tables_number   1
_chemical_formula_structural   Sr2USnO6
_chemical_formula_sum   'Sr4 U2 Sn2 O12'
_cell_volume   298.35504218
_cell_formula_units_Z   2
loop_
 _symmetry_equiv_pos_site_id
 _symmetry_equiv_pos_as_xyz
  1  'x, y, z'
loop_
 _atom_site_type_symbol
 _atom_site_label
 _atom_site_symmetry_multiplicity
 _atom_site_fract_x
 _atom_site_fract_y
 _atom_site_fract_z
 _atom_site_occupancy
  Sr  Sr0  1  0.00964600  0.45910700  0.24975700  1
  Sr  Sr1  1  0.49035402  0.95910700  0.25024301  1
  Sr  Sr2  1  0.50964602  0.04089300  0.74975700  1
  Sr  Sr3  1  0.99035404  0.54089300  0.75024301  1
  U  U4  1  0.50000002  0.50000000  0.00000001  1
  U  U5  1  0.00000000  0.00000000  0.49999999  1
  Sn  Sn6  1  0.00000000  0.00000000  0.00000000  1
  Sn  Sn7  1  0.50000002  0.50000000  0.50000000  1
  O  O8  1  0.21063201  0.70554000  0.45428100  1
  O  O9  1  0.28936801  0.20554000  0.04571900  1
  O  O10  1  0.78936803  0.29446000  0.54571901  1
  O  O11  1  0.71063203  0.79446000  0.95428100  1
  O  O12  1  0.29711001  0.21112900  0.45362300  1
  O  O13  1  0.20289001  0.71112900  0.04637700  1
  O  O14  1  0.70289003  0.78887100  0.54637701  1
  O  O15  1  0.79711003  0.28887100  0.95362300  1
  O  O16  1  0.91319804  0.02869100  0.24654801  1
  O  O17  1  0.58680202  0.52869100  0.25345201  1
  O  O18  1  0.08680200  0.97130900  0.75345199  1
  O  O19  1  0.41319802  0.47130900  0.74654800  1
