# generated using pymatgen
data_Tl5Cl3O4
_symmetry_space_group_name_H-M   'P 1'
_cell_length_a   5.30356216
_cell_length_b   5.30356216
_cell_length_c   9.11402416
_cell_angle_alpha   90.00000000
_cell_angle_beta   90.00000000
_cell_angle_gamma   118.32711792
_symmetry_Int_Tables_number   1
_chemical_formula_structural   Tl5Cl3O4
_chemical_formula_sum   'Tl5 Cl3 O4'
_cell_volume   225.65915258
_cell_formula_units_Z   1
loop_
 _symmetry_equiv_pos_site_id
 _symmetry_equiv_pos_as_xyz
  1  'x, y, z'
loop_
 _atom_site_type_symbol
 _atom_site_label
 _atom_site_symmetry_multiplicity
 _atom_site_fract_x
 _atom_site_fract_y
 _atom_site_fract_z
 _atom_site_occupancy
  Tl  Tl0  1  0.49999999  0.00000000  0.08333300  1
  Tl  Tl1  1  0.00000001  0.50000000  0.58210299  1
  Tl  Tl2  1  0.49999999  0.00000000  0.41789699  1
  Tl  Tl3  1  0.00000001  0.50000000  0.91666698  1
  Tl  Tl4  1  0.16300300  0.32923600  0.25799100  1
  Cl  Cl5  1  0.67076400  0.83699699  0.74200899  1
  Cl  Cl6  1  0.83699700  0.67076399  0.25799100  1
  Cl  Cl7  1  0.32923600  0.16300300  0.74200899  1
  O  O8  1  0.00000000  0.00000000  0.49999999  1
  O  O9  1  0.00000000  0.00000000  0.00000000  1
  O  O10  1  0.50000000  0.50000000  0.49999999  1
  O  O11  1  0.50000000  0.50000000  0.99999998  1
