# generated using pymatgen
data_LiSn5
_symmetry_space_group_name_H-M   'P 1'
_cell_length_a   5.37192106
_cell_length_b   5.37192106
_cell_length_c   5.37192106
_cell_angle_alpha   104.74737549
_cell_angle_beta   104.74737549
_cell_angle_gamma   119.39875793
_symmetry_Int_Tables_number   1
_chemical_formula_structural   LiSn5
_chemical_formula_sum   'Li1 Sn5'
_cell_volume   116.60735098
_cell_formula_units_Z   1
loop_
 _symmetry_equiv_pos_site_id
 _symmetry_equiv_pos_as_xyz
  1  'x, y, z'
loop_
 _atom_site_type_symbol
 _atom_site_label
 _atom_site_symmetry_multiplicity
 _atom_site_fract_x
 _atom_site_fract_y
 _atom_site_fract_z
 _atom_site_occupancy
  Li  Li0  1  0.50000009  0.50000006  0.00000009  1
  Sn  Sn1  1  0.00000000  0.00000000  0.00000000  1
  Sn  Sn2  1  0.08600716  0.91399211  0.50000012  1
  Sn  Sn3  1  0.41399311  0.58600807  0.50000010  1
  Sn  Sn4  1  0.91399309  0.41399305  0.82798611  1
  Sn  Sn5  1  0.58600702  0.08600701  0.17201405  1
