# generated using pymatgen
data_TlPd3
_symmetry_space_group_name_H-M   'P 1'
_cell_length_a   5.09222698
_cell_length_b   5.85540390
_cell_length_c   9.58311367
_cell_angle_alpha   90.00000000
_cell_angle_beta   90.00000000
_cell_angle_gamma   90.00000000
_symmetry_Int_Tables_number   1
_chemical_formula_structural   TlPd3
_chemical_formula_sum   'Tl4 Pd12'
_cell_volume   285.74013856
_cell_formula_units_Z   4
loop_
 _symmetry_equiv_pos_site_id
 _symmetry_equiv_pos_as_xyz
  1  'x, y, z'
loop_
 _atom_site_type_symbol
 _atom_site_label
 _atom_site_symmetry_multiplicity
 _atom_site_fract_x
 _atom_site_fract_y
 _atom_site_fract_z
 _atom_site_occupancy
  Tl  Tl0  1  0.15399800  0.50000001  0.75000003  1
  Tl  Tl1  1  0.84600200  0.50000001  0.25000001  1
  Tl  Tl2  1  0.50000000  0.00000000  0.50000002  1
  Tl  Tl3  1  0.50000000  0.00000000  0.00000000  1
  Pd  Pd4  1  0.66514100  0.25099100  0.75000003  1
  Pd  Pd5  1  0.66514100  0.74900901  0.75000003  1
  Pd  Pd6  1  0.33485900  0.25099100  0.25000001  1
  Pd  Pd7  1  0.33485900  0.74900901  0.25000001  1
  Pd  Pd8  1  0.50000000  0.50000001  0.00000000  1
  Pd  Pd9  1  0.50000000  0.50000001  0.50000002  1
  Pd  Pd10  1  0.84833400  0.00000000  0.25000001  1
  Pd  Pd11  1  0.15166600  0.00000000  0.75000003  1
  Pd  Pd12  1  0.00000000  0.74953301  -0.00000000  1
  Pd  Pd13  1  0.00000000  0.25046700  0.50000002  1
  Pd  Pd14  1  0.00000000  0.25046700  0.00000000  1
  Pd  Pd15  1  0.00000000  0.74953301  0.50000002  1
