# generated using pymatgen
data_Li7Ni3O10
_symmetry_space_group_name_H-M   'P 1'
_cell_length_a   2.88033795
_cell_length_b   6.68622446
_cell_length_c   9.80119896
_cell_angle_alpha   102.84980011
_cell_angle_beta   90.00000000
_cell_angle_gamma   102.43861389
_symmetry_Int_Tables_number   1
_chemical_formula_structural   Li7Ni3O10
_chemical_formula_sum   'Li7 Ni3 O10'
_cell_volume   179.48278781
_cell_formula_units_Z   1
loop_
 _symmetry_equiv_pos_site_id
 _symmetry_equiv_pos_as_xyz
  1  'x, y, z'
loop_
 _atom_site_type_symbol
 _atom_site_label
 _atom_site_symmetry_multiplicity
 _atom_site_fract_x
 _atom_site_fract_y
 _atom_site_fract_z
 _atom_site_occupancy
  Li  Li0  1  0.30485507  0.60971001  0.90820002  1
  Li  Li1  1  0.89838810  0.79677602  0.69901903  1
  Li  Li2  1  0.70508205  0.41016401  0.10197502  1
  Li  Li3  1  0.09477002  0.18954000  0.29871301  1
  Li  Li4  1  0.49688411  0.99376802  0.49286804  1
  Li  Li5  1  0.39957809  0.79915602  0.20080403  1
  Li  Li6  1  0.99128812  0.98257602  0.00630704  1
  Ni  Ni7  1  0.80748008  0.61496001  0.39531002  1
  Ni  Ni8  1  0.60057103  0.20114200  0.80023200  1
  Ni  Ni9  1  0.20202504  0.40405001  0.59680701  1
  O  O10  1  0.45195110  0.90390202  0.86744903  1
  O  O11  1  0.05440601  0.10881200  0.66402800  1
  O  O12  1  0.86070509  0.72141001  0.04442403  1
  O  O13  1  0.25273906  0.50547801  0.26683602  1
  O  O14  1  0.66302904  0.32605801  0.46076301  1
  O  O15  1  0.13875003  0.27750001  0.94190400  1
  O  O16  1  0.74732906  0.49465801  0.72956501  1
  O  O17  1  0.54610902  0.09221800  0.13469800  1
  O  O18  1  0.93783710  0.87567402  0.35605704  1
  O  O19  1  0.34622408  0.69244801  0.53404103  1
