# generated using pymatgen
data_HfAu2
_symmetry_space_group_name_H-M   'P 1'
_cell_length_a   4.81207895
_cell_length_b   4.83671188
_cell_length_c   4.98246241
_cell_angle_alpha   60.96304321
_cell_angle_beta   90.00000000
_cell_angle_gamma   90.00000000
_symmetry_Int_Tables_number   1
_chemical_formula_structural   HfAu2
_chemical_formula_sum   'Hf2 Au4'
_cell_volume   101.38900382
_cell_formula_units_Z   2
loop_
 _symmetry_equiv_pos_site_id
 _symmetry_equiv_pos_as_xyz
  1  'x, y, z'
loop_
 _atom_site_type_symbol
 _atom_site_label
 _atom_site_symmetry_multiplicity
 _atom_site_fract_x
 _atom_site_fract_y
 _atom_site_fract_z
 _atom_site_occupancy
  Hf  Hf0  1  0.75000001  0.21834401  -0.00000001  1
  Hf  Hf1  1  0.25000000  0.78165603  -0.00000002  1
  Au  Au2  1  0.75000001  0.88255603  0.67713099  1
  Au  Au3  1  0.75000001  0.55968702  0.32286899  1
  Au  Au4  1  0.25000000  0.11744400  0.32286901  1
  Au  Au5  1  0.25000000  0.44031302  0.67713101  1
