# generated using pymatgen
data_CeNiGe2
_symmetry_space_group_name_H-M   'P 1'
_cell_length_a   4.16702223
_cell_length_b   4.25158787
_cell_length_c   8.39266300
_cell_angle_alpha   90.00000000
_cell_angle_beta   104.37420654
_cell_angle_gamma   90.00000000
_symmetry_Int_Tables_number   1
_chemical_formula_structural   CeNiGe2
_chemical_formula_sum   'Ce2 Ni2 Ge4'
_cell_volume   144.03360390
_cell_formula_units_Z   2
loop_
 _symmetry_equiv_pos_site_id
 _symmetry_equiv_pos_as_xyz
  1  'x, y, z'
loop_
 _atom_site_type_symbol
 _atom_site_label
 _atom_site_symmetry_multiplicity
 _atom_site_fract_x
 _atom_site_fract_y
 _atom_site_fract_z
 _atom_site_occupancy
  Ce  Ce0  1  0.89265694  0.25000001  0.78531401  1
  Ce  Ce1  1  0.10734299  0.75000002  0.21468600  1
  Ni  Ni2  1  0.68342696  0.25000001  0.36685400  1
  Ni  Ni3  1  0.31657298  0.75000002  0.63314601  1
  Ge  Ge4  1  0.54430297  0.25000001  0.08860599  1
  Ge  Ge5  1  0.45569697  0.75000002  0.91139402  1
  Ge  Ge6  1  0.25281298  0.25000001  0.50562601  1
  Ge  Ge7  1  0.74718695  0.75000002  0.49437400  1
