# generated using pymatgen
data_BaSn
_symmetry_space_group_name_H-M   'P 1'
_cell_length_a   3.57798696
_cell_length_b   5.72956991
_cell_length_c   5.99439383
_cell_angle_alpha   90.00000000
_cell_angle_beta   90.00000000
_cell_angle_gamma   90.00000000
_symmetry_Int_Tables_number   1
_chemical_formula_structural   BaSn
_chemical_formula_sum   'Ba2 Sn2'
_cell_volume   122.88703003
_cell_formula_units_Z   2
loop_
 _symmetry_equiv_pos_site_id
 _symmetry_equiv_pos_as_xyz
  1  'x, y, z'
loop_
 _atom_site_type_symbol
 _atom_site_label
 _atom_site_symmetry_multiplicity
 _atom_site_fract_x
 _atom_site_fract_y
 _atom_site_fract_z
 _atom_site_occupancy
  Ba  Ba0  1  0.50000001  0.75000001  0.30923401  1
  Ba  Ba1  1  0.50000001  0.25000000  0.69076602  1
  Sn  Sn2  1  -0.00000000  0.75000001  0.82490402  1
  Sn  Sn3  1  -0.00000000  0.25000000  0.17509601  1
