# generated using pymatgen
data_U4Ti2CN5
_symmetry_space_group_name_H-M   'P 1'
_cell_length_a   3.13051796
_cell_length_b   3.13051796
_cell_length_c   19.24987793
_cell_angle_alpha   90.00000000
_cell_angle_beta   90.00000000
_cell_angle_gamma   120.00000000
_symmetry_Int_Tables_number   1
_chemical_formula_structural   U4Ti2CN5
_chemical_formula_sum   'U4 Ti2 C1 N5'
_cell_volume   163.37703526
_cell_formula_units_Z   1
loop_
 _symmetry_equiv_pos_site_id
 _symmetry_equiv_pos_as_xyz
  1  'x, y, z'
loop_
 _atom_site_type_symbol
 _atom_site_label
 _atom_site_symmetry_multiplicity
 _atom_site_fract_x
 _atom_site_fract_y
 _atom_site_fract_z
 _atom_site_occupancy
  U  U0  1  0.33333332  0.66666665  0.63379597  1
  Ti  Ti1  1  0.66666667  0.33333332  0.13379599  1
  U  U2  1  0.66666667  0.33333332  0.36620398  1
  U  U3  1  0.33333332  0.66666665  0.86620396  1
  U  U4  1  0.00000000  0.00000000  0.49999998  1
  Ti  Ti5  1  0.00000000  0.00000000  0.00000000  1
  C  C6  1  0.00000000  0.00000000  0.24999999  1
  N  N7  1  0.00000000  0.00000000  0.74999996  1
  N  N8  1  0.66666667  0.33333332  0.56921897  1
  N  N9  1  0.33333332  0.66666665  0.06921900  1
  N  N10  1  0.66666667  0.33333332  0.93078096  1
  N  N11  1  0.33333332  0.66666665  0.43078098  1
