# generated using pymatgen
data_ScAl2ClO3
_symmetry_space_group_name_H-M   'P 1'
_cell_length_a   3.43296766
_cell_length_b   3.43296766
_cell_length_c   8.50839043
_cell_angle_alpha   78.36126709
_cell_angle_beta   78.36126709
_cell_angle_gamma   60.00000763
_symmetry_Int_Tables_number   1
_chemical_formula_structural   ScAl2ClO3
_chemical_formula_sum   'Sc1 Al2 Cl1 O3'
_cell_volume   84.45048246
_cell_formula_units_Z   1
loop_
 _symmetry_equiv_pos_site_id
 _symmetry_equiv_pos_as_xyz
  1  'x, y, z'
loop_
 _atom_site_type_symbol
 _atom_site_label
 _atom_site_symmetry_multiplicity
 _atom_site_fract_x
 _atom_site_fract_y
 _atom_site_fract_z
 _atom_site_occupancy
  Sc  Sc0  1  0.00101000  0.00101000  0.99696999  1
  Al  Al1  1  0.21155700  0.21155700  0.36532900  1
  Al  Al2  1  0.78655299  0.78655299  0.64034102  1
  Cl  Cl3  1  0.87288299  0.87288299  0.38135103  1
  O  O4  1  0.13220300  0.13220300  0.60339100  1
  O  O5  1  0.70671499  0.70671499  0.87985502  1
  O  O6  1  0.28908000  0.28908000  0.13276001  1
