# generated using pymatgen
data_LiCuPO5
_symmetry_space_group_name_H-M   'P 1'
_cell_length_a   5.12813091
_cell_length_b   5.19306755
_cell_length_c   6.98165464
_cell_angle_alpha   107.48869324
_cell_angle_beta   108.18684387
_cell_angle_gamma   97.97912598
_symmetry_Int_Tables_number   1
_chemical_formula_structural   LiCuPO5
_chemical_formula_sum   'Li2 Cu2 P2 O10'
_cell_volume   162.82785403
_cell_formula_units_Z   2
loop_
 _symmetry_equiv_pos_site_id
 _symmetry_equiv_pos_as_xyz
  1  'x, y, z'
loop_
 _atom_site_type_symbol
 _atom_site_label
 _atom_site_symmetry_multiplicity
 _atom_site_fract_x
 _atom_site_fract_y
 _atom_site_fract_z
 _atom_site_occupancy
  Li  Li0  1  0.26803695  0.62033200  0.23676198  1
  Li  Li1  1  0.73196297  0.37966800  0.76323797  1
  Cu  Cu2  1  0.00000000  0.00000000  0.50000001  1
  Cu  Cu3  1  0.00000000  0.00000000  0.00000000  1
  P  P4  1  0.32560895  0.64382700  0.75339499  1
  P  P5  1  0.67439097  0.35617300  0.24660497  1
  O  O6  1  0.12893994  0.68273900  0.88592600  1
  O  O7  1  0.24747394  0.78173700  0.58291298  1
  O  O8  1  0.30081697  0.32798100  0.64710499  1
  O  O9  1  0.64190294  0.76049000  0.90246897  1
  O  O10  1  0.35809698  0.23951000  0.09753098  1
  O  O11  1  0.69918294  0.67201900  0.35289496  1
  O  O12  1  0.75252598  0.21826300  0.41708697  1
  O  O13  1  0.87105997  0.31726100  0.11407396  1
  O  O14  1  0.09696292  0.93427800  0.25716298  1
  O  O15  1  0.90303699  0.06572200  0.74283697  1
