# generated using pymatgen
data_Zr3(Si2Mo)2
_symmetry_space_group_name_H-M   'P 1'
_cell_length_a   6.70329189
_cell_length_b   7.68186903
_cell_length_c   7.65279007
_cell_angle_alpha   119.87486267
_cell_angle_beta   90.00000000
_cell_angle_gamma   115.86843109
_symmetry_Int_Tables_number   1
_chemical_formula_structural   Zr3(Si2Mo)2
_chemical_formula_sum   'Zr6 Si8 Mo4'
_cell_volume   295.29751224
_cell_formula_units_Z   2
loop_
 _symmetry_equiv_pos_site_id
 _symmetry_equiv_pos_as_xyz
  1  'x, y, z'
loop_
 _atom_site_type_symbol
 _atom_site_label
 _atom_site_symmetry_multiplicity
 _atom_site_fract_x
 _atom_site_fract_y
 _atom_site_fract_z
 _atom_site_occupancy
  Zr  Zr0  1  0.25718203  0.56516402  0.03258204  1
  Zr  Zr1  1  0.69201803  0.43483601  0.96741803  1
  Zr  Zr2  1  0.83465901  0.00275800  0.75137899  1
  Zr  Zr3  1  0.83190105  0.99724103  0.24862008  1
  Zr  Zr4  1  0.65345303  0.39565801  0.44782903  1
  Zr  Zr5  1  0.25779503  0.60434202  0.55217104  1
  Si  Si6  1  0.22346204  0.94654303  0.22327207  1
  Si  Si7  1  0.27692001  0.05345800  0.77672900  1
  Si  Si8  1  0.92021003  0.33276601  0.66142902  1
  Si  Si9  1  0.58744404  0.66723402  0.33857105  1
  Si  Si10  1  0.58744404  0.66723402  0.82866305  1
  Si  Si11  1  0.92021003  0.33276601  0.17133702  1
  Si  Si12  1  0.49854205  1.00000003  0.50000007  1
  Si  Si13  1  0.49854205  1.00000003  1.00000007  1
  Mo  Mo14  1  0.00757003  0.75523102  0.84973305  1
  Mo  Mo15  1  0.25233901  0.24476901  0.15026702  1
  Mo  Mo16  1  0.25233901  0.24476901  0.59450201  1
  Mo  Mo17  1  0.00757003  0.75523102  0.40549806  1
