# generated using pymatgen
data_Gd2SnSb3
_symmetry_space_group_name_H-M   'P 1'
_cell_length_a   4.45522690
_cell_length_b   4.45522690
_cell_length_c   8.94202137
_cell_angle_alpha   90.00000000
_cell_angle_beta   90.00000000
_cell_angle_gamma   90.00000000
_symmetry_Int_Tables_number   1
_chemical_formula_structural   Gd2SnSb3
_chemical_formula_sum   'Gd2 Sn1 Sb3'
_cell_volume   177.49059989
_cell_formula_units_Z   1
loop_
 _symmetry_equiv_pos_site_id
 _symmetry_equiv_pos_as_xyz
  1  'x, y, z'
loop_
 _atom_site_type_symbol
 _atom_site_label
 _atom_site_symmetry_multiplicity
 _atom_site_fract_x
 _atom_site_fract_y
 _atom_site_fract_z
 _atom_site_occupancy
  Gd  Gd0  1  -0.00000000  0.50000001  0.72842897  1
  Gd  Gd1  1  0.50000001  0.00000000  0.27157099  1
  Sn  Sn2  1  0.00000000  0.00000000  0.00000000  1
  Sb  Sb3  1  0.50000001  0.50000001  0.00000000  1
  Sb  Sb4  1  -0.00000000  0.50000001  0.37156398  1
  Sb  Sb5  1  0.50000001  0.00000000  0.62843597  1
