# generated using pymatgen
data_Eu3Bi2
_symmetry_space_group_name_H-M   'P 1'
_cell_length_a   7.98471594
_cell_length_b   8.90399456
_cell_length_c   8.90399456
_cell_angle_alpha   90.00000000
_cell_angle_beta   90.00000000
_cell_angle_gamma   90.00000000
_symmetry_Int_Tables_number   1
_chemical_formula_structural   Eu3Bi2
_chemical_formula_sum   'Eu12 Bi8'
_cell_volume   633.03721554
_cell_formula_units_Z   4
loop_
 _symmetry_equiv_pos_site_id
 _symmetry_equiv_pos_as_xyz
  1  'x, y, z'
loop_
 _atom_site_type_symbol
 _atom_site_label
 _atom_site_symmetry_multiplicity
 _atom_site_fract_x
 _atom_site_fract_y
 _atom_site_fract_z
 _atom_site_occupancy
  Eu  Eu0  1  0.00000000  0.14608101  0.14608101  1
  Eu  Eu1  1  0.50000000  0.64608103  0.35391902  1
  Eu  Eu2  1  0.50000000  0.35391902  0.64608103  1
  Eu  Eu3  1  -0.00000000  0.85391904  0.85391904  1
  Eu  Eu4  1  0.50000000  0.19713201  0.19713201  1
  Eu  Eu5  1  -0.00000000  0.69713203  0.30286801  1
  Eu  Eu6  1  0.00000000  0.30286801  0.69713203  1
  Eu  Eu7  1  0.50000000  0.80286804  0.80286804  1
  Eu  Eu8  1  0.25000000  0.50000002  -0.00000000  1
  Eu  Eu9  1  0.75000001  0.50000002  0.00000000  1
  Eu  Eu10  1  0.75000001  0.00000000  0.50000002  1
  Eu  Eu11  1  0.25000000  0.00000000  0.50000002  1
  Bi  Bi12  1  0.80203501  0.37531202  0.37531202  1
  Bi  Bi13  1  0.30203500  0.87531204  0.12468801  1
  Bi  Bi14  1  0.30203500  0.12468801  0.87531204  1
  Bi  Bi15  1  0.80203501  0.62468803  0.62468803  1
  Bi  Bi16  1  0.19796500  0.37531202  0.37531202  1
  Bi  Bi17  1  0.69796501  0.87531204  0.12468801  1
  Bi  Bi18  1  0.69796501  0.12468801  0.87531204  1
  Bi  Bi19  1  0.19796500  0.62468803  0.62468803  1
