# generated using pymatgen
data_CePt16
_symmetry_space_group_name_H-M   'P 1'
_cell_length_a   7.94844341
_cell_length_b   7.94844341
_cell_length_c   7.94844341
_cell_angle_alpha   109.47122192
_cell_angle_beta   109.47122192
_cell_angle_gamma   109.47122192
_symmetry_Int_Tables_number   1
_chemical_formula_structural   CePt16
_chemical_formula_sum   'Ce1 Pt16'
_cell_volume   386.56661880
_cell_formula_units_Z   1
loop_
 _symmetry_equiv_pos_site_id
 _symmetry_equiv_pos_as_xyz
  1  'x, y, z'
loop_
 _atom_site_type_symbol
 _atom_site_label
 _atom_site_symmetry_multiplicity
 _atom_site_fract_x
 _atom_site_fract_y
 _atom_site_fract_z
 _atom_site_occupancy
  Ce  Ce0  1  0.00000000  0.00000000  0.00000000  1
  Pt  Pt1  1  0.50000004  0.50000003  0.50000005  1
  Pt  Pt2  1  0.50000001  0.00000000  0.00000001  1
  Pt  Pt3  1  0.00000003  0.50000003  0.00000003  1
  Pt  Pt4  1  0.00000000  0.00000000  0.50000001  1
  Pt  Pt5  1  0.16139702  0.33510502  0.49650203  1
  Pt  Pt6  1  0.50349806  0.83860304  0.66489507  1
  Pt  Pt7  1  0.83860306  0.66489503  0.50349806  1
  Pt  Pt8  1  0.83860304  0.33510502  0.17370804  1
  Pt  Pt9  1  0.16139705  0.66489503  0.82629205  1
  Pt  Pt10  1  0.33510502  0.17370801  0.83860303  1
  Pt  Pt11  1  0.49650202  0.16139701  0.33510502  1
  Pt  Pt12  1  0.82629203  0.16139701  0.66489504  1
  Pt  Pt13  1  0.66489505  0.50349803  0.83860305  1
  Pt  Pt14  1  0.66489507  0.82629204  0.16139706  1
  Pt  Pt15  1  0.33510504  0.49650203  0.16139704  1
  Pt  Pt16  1  0.17370806  0.83860304  0.33510505  1
