# generated using pymatgen
data_CeNi2
_symmetry_space_group_name_H-M   'P 1'
_cell_length_a   4.10103703
_cell_length_b   5.38281870
_cell_length_c   8.08400822
_cell_angle_alpha   98.26410675
_cell_angle_beta   90.00000000
_cell_angle_gamma   112.39178467
_symmetry_Int_Tables_number   1
_chemical_formula_structural   CeNi2
_chemical_formula_sum   'Ce3 Ni6'
_cell_volume   162.99418835
_cell_formula_units_Z   3
loop_
 _symmetry_equiv_pos_site_id
 _symmetry_equiv_pos_as_xyz
  1  'x, y, z'
loop_
 _atom_site_type_symbol
 _atom_site_label
 _atom_site_symmetry_multiplicity
 _atom_site_fract_x
 _atom_site_fract_y
 _atom_site_fract_z
 _atom_site_occupancy
  Ce  Ce0  1  0.62308500  0.24617000  0.87955795  1
  Ce  Ce1  1  0.37691502  0.75382999  0.12044198  1
  Ce  Ce2  1  0.00000000  0.00000000  0.49999998  1
  Ni  Ni3  1  0.32245902  0.64491799  0.71500995  1
  Ni  Ni4  1  0.67754101  0.35508199  0.28498998  1
  Ni  Ni5  1  0.91534702  0.83069398  0.86240494  1
  Ni  Ni6  1  0.08465300  0.16930600  0.13759499  1
  Ni  Ni7  1  0.73879201  0.47758399  0.58608996  1
  Ni  Ni8  1  0.26120801  0.52241599  0.41390997  1
