# generated using pymatgen
data_Cs2ZnCl4
_symmetry_space_group_name_H-M   'P 1'
_cell_length_a   5.14405203
_cell_length_b   5.14405203
_cell_length_c   9.24980450
_cell_angle_alpha   106.14461517
_cell_angle_beta   106.14461517
_cell_angle_gamma   90.00000000
_symmetry_Int_Tables_number   1
_chemical_formula_structural   Cs2ZnCl4
_chemical_formula_sum   'Cs2 Zn1 Cl4'
_cell_volume   225.04257370
_cell_formula_units_Z   1
loop_
 _symmetry_equiv_pos_site_id
 _symmetry_equiv_pos_as_xyz
  1  'x, y, z'
loop_
 _atom_site_type_symbol
 _atom_site_label
 _atom_site_symmetry_multiplicity
 _atom_site_fract_x
 _atom_site_fract_y
 _atom_site_fract_z
 _atom_site_occupancy
  Cs  Cs0  1  0.63688698  0.63688699  0.27377400  1
  Cs  Cs1  1  0.36431299  0.36431300  0.72862602  1
  Zn  Zn2  1  0.99658298  0.99658299  0.99316602  1
  Cl  Cl3  1  0.14496900  0.14496900  0.28993801  1
  Cl  Cl4  1  0.49905198  0.99905199  0.99810402  1
  Cl  Cl5  1  0.99905198  0.49905199  0.99810402  1
  Cl  Cl6  1  0.85914498  0.85914499  0.71829001  1
