# generated using pymatgen
data_BaTh3S4
_symmetry_space_group_name_H-M   'P 1'
_cell_length_a   4.45188522
_cell_length_b   4.45188522
_cell_length_c   9.60359955
_cell_angle_alpha   90.00000000
_cell_angle_beta   90.00000000
_cell_angle_gamma   90.00000000
_symmetry_Int_Tables_number   1
_chemical_formula_structural   BaTh3S4
_chemical_formula_sum   'Ba1 Th3 S4'
_cell_volume   190.33644807
_cell_formula_units_Z   1
loop_
 _symmetry_equiv_pos_site_id
 _symmetry_equiv_pos_as_xyz
  1  'x, y, z'
loop_
 _atom_site_type_symbol
 _atom_site_label
 _atom_site_symmetry_multiplicity
 _atom_site_fract_x
 _atom_site_fract_y
 _atom_site_fract_z
 _atom_site_occupancy
  Ba  Ba0  1  0.00000000  0.49999997  0.86705304  1
  Th  Th1  1  0.49999997  0.00000000  0.13294701  1
  Th  Th2  1  0.49999997  0.49999997  0.50000002  1
  Th  Th3  1  0.00000000  0.00000000  0.50000002  1
  S  S4  1  0.00000000  0.49999997  0.31246101  1
  S  S5  1  0.49999997  0.00000000  0.68753903  1
  S  S6  1  0.49999997  0.49999997  -0.00000000  1
  S  S7  1  0.00000000  0.00000000  0.00000000  1
