# generated using pymatgen
data_UMnSi2
_symmetry_space_group_name_H-M   'P 1'
_cell_length_a   3.94940305
_cell_length_b   3.94940305
_cell_length_c   9.17050743
_cell_angle_alpha   90.00000000
_cell_angle_beta   90.00000000
_cell_angle_gamma   90.00000000
_symmetry_Int_Tables_number   1
_chemical_formula_structural   UMnSi2
_chemical_formula_sum   'U2 Mn2 Si4'
_cell_volume   143.03959804
_cell_formula_units_Z   2
loop_
 _symmetry_equiv_pos_site_id
 _symmetry_equiv_pos_as_xyz
  1  'x, y, z'
loop_
 _atom_site_type_symbol
 _atom_site_label
 _atom_site_symmetry_multiplicity
 _atom_site_fract_x
 _atom_site_fract_y
 _atom_site_fract_z
 _atom_site_occupancy
  U  U0  1  0.49999999  0.00000000  0.75405596  1
  U  U1  1  0.00000000  0.49999999  0.24594399  1
  Mn  Mn2  1  0.49999999  0.49999999  0.49999998  1
  Mn  Mn3  1  0.00000000  0.00000000  0.49999998  1
  Si  Si4  1  0.49999999  0.49999999  0.00000000  1
  Si  Si5  1  0.00000000  0.49999999  0.65813997  1
  Si  Si6  1  0.00000000  0.00000000  0.00000000  1
  Si  Si7  1  0.49999999  0.00000000  0.34185998  1
