# generated using pymatgen
data_La3(InRu)4
_symmetry_space_group_name_H-M   'P 1'
_cell_length_a   3.79262590
_cell_length_b   9.14560223
_cell_length_c   9.14560223
_cell_angle_alpha   61.94577408
_cell_angle_beta   78.03307343
_cell_angle_gamma   78.03307343
_symmetry_Int_Tables_number   1
_chemical_formula_structural   La3(InRu)4
_chemical_formula_sum   'La3 In4 Ru4'
_cell_volume   271.64093204
_cell_formula_units_Z   1
loop_
 _symmetry_equiv_pos_site_id
 _symmetry_equiv_pos_as_xyz
  1  'x, y, z'
loop_
 _atom_site_type_symbol
 _atom_site_label
 _atom_site_symmetry_multiplicity
 _atom_site_fract_x
 _atom_site_fract_y
 _atom_site_fract_z
 _atom_site_occupancy
  La  La0  1  0.68545297  0.93745997  0.69163397  1
  La  La1  1  0.31454799  0.30836599  0.06253899  1
  La  La2  1  0.99999997  0.99935996  0.00063999  1
  In  In3  1  0.13510799  0.28280999  0.44697398  1
  In  In4  1  0.86489200  0.55302598  0.71718996  1
  In  In5  1  0.35353295  0.91910397  0.37382999  1
  In  In6  1  0.64646598  0.62616998  0.08089699  1
  Ru  Ru7  1  0.23637496  0.69295298  0.83429697  1
  Ru  Ru8  1  0.76362502  0.16570299  0.30704698  1
  Ru  Ru9  1  0.99999999  0.66066698  0.33933298  1
  Ru  Ru10  1  0.50000000  0.26617999  0.73381997  1
