# generated using pymatgen
data_CeSn7
_symmetry_space_group_name_H-M   'P 1'
_cell_length_a   6.48373985
_cell_length_b   6.55661249
_cell_length_c   10.43677139
_cell_angle_alpha   90.00000000
_cell_angle_beta   90.00000000
_cell_angle_gamma   119.63301849
_symmetry_Int_Tables_number   1
_chemical_formula_structural   CeSn7
_chemical_formula_sum   'Ce2 Sn14'
_cell_volume   385.65241096
_cell_formula_units_Z   2
loop_
 _symmetry_equiv_pos_site_id
 _symmetry_equiv_pos_as_xyz
  1  'x, y, z'
loop_
 _atom_site_type_symbol
 _atom_site_label
 _atom_site_symmetry_multiplicity
 _atom_site_fract_x
 _atom_site_fract_y
 _atom_site_fract_z
 _atom_site_occupancy
  Ce  Ce0  1  0.66740203  0.33480400  0.49999998  1
  Ce  Ce1  1  0.16694901  0.33389800  -0.00000000  1
  Sn  Sn2  1  0.66677503  0.33355000  -0.00000000  1
  Sn  Sn3  1  0.67116404  0.83454699  0.49999998  1
  Sn  Sn4  1  0.66629304  0.83334399  -0.00000000  1
  Sn  Sn5  1  0.16338303  0.83454699  0.49999998  1
  Sn  Sn6  1  0.16705103  0.83334399  -0.00000000  1
  Sn  Sn7  1  0.83333502  0.16453200  0.75498897  1
  Sn  Sn8  1  0.83333502  0.16453200  0.24501099  1
  Sn  Sn9  1  0.33119701  0.16453200  0.75498897  1
  Sn  Sn10  1  0.33119701  0.16453200  0.24501099  1
  Sn  Sn11  1  0.33415403  0.66830800  0.74755497  1
  Sn  Sn12  1  0.33415403  0.66830800  0.25244499  1
  Sn  Sn13  1  0.83467704  0.66935400  0.75476997  1
  Sn  Sn14  1  0.83467704  0.66935400  0.24522999  1
  Sn  Sn15  1  0.16424801  0.32849600  0.49999998  1
