# generated using pymatgen
data_Ce5Sb3
_symmetry_space_group_name_H-M   'P 1'
_cell_length_a   8.00860786
_cell_length_b   8.00860786
_cell_length_c   8.41478539
_cell_angle_alpha   118.41570282
_cell_angle_beta   118.41570282
_cell_angle_gamma   90.00000000
_symmetry_Int_Tables_number   1
_chemical_formula_structural   Ce5Sb3
_chemical_formula_sum   'Ce10 Sb6'
_cell_volume   399.20156913
_cell_formula_units_Z   2
loop_
 _symmetry_equiv_pos_site_id
 _symmetry_equiv_pos_as_xyz
  1  'x, y, z'
loop_
 _atom_site_type_symbol
 _atom_site_label
 _atom_site_symmetry_multiplicity
 _atom_site_fract_x
 _atom_site_fract_y
 _atom_site_fract_z
 _atom_site_occupancy
  Ce  Ce0  1  0.50000006  0.50000003  0.00000007  1
  Ce  Ce1  1  0.00000000  0.00000000  0.00000000  1
  Ce  Ce2  1  0.48439409  0.98439406  0.32046914  1
  Ce  Ce3  1  0.83607506  0.33607502  0.32046909  1
  Ce  Ce4  1  0.98439410  0.83607505  0.32046915  1
  Ce  Ce5  1  0.33607505  0.48439403  0.32046908  1
  Ce  Ce6  1  0.51560602  0.01560600  0.67953106  1
  Ce  Ce7  1  0.16392506  0.66392504  0.67953111  1
  Ce  Ce8  1  0.01560601  0.16392501  0.67953105  1
  Ce  Ce9  1  0.66392507  0.51560603  0.67953112  1
  Sb  Sb10  1  0.12098005  0.62098004  0.00000007  1
  Sb  Sb11  1  0.87902007  0.37902002  0.00000008  1
  Sb  Sb12  1  0.62098009  0.87902006  0.00000012  1
  Sb  Sb13  1  0.37902003  0.12098001  0.00000003  1
  Sb  Sb14  1  0.75000009  0.75000005  0.50000014  1
  Sb  Sb15  1  0.25000003  0.25000002  0.50000006  1
