# generated using pymatgen
data_Cr2FeSi
_symmetry_space_group_name_H-M   'P 1'
_cell_length_a   3.07934999
_cell_length_b   4.48080158
_cell_length_c   4.48080158
_cell_angle_alpha   78.41396332
_cell_angle_beta   69.90266418
_cell_angle_gamma   69.90266418
_symmetry_Int_Tables_number   1
_chemical_formula_structural   Cr2FeSi
_chemical_formula_sum   'Cr2 Fe1 Si1'
_cell_volume   54.28534929
_cell_formula_units_Z   1
loop_
 _symmetry_equiv_pos_site_id
 _symmetry_equiv_pos_as_xyz
  1  'x, y, z'
loop_
 _atom_site_type_symbol
 _atom_site_label
 _atom_site_symmetry_multiplicity
 _atom_site_fract_x
 _atom_site_fract_y
 _atom_site_fract_z
 _atom_site_occupancy
  Cr  Cr0  1  0.99999997  0.50000002  0.49999999  1
  Cr  Cr1  1  0.50000001  0.00000000  -0.00000002  1
  Fe  Fe2  1  0.74999996  0.47290302  0.02709699  1
  Si  Si3  1  0.24999994  0.52709702  0.97290304  1
