# generated using pymatgen
data_Li3FeNi3O8
_symmetry_space_group_name_H-M   'P 1'
_cell_length_a   5.72036314
_cell_length_b   5.76699114
_cell_length_c   5.83804989
_cell_angle_alpha   91.96485138
_cell_angle_beta   118.70171356
_cell_angle_gamma   118.40319061
_symmetry_Int_Tables_number   1
_chemical_formula_structural   Li3FeNi3O8
_chemical_formula_sum   'Li3 Fe1 Ni3 O8'
_cell_volume   139.71360510
_cell_formula_units_Z   1
loop_
 _symmetry_equiv_pos_site_id
 _symmetry_equiv_pos_as_xyz
  1  'x, y, z'
loop_
 _atom_site_type_symbol
 _atom_site_label
 _atom_site_symmetry_multiplicity
 _atom_site_fract_x
 _atom_site_fract_y
 _atom_site_fract_z
 _atom_site_occupancy
  Li  Li0  1  0.50000002  0.50000003  0.50000001  1
  Li  Li1  1  0.49999998  0.00000000  0.49999997  1
  Li  Li2  1  0.00000000  0.00000000  0.49999999  1
  Fe  Fe3  1  0.00000000  0.00000000  0.00000000  1
  Ni  Ni4  1  0.49999998  0.00000000  -0.00000002  1
  Ni  Ni5  1  0.50000002  0.50000003  0.00000002  1
  Ni  Ni6  1  0.00000004  0.50000003  0.00000004  1
  O  O7  1  0.53990300  0.28839302  0.77955299  1
  O  O8  1  0.99216998  0.23486702  0.78324397  1
  O  O9  1  0.04075806  0.79063905  0.78266004  1
  O  O10  1  0.46009703  0.71160705  0.22044703  1
  O  O11  1  0.50860103  0.74888405  0.78756102  1
  O  O12  1  0.00783006  0.76513305  0.21675606  1
  O  O13  1  0.95924197  0.20936101  0.21733998  1
  O  O14  1  0.49139900  0.25111602  0.21243900  1
