# generated using pymatgen
data_AlBr2
_symmetry_space_group_name_H-M   'P 1'
_cell_length_a   6.69324923
_cell_length_b   6.69324923
_cell_length_c   6.69324923
_cell_angle_alpha   90.00000000
_cell_angle_beta   90.00000000
_cell_angle_gamma   90.00000000
_symmetry_Int_Tables_number   1
_chemical_formula_structural   AlBr2
_chemical_formula_sum   'Al4 Br8'
_cell_volume   299.85478892
_cell_formula_units_Z   4
loop_
 _symmetry_equiv_pos_site_id
 _symmetry_equiv_pos_as_xyz
  1  'x, y, z'
loop_
 _atom_site_type_symbol
 _atom_site_label
 _atom_site_symmetry_multiplicity
 _atom_site_fract_x
 _atom_site_fract_y
 _atom_site_fract_z
 _atom_site_occupancy
  Al  Al0  1  0.00000000  0.00000000  0.00000000  1
  Al  Al1  1  0.49999998  0.00000000  0.49999998  1
  Al  Al2  1  0.49999998  0.49999998  0.00000000  1
  Al  Al3  1  -0.00000000  0.49999998  0.49999998  1
  Br  Br4  1  0.36566999  0.36566999  0.36566999  1
  Br  Br5  1  0.13433000  0.63432998  0.86566997  1
  Br  Br6  1  0.86566997  0.13433000  0.63432998  1
  Br  Br7  1  0.63432998  0.86566997  0.13433000  1
  Br  Br8  1  0.63432998  0.63432998  0.63432998  1
  Br  Br9  1  0.86566997  0.36566999  0.13433000  1
  Br  Br10  1  0.13433000  0.86566997  0.36566999  1
  Br  Br11  1  0.36566999  0.13433000  0.86566997  1
