# generated using pymatgen
data_CdAg2S3
_symmetry_space_group_name_H-M   'P 1'
_cell_length_a   4.16447210
_cell_length_b   4.16447258
_cell_length_c   10.12669468
_cell_angle_alpha   90.00000000
_cell_angle_beta   90.00000000
_cell_angle_gamma   120.00000000
_symmetry_Int_Tables_number   1
_chemical_formula_structural   CdAg2S3
_chemical_formula_sum   'Cd1 Ag2 S3'
_cell_volume   152.09618188
_cell_formula_units_Z   1
loop_
 _symmetry_equiv_pos_site_id
 _symmetry_equiv_pos_as_xyz
  1  'x, y, z'
loop_
 _atom_site_type_symbol
 _atom_site_label
 _atom_site_symmetry_multiplicity
 _atom_site_fract_x
 _atom_site_fract_y
 _atom_site_fract_z
 _atom_site_occupancy
  Ag  Ag0  1  0.66666667  0.33333333  0.33662301  1
  Cd  Cd1  1  0.00000000  0.00000000  0.00487300  1
  Ag  Ag2  1  0.33333337  0.66666666  0.65729102  1
  S  S3  1  0.00000000  0.00000000  0.75084502  1
  S  S4  1  0.33333337  0.66666666  0.40045301  1
  S  S5  1  0.66666667  0.33333333  0.09991400  1
