# generated using pymatgen
data_Al2P2HO7
_symmetry_space_group_name_H-M   'P 1'
_cell_length_a   5.33597422
_cell_length_b   5.33597374
_cell_length_c   8.71484280
_cell_angle_alpha   90.00000000
_cell_angle_beta   90.00000000
_cell_angle_gamma   120.00000000
_symmetry_Int_Tables_number   1
_chemical_formula_structural   Al2P2HO7
_chemical_formula_sum   'Al2 P2 H1 O7'
_cell_volume   214.89068740
_cell_formula_units_Z   1
loop_
 _symmetry_equiv_pos_site_id
 _symmetry_equiv_pos_as_xyz
  1  'x, y, z'
loop_
 _atom_site_type_symbol
 _atom_site_label
 _atom_site_symmetry_multiplicity
 _atom_site_fract_x
 _atom_site_fract_y
 _atom_site_fract_z
 _atom_site_occupancy
  Al  Al0  1  0.33333332  0.66666669  0.43794201  1
  Al  Al1  1  0.66666664  0.33333335  0.93794202  1
  P  P2  1  0.66666664  0.33333335  0.56303101  1
  P  P3  1  0.33333332  0.66666669  0.06303100  1
  H  H4  1  0.48932998  0.51067002  0.00458700  1
  O  O5  1  0.51066998  0.02134000  0.50458701  1
  O  O6  1  0.51066998  0.48933002  0.50458701  1
  O  O7  1  0.33333332  0.66666669  0.23846801  1
  O  O8  1  0.66666664  0.33333335  0.73846802  1
  O  O9  1  0.02134000  0.51067002  0.00458700  1
  O  O10  1  0.48932998  0.97866004  0.00458700  1
  O  O11  1  0.97865996  0.48933002  0.50458701  1
