# generated using pymatgen
data_KRbP3I(Cl2O3)2
_symmetry_space_group_name_H-M   'P 1'
_cell_length_a   6.32733393
_cell_length_b   6.43655777
_cell_length_c   8.04813671
_cell_angle_alpha   90.00000000
_cell_angle_beta   90.00000000
_cell_angle_gamma   90.00000000
_symmetry_Int_Tables_number   1
_chemical_formula_structural   KRbP3I(Cl2O3)2
_chemical_formula_sum   'K1 Rb1 P3 I1 Cl4 O6'
_cell_volume   327.77043055
_cell_formula_units_Z   1
loop_
 _symmetry_equiv_pos_site_id
 _symmetry_equiv_pos_as_xyz
  1  'x, y, z'
loop_
 _atom_site_type_symbol
 _atom_site_label
 _atom_site_symmetry_multiplicity
 _atom_site_fract_x
 _atom_site_fract_y
 _atom_site_fract_z
 _atom_site_occupancy
  K  K0  1  0.25000000  0.65099702  0.69575402  1
  Rb  Rb1  1  0.25000000  0.15099701  0.80424603  1
  I  I2  1  0.75000001  0.34900301  0.30424601  1
  P  P3  1  0.75000001  0.84900303  0.19575401  1
  P  P4  1  0.00000000  0.00000000  0.50000002  1
  P  P5  1  0.50000001  0.50000002  0.00000000  1
  Cl  Cl6  1  0.50000001  0.00000000  0.50000002  1
  Cl  Cl7  1  0.00000000  0.50000002  0.00000000  1
  Cl  Cl8  1  0.25000000  0.41980102  0.38125801  1
  O  O9  1  0.25000000  0.91980103  0.11874200  1
  Cl  Cl10  1  0.75000001  0.58019902  0.61874202  1
  O  O11  1  0.75000001  0.08019900  0.88125803  1
  O  O12  1  0.25000000  0.44213002  0.87335503  1
  O  O13  1  0.25000000  0.94213003  0.62664502  1
  O  O14  1  0.75000001  0.55787002  0.12664500  1
  O  O15  1  0.75000001  0.05787000  0.37335501  1
