# generated using pymatgen
data_Li2Be3C4
_symmetry_space_group_name_H-M   'P 1'
_cell_length_a   3.04306197
_cell_length_b   3.04306197
_cell_length_c   10.31042480
_cell_angle_alpha   90.00000000
_cell_angle_beta   90.00000000
_cell_angle_gamma   120.00000000
_symmetry_Int_Tables_number   1
_chemical_formula_structural   Li2Be3C4
_chemical_formula_sum   'Li2 Be3 C4'
_cell_volume   82.68539102
_cell_formula_units_Z   1
loop_
 _symmetry_equiv_pos_site_id
 _symmetry_equiv_pos_as_xyz
  1  'x, y, z'
loop_
 _atom_site_type_symbol
 _atom_site_label
 _atom_site_symmetry_multiplicity
 _atom_site_fract_x
 _atom_site_fract_y
 _atom_site_fract_z
 _atom_site_occupancy
  Li  Li0  1  0.00000000  0.00000000  0.33553301  1
  Li  Li1  1  0.00000000  0.00000000  0.66446701  1
  Be  Be2  1  0.00000000  0.00000000  0.00000000  1
  Be  Be3  1  0.33333334  0.66666667  0.15933000  1
  C  C4  1  0.33333334  0.66666667  0.50000001  1
  Be  Be5  1  0.33333334  0.66666667  0.84067002  1
  C  C6  1  0.66666667  0.33333334  0.15933000  1
  C  C7  1  0.66666667  0.33333334  0.50000001  1
  C  C8  1  0.66666667  0.33333334  0.84067002  1
