# generated using pymatgen
data_ErNiO3
_symmetry_space_group_name_H-M   'P 1'
_cell_length_a   5.18422985
_cell_length_b   5.65831804
_cell_length_c   7.40740490
_cell_angle_alpha   90.00000000
_cell_angle_beta   90.00000000
_cell_angle_gamma   90.00000000
_symmetry_Int_Tables_number   1
_chemical_formula_structural   ErNiO3
_chemical_formula_sum   'Er4 Ni4 O12'
_cell_volume   217.28897312
_cell_formula_units_Z   4
loop_
 _symmetry_equiv_pos_site_id
 _symmetry_equiv_pos_as_xyz
  1  'x, y, z'
loop_
 _atom_site_type_symbol
 _atom_site_label
 _atom_site_symmetry_multiplicity
 _atom_site_fract_x
 _atom_site_fract_y
 _atom_site_fract_z
 _atom_site_occupancy
  Er  Er0  1  0.47714601  0.41769700  0.75000001  1
  Er  Er1  1  0.02285400  0.91769699  0.75000001  1
  Er  Er2  1  0.52285402  0.58230300  0.25000000  1
  Er  Er3  1  0.97714603  0.08230300  0.25000000  1
  Ni  Ni4  1  0.00000000  0.50000000  0.00000000  1
  Ni  Ni5  1  0.50000001  0.00000000  0.50000001  1
  Ni  Ni6  1  0.00000000  0.50000000  0.50000001  1
  Ni  Ni7  1  0.50000001  0.00000000  0.00000000  1
  O  O8  1  0.69606202  0.31186000  0.44717501  1
  O  O9  1  0.80393802  0.81185999  0.05282500  1
  O  O10  1  0.30393801  0.68813999  0.55282501  1
  O  O11  1  0.19606201  0.18814000  0.94717501  1
  O  O12  1  0.19606201  0.18814000  0.55282501  1
  O  O13  1  0.30393801  0.68813999  0.94717501  1
  O  O14  1  0.80393802  0.81185999  0.44717501  1
  O  O15  1  0.69606202  0.31186000  0.05282500  1
  O  O16  1  0.10903600  0.46734200  0.25000000  1
  O  O17  1  0.39096401  0.96734199  0.25000000  1
  O  O18  1  0.89096403  0.53265800  0.75000001  1
  O  O19  1  0.60903602  0.03265800  0.75000001  1
