# generated using pymatgen
data_UCo2
_symmetry_space_group_name_H-M   'P 1'
_cell_length_a   4.91770983
_cell_length_b   4.94592190
_cell_length_c   4.94592190
_cell_angle_alpha   60.20318604
_cell_angle_beta   60.18851089
_cell_angle_gamma   60.18851089
_symmetry_Int_Tables_number   1
_chemical_formula_structural   UCo2
_chemical_formula_sum   'U2 Co4'
_cell_volume   85.43587060
_cell_formula_units_Z   2
loop_
 _symmetry_equiv_pos_site_id
 _symmetry_equiv_pos_as_xyz
  1  'x, y, z'
loop_
 _atom_site_type_symbol
 _atom_site_label
 _atom_site_symmetry_multiplicity
 _atom_site_fract_x
 _atom_site_fract_y
 _atom_site_fract_z
 _atom_site_occupancy
  U  U0  1  0.24844600  0.25155399  0.25155400  1
  U  U1  1  0.00155399  0.99844597  0.99844601  1
  Co  Co2  1  0.62500000  0.62499998  0.62500001  1
  Co  Co3  1  0.12500000  0.62499998  0.62500000  1
  Co  Co4  1  0.62500000  0.12500000  0.62499999  1
  Co  Co5  1  0.62500000  0.62499998  0.12500002  1
