# generated using pymatgen
data_Ba(InAu)2
_symmetry_space_group_name_H-M   'P 1'
_cell_length_a   4.81598520
_cell_length_b   4.81598520
_cell_length_c   11.41874981
_cell_angle_alpha   90.00000000
_cell_angle_beta   90.00000000
_cell_angle_gamma   90.00000000
_symmetry_Int_Tables_number   1
_chemical_formula_structural   Ba(InAu)2
_chemical_formula_sum   'Ba2 In4 Au4'
_cell_volume   264.84321130
_cell_formula_units_Z   2
loop_
 _symmetry_equiv_pos_site_id
 _symmetry_equiv_pos_as_xyz
  1  'x, y, z'
loop_
 _atom_site_type_symbol
 _atom_site_label
 _atom_site_symmetry_multiplicity
 _atom_site_fract_x
 _atom_site_fract_y
 _atom_site_fract_z
 _atom_site_occupancy
  Ba  Ba0  1  0.00000000  0.49999998  0.75816201  1
  Ba  Ba1  1  0.49999998  0.00000000  0.24183800  1
  In  In2  1  0.00000000  0.49999998  0.36433901  1
  In  In3  1  0.49999998  0.00000000  0.63566101  1
  In  In4  1  0.49999998  0.49999998  0.00000000  1
  In  In5  1  0.00000000  0.00000000  0.00000000  1
  Au  Au6  1  0.49999998  0.00000000  0.87256101  1
  Au  Au7  1  0.00000000  0.49999998  0.12743900  1
  Au  Au8  1  0.49999998  0.49999998  0.50000001  1
  Au  Au9  1  0.00000000  0.00000000  0.50000001  1
