# generated using pymatgen
data_Nb5Ge3
_symmetry_space_group_name_H-M   'P 1'
_cell_length_a   5.33025885
_cell_length_b   7.81528187
_cell_length_c   7.81528139
_cell_angle_alpha   120.00000000
_cell_angle_beta   90.00000000
_cell_angle_gamma   90.00000000
_symmetry_Int_Tables_number   1
_chemical_formula_structural   Nb5Ge3
_chemical_formula_sum   'Nb10 Ge6'
_cell_volume   281.94746672
_cell_formula_units_Z   2
loop_
 _symmetry_equiv_pos_site_id
 _symmetry_equiv_pos_as_xyz
  1  'x, y, z'
loop_
 _atom_site_type_symbol
 _atom_site_label
 _atom_site_symmetry_multiplicity
 _atom_site_fract_x
 _atom_site_fract_y
 _atom_site_fract_z
 _atom_site_occupancy
  Nb  Nb0  1  0.25000001  0.25096700  0.99999998  1
  Nb  Nb1  1  0.25000001  0.74903299  0.74903295  1
  Nb  Nb2  1  0.25000001  0.00000000  0.25096700  1
  Nb  Nb3  1  0.75000002  0.74903299  -0.00000004  1
  Nb  Nb4  1  0.75000002  0.25096700  0.25096698  1
  Nb  Nb5  1  0.75000002  0.00000000  0.74903300  1
  Nb  Nb6  1  -0.00000000  0.33333333  0.66666664  1
  Nb  Nb7  1  -0.00000000  0.66666666  0.33333329  1
  Nb  Nb8  1  0.50000001  0.66666666  0.33333329  1
  Nb  Nb9  1  0.50000001  0.33333333  0.66666664  1
  Ge  Ge10  1  0.25000001  0.60139999  -0.00000003  1
  Ge  Ge11  1  0.25000001  0.39860000  0.39859998  1
  Ge  Ge12  1  0.25000001  0.00000000  0.60140000  1
  Ge  Ge13  1  0.75000002  0.39860000  0.99999997  1
  Ge  Ge14  1  0.75000002  0.60139999  0.60139996  1
  Ge  Ge15  1  0.75000002  0.00000000  0.39860000  1
