# generated using pymatgen
data_Li7Cr2NiO10
_symmetry_space_group_name_H-M   'P 1'
_cell_length_a   5.19347382
_cell_length_b   5.99482727
_cell_length_c   6.71378994
_cell_angle_alpha   102.91345978
_cell_angle_beta   97.48037720
_cell_angle_gamma   106.77088165
_symmetry_Int_Tables_number   1
_chemical_formula_structural   Li7Cr2NiO10
_chemical_formula_sum   'Li7 Cr2 Ni1 O10'
_cell_volume   190.78340352
_cell_formula_units_Z   1
loop_
 _symmetry_equiv_pos_site_id
 _symmetry_equiv_pos_as_xyz
  1  'x, y, z'
loop_
 _atom_site_type_symbol
 _atom_site_label
 _atom_site_symmetry_multiplicity
 _atom_site_fract_x
 _atom_site_fract_y
 _atom_site_fract_z
 _atom_site_occupancy
  Li  Li0  1  0.00000000  0.00000000  0.00000000  1
  Li  Li1  1  -0.00000001  0.50000002  0.00000002  1
  Li  Li2  1  0.40027800  0.79946603  0.79939801  1
  Li  Li3  1  0.40024201  0.30019901  0.79908698  1
  Li  Li4  1  0.20033300  0.40068401  0.40124300  1
  Li  Li5  1  0.79966701  0.59931602  0.59875699  1
  Li  Li6  1  0.79946702  0.10017200  0.59970196  1
  Cr  Cr7  1  0.20053299  0.89982803  0.40029803  1
  Cr  Cr8  1  0.59975800  0.69980102  0.20091301  1
  Ni  Ni9  1  0.59972201  0.20053401  0.20060198  1
  O  O10  1  0.69615702  0.15153201  0.89928996  1
  O  O11  1  0.09920599  0.45032202  0.70047400  1
  O  O12  1  0.69659401  0.64597702  0.89845399  1
  O  O13  1  0.10059198  0.94893303  0.69617503  1
  O  O14  1  0.50006101  0.25002401  0.49893198  1
  O  O15  1  0.49993900  0.74997603  0.50106801  1
  O  O16  1  0.30340600  0.35402301  0.10154600  1
  O  O17  1  0.90079402  0.54967802  0.29952599  1
  O  O18  1  0.89940803  0.05106700  0.30382496  1
  O  O19  1  0.30384299  0.84846803  0.10071003  1
