# generated using pymatgen
data_LuPb2
_symmetry_space_group_name_H-M   'P 1'
_cell_length_a   5.05846214
_cell_length_b   5.05846167
_cell_length_c   6.29980278
_cell_angle_alpha   90.00000000
_cell_angle_beta   90.00000000
_cell_angle_gamma   120.00000000
_symmetry_Int_Tables_number   1
_chemical_formula_structural   LuPb2
_chemical_formula_sum   'Lu2 Pb4'
_cell_volume   139.60293623
_cell_formula_units_Z   2
loop_
 _symmetry_equiv_pos_site_id
 _symmetry_equiv_pos_as_xyz
  1  'x, y, z'
loop_
 _atom_site_type_symbol
 _atom_site_label
 _atom_site_symmetry_multiplicity
 _atom_site_fract_x
 _atom_site_fract_y
 _atom_site_fract_z
 _atom_site_occupancy
  Lu  Lu0  1  0.00000000  0.00000000  0.00000000  1
  Lu  Lu1  1  0.00000000  0.00000000  0.50000002  1
  Pb  Pb2  1  0.66666662  0.33333331  0.25000001  1
  Pb  Pb3  1  0.33333328  0.66666662  0.75000003  1
  Pb  Pb4  1  0.66666662  0.33333331  0.75000003  1
  Pb  Pb5  1  0.33333328  0.66666662  0.25000001  1
