# generated using pymatgen
data_Hf5Pt3
_symmetry_space_group_name_H-M   'P 1'
_cell_length_a   5.56725597
_cell_length_b   7.99342585
_cell_length_c   7.99342537
_cell_angle_alpha   120.00000000
_cell_angle_beta   90.00000000
_cell_angle_gamma   90.00000000
_symmetry_Int_Tables_number   1
_chemical_formula_structural   Hf5Pt3
_chemical_formula_sum   'Hf10 Pt6'
_cell_volume   308.06169213
_cell_formula_units_Z   2
loop_
 _symmetry_equiv_pos_site_id
 _symmetry_equiv_pos_as_xyz
  1  'x, y, z'
loop_
 _atom_site_type_symbol
 _atom_site_label
 _atom_site_symmetry_multiplicity
 _atom_site_fract_x
 _atom_site_fract_y
 _atom_site_fract_z
 _atom_site_occupancy
  Hf  Hf0  1  1.00000000  0.66666666  0.33333328  1
  Hf  Hf1  1  0.50000000  0.33333333  0.66666662  1
  Hf  Hf2  1  1.00000000  0.33333333  0.66666662  1
  Hf  Hf3  1  0.50000000  0.66666666  0.33333328  1
  Hf  Hf4  1  0.75000000  0.74747499  0.74747493  1
  Hf  Hf5  1  0.25000000  0.74747499  -0.00000005  1
  Hf  Hf6  1  0.25000000  0.00000000  0.74747498  1
  Hf  Hf7  1  0.75000000  0.00000000  0.25252499  1
  Hf  Hf8  1  0.75000000  0.25252500  -0.00000002  1
  Hf  Hf9  1  0.25000000  0.25252500  0.25252498  1
  Pt  Pt10  1  0.75000000  0.38973099  0.38973096  1
  Pt  Pt11  1  0.25000000  0.38973099  -0.00000003  1
  Pt  Pt12  1  0.25000000  0.00000000  0.38973099  1
  Pt  Pt13  1  0.75000000  0.00000000  0.61026898  1
  Pt  Pt14  1  0.75000000  0.61026899  -0.00000004  1
  Pt  Pt15  1  0.25000000  0.61026899  0.61026894  1
