# generated using pymatgen
data_Ca2TiO4
_symmetry_space_group_name_H-M   'P 1'
_cell_length_a   5.50738382
_cell_length_b   5.51286221
_cell_length_c   6.78647757
_cell_angle_alpha   66.03583527
_cell_angle_beta   90.00000000
_cell_angle_gamma   90.00000000
_symmetry_Int_Tables_number   1
_chemical_formula_structural   Ca2TiO4
_chemical_formula_sum   'Ca4 Ti2 O8'
_cell_volume   188.28594244
_cell_formula_units_Z   2
loop_
 _symmetry_equiv_pos_site_id
 _symmetry_equiv_pos_as_xyz
  1  'x, y, z'
loop_
 _atom_site_type_symbol
 _atom_site_label
 _atom_site_symmetry_multiplicity
 _atom_site_fract_x
 _atom_site_fract_y
 _atom_site_fract_z
 _atom_site_occupancy
  Ca  Ca0  1  0.75000002  0.89540897  0.20918200  1
  Ca  Ca1  1  0.25000001  0.10459100  0.79081801  1
  Ca  Ca2  1  0.25000001  0.39175799  0.21648400  1
  Ca  Ca3  1  0.75000002  0.60824198  0.78351601  1
  Ti  Ti4  1  0.75000002  0.24582599  0.50834800  1
  Ti  Ti5  1  0.25000001  0.75417397  0.49165201  1
  O  O6  1  0.75000002  0.07960100  0.84079801  1
  O  O7  1  0.25000001  0.57765798  0.84468401  1
  O  O8  1  0.75000002  0.42234198  0.15531600  1
  O  O9  1  0.25000001  0.92039897  0.15920200  1
  O  O10  1  0.96739103  0.97078596  0.49349601  1
  O  O11  1  0.53260902  0.53571798  0.49349600  1
  O  O12  1  0.46739101  0.02921400  0.50650400  1
  O  O13  1  0.03260900  0.46428198  0.50650400  1
