# generated using pymatgen
data_Tm2C3
_symmetry_space_group_name_H-M   'P 1'
_cell_length_a   6.95131063
_cell_length_b   6.95131063
_cell_length_c   6.95131063
_cell_angle_alpha   109.47122192
_cell_angle_beta   109.47122192
_cell_angle_gamma   109.47122192
_symmetry_Int_Tables_number   1
_chemical_formula_structural   Tm2C3
_chemical_formula_sum   'Tm8 C12'
_cell_volume   258.57002508
_cell_formula_units_Z   4
loop_
 _symmetry_equiv_pos_site_id
 _symmetry_equiv_pos_as_xyz
  1  'x, y, z'
loop_
 _atom_site_type_symbol
 _atom_site_label
 _atom_site_symmetry_multiplicity
 _atom_site_fract_x
 _atom_site_fract_y
 _atom_site_fract_z
 _atom_site_occupancy
  Tm  Tm0  1  0.00000003  0.50000001  0.59862602  1
  Tm  Tm1  1  0.40137402  0.40137401  0.90137402  1
  Tm  Tm2  1  0.50000000  0.09862600  0.50000001  1
  Tm  Tm3  1  0.09862600  0.00000000  0.00000000  1
  Tm  Tm4  1  0.90137405  0.90137402  0.40137407  1
  Tm  Tm5  1  1.00000002  0.50000001  0.09862605  1
  Tm  Tm6  1  0.50000003  0.59862601  0.50000004  1
  Tm  Tm7  1  0.59862600  0.00000000  1.00000000  1
  C  C8  1  0.96341301  0.21341300  0.75000002  1
  C  C9  1  0.53658701  0.28658701  0.25000002  1
  C  C10  1  0.71341302  0.46341301  0.25000004  1
  C  C11  1  0.78658700  0.03658700  0.75000001  1
  C  C12  1  0.21341301  0.25000001  0.46341301  1
  C  C13  1  0.28658705  0.75000002  0.03658705  1
  C  C14  1  0.46341304  0.75000002  0.21341305  1
  C  C15  1  0.03658702  0.25000001  0.28658701  1
  C  C16  1  0.75000003  0.53658701  0.78658703  1
  C  C17  1  0.25000006  0.96341302  0.71341305  1
  C  C18  1  0.25000005  0.78658702  0.53658704  1
  C  C19  1  0.75000004  0.71341302  0.96341304  1
