# generated using pymatgen
data_ZnNi5O8
_symmetry_space_group_name_H-M   'P 1'
_cell_length_a   5.93989325
_cell_length_b   5.93989325
_cell_length_c   5.93989325
_cell_angle_alpha   91.35462952
_cell_angle_beta   119.13549042
_cell_angle_gamma   119.30660248
_symmetry_Int_Tables_number   1
_chemical_formula_structural   ZnNi5O8
_chemical_formula_sum   'Zn1 Ni5 O8'
_cell_volume   149.88972317
_cell_formula_units_Z   1
loop_
 _symmetry_equiv_pos_site_id
 _symmetry_equiv_pos_as_xyz
  1  'x, y, z'
loop_
 _atom_site_type_symbol
 _atom_site_label
 _atom_site_symmetry_multiplicity
 _atom_site_fract_x
 _atom_site_fract_y
 _atom_site_fract_z
 _atom_site_occupancy
  Zn  Zn0  1  0.00000000  0.00000000  0.49999999  1
  Ni  Ni1  1  0.49999998  0.00000000  -0.00000002  1
  Ni  Ni2  1  0.00000002  0.50000000  0.50000000  1
  Ni  Ni3  1  0.74999999  0.62161200  0.87161197  1
  Ni  Ni4  1  0.25000000  0.37838800  0.12838800  1
  Ni  Ni5  1  0.49999998  0.00000000  0.49999997  1
  O  O6  1  0.51894799  0.24129300  0.26024098  1
  O  O7  1  0.98105197  0.24129400  0.72234496  1
  O  O8  1  0.51853600  0.78379899  0.26526200  1
  O  O9  1  0.98146397  0.24672700  0.26526297  1
  O  O10  1  0.01853602  0.75327299  0.73473700  1
  O  O11  1  0.48146399  0.21620100  0.73473797  1
  O  O12  1  0.01894802  0.75870599  0.27765501  1
  O  O13  1  0.48105201  0.75870699  0.73975899  1
