# generated using pymatgen
data_ZrZn2
_symmetry_space_group_name_H-M   'P 1'
_cell_length_a   5.30207586
_cell_length_b   5.30207634
_cell_length_c   8.55175781
_cell_angle_alpha   90.00000000
_cell_angle_beta   90.00000000
_cell_angle_gamma   120.00000000
_symmetry_Int_Tables_number   1
_chemical_formula_structural   ZrZn2
_chemical_formula_sum   'Zr4 Zn8'
_cell_volume   208.19866413
_cell_formula_units_Z   4
loop_
 _symmetry_equiv_pos_site_id
 _symmetry_equiv_pos_as_xyz
  1  'x, y, z'
loop_
 _atom_site_type_symbol
 _atom_site_label
 _atom_site_symmetry_multiplicity
 _atom_site_fract_x
 _atom_site_fract_y
 _atom_site_fract_z
 _atom_site_occupancy
  Zr  Zr0  1  0.66666670  0.33333335  0.94452102  1
  Zr  Zr1  1  0.33333338  0.66666670  0.44452101  1
  Zr  Zr2  1  0.66666670  0.33333335  0.55547901  1
  Zr  Zr3  1  0.33333338  0.66666670  0.05547900  1
  Zn  Zn4  1  0.16512105  0.83487804  0.75000002  1
  Zn  Zn5  1  0.83487906  0.66975803  0.25000001  1
  Zn  Zn6  1  0.33024302  0.16512201  0.25000001  1
  Zn  Zn7  1  0.66975706  0.83487804  0.75000002  1
  Zn  Zn8  1  0.16512102  0.33024201  0.75000002  1
  Zn  Zn9  1  0.83487903  0.16512201  0.25000001  1
  Zn  Zn10  1  0.00000000  0.00000000  0.50000001  1
  Zn  Zn11  1  0.00000000  0.00000000  0.00000000  1
