# generated using pymatgen
data_ZrGa12
_symmetry_space_group_name_H-M   'P 1'
_cell_length_a   5.45645189
_cell_length_b   5.45645189
_cell_length_c   9.01465321
_cell_angle_alpha   90.00000000
_cell_angle_beta   90.00000000
_cell_angle_gamma   120.00000000
_symmetry_Int_Tables_number   1
_chemical_formula_structural   ZrGa12
_chemical_formula_sum   'Zr1 Ga12'
_cell_volume   232.43435364
_cell_formula_units_Z   1
loop_
 _symmetry_equiv_pos_site_id
 _symmetry_equiv_pos_as_xyz
  1  'x, y, z'
loop_
 _atom_site_type_symbol
 _atom_site_label
 _atom_site_symmetry_multiplicity
 _atom_site_fract_x
 _atom_site_fract_y
 _atom_site_fract_z
 _atom_site_occupancy
  Zr  Zr0  1  0.00000000  0.00000000  0.00000000  1
  Ga  Ga1  1  0.50000001  0.00000000  0.24897599  1
  Ga  Ga2  1  0.50000001  0.50000000  0.24897599  1
  Ga  Ga3  1  -0.00000000  0.50000000  0.24897599  1
  Ga  Ga4  1  0.50000001  0.00000000  0.75102398  1
  Ga  Ga5  1  0.50000001  0.50000000  0.75102398  1
  Ga  Ga6  1  -0.00000000  0.50000000  0.75102398  1
  Ga  Ga7  1  0.33333334  0.66666667  -0.00000000  1
  Ga  Ga8  1  0.66666668  0.33333334  0.99999998  1
  Ga  Ga9  1  0.33333334  0.66666667  0.49999999  1
  Ga  Ga10  1  0.66666668  0.33333334  0.49999999  1
  Ga  Ga11  1  0.00000000  0.00000000  0.33313899  1
  Ga  Ga12  1  0.00000000  0.00000000  0.66686098  1
