# generated using pymatgen
data_Ba4SiO11
_symmetry_space_group_name_H-M   'P 1'
_cell_length_a   5.75197887
_cell_length_b   5.95860720
_cell_length_c   7.57313299
_cell_angle_alpha   90.00000000
_cell_angle_beta   90.00000000
_cell_angle_gamma   114.07121277
_symmetry_Int_Tables_number   1
_chemical_formula_structural   Ba4SiO11
_chemical_formula_sum   'Ba4 Si1 O11'
_cell_volume   236.98838208
_cell_formula_units_Z   1
loop_
 _symmetry_equiv_pos_site_id
 _symmetry_equiv_pos_as_xyz
  1  'x, y, z'
loop_
 _atom_site_type_symbol
 _atom_site_label
 _atom_site_symmetry_multiplicity
 _atom_site_fract_x
 _atom_site_fract_y
 _atom_site_fract_z
 _atom_site_occupancy
  Ba  Ba0  1  0.67693800  0.31917500  0.92600700  1
  Ba  Ba1  1  0.82306198  0.68082499  0.42600700  1
  Ba  Ba2  1  0.32306196  0.68082499  0.07399300  1
  Ba  Ba3  1  0.17693798  0.31917500  0.57399300  1
  O  O4  1  0.58367601  0.10172000  0.36575700  1
  Si  Si5  1  0.91632396  0.89827999  0.86575700  1
  O  O6  1  0.41632395  0.89827999  0.63424300  1
  O  O7  1  0.08367600  0.10172000  0.13424300  1
  O  O8  1  0.08706799  0.23684300  0.91566600  1
  O  O9  1  0.41293196  0.76315699  0.41566600  1
  O  O10  1  0.91293197  0.76315699  0.08433400  1
  O  O11  1  0.58706800  0.23684300  0.58433400  1
  O  O12  1  0.89394301  0.16829000  0.29055500  1
  O  O13  1  0.60605696  0.83170999  0.79055500  1
  O  O14  1  0.10605695  0.83170999  0.70944500  1
  O  O15  1  0.39394300  0.16829000  0.20944500  1
