# generated using pymatgen
data_MnZnCdSe4
_symmetry_space_group_name_H-M   'P 1'
_cell_length_a   3.63365412
_cell_length_b   6.19060898
_cell_length_c   6.79353285
_cell_angle_alpha   106.68817902
_cell_angle_beta   90.00000000
_cell_angle_gamma   90.00000000
_symmetry_Int_Tables_number   1
_chemical_formula_structural   MnZnCdSe4
_chemical_formula_sum   'Mn1 Zn1 Cd1 Se4'
_cell_volume   146.38094348
_cell_formula_units_Z   1
loop_
 _symmetry_equiv_pos_site_id
 _symmetry_equiv_pos_as_xyz
  1  'x, y, z'
loop_
 _atom_site_type_symbol
 _atom_site_label
 _atom_site_symmetry_multiplicity
 _atom_site_fract_x
 _atom_site_fract_y
 _atom_site_fract_z
 _atom_site_occupancy
  Mn  Mn0  1  -0.00000000  0.49999999  0.49999996  1
  Zn  Zn1  1  0.49999998  0.00000000  0.49999999  1
  Cd  Cd2  1  0.00000000  0.00000000  0.00000000  1
  Se  Se3  1  -0.00000000  0.77488299  0.30131295  1
  Se  Se4  1  0.49999998  0.74188899  0.71547794  1
  Se  Se5  1  -0.00000000  0.22511700  0.69868698  1
  Se  Se6  1  0.49999998  0.25811100  0.28452198  1
