# generated using pymatgen
data_Ba2Ga3Se5
_symmetry_space_group_name_H-M   'P 1'
_cell_length_a   7.59016180
_cell_length_b   7.74096155
_cell_length_c   9.93938065
_cell_angle_alpha   90.00000000
_cell_angle_beta   90.00000000
_cell_angle_gamma   115.06480408
_symmetry_Int_Tables_number   1
_chemical_formula_structural   Ba2Ga3Se5
_chemical_formula_sum   'Ba4 Ga6 Se10'
_cell_volume   528.99502434
_cell_formula_units_Z   2
loop_
 _symmetry_equiv_pos_site_id
 _symmetry_equiv_pos_as_xyz
  1  'x, y, z'
loop_
 _atom_site_type_symbol
 _atom_site_label
 _atom_site_symmetry_multiplicity
 _atom_site_fract_x
 _atom_site_fract_y
 _atom_site_fract_z
 _atom_site_occupancy
  Ba  Ba0  1  0.40726098  0.71911699  0.40851501  1
  Ba  Ba1  1  0.59273898  0.78088299  0.90851503  1
  Ba  Ba2  1  0.59273900  0.28088300  0.59148502  1
  Ba  Ba3  1  0.40726100  0.21911700  0.09148500  1
  Ga  Ga4  1  0.06251797  0.73968599  0.00811000  1
  Ga  Ga5  1  0.93748199  0.76031399  0.50811002  1
  Ga  Ga6  1  0.93748201  0.26031400  0.99189004  1
  Ga  Ga7  1  0.06251799  0.23968600  0.49189002  1
  Se  Se8  1  0.05859797  0.62489599  0.70563003  1
  Ga  Ga9  1  0.94140198  0.87510399  0.20563001  1
  Ga  Ga10  1  0.94140201  0.37510400  0.29437001  1
  Se  Se11  1  0.05859800  0.12489600  0.79437003  1
  Se  Se12  1  0.72751099  0.55327500  0.31180501  1
  Se  Se13  1  0.27248896  0.94672499  0.81180503  1
  Se  Se14  1  0.27248899  0.44672500  0.68819502  1
  Se  Se15  1  0.72751102  0.05327500  0.18819501  1
  Se  Se16  1  0.21066698  0.53374200  0.11572100  1
  Se  Se17  1  0.78933298  0.96625799  0.61572102  1
  Se  Se18  1  0.78933300  0.46625800  0.88427903  1
  Se  Se19  1  0.21066700  0.03374200  0.38427901  1
