# generated using pymatgen
data_ErAs
_symmetry_space_group_name_H-M   'P 1'
_cell_length_a   4.16127396
_cell_length_b   5.74541998
_cell_length_c   10.84397793
_cell_angle_alpha   105.36177826
_cell_angle_beta   101.06195068
_cell_angle_gamma   90.00000000
_symmetry_Int_Tables_number   1
_chemical_formula_structural   ErAs
_chemical_formula_sum   'Er5 As5'
_cell_volume   244.99889923
_cell_formula_units_Z   5
loop_
 _symmetry_equiv_pos_site_id
 _symmetry_equiv_pos_as_xyz
  1  'x, y, z'
loop_
 _atom_site_type_symbol
 _atom_site_label
 _atom_site_symmetry_multiplicity
 _atom_site_fract_x
 _atom_site_fract_y
 _atom_site_fract_z
 _atom_site_occupancy
  Er  Er0  1  0.39941500  0.39941500  0.79883003  1
  Er  Er1  1  0.80029301  0.80029300  0.60058602  1
  Er  Er2  1  0.19970700  0.19970700  0.39941402  1
  Er  Er3  1  0.60058500  0.60058500  0.20117001  1
  Er  Er4  1  0.00000000  0.00000000  0.00000000  1
  As  As5  1  0.59716401  0.09716400  0.19432801  1
  As  As6  1  0.79995001  0.29995000  0.59990002  1
  As  As7  1  0.20005000  0.70005000  0.40010001  1
  As  As8  1  -0.00000000  0.50000000  -0.00000000  1
  As  As9  1  0.40283600  0.90283600  0.80567203  1
