# generated using pymatgen
data_HfCr2
_symmetry_space_group_name_H-M   'P 1'
_cell_length_a   5.02520180
_cell_length_b   5.02520132
_cell_length_c   8.20226669
_cell_angle_alpha   90.00000000
_cell_angle_beta   90.00000000
_cell_angle_gamma   120.00000000
_symmetry_Int_Tables_number   1
_chemical_formula_structural   HfCr2
_chemical_formula_sum   'Hf4 Cr8'
_cell_volume   179.37895492
_cell_formula_units_Z   4
loop_
 _symmetry_equiv_pos_site_id
 _symmetry_equiv_pos_as_xyz
  1  'x, y, z'
loop_
 _atom_site_type_symbol
 _atom_site_label
 _atom_site_symmetry_multiplicity
 _atom_site_fract_x
 _atom_site_fract_y
 _atom_site_fract_z
 _atom_site_occupancy
  Hf  Hf0  1  0.33333330  0.66666667  0.06535200  1
  Hf  Hf1  1  0.66666667  0.33333333  0.56535202  1
  Hf  Hf2  1  0.33333330  0.66666667  0.43464802  1
  Hf  Hf3  1  0.66666667  0.33333333  0.93464803  1
  Cr  Cr4  1  0.17267395  0.82732600  0.75000003  1
  Cr  Cr5  1  0.82732599  0.65465200  0.25000001  1
  Cr  Cr6  1  0.34534800  0.17267400  0.25000001  1
  Cr  Cr7  1  0.65465197  0.82732600  0.75000003  1
  Cr  Cr8  1  0.17267398  0.34534800  0.75000003  1
  Cr  Cr9  1  0.82732602  0.17267400  0.25000001  1
  Cr  Cr10  1  0.00000000  0.00000000  0.50000002  1
  Cr  Cr11  1  0.00000000  0.00000000  0.00000000  1
