# generated using pymatgen
data_BaPb4
_symmetry_space_group_name_H-M   'P 1'
_cell_length_a   4.78797817
_cell_length_b   8.17349720
_cell_length_c   12.17198277
_cell_angle_alpha   90.00000000
_cell_angle_beta   90.00000000
_cell_angle_gamma   107.03144836
_symmetry_Int_Tables_number   1
_chemical_formula_structural   BaPb4
_chemical_formula_sum   'Ba2 Pb8'
_cell_volume   455.45426628
_cell_formula_units_Z   2
loop_
 _symmetry_equiv_pos_site_id
 _symmetry_equiv_pos_as_xyz
  1  'x, y, z'
loop_
 _atom_site_type_symbol
 _atom_site_label
 _atom_site_symmetry_multiplicity
 _atom_site_fract_x
 _atom_site_fract_y
 _atom_site_fract_z
 _atom_site_occupancy
  Ba  Ba0  1  0.75307398  0.50614797  0.75000001  1
  Ba  Ba1  1  0.24692600  0.49385197  0.25000000  1
  Pb  Pb2  1  0.00000000  0.00000000  0.00000000  1
  Pb  Pb3  1  0.00000000  0.00000000  0.50000001  1
  Pb  Pb4  1  0.36026699  0.72053396  0.94107702  1
  Pb  Pb5  1  0.63973298  0.27946599  0.05892300  1
  Pb  Pb6  1  0.63973298  0.27946599  0.44107701  1
  Pb  Pb7  1  0.36026699  0.72053396  0.55892301  1
  Pb  Pb8  1  0.08221900  0.16443799  0.75000001  1
  Pb  Pb9  1  0.91778097  0.83556196  0.25000000  1
