# generated using pymatgen
data_SrSb
_symmetry_space_group_name_H-M   'P 1'
_cell_length_a   4.59920311
_cell_length_b   4.98662710
_cell_length_c   12.11825657
_cell_angle_alpha   90.00000000
_cell_angle_beta   90.00000000
_cell_angle_gamma   90.00000000
_symmetry_Int_Tables_number   1
_chemical_formula_structural   SrSb
_chemical_formula_sum   'Sr4 Sb4'
_cell_volume   277.92628706
_cell_formula_units_Z   4
loop_
 _symmetry_equiv_pos_site_id
 _symmetry_equiv_pos_as_xyz
  1  'x, y, z'
loop_
 _atom_site_type_symbol
 _atom_site_label
 _atom_site_symmetry_multiplicity
 _atom_site_fract_x
 _atom_site_fract_y
 _atom_site_fract_z
 _atom_site_occupancy
  Sr  Sr0  1  0.24999999  0.00000000  0.36057601  1
  Sr  Sr1  1  0.24999999  0.49999999  0.86481903  1
  Sr  Sr2  1  0.74999998  0.49999999  0.13506900  1
  Sr  Sr3  1  0.74999998  0.00000000  0.63774502  1
  Sb  Sb4  1  0.24999999  0.00000000  0.07382500  1
  Sb  Sb5  1  0.24999999  0.49999999  0.57742902  1
  Sb  Sb6  1  0.74999998  0.49999999  0.42208902  1
  Sb  Sb7  1  0.74999998  0.00000000  0.92844803  1
