# generated using pymatgen
data_NaCaCo2O5
_symmetry_space_group_name_H-M   'P 1'
_cell_length_a   3.88585210
_cell_length_b   3.88584399
_cell_length_c   7.55479622
_cell_angle_alpha   89.99997711
_cell_angle_beta   89.99987793
_cell_angle_gamma   89.99998474
_symmetry_Int_Tables_number   1
_chemical_formula_structural   NaCaCo2O5
_chemical_formula_sum   'Na1 Ca1 Co2 O5'
_cell_volume   114.07602551
_cell_formula_units_Z   1
loop_
 _symmetry_equiv_pos_site_id
 _symmetry_equiv_pos_as_xyz
  1  'x, y, z'
loop_
 _atom_site_type_symbol
 _atom_site_label
 _atom_site_symmetry_multiplicity
 _atom_site_fract_x
 _atom_site_fract_y
 _atom_site_fract_z
 _atom_site_occupancy
  Na  Na0  1  -0.00000001  0.99999900  0.96588597  1
  Ca  Ca1  1  0.00000100  0.00000100  0.46788299  1
  Co  Co2  1  0.49999998  0.49999700  0.23183798  1
  Co  Co3  1  0.49999898  0.50000000  0.70119197  1
  O  O4  1  0.49999899  0.00000000  0.65143797  1
  O  O5  1  0.99999897  0.50000000  0.65143796  1
  O  O6  1  0.50000098  0.99999600  0.27788098  1
  O  O7  1  -0.00000000  0.50000000  0.27787999  1
  O  O8  1  0.50000698  0.50000100  0.96247996  1
