# generated using pymatgen
data_As2Pb3Au2SeS4
_symmetry_space_group_name_H-M   'P 1'
_cell_length_a   6.67327404
_cell_length_b   6.93584776
_cell_length_c   9.76063728
_cell_angle_alpha   82.99475098
_cell_angle_beta   75.54841614
_cell_angle_gamma   61.42404556
_symmetry_Int_Tables_number   1
_chemical_formula_structural   As2Pb3Au2SeS4
_chemical_formula_sum   'As2 Pb3 Au2 Se1 S4'
_cell_volume   384.18148082
_cell_formula_units_Z   1
loop_
 _symmetry_equiv_pos_site_id
 _symmetry_equiv_pos_as_xyz
  1  'x, y, z'
loop_
 _atom_site_type_symbol
 _atom_site_label
 _atom_site_symmetry_multiplicity
 _atom_site_fract_x
 _atom_site_fract_y
 _atom_site_fract_z
 _atom_site_occupancy
  As  As0  1  0.37914302  0.85601299  0.75831300  1
  As  As1  1  0.62085699  0.14398700  0.24168703  1
  Au  Au2  1  0.93004000  0.51832499  0.88297705  1
  Au  Au3  1  0.06996001  0.48167499  0.11702299  1
  Pb  Pb4  1  0.74309600  0.56029999  0.67891503  1
  Pb  Pb5  1  0.25690401  0.43969999  0.32108500  1
  S  S6  1  0.33377802  0.82619799  0.98876901  1
  Pb  Pb7  1  0.66622199  0.17380200  0.01123102  1
  S  S8  1  0.13640802  0.80813799  0.67138899  1
  Se  Se9  1  0.86359199  0.19186200  0.32861104  1
  S  S10  1  0.39846900  0.15839200  0.68525003  1
  S  S11  1  0.60153101  0.84160799  0.31475000  1
