# generated using pymatgen
data_Ag
_symmetry_space_group_name_H-M   'P 1'
_cell_length_a   2.94228339
_cell_length_b   2.94228339
_cell_length_c   12.17136288
_cell_angle_alpha   83.05773926
_cell_angle_beta   83.05773926
_cell_angle_gamma   60.00001144
_symmetry_Int_Tables_number   1
_chemical_formula_structural   Ag
_chemical_formula_sum   Ag5
_cell_volume   90.35814767
_cell_formula_units_Z   5
loop_
 _symmetry_equiv_pos_site_id
 _symmetry_equiv_pos_as_xyz
  1  'x, y, z'
loop_
 _atom_site_type_symbol
 _atom_site_label
 _atom_site_symmetry_multiplicity
 _atom_site_fract_x
 _atom_site_fract_y
 _atom_site_fract_z
 _atom_site_occupancy
  Ag  Ag0  1  0.00000000  0.00000000  0.00000000  1
  Ag  Ag1  1  0.60129803  0.60129802  0.19610600  1
  Ag  Ag2  1  0.20027101  0.20027101  0.39918700  1
  Ag  Ag3  1  0.79972904  0.79972903  0.60081299  1
  Ag  Ag4  1  0.39870202  0.39870201  0.80389399  1
