# generated using pymatgen
data_Zr5Ga3
_symmetry_space_group_name_H-M   'P 1'
_cell_length_a   3.74953794
_cell_length_b   4.27127600
_cell_length_c   10.20523453
_cell_angle_alpha   90.00000000
_cell_angle_beta   90.00000000
_cell_angle_gamma   90.00000000
_symmetry_Int_Tables_number   1
_chemical_formula_structural   Zr5Ga3
_chemical_formula_sum   'Zr5 Ga3'
_cell_volume   163.44000911
_cell_formula_units_Z   1
loop_
 _symmetry_equiv_pos_site_id
 _symmetry_equiv_pos_as_xyz
  1  'x, y, z'
loop_
 _atom_site_type_symbol
 _atom_site_label
 _atom_site_symmetry_multiplicity
 _atom_site_fract_x
 _atom_site_fract_y
 _atom_site_fract_z
 _atom_site_occupancy
  Zr  Zr0  1  0.00000000  0.50000000  0.86177604  1
  Zr  Zr1  1  0.00000000  0.00000000  0.13596901  1
  Zr  Zr2  1  0.50000001  0.00000000  0.63915503  1
  Zr  Zr3  1  0.50000001  0.50000000  0.36141302  1
  Zr  Zr4  1  0.50000001  0.50000000  0.07258200  1
  Ga  Ga5  1  0.00000000  0.50000000  0.57513803  1
  Ga  Ga6  1  0.00000000  0.00000000  0.42731602  1
  Ga  Ga7  1  0.50000001  0.00000000  0.92665104  1
