# generated using pymatgen
data_CeNiGe3
_symmetry_space_group_name_H-M   'P 1'
_cell_length_a   4.12776518
_cell_length_b   4.14039803
_cell_length_c   11.01922703
_cell_angle_alpha   79.17140198
_cell_angle_beta   90.00000000
_cell_angle_gamma   90.00000000
_symmetry_Int_Tables_number   1
_chemical_formula_structural   CeNiGe3
_chemical_formula_sum   'Ce2 Ni2 Ge6'
_cell_volume   184.97170811
_cell_formula_units_Z   2
loop_
 _symmetry_equiv_pos_site_id
 _symmetry_equiv_pos_as_xyz
  1  'x, y, z'
loop_
 _atom_site_type_symbol
 _atom_site_label
 _atom_site_symmetry_multiplicity
 _atom_site_fract_x
 _atom_site_fract_y
 _atom_site_fract_z
 _atom_site_occupancy
  Ce  Ce0  1  0.49999998  0.16843600  0.66312797  1
  Ce  Ce1  1  0.49999998  0.83156400  0.33687197  1
  Ni  Ni2  1  0.00000000  0.38983000  0.22033999  1
  Ni  Ni3  1  0.00000000  0.61017000  0.77965996  1
  Ge  Ge4  1  0.00000000  0.28345200  0.43309598  1
  Ge  Ge5  1  0.00000000  0.71654800  0.56690397  1
  Ge  Ge6  1  0.49999998  0.44282600  0.11434799  1
  Ge  Ge7  1  0.49999998  0.55717400  0.88565196  1
  Ge  Ge8  1  0.00000000  0.05726100  0.88547797  1
  Ge  Ge9  1  0.00000000  0.94273900  0.11452198  1
