# generated using pymatgen
data_ZrAs2Pb
_symmetry_space_group_name_H-M   'P 1'
_cell_length_a   3.98778009
_cell_length_b   3.98778009
_cell_length_c   7.96821880
_cell_angle_alpha   90.00000000
_cell_angle_beta   90.00000000
_cell_angle_gamma   90.00000000
_symmetry_Int_Tables_number   1
_chemical_formula_structural   ZrAs2Pb
_chemical_formula_sum   'Zr2 As4 Pb2'
_cell_volume   126.71372365
_cell_formula_units_Z   2
loop_
 _symmetry_equiv_pos_site_id
 _symmetry_equiv_pos_as_xyz
  1  'x, y, z'
loop_
 _atom_site_type_symbol
 _atom_site_label
 _atom_site_symmetry_multiplicity
 _atom_site_fract_x
 _atom_site_fract_y
 _atom_site_fract_z
 _atom_site_occupancy
  Zr  Zr0  1  0.00000000  0.49999999  0.50000001  1
  Zr  Zr1  1  0.49999999  0.00000000  0.50000001  1
  As  As2  1  0.00000000  0.00000000  0.24857801  1
  As  As3  1  0.00000000  0.00000000  0.75142202  1
  As  As4  1  0.49999999  0.49999999  0.27189801  1
  As  As5  1  0.49999999  0.49999999  0.72810202  1
  Pb  Pb6  1  0.00000000  0.49999999  -0.00000000  1
  Pb  Pb7  1  0.49999999  0.00000000  -0.00000000  1
