# generated using pymatgen
data_Cu5SiSe4
_symmetry_space_group_name_H-M   'P 1'
_cell_length_a   6.08280277
_cell_length_b   6.08280277
_cell_length_c   6.51326561
_cell_angle_alpha   62.16317749
_cell_angle_beta   62.16317749
_cell_angle_gamma   59.99999237
_symmetry_Int_Tables_number   1
_chemical_formula_structural   Cu5SiSe4
_chemical_formula_sum   'Cu5 Si1 Se4'
_cell_volume   175.76923390
_cell_formula_units_Z   1
loop_
 _symmetry_equiv_pos_site_id
 _symmetry_equiv_pos_as_xyz
  1  'x, y, z'
loop_
 _atom_site_type_symbol
 _atom_site_label
 _atom_site_symmetry_multiplicity
 _atom_site_fract_x
 _atom_site_fract_y
 _atom_site_fract_z
 _atom_site_occupancy
  Cu  Cu0  1  0.84931598  0.84931599  0.45205199  1
  Cu  Cu1  1  0.34931599  0.34931600  0.95205198  1
  Cu  Cu2  1  0.15068400  0.15068400  0.54794799  1
  Cu  Cu3  1  0.65068398  0.65068399  0.04794800  1
  Se  Se4  1  0.05524100  0.44475899  0.74999998  1
  Si  Si5  1  0.44475899  0.74999999  0.74999998  1
  Cu  Cu6  1  0.74999999  0.05524100  0.74999998  1
  Se  Se7  1  0.55524099  0.25000000  0.25000000  1
  Se  Se8  1  0.24999999  0.94475899  0.25000000  1
  Se  Se9  1  0.94475898  0.55524099  0.25000000  1
