# generated using pymatgen
data_PrAlSi4Se11
_symmetry_space_group_name_H-M   'P 1'
_cell_length_a   7.63654423
_cell_length_b   7.63654423
_cell_length_c   7.63654423
_cell_angle_alpha   109.47122192
_cell_angle_beta   109.47122192
_cell_angle_gamma   109.47122192
_symmetry_Int_Tables_number   1
_chemical_formula_structural   PrAlSi4Se11
_chemical_formula_sum   'Pr1 Al1 Si4 Se11'
_cell_volume   342.82201447
_cell_formula_units_Z   1
loop_
 _symmetry_equiv_pos_site_id
 _symmetry_equiv_pos_as_xyz
  1  'x, y, z'
loop_
 _atom_site_type_symbol
 _atom_site_label
 _atom_site_symmetry_multiplicity
 _atom_site_fract_x
 _atom_site_fract_y
 _atom_site_fract_z
 _atom_site_occupancy
  Pr  Pr0  1  0.00000000  0.00000000  0.00000000  1
  Al  Al1  1  0.84899206  0.35352802  0.20252005  1
  Si  Si2  1  0.84899207  0.64647105  0.49546407  1
  Si  Si3  1  0.79747904  0.15100701  0.64647105  1
  Si  Si4  1  0.64647208  0.79748006  0.15100806  1
  Si  Si5  1  0.64647206  0.49546403  0.84899307  1
  Se  Se6  1  0.50453603  0.15100801  0.35352803  1
  Se  Se7  1  0.49546407  0.84899206  0.64647208  1
  Se  Se8  1  0.35352805  0.50453604  0.15100704  1
  Se  Se9  1  0.35352803  0.20252001  0.84899205  1
  Se  Se10  1  0.20252106  0.84899306  0.35352906  1
  Se  Se11  1  0.15100803  0.35352902  0.50453604  1
  Se  Se12  1  0.15100805  0.64647205  0.79748006  1
  Se  Se13  1  0.00000000  0.00000000  0.50000002  1
  Se  Se14  1  1.00000007  0.50000004  0.00000005  1
  Se  Se15  1  0.50000005  0.50000004  0.50000005  1
  Se  Se16  1  0.50000002  0.00000000  0.00000001  1
