# generated using pymatgen
data_HoGa2Ir
_symmetry_space_group_name_H-M   'P 1'
_cell_length_a   5.21438837
_cell_length_b   5.23088741
_cell_length_c   8.41077423
_cell_angle_alpha   90.00000000
_cell_angle_beta   90.00000000
_cell_angle_gamma   119.43595886
_symmetry_Int_Tables_number   1
_chemical_formula_structural   HoGa2Ir
_chemical_formula_sum   'Ho3 Ga6 Ir3'
_cell_volume   199.79553562
_cell_formula_units_Z   3
loop_
 _symmetry_equiv_pos_site_id
 _symmetry_equiv_pos_as_xyz
  1  'x, y, z'
loop_
 _atom_site_type_symbol
 _atom_site_label
 _atom_site_symmetry_multiplicity
 _atom_site_fract_x
 _atom_site_fract_y
 _atom_site_fract_z
 _atom_site_occupancy
  Ho  Ho0  1  0.67794199  0.32134399  0.43052299  1
  Ho  Ho1  1  0.34527799  0.65531898  0.54199199  1
  Ho  Ho2  1  0.34527799  0.65531898  0.95800797  1
  Ga  Ga3  1  0.67794199  0.32134399  0.06947700  1
  Ga  Ga4  1  0.13923099  0.86061798  0.24999999  1
  Ga  Ga5  1  0.84275798  0.66173298  0.74999998  1
  Ga  Ga6  1  0.33758400  0.15611500  0.74999998  1
  Ga  Ga7  1  0.83233399  0.16986900  0.74999998  1
  Ir  Ir8  1  0.99929499  0.00091400  0.49877099  1
  Ir  Ir9  1  0.99929499  0.00091400  0.00122900  1
  Ga  Ga10  1  0.15893999  0.35537499  0.24999999  1
  Ir  Ir11  1  0.64412198  0.84113498  0.24999999  1
