# generated using pymatgen
data_Nb3FeNi
_symmetry_space_group_name_H-M   'P 1'
_cell_length_a   2.75044847
_cell_length_b   2.75044847
_cell_length_c   11.30985069
_cell_angle_alpha   94.63274384
_cell_angle_beta   94.63274384
_cell_angle_gamma   109.61872864
_symmetry_Int_Tables_number   1
_chemical_formula_structural   Nb3FeNi
_chemical_formula_sum   'Nb3 Fe1 Ni1'
_cell_volume   79.79634917
_cell_formula_units_Z   1
loop_
 _symmetry_equiv_pos_site_id
 _symmetry_equiv_pos_as_xyz
  1  'x, y, z'
loop_
 _atom_site_type_symbol
 _atom_site_label
 _atom_site_symmetry_multiplicity
 _atom_site_fract_x
 _atom_site_fract_y
 _atom_site_fract_z
 _atom_site_occupancy
  Fe  Fe0  1  0.00000000  0.00000000  0.00000000  1
  Nb  Nb1  1  0.40044400  0.40044400  0.80088801  1
  Nb  Nb2  1  0.80021200  0.80021200  0.60042402  1
  Nb  Nb3  1  0.19978800  0.19978800  0.39957600  1
  Ni  Ni4  1  0.59955600  0.59955600  0.19911202  1
