# generated using pymatgen
data_Pr2Co13Sn4
_symmetry_space_group_name_H-M   'P 1'
_cell_length_a   6.33584785
_cell_length_b   6.33584785
_cell_length_c   6.33584785
_cell_angle_alpha   83.02748871
_cell_angle_beta   83.02748871
_cell_angle_gamma   83.02748871
_symmetry_Int_Tables_number   1
_chemical_formula_structural   Pr2Co13Sn4
_chemical_formula_sum   'Pr2 Co13 Sn4'
_cell_volume   249.11910488
_cell_formula_units_Z   1
loop_
 _symmetry_equiv_pos_site_id
 _symmetry_equiv_pos_as_xyz
  1  'x, y, z'
loop_
 _atom_site_type_symbol
 _atom_site_label
 _atom_site_symmetry_multiplicity
 _atom_site_fract_x
 _atom_site_fract_y
 _atom_site_fract_z
 _atom_site_occupancy
  Pr  Pr0  1  0.34447898  0.34447899  0.34447897  1
  Pr  Pr1  1  0.65042996  0.65043099  0.65042994  1
  Co  Co2  1  0.90743694  0.90743698  0.90743691  1
  Co  Co3  1  0.65861996  0.65861999  0.14611092  1
  Co  Co4  1  0.65861998  0.14611100  0.65861997  1
  Co  Co5  1  0.14611097  0.65861999  0.65861997  1
  Co  Co6  1  0.34084598  0.34084599  0.85421398  1
  Co  Co7  1  0.34084596  0.85421398  0.34084594  1
  Co  Co8  1  0.85421397  0.34084599  0.34084593  1
  Co  Co9  1  0.71392397  0.28737699  0.00143494  1
  Co  Co10  1  0.28737699  0.00143500  0.71392400  1
  Co  Co11  1  0.00143497  0.71392399  0.28737696  1
  Co  Co12  1  0.71392398  0.00143500  0.28737696  1
  Co  Co13  1  0.00143499  0.28737699  0.71392400  1
  Co  Co14  1  0.28737696  0.71392399  0.00143494  1
  Sn  Sn15  1  0.99959694  0.99959698  0.49939489  1
  Sn  Sn16  1  0.99959696  0.49939499  0.99959693  1
  Sn  Sn17  1  0.49939495  0.99959698  0.99959694  1
  Sn  Sn18  1  0.09433899  0.09433900  0.09433899  1
