# generated using pymatgen
data_Sr(In2Pd)2
_symmetry_space_group_name_H-M   'P 1'
_cell_length_a   4.51319599
_cell_length_b   8.54153633
_cell_length_c   8.54153633
_cell_angle_alpha   90.00000000
_cell_angle_beta   90.00000000
_cell_angle_gamma   90.00000000
_symmetry_Int_Tables_number   1
_chemical_formula_structural   Sr(In2Pd)2
_chemical_formula_sum   'Sr2 In8 Pd4'
_cell_volume   329.27304411
_cell_formula_units_Z   2
loop_
 _symmetry_equiv_pos_site_id
 _symmetry_equiv_pos_as_xyz
  1  'x, y, z'
loop_
 _atom_site_type_symbol
 _atom_site_label
 _atom_site_symmetry_multiplicity
 _atom_site_fract_x
 _atom_site_fract_y
 _atom_site_fract_z
 _atom_site_occupancy
  Sr  Sr0  1  0.50000000  0.49999998  0.49999998  1
  Sr  Sr1  1  0.00000000  0.00000000  0.00000000  1
  In  In2  1  0.50000000  0.34344599  0.08943000  1
  In  In3  1  0.50000000  0.65655397  0.91056996  1
  In  In4  1  0.00000000  0.84344597  0.41056998  1
  In  In5  1  0.00000000  0.15655399  0.58942998  1
  In  In6  1  0.50000000  0.08943000  0.34344599  1
  In  In7  1  0.50000000  0.91056996  0.65655397  1
  In  In8  1  0.00000000  0.41056998  0.84344597  1
  In  In9  1  0.00000000  0.58942998  0.15655399  1
  Pd  Pd10  1  0.50000000  0.77869197  0.22130799  1
  Pd  Pd11  1  0.50000000  0.22130799  0.77869197  1
  Pd  Pd12  1  1.00000000  0.27869199  0.27869199  1
  Pd  Pd13  1  0.00000000  0.72130797  0.72130797  1
