# generated using pymatgen
data_Y3Ge2
_symmetry_space_group_name_H-M   'P 1'
_cell_length_a   4.66688585
_cell_length_b   7.53167582
_cell_length_c   7.53167629
_cell_angle_alpha   120.00000000
_cell_angle_beta   90.00000000
_cell_angle_gamma   90.00000000
_symmetry_Int_Tables_number   1
_chemical_formula_structural   Y3Ge2
_chemical_formula_sum   'Y6 Ge4'
_cell_volume   229.26675010
_cell_formula_units_Z   2
loop_
 _symmetry_equiv_pos_site_id
 _symmetry_equiv_pos_as_xyz
  1  'x, y, z'
loop_
 _atom_site_type_symbol
 _atom_site_label
 _atom_site_symmetry_multiplicity
 _atom_site_fract_x
 _atom_site_fract_y
 _atom_site_fract_z
 _atom_site_occupancy
  Y  Y0  1  0.75000002  0.69443502  0.08080301  1
  Y  Y1  1  0.25000001  0.30556501  0.91919700  1
  Y  Y2  1  0.75000002  0.38636801  0.30556500  1
  Y  Y3  1  0.25000001  0.61363202  0.69443501  1
  Y  Y4  1  0.75000002  0.91919703  0.61363201  1
  Y  Y5  1  0.25000001  0.08080300  0.38636800  1
  Ge  Ge6  1  0.75000002  0.33333334  0.66666667  1
  Ge  Ge7  1  0.25000001  0.66666669  0.33333334  1
  Ge  Ge8  1  0.00000000  0.00000000  0.00000000  1
  Ge  Ge9  1  0.50000002  0.00000000  -0.00000000  1
