# generated using pymatgen
data_NaSrCd2Si2O7
_symmetry_space_group_name_H-M   'P 1'
_cell_length_a   5.14758396
_cell_length_b   5.14758348
_cell_length_c   6.66055393
_cell_angle_alpha   90.00000000
_cell_angle_beta   90.00000000
_cell_angle_gamma   120.00000000
_symmetry_Int_Tables_number   1
_chemical_formula_structural   NaSrCd2Si2O7
_chemical_formula_sum   'Na1 Sr1 Cd2 Si2 O7'
_cell_volume   152.84379728
_cell_formula_units_Z   1
loop_
 _symmetry_equiv_pos_site_id
 _symmetry_equiv_pos_as_xyz
  1  'x, y, z'
loop_
 _atom_site_type_symbol
 _atom_site_label
 _atom_site_symmetry_multiplicity
 _atom_site_fract_x
 _atom_site_fract_y
 _atom_site_fract_z
 _atom_site_occupancy
  Sr  Sr0  1  0.66666665  0.33333333  0.50000001  1
  Na  Na1  1  0.33333330  0.66666666  0.50000001  1
  Cd  Cd2  1  0.33333330  0.66666666  -0.00000000  1
  Cd  Cd3  1  0.66666665  0.33333333  1.00000001  1
  Si  Si4  1  0.00000000  0.00000000  0.24230700  1
  Si  Si5  1  0.00000000  0.00000000  0.75769301  1
  O  O6  1  0.00000000  0.00000000  0.50000001  1
  O  O7  1  0.30997198  0.30997200  0.81861501  1
  O  O8  1  0.69002801  0.00000000  0.81861501  1
  O  O9  1  -0.00000004  0.69002799  0.81861501  1
  O  O10  1  0.69002797  0.69002799  0.18138500  1
  O  O11  1  0.30997200  0.00000000  0.18138500  1
  O  O12  1  -0.00000002  0.30997200  0.18138500  1
