# generated using pymatgen
data_ZrAlIr
_symmetry_space_group_name_H-M   'P 1'
_cell_length_a   5.28015804
_cell_length_b   5.31451654
_cell_length_c   8.75583458
_cell_angle_alpha   90.00000000
_cell_angle_beta   90.00000000
_cell_angle_gamma   119.78636932
_symmetry_Int_Tables_number   1
_chemical_formula_structural   ZrAlIr
_chemical_formula_sum   'Zr4 Al4 Ir4'
_cell_volume   213.24052569
_cell_formula_units_Z   4
loop_
 _symmetry_equiv_pos_site_id
 _symmetry_equiv_pos_as_xyz
  1  'x, y, z'
loop_
 _atom_site_type_symbol
 _atom_site_label
 _atom_site_symmetry_multiplicity
 _atom_site_fract_x
 _atom_site_fract_y
 _atom_site_fract_z
 _atom_site_occupancy
  Zr  Zr0  1  0.66536200  0.33072400  0.81347304  1
  Zr  Zr1  1  0.32925101  0.65850199  0.68485203  1
  Zr  Zr2  1  0.32925101  0.65850199  0.31514802  1
  Zr  Zr3  1  0.66536200  0.33072400  0.18652701  1
  Al  Al4  1  0.00371200  0.00742400  0.75090704  1
  Al  Al5  1  0.00371200  0.00742400  0.24909301  1
  Al  Al6  1  0.17092901  0.82980199  1.00000005  1
  Al  Al7  1  0.65887301  0.82980199  1.00000005  1
  Ir  Ir8  1  0.16928600  0.33857200  1.00000005  1
  Ir  Ir9  1  0.82973000  0.17386900  0.50000002  1
  Ir  Ir10  1  0.34413900  0.17386900  0.50000002  1
  Ir  Ir11  1  0.83030201  0.66060399  0.50000002  1
