# generated using pymatgen
data_Al2Cd3AsS6
_symmetry_space_group_name_H-M   'P 1'
_cell_length_a   4.02085018
_cell_length_b   4.02084875
_cell_length_c   17.48459244
_cell_angle_alpha   90.00000000
_cell_angle_beta   90.00000000
_cell_angle_gamma   120.00000763
_symmetry_Int_Tables_number   1
_chemical_formula_structural   Al2Cd3AsS6
_chemical_formula_sum   'Al2 Cd3 As1 S6'
_cell_volume   244.80582091
_cell_formula_units_Z   1
loop_
 _symmetry_equiv_pos_site_id
 _symmetry_equiv_pos_as_xyz
  1  'x, y, z'
loop_
 _atom_site_type_symbol
 _atom_site_label
 _atom_site_symmetry_multiplicity
 _atom_site_fract_x
 _atom_site_fract_y
 _atom_site_fract_z
 _atom_site_occupancy
  Al  Al0  1  0.66666663  0.33333334  0.24999999  1
  Al  Al1  1  0.33333330  0.66666669  0.74999998  1
  Cd  Cd2  1  0.66666663  0.33333334  0.89226298  1
  Cd  Cd3  1  0.33333330  0.66666669  0.39226299  1
  Cd  Cd4  1  0.33333330  0.66666669  0.10773700  1
  As  As5  1  0.66666663  0.33333334  0.60773698  1
  S  S6  1  0.66666663  0.33333334  0.74999998  1
  S  S7  1  0.33333330  0.66666669  0.24999999  1
  S  S8  1  0.00000000  0.00000000  0.93054298  1
  S  S9  1  0.00000000  0.00000000  0.43054299  1
  S  S10  1  0.00000000  0.00000000  0.06945700  1
  S  S11  1  0.00000000  0.00000000  0.56945699  1
