# generated using pymatgen
data_Cs2KSm(PO4)2
_symmetry_space_group_name_H-M   'P 1'
_cell_length_a   5.81295586
_cell_length_b   5.81295538
_cell_length_c   7.46557903
_cell_angle_alpha   90.00000000
_cell_angle_beta   90.00000000
_cell_angle_gamma   120.00000000
_symmetry_Int_Tables_number   1
_chemical_formula_structural   Cs2KSm(PO4)2
_chemical_formula_sum   'Cs2 K1 Sm1 P2 O8'
_cell_volume   218.46815617
_cell_formula_units_Z   1
loop_
 _symmetry_equiv_pos_site_id
 _symmetry_equiv_pos_as_xyz
  1  'x, y, z'
loop_
 _atom_site_type_symbol
 _atom_site_label
 _atom_site_symmetry_multiplicity
 _atom_site_fract_x
 _atom_site_fract_y
 _atom_site_fract_z
 _atom_site_occupancy
  Cs  Cs0  1  0.66666666  0.33333333  0.32708000  1
  Cs  Cs1  1  0.33333330  0.66666666  0.67292000  1
  K  K2  1  0.00000000  0.00000000  0.00000000  1
  Sm  Sm3  1  0.00000000  0.00000000  0.50000000  1
  P  P4  1  0.66666666  0.33333333  0.77648800  1
  P  P5  1  0.33333330  0.66666666  0.22351200  1
  O  O6  1  0.66666666  0.33333333  0.99291100  1
  O  O7  1  0.33333330  0.66666666  0.00708900  1
  O  O8  1  0.82039198  0.64078400  0.69427700  1
  O  O9  1  0.17960798  0.35921600  0.30572300  1
  O  O10  1  0.82039201  0.17960800  0.69427700  1
  O  O11  1  0.17960796  0.82039200  0.30572300  1
  O  O12  1  0.35921600  0.17960800  0.69427700  1
  O  O13  1  0.64078397  0.82039200  0.30572300  1
