# generated using pymatgen
data_Ce2AgSn
_symmetry_space_group_name_H-M   'P 1'
_cell_length_a   3.65895700
_cell_length_b   3.65895700
_cell_length_c   7.34860611
_cell_angle_alpha   90.00000000
_cell_angle_beta   90.00000000
_cell_angle_gamma   90.00000000
_symmetry_Int_Tables_number   1
_chemical_formula_structural   Ce2AgSn
_chemical_formula_sum   'Ce2 Ag1 Sn1'
_cell_volume   98.38289140
_cell_formula_units_Z   1
loop_
 _symmetry_equiv_pos_site_id
 _symmetry_equiv_pos_as_xyz
  1  'x, y, z'
loop_
 _atom_site_type_symbol
 _atom_site_label
 _atom_site_symmetry_multiplicity
 _atom_site_fract_x
 _atom_site_fract_y
 _atom_site_fract_z
 _atom_site_occupancy
  Ce  Ce0  1  0.00000000  0.00000000  0.76511799  1
  Ce  Ce1  1  0.00000000  0.00000000  0.23488200  1
  Sn  Sn2  1  0.50000000  0.50000000  0.49999999  1
  Ag  Ag3  1  0.50000000  0.50000000  0.00000000  1
