# generated using pymatgen
data_U4CSeN2
_symmetry_space_group_name_H-M   'P 1'
_cell_length_a   3.26224208
_cell_length_b   3.26224160
_cell_length_c   14.42790985
_cell_angle_alpha   90.00000000
_cell_angle_beta   90.00000000
_cell_angle_gamma   120.00000763
_symmetry_Int_Tables_number   1
_chemical_formula_structural   U4CSeN2
_chemical_formula_sum   'U4 Se1 C1 N2'
_cell_volume   132.97387522
_cell_formula_units_Z   1
loop_
 _symmetry_equiv_pos_site_id
 _symmetry_equiv_pos_as_xyz
  1  'x, y, z'
loop_
 _atom_site_type_symbol
 _atom_site_label
 _atom_site_symmetry_multiplicity
 _atom_site_fract_x
 _atom_site_fract_y
 _atom_site_fract_z
 _atom_site_occupancy
  U  U0  1  0.66666667  0.33333335  0.91092301  1
  U  U1  1  0.33333337  0.66666669  0.41092300  1
  U  U2  1  0.33333337  0.66666669  0.08907700  1
  U  U3  1  0.66666667  0.33333335  0.58907701  1
  N  N4  1  0.66666667  0.33333335  0.25000000  1
  Se  Se5  1  0.33333337  0.66666669  0.75000001  1
  C  C6  1  0.00000000  0.00000000  0.00000000  1
  N  N7  1  0.00000000  0.00000000  0.50000001  1
