# generated using pymatgen
data_SrGaGe
_symmetry_space_group_name_H-M   'P 1'
_cell_length_a   4.28111792
_cell_length_b   4.28111792
_cell_length_c   17.12739754
_cell_angle_alpha   90.00000000
_cell_angle_beta   90.00000000
_cell_angle_gamma   120.00000000
_symmetry_Int_Tables_number   1
_chemical_formula_structural   SrGaGe
_chemical_formula_sum   'Sr4 Ga4 Ge4'
_cell_volume   271.85441444
_cell_formula_units_Z   4
loop_
 _symmetry_equiv_pos_site_id
 _symmetry_equiv_pos_as_xyz
  1  'x, y, z'
loop_
 _atom_site_type_symbol
 _atom_site_label
 _atom_site_symmetry_multiplicity
 _atom_site_fract_x
 _atom_site_fract_y
 _atom_site_fract_z
 _atom_site_occupancy
  Sr  Sr0  1  0.00000000  0.00000000  0.49999998  1
  Sr  Sr1  1  0.00000000  0.00000000  0.00000000  1
  Sr  Sr2  1  0.00000000  0.00000000  0.74999998  1
  Sr  Sr3  1  0.00000000  0.00000000  0.24999999  1
  Ga  Ga4  1  0.66666668  0.33333335  0.62531498  1
  Ga  Ga5  1  0.33333335  0.66666669  0.37468499  1
  Ga  Ga6  1  0.33333335  0.66666669  0.12531500  1
  Ga  Ga7  1  0.66666668  0.33333335  0.87468497  1
  Ge  Ge8  1  0.33333335  0.66666669  0.62400998  1
  Ge  Ge9  1  0.66666668  0.33333335  0.37598999  1
  Ge  Ge10  1  0.66666668  0.33333335  0.12401000  1
  Ge  Ge11  1  0.33333335  0.66666669  0.87598997  1
