# generated using pymatgen
data_Rb4Ti2Cl10O
_symmetry_space_group_name_H-M   'P 1'
_cell_length_a   7.35000181
_cell_length_b   7.35000181
_cell_length_c   10.40973759
_cell_angle_alpha   110.67305756
_cell_angle_beta   110.67305756
_cell_angle_gamma   90.00000000
_symmetry_Int_Tables_number   1
_chemical_formula_structural   Rb4Ti2Cl10O
_chemical_formula_sum   'Rb4 Ti2 Cl10 O1'
_cell_volume   487.25615641
_cell_formula_units_Z   1
loop_
 _symmetry_equiv_pos_site_id
 _symmetry_equiv_pos_as_xyz
  1  'x, y, z'
loop_
 _atom_site_type_symbol
 _atom_site_label
 _atom_site_symmetry_multiplicity
 _atom_site_fract_x
 _atom_site_fract_y
 _atom_site_fract_z
 _atom_site_occupancy
  Rb  Rb0  1  0.24999999  0.75000001  0.49999996  1
  Rb  Rb1  1  0.50000001  0.00000000  -0.00000001  1
  Rb  Rb2  1  0.75000001  0.25000000  0.49999996  1
  Rb  Rb3  1  -0.00000001  0.50000001  -0.00000001  1
  Ti  Ti4  1  0.10658800  0.10658800  0.21317599  1
  Ti  Ti5  1  0.89341200  0.89341201  0.78682393  1
  Cl  Cl6  1  0.65054500  0.65054501  0.77614594  1
  Cl  Cl7  1  0.34945499  0.87439901  0.22385396  1
  Cl  Cl8  1  0.75793800  0.75793801  0.51587595  1
  Cl  Cl9  1  0.24206200  0.24206200  0.48412397  1
  Cl  Cl10  1  0.12560100  0.12560100  0.77614596  1
  Cl  Cl11  1  0.87439900  0.87439901  0.22385396  1
  Cl  Cl12  1  0.65054501  0.12560100  0.77614595  1
  Cl  Cl13  1  0.87439901  0.34945501  0.22385397  1
  Cl  Cl14  1  0.12560099  0.65054501  0.77614595  1
  Cl  Cl15  1  0.34945500  0.34945501  0.22385398  1
  O  O16  1  0.00000000  0.00000000  0.00000000  1
