# generated using pymatgen
data_KSmFe2O5
_symmetry_space_group_name_H-M   'P 1'
_cell_length_a   3.97091603
_cell_length_b   7.70350218
_cell_length_c   7.94883299
_cell_angle_alpha   90.00000000
_cell_angle_beta   90.00000000
_cell_angle_gamma   90.00000000
_symmetry_Int_Tables_number   1
_chemical_formula_structural   KSmFe2O5
_chemical_formula_sum   'K2 Sm2 Fe4 O10'
_cell_volume   243.15448562
_cell_formula_units_Z   2
loop_
 _symmetry_equiv_pos_site_id
 _symmetry_equiv_pos_as_xyz
  1  'x, y, z'
loop_
 _atom_site_type_symbol
 _atom_site_label
 _atom_site_symmetry_multiplicity
 _atom_site_fract_x
 _atom_site_fract_y
 _atom_site_fract_z
 _atom_site_occupancy
  K  K0  1  0.00000000  0.00000000  0.50000000  1
  K  K1  1  0.00000000  0.00000000  0.00000000  1
  Sm  Sm2  1  0.00000000  0.49999999  0.50000000  1
  Sm  Sm3  1  0.00000000  0.49999999  -0.00000000  1
  Fe  Fe4  1  0.50000000  0.27926199  0.75000000  1
  Fe  Fe5  1  0.50000000  0.25968799  0.25000000  1
  Fe  Fe6  1  0.50000000  0.74031198  0.75000000  1
  Fe  Fe7  1  0.50000000  0.72073798  0.25000000  1
  O  O8  1  0.50000000  0.31493399  0.00592100  1
  O  O9  1  0.00000000  0.68936498  0.75000000  1
  O  O10  1  0.50000000  0.31493399  0.49407900  1
  O  O11  1  0.50000000  0.68506598  0.99407900  1
  O  O12  1  0.50000000  0.01087100  0.25000000  1
  O  O13  1  0.00000000  0.32201999  0.75000000  1
  O  O14  1  0.50000000  0.68506598  0.50592100  1
  O  O15  1  -0.00000000  0.31063499  0.25000000  1
  O  O16  1  -0.00000000  0.67797998  0.25000000  1
  O  O17  1  0.50000000  0.98912898  0.75000000  1
