# generated using pymatgen
data_SrY2Ge15
_symmetry_space_group_name_H-M   'P 1'
_cell_length_a   4.34364319
_cell_length_b   9.37315941
_cell_length_c   9.37315845
_cell_angle_alpha   119.93772125
_cell_angle_beta   90.00000000
_cell_angle_gamma   90.00000000
_symmetry_Int_Tables_number   1
_chemical_formula_structural   SrY2Ge15
_chemical_formula_sum   'Sr1 Y2 Ge15'
_cell_volume   330.69599943
_cell_formula_units_Z   1
loop_
 _symmetry_equiv_pos_site_id
 _symmetry_equiv_pos_as_xyz
  1  'x, y, z'
loop_
 _atom_site_type_symbol
 _atom_site_label
 _atom_site_symmetry_multiplicity
 _atom_site_fract_x
 _atom_site_fract_y
 _atom_site_fract_z
 _atom_site_occupancy
  Sr  Sr0  1  0.49999998  0.66676102  0.33334904  1
  Y  Y1  1  0.49999998  0.33333334  0.66674535  1
  Y  Y2  1  -0.00000000  0.99968203  0.99968206  1
  Ge  Ge3  1  -0.00000000  0.49438502  0.49438503  1
  Ge  Ge4  1  0.99999996  0.50562402  0.00007504  1
  Ge  Ge5  1  -0.00000000  0.00007500  0.50562399  1
  Ge  Ge6  1  0.49999998  0.72318802  0.72318804  1
  Ge  Ge7  1  0.49999998  0.27661301  0.00011502  1
  Ge  Ge8  1  0.49999998  0.00011500  0.27661300  1
  Ge  Ge9  1  0.99999996  0.81819703  0.17367706  1
  Ge  Ge10  1  -0.00000000  0.82617303  0.64455005  1
  Ge  Ge11  1  -0.00000000  0.35525101  0.18187102  1
  Ge  Ge12  1  -0.00000000  0.17367601  0.81819600  1
  Ge  Ge13  1  0.99999996  0.64455002  0.82617304  1
  Ge  Ge14  1  -0.00000000  0.18187101  0.35525101  1
  Ge  Ge15  1  0.49999998  0.29423701  0.29423702  1
  Ge  Ge16  1  0.49999998  0.70627902  0.00007505  1
  Ge  Ge17  1  0.49999998  0.00007500  0.70627899  1
