# generated using pymatgen
data_ThBrO
_symmetry_space_group_name_H-M   'P 1'
_cell_length_a   4.04022217
_cell_length_b   4.04022217
_cell_length_c   9.42586136
_cell_angle_alpha   90.00000000
_cell_angle_beta   90.00000000
_cell_angle_gamma   90.00000000
_symmetry_Int_Tables_number   1
_chemical_formula_structural   ThBrO
_chemical_formula_sum   'Th2 Br2 O2'
_cell_volume   153.86205974
_cell_formula_units_Z   2
loop_
 _symmetry_equiv_pos_site_id
 _symmetry_equiv_pos_as_xyz
  1  'x, y, z'
loop_
 _atom_site_type_symbol
 _atom_site_label
 _atom_site_symmetry_multiplicity
 _atom_site_fract_x
 _atom_site_fract_y
 _atom_site_fract_z
 _atom_site_occupancy
  Th  Th0  1  0.00000000  0.49999998  0.12172000  1
  Th  Th1  1  0.49999998  0.00000000  0.87827997  1
  Br  Br2  1  0.00000000  0.49999998  0.67376497  1
  Br  Br3  1  0.49999998  0.00000000  0.32623499  1
  O  O4  1  0.00000000  0.00000000  0.00000000  1
  O  O5  1  0.49999998  0.49999998  0.00000000  1
