# generated using pymatgen
data_MnAlVGe
_symmetry_space_group_name_H-M   'P 1'
_cell_length_a   3.77870917
_cell_length_b   3.77870917
_cell_length_c   6.44047117
_cell_angle_alpha   72.94097900
_cell_angle_beta   72.94097900
_cell_angle_gamma   60.00001526
_symmetry_Int_Tables_number   1
_chemical_formula_structural   MnAlVGe
_chemical_formula_sum   'Mn1 Al1 V1 Ge1'
_cell_volume   74.93240464
_cell_formula_units_Z   1
loop_
 _symmetry_equiv_pos_site_id
 _symmetry_equiv_pos_as_xyz
  1  'x, y, z'
loop_
 _atom_site_type_symbol
 _atom_site_label
 _atom_site_symmetry_multiplicity
 _atom_site_fract_x
 _atom_site_fract_y
 _atom_site_fract_z
 _atom_site_occupancy
  Mn  Mn0  1  0.50000003  0.50000000  0.49999997  1
  Al  Al1  1  0.00000000  0.00000000  0.00000000  1
  V  V2  1  0.24757501  0.24757500  0.25727499  1
  Ge  Ge3  1  0.75242504  0.75242500  0.74272496  1
