# generated using pymatgen
data_Li6Fe3N7
_symmetry_space_group_name_H-M   'P 1'
_cell_length_a   5.45152187
_cell_length_b   5.45152187
_cell_length_c   6.43753052
_cell_angle_alpha   115.05051422
_cell_angle_beta   115.05051422
_cell_angle_gamma   90.00000000
_symmetry_Int_Tables_number   1
_chemical_formula_structural   Li6Fe3N7
_chemical_formula_sum   'Li6 Fe3 N7'
_cell_volume   153.22563756
_cell_formula_units_Z   1
loop_
 _symmetry_equiv_pos_site_id
 _symmetry_equiv_pos_as_xyz
  1  'x, y, z'
loop_
 _atom_site_type_symbol
 _atom_site_label
 _atom_site_symmetry_multiplicity
 _atom_site_fract_x
 _atom_site_fract_y
 _atom_site_fract_z
 _atom_site_occupancy
  Li  Li0  1  0.49999997  0.49999999  -0.00000006  1
  Li  Li1  1  0.30994195  0.80994199  0.27723093  1
  Li  Li2  1  0.80994194  0.96728899  0.27723090  1
  Li  Li3  1  0.69005799  0.19005800  0.72276895  1
  Li  Li4  1  0.03271097  0.53271099  0.72276896  1
  Li  Li5  1  0.53271096  0.69005799  0.72276893  1
  N  N6  1  0.19005800  0.03271100  0.72276899  1
  Fe  Fe7  1  0.46728898  0.30994200  0.27723096  1
  Fe  Fe8  1  0.00000000  0.00000000  0.00000000  1
  Fe  Fe9  1  0.96728897  0.46728899  0.27723092  1
  N  N10  1  0.88146196  0.61853799  -0.00000008  1
  N  N11  1  0.38146195  0.88146199  -0.00000008  1
  N  N12  1  0.11853798  0.38146200  -0.00000003  1
  N  N13  1  0.61853799  0.11853800  -0.00000004  1
  N  N14  1  0.24999999  0.25000000  0.49999997  1
  N  N15  1  0.74999996  0.74999999  0.49999991  1
