# generated using pymatgen
data_CeGe2Ir3
_symmetry_space_group_name_H-M   'P 1'
_cell_length_a   5.62418795
_cell_length_b   6.69079542
_cell_length_c   6.69079542
_cell_angle_alpha   64.94855499
_cell_angle_beta   65.14691925
_cell_angle_gamma   65.14691925
_symmetry_Int_Tables_number   1
_chemical_formula_structural   CeGe2Ir3
_chemical_formula_sum   'Ce2 Ge4 Ir6'
_cell_volume   197.77020820
_cell_formula_units_Z   2
loop_
 _symmetry_equiv_pos_site_id
 _symmetry_equiv_pos_as_xyz
  1  'x, y, z'
loop_
 _atom_site_type_symbol
 _atom_site_label
 _atom_site_symmetry_multiplicity
 _atom_site_fract_x
 _atom_site_fract_y
 _atom_site_fract_z
 _atom_site_occupancy
  Ce  Ce0  1  0.46058101  0.24999999  0.25000001  1
  Ce  Ce1  1  0.53941903  0.74999998  0.75000000  1
  Ge  Ge2  1  0.77639801  0.42148199  0.42148202  1
  Ge  Ge3  1  0.22360202  0.57851799  0.57851799  1
  Ge  Ge4  1  0.88063803  0.92148198  0.92148201  1
  Ge  Ge5  1  0.11936200  0.07851800  0.07851800  1
  Ir  Ir6  1  0.50000000  0.21631900  0.78368101  1
  Ir  Ir7  1  0.00000003  0.71631899  0.28368099  1
  Ir  Ir8  1  0.50000003  0.78368098  0.21631900  1
  Ir  Ir9  1  1.00000000  0.28368099  0.71631902  1
  Ir  Ir10  1  0.00000004  0.99999998  0.49999998  1
  Ir  Ir11  1  0.00000002  0.49999999  -0.00000001  1
