# generated using pymatgen
data_Li4OF5
_symmetry_space_group_name_H-M   'P 1'
_cell_length_a   5.32091284
_cell_length_b   6.60129499
_cell_length_c   6.60130262
_cell_angle_alpha   85.30879211
_cell_angle_beta   83.65043640
_cell_angle_gamma   83.65055084
_symmetry_Int_Tables_number   1
_chemical_formula_structural   Li4OF5
_chemical_formula_sum   'Li8 O2 F10'
_cell_volume   228.46570100
_cell_formula_units_Z   2
loop_
 _symmetry_equiv_pos_site_id
 _symmetry_equiv_pos_as_xyz
  1  'x, y, z'
loop_
 _atom_site_type_symbol
 _atom_site_label
 _atom_site_symmetry_multiplicity
 _atom_site_fract_x
 _atom_site_fract_y
 _atom_site_fract_z
 _atom_site_occupancy
  Li  Li0  1  0.67021001  0.60691100  0.77977400  1
  Li  Li1  1  0.17021100  0.77977600  0.60690703  1
  Li  Li2  1  0.82978801  0.22022600  0.39308797  1
  Li  Li3  1  0.32978701  0.39309200  0.22022301  1
  Li  Li4  1  0.74999601  0.08902900  0.91096896  1
  Li  Li5  1  0.25000100  0.25691600  0.74308600  1
  Li  Li6  1  0.75000801  0.74307200  0.25692501  1
  Li  Li7  1  0.25000501  0.91097300  0.08903304  1
  F  F8  1  0.59851301  0.80577300  0.99918201  1
  O  O9  1  0.09851000  0.99918300  0.80577105  1
  O  O10  1  0.90148801  0.00081800  0.19422895  1
  F  F11  1  0.40148901  0.19422900  0.00081799  1
  F  F12  1  0.87280101  0.37394100  0.86836297  1
  F  F13  1  0.35640401  0.53221600  0.71079601  1
  F  F14  1  0.62719901  0.13163800  0.62605697  1
  F  F15  1  0.85640401  0.71080000  0.53222200  1
  F  F16  1  0.14359100  0.28920200  0.46778401  1
  F  F17  1  0.37280501  0.86836300  0.37394003  1
  F  F18  1  0.64359201  0.46778000  0.28919999  1
  F  F19  1  0.12719800  0.62606100  0.13163403  1
