# generated using pymatgen
data_LiTi(MoO4)2
_symmetry_space_group_name_H-M   'P 1'
_cell_length_a   5.63065481
_cell_length_b   5.63065481
_cell_length_c   5.71932220
_cell_angle_alpha   60.51152420
_cell_angle_beta   60.51152420
_cell_angle_gamma   59.99999237
_symmetry_Int_Tables_number   1
_chemical_formula_structural   LiTi(MoO4)2
_chemical_formula_sum   'Li1 Ti1 Mo2 O8'
_cell_volume   129.19992422
_cell_formula_units_Z   1
loop_
 _symmetry_equiv_pos_site_id
 _symmetry_equiv_pos_as_xyz
  1  'x, y, z'
loop_
 _atom_site_type_symbol
 _atom_site_label
 _atom_site_symmetry_multiplicity
 _atom_site_fract_x
 _atom_site_fract_y
 _atom_site_fract_z
 _atom_site_occupancy
  Li  Li0  1  0.50000000  0.49999999  0.49999997  1
  Ti  Ti1  1  0.00000001  0.49999999  -0.00000001  1
  Mo  Mo2  1  0.50000000  0.49999999  -0.00000002  1
  Mo  Mo3  1  0.49999999  0.00000000  -0.00000001  1
  O  O4  1  0.26121400  0.26121399  0.77212797  1
  O  O5  1  0.70544399  0.26121399  0.77212797  1
  O  O6  1  0.73533400  0.73533398  0.79399796  1
  O  O7  1  0.26121401  0.70544398  0.77212797  1
  O  O8  1  0.73878599  0.29455599  0.22787198  1
  O  O9  1  0.26466600  0.26466599  0.20600199  1
  O  O10  1  0.29455601  0.73878598  0.22787198  1
  O  O11  1  0.73878600  0.73878598  0.22787197  1
