# generated using pymatgen
data_Rb4Ag3S8O5
_symmetry_space_group_name_H-M   'P 1'
_cell_length_a   6.77461100
_cell_length_b   7.74912977
_cell_length_c   7.98333931
_cell_angle_alpha   91.29478455
_cell_angle_beta   90.00000000
_cell_angle_gamma   90.00000000
_symmetry_Int_Tables_number   1
_chemical_formula_structural   Rb4Ag3S8O5
_chemical_formula_sum   'Rb4 Ag3 S8 O5'
_cell_volume   418.99706651
_cell_formula_units_Z   1
loop_
 _symmetry_equiv_pos_site_id
 _symmetry_equiv_pos_as_xyz
  1  'x, y, z'
loop_
 _atom_site_type_symbol
 _atom_site_label
 _atom_site_symmetry_multiplicity
 _atom_site_fract_x
 _atom_site_fract_y
 _atom_site_fract_z
 _atom_site_occupancy
  Rb  Rb0  1  0.61714400  0.99716303  0.23715602  1
  Rb  Rb1  1  0.11714400  0.50283702  0.76284402  1
  Rb  Rb2  1  0.38285600  0.00283700  0.76284401  1
  Rb  Rb3  1  0.88285600  0.49716301  0.23715601  1
  Ag  Ag4  1  0.57828000  0.62757402  0.92525602  1
  Ag  Ag5  1  0.07828000  0.87242603  0.07474402  1
  Ag  Ag6  1  0.42172000  0.37242601  0.07474401  1
  S  S7  1  0.92172000  0.12757400  0.92525601  1
  S  S8  1  0.35025800  0.68536802  0.43561402  1
  O  O9  1  0.85025800  0.81463202  0.56438602  1
  S  S10  1  0.64974200  0.31463201  0.56438601  1
  S  S11  1  0.14974200  0.18536801  0.43561401  1
  S  S12  1  0.89618400  0.11361200  0.62153701  1
  S  S13  1  0.39618400  0.38638801  0.37846301  1
  S  S14  1  0.10381600  0.88638803  0.37846302  1
  O  O15  1  0.60381600  0.61361202  0.62153702  1
  S  S16  1  0.16799400  0.17130001  0.13827900  1
  O  O17  1  0.66799400  0.32870001  0.86172101  1
  O  O18  1  0.83200600  0.82870002  0.86172102  1
  O  O19  1  0.33200600  0.67130002  0.13827902  1
