# generated using pymatgen
data_Y(Co2P)2
_symmetry_space_group_name_H-M   'P 1'
_cell_length_a   3.61867499
_cell_length_b   7.02432919
_cell_length_c   7.02432919
_cell_angle_alpha   90.00000000
_cell_angle_beta   90.00000000
_cell_angle_gamma   90.00000000
_symmetry_Int_Tables_number   1
_chemical_formula_structural   Y(Co2P)2
_chemical_formula_sum   'Y2 Co8 P4'
_cell_volume   178.54976842
_cell_formula_units_Z   2
loop_
 _symmetry_equiv_pos_site_id
 _symmetry_equiv_pos_as_xyz
  1  'x, y, z'
loop_
 _atom_site_type_symbol
 _atom_site_label
 _atom_site_symmetry_multiplicity
 _atom_site_fract_x
 _atom_site_fract_y
 _atom_site_fract_z
 _atom_site_occupancy
  Y  Y0  1  0.00000000  0.49999999  0.49999999  1
  Y  Y1  1  0.50000000  0.00000000  -0.00000000  1
  Co  Co2  1  0.50000000  0.58280298  0.15464700  1
  Co  Co3  1  0.50000000  0.41719699  0.84535298  1
  Co  Co4  1  -0.00000000  0.08280300  0.34535299  1
  Co  Co5  1  0.00000000  0.91719698  0.65464698  1
  Co  Co6  1  0.50000000  0.15464700  0.58280298  1
  Co  Co7  1  0.50000000  0.84535298  0.41719699  1
  Co  Co8  1  0.00000000  0.34535299  0.08280300  1
  Co  Co9  1  -0.00000000  0.65464698  0.91719698  1
  P  P10  1  0.50000000  0.71792398  0.71792398  1
  P  P11  1  0.50000000  0.28207599  0.28207599  1
  P  P12  1  0.00000000  0.21792399  0.78207598  1
  P  P13  1  0.00000000  0.78207598  0.21792399  1
