# generated using pymatgen
data_VF3
_symmetry_space_group_name_H-M   'P 1'
_cell_length_a   5.21380997
_cell_length_b   5.21380997
_cell_length_c   5.54645300
_cell_angle_alpha   61.96487045
_cell_angle_beta   61.96487045
_cell_angle_gamma   60.00000381
_symmetry_Int_Tables_number   1
_chemical_formula_structural   VF3
_chemical_formula_sum   'V2 F6'
_cell_volume   109.67046280
_cell_formula_units_Z   2
loop_
 _symmetry_equiv_pos_site_id
 _symmetry_equiv_pos_as_xyz
  1  'x, y, z'
loop_
 _atom_site_type_symbol
 _atom_site_label
 _atom_site_symmetry_multiplicity
 _atom_site_fract_x
 _atom_site_fract_y
 _atom_site_fract_z
 _atom_site_occupancy
  V  V0  1  0.49999999  0.49999998  0.50000001  1
  V  V1  1  0.00000000  0.00000000  0.00000000  1
  F  F2  1  0.75100597  0.37488398  0.75190600  1
  F  F3  1  0.12220401  0.75100596  0.75190600  1
  F  F4  1  0.62511599  0.87779596  0.24809403  1
  F  F5  1  0.87779597  0.24899399  0.24809402  1
  F  F6  1  0.24899400  0.62511597  0.24809401  1
  F  F7  1  0.37488399  0.12220399  0.75190599  1
