# generated using pymatgen
data_Dy(SiNi5)2
_symmetry_space_group_name_H-M   'P 1'
_cell_length_a   4.55818987
_cell_length_b   6.37619257
_cell_length_c   6.37619257
_cell_angle_alpha   82.65970612
_cell_angle_beta   69.05704498
_cell_angle_gamma   69.05704498
_symmetry_Int_Tables_number   1
_chemical_formula_structural   Dy(SiNi5)2
_chemical_formula_sum   'Dy1 Si2 Ni10'
_cell_volume   161.64050680
_cell_formula_units_Z   1
loop_
 _symmetry_equiv_pos_site_id
 _symmetry_equiv_pos_as_xyz
  1  'x, y, z'
loop_
 _atom_site_type_symbol
 _atom_site_label
 _atom_site_symmetry_multiplicity
 _atom_site_fract_x
 _atom_site_fract_y
 _atom_site_fract_z
 _atom_site_occupancy
  Dy  Dy0  1  0.00000000  0.00000000  0.00000000  1
  Ni  Ni1  1  0.50000002  0.00000000  0.49999997  1
  Si  Si2  1  0.00000000  0.00000000  0.49999999  1
  Si  Si3  1  0.50000000  0.49999999  0.99999994  1
  Ni  Ni4  1  -0.00000002  0.49999999  -0.00000002  1
  Ni  Ni5  1  0.35953999  0.64045999  0.64045995  1
  Ni  Ni6  1  0.64046001  0.35954000  0.35953996  1
  Ni  Ni7  1  -0.00000003  0.64045999  0.35953997  1
  Ni  Ni8  1  -0.00000001  0.35954000  0.64045997  1
  Ni  Ni9  1  0.26976700  0.23023300  0.23023298  1
  Ni  Ni10  1  0.73023300  0.76976699  0.76976693  1
  Ni  Ni11  1  0.50000001  0.23023300  0.76976696  1
  Ni  Ni12  1  0.49999999  0.76976699  0.23023295  1
