# generated using pymatgen
data_LiMn2MoO6
_symmetry_space_group_name_H-M   'P 1'
_cell_length_a   5.05269432
_cell_length_b   5.38846207
_cell_length_c   7.50071001
_cell_angle_alpha   89.99998474
_cell_angle_beta   90.79277039
_cell_angle_gamma   89.99979401
_symmetry_Int_Tables_number   1
_chemical_formula_structural   LiMn2MoO6
_chemical_formula_sum   'Li2 Mn4 Mo2 O12'
_cell_volume   204.19667051
_cell_formula_units_Z   2
loop_
 _symmetry_equiv_pos_site_id
 _symmetry_equiv_pos_as_xyz
  1  'x, y, z'
loop_
 _atom_site_type_symbol
 _atom_site_label
 _atom_site_symmetry_multiplicity
 _atom_site_fract_x
 _atom_site_fract_y
 _atom_site_fract_z
 _atom_site_occupancy
  Li  Li0  1  0.52780605  0.57313999  0.24558301  1
  Li  Li1  1  0.02780604  0.92685899  0.74558003  1
  Mn  Mn2  1  0.47219104  0.42686099  0.75441600  1
  Mn  Mn3  1  0.97219504  0.07314900  0.25442297  1
  Mn  Mn4  1  0.00000302  0.49999699  0.00001602  1
  Mn  Mn5  1  0.49999202  0.00000400  0.49999598  1
  Mo  Mo6  1  0.99999406  0.50000699  0.49999499  1
  Mo  Mo7  1  0.49999906  0.99999499  0.99999402  1
  O  O8  1  0.14099302  0.43802199  0.23896201  1
  O  O9  1  0.64099403  0.06198000  0.73896898  1
  O  O10  1  0.85901106  0.56197999  0.76103700  1
  O  O11  1  0.35900805  0.93801299  0.26102903  1
  O  O12  1  0.30537104  0.68365199  0.93421402  1
  O  O13  1  0.80536907  0.81634099  0.43421101  1
  O  O14  1  0.69463404  0.31634600  0.06578499  1
  O  O15  1  0.19463202  0.18365600  0.56579000  1
  O  O16  1  0.82277307  0.79840199  0.07767701  1
  O  O17  1  0.32276804  0.70160099  0.57768102  1
  O  O18  1  0.17722902  0.20159600  0.92232000  1
  O  O19  1  0.67723304  0.29839900  0.42232199  1
