# generated using pymatgen
data_Cs2CdCu4AsSe6
_symmetry_space_group_name_H-M   'P 1'
_cell_length_a   3.89652801
_cell_length_b   8.71840286
_cell_length_c   12.66386795
_cell_angle_alpha   89.85076141
_cell_angle_beta   90.00000000
_cell_angle_gamma   102.91267395
_symmetry_Int_Tables_number   1
_chemical_formula_structural   Cs2CdCu4AsSe6
_chemical_formula_sum   'Cs2 Cd1 Cu4 As1 Se6'
_cell_volume   419.32984710
_cell_formula_units_Z   1
loop_
 _symmetry_equiv_pos_site_id
 _symmetry_equiv_pos_as_xyz
  1  'x, y, z'
loop_
 _atom_site_type_symbol
 _atom_site_label
 _atom_site_symmetry_multiplicity
 _atom_site_fract_x
 _atom_site_fract_y
 _atom_site_fract_z
 _atom_site_occupancy
  Cs  Cs0  1  0.26921403  0.53842800  0.66506903  1
  Cs  Cs1  1  0.73562303  0.47124600  0.14597402  1
  Cd  Cd2  1  0.46810106  0.93620200  0.08902903  1
  Cu  Cu3  1  0.02582700  0.05165400  0.86396502  1
  Cu  Cu4  1  0.97076506  0.94153000  0.37073104  1
  Cu  Cu5  1  0.34071804  0.68143600  0.95915904  1
  Cu  Cu6  1  0.53014600  0.06029200  0.60073101  1
  As  As7  1  0.59533701  0.19067400  0.77586502  1
  Se  Se8  1  0.40496405  0.80992800  0.28930203  1
  Se  Se9  1  0.07327301  0.14654600  0.04804701  1
  Se  Se10  1  0.94281806  0.88563600  0.56324504  1
  Se  Se11  1  0.88057005  0.76114000  0.84304204  1
  Se  Se12  1  0.11706001  0.23412000  0.35264102  1
  Se  Se13  1  0.64558402  0.29116800  0.47246002  1
