# generated using pymatgen
data_LiFeO2
_symmetry_space_group_name_H-M   'P 1'
_cell_length_a   5.11070490
_cell_length_b   5.11535406
_cell_length_c   5.91431379
_cell_angle_alpha   90.00000000
_cell_angle_beta   90.00000000
_cell_angle_gamma   109.22914886
_symmetry_Int_Tables_number   1
_chemical_formula_structural   LiFeO2
_chemical_formula_sum   'Li4 Fe4 O8'
_cell_volume   145.99197185
_cell_formula_units_Z   4
loop_
 _symmetry_equiv_pos_site_id
 _symmetry_equiv_pos_as_xyz
  1  'x, y, z'
loop_
 _atom_site_type_symbol
 _atom_site_label
 _atom_site_symmetry_multiplicity
 _atom_site_fract_x
 _atom_site_fract_y
 _atom_site_fract_z
 _atom_site_occupancy
  Li  Li0  1  0.00000000  0.00000000  0.75355303  1
  Li  Li1  1  -0.00000000  0.00000000  0.24644701  1
  Li  Li2  1  0.50000001  0.00000000  0.00000000  1
  Li  Li3  1  0.50000001  0.00000000  0.50000002  1
  Fe  Fe4  1  -0.00000002  0.50000000  0.50000002  1
  Fe  Fe5  1  0.49999999  0.50000000  0.74979003  1
  Fe  Fe6  1  0.49999999  0.50000000  0.25021001  1
  Fe  Fe7  1  -0.00000002  0.50000000  -0.00000000  1
  O  O8  1  0.24272897  0.72688700  0.74985703  1
  O  O9  1  0.24272897  0.72688700  0.25014301  1
  O  O10  1  0.25594299  0.27473600  -0.00000000  1
  O  O11  1  0.74405698  0.72526400  -0.00000000  1
  O  O12  1  0.25909899  0.27413700  0.50000002  1
  O  O13  1  0.75727100  0.27311300  0.74985703  1
  O  O14  1  0.74090098  0.72586300  0.50000002  1
  O  O15  1  0.75727100  0.27311300  0.25014301  1
