# generated using pymatgen
data_TiGa3
_symmetry_space_group_name_H-M   'P 1'
_cell_length_a   4.95129299
_cell_length_b   4.95129299
_cell_length_c   4.95129299
_cell_angle_alpha   90.00000000
_cell_angle_beta   90.00000000
_cell_angle_gamma   90.00000000
_symmetry_Int_Tables_number   1
_chemical_formula_structural   TiGa3
_chemical_formula_sum   'Ti2 Ga6'
_cell_volume   121.38244441
_cell_formula_units_Z   2
loop_
 _symmetry_equiv_pos_site_id
 _symmetry_equiv_pos_as_xyz
  1  'x, y, z'
loop_
 _atom_site_type_symbol
 _atom_site_label
 _atom_site_symmetry_multiplicity
 _atom_site_fract_x
 _atom_site_fract_y
 _atom_site_fract_z
 _atom_site_occupancy
  Ti  Ti0  1  0.50000000  0.50000000  0.50000000  1
  Ti  Ti1  1  0.00000000  0.00000000  0.00000000  1
  Ga  Ga2  1  0.50000000  0.75162400  0.00000000  1
  Ga  Ga3  1  0.24837600  0.00000000  0.50000000  1
  Ga  Ga4  1  0.00000000  0.50000000  0.75162400  1
  Ga  Ga5  1  0.50000000  0.24837600  -0.00000000  1
  Ga  Ga6  1  0.75162400  0.00000000  0.50000000  1
  Ga  Ga7  1  0.00000000  0.50000000  0.24837600  1
