# generated using pymatgen
data_Li2AgF6
_symmetry_space_group_name_H-M   'P 1'
_cell_length_a   4.91077518
_cell_length_b   4.91077518
_cell_length_c   9.97718620
_cell_angle_alpha   90.00000000
_cell_angle_beta   90.00000000
_cell_angle_gamma   91.40454102
_symmetry_Int_Tables_number   1
_chemical_formula_structural   Li2AgF6
_chemical_formula_sum   'Li4 Ag2 F12'
_cell_volume   240.53466786
_cell_formula_units_Z   2
loop_
 _symmetry_equiv_pos_site_id
 _symmetry_equiv_pos_as_xyz
  1  'x, y, z'
loop_
 _atom_site_type_symbol
 _atom_site_label
 _atom_site_symmetry_multiplicity
 _atom_site_fract_x
 _atom_site_fract_y
 _atom_site_fract_z
 _atom_site_occupancy
  Li  Li0  1  0.01119800  0.01119800  0.34368999  1
  Li  Li1  1  0.01119800  0.01119800  0.65630999  1
  Li  Li2  1  0.99980093  0.99980097  -0.00000000  1
  Li  Li3  1  0.50407496  0.50407498  0.16861400  1
  Ag  Ag4  1  0.47728897  0.47728899  0.49999999  1
  Ag  Ag5  1  0.50407496  0.50407498  0.83138598  1
  F  F6  1  0.20163099  0.20163099  0.49999999  1
  F  F7  1  0.19684999  0.19684999  0.83266498  1
  F  F8  1  0.19684999  0.19684999  0.16733500  1
  F  F9  1  0.30213996  0.68957498  0.33716199  1
  F  F10  1  0.30213996  0.68957498  0.66283799  1
  F  F11  1  0.30879396  0.69798298  0.99999998  1
  F  F12  1  0.68957497  0.30213999  0.33716199  1
  F  F13  1  0.68957497  0.30213999  0.66283799  1
  F  F14  1  0.69798297  0.30879399  -0.00000000  1
  F  F15  1  0.78251094  0.78251098  0.49999999  1
  F  F16  1  0.81215694  0.81215698  0.82522998  1
  F  F17  1  0.81215694  0.81215698  0.17477000  1
