# generated using pymatgen
data_Al2CuS4
_symmetry_space_group_name_H-M   'P 1'
_cell_length_a   7.30674362
_cell_length_b   7.30674362
_cell_length_c   7.30674362
_cell_angle_alpha   60.00000000
_cell_angle_beta   60.00000000
_cell_angle_gamma   60.00000000
_symmetry_Int_Tables_number   1
_chemical_formula_structural   Al2CuS4
_chemical_formula_sum   'Al4 Cu2 S8'
_cell_volume   275.83959696
_cell_formula_units_Z   2
loop_
 _symmetry_equiv_pos_site_id
 _symmetry_equiv_pos_as_xyz
  1  'x, y, z'
loop_
 _atom_site_type_symbol
 _atom_site_label
 _atom_site_symmetry_multiplicity
 _atom_site_fract_x
 _atom_site_fract_y
 _atom_site_fract_z
 _atom_site_occupancy
  Al  Al0  1  0.37628200  0.37628200  0.87115401  1
  Al  Al1  1  0.37628200  0.37628200  0.37628200  1
  Al  Al2  1  0.37628200  0.87115401  0.37628200  1
  Al  Al3  1  0.87115401  0.37628200  0.37628200  1
  Cu  Cu4  1  0.00000000  0.00000000  0.00000000  1
  Cu  Cu5  1  0.75000000  0.75000000  0.75000000  1
  S  S6  1  0.13305900  0.13305800  0.60082500  1
  S  S7  1  0.13305900  0.13305800  0.13305800  1
  S  S8  1  0.13305900  0.60082500  0.13305800  1
  S  S9  1  0.60082600  0.13305800  0.13305800  1
  S  S10  1  0.62046500  0.62046500  0.13860500  1
  S  S11  1  0.62046500  0.62046500  0.62046500  1
  S  S12  1  0.62046500  0.13860500  0.62046500  1
  S  S13  1  0.13860500  0.62046500  0.62046500  1
