# generated using pymatgen
data_CsRbSrCe(ClO)2
_symmetry_space_group_name_H-M   'P 1'
_cell_length_a   4.15766907
_cell_length_b   4.15766907
_cell_length_c   9.60321331
_cell_angle_alpha   90.00000000
_cell_angle_beta   90.00000000
_cell_angle_gamma   90.00000000
_symmetry_Int_Tables_number   1
_chemical_formula_structural   CsRbSrCe(ClO)2
_chemical_formula_sum   'Cs1 Rb1 Sr1 Ce1 Cl2 O2'
_cell_volume   166.00318187
_cell_formula_units_Z   1
loop_
 _symmetry_equiv_pos_site_id
 _symmetry_equiv_pos_as_xyz
  1  'x, y, z'
loop_
 _atom_site_type_symbol
 _atom_site_label
 _atom_site_symmetry_multiplicity
 _atom_site_fract_x
 _atom_site_fract_y
 _atom_site_fract_z
 _atom_site_occupancy
  Cs  Cs0  1  0.00000000  0.49999999  0.37968899  1
  Rb  Rb1  1  0.49999999  0.00000000  0.62031098  1
  Ce  Ce2  1  0.00000000  0.00000000  0.00000000  1
  Sr  Sr3  1  0.49999999  0.49999999  0.00000000  1
  Cl  Cl4  1  0.49999999  0.00000000  0.18685399  1
  Cl  Cl5  1  0.00000000  0.49999999  0.81314597  1
  O  O6  1  0.49999999  0.49999999  0.49999998  1
  O  O7  1  0.00000000  0.00000000  0.49999998  1
