# generated using pymatgen
data_Zn3Sn3(Pb2O5)2
_symmetry_space_group_name_H-M   'P 1'
_cell_length_a   5.31422186
_cell_length_b   5.31422186
_cell_length_c   15.17665672
_cell_angle_alpha   90.00000000
_cell_angle_beta   90.00000000
_cell_angle_gamma   90.00000000
_symmetry_Int_Tables_number   1
_chemical_formula_structural   Zn3Sn3(Pb2O5)2
_chemical_formula_sum   'Zn3 Sn3 Pb4 O10'
_cell_volume   428.60326388
_cell_formula_units_Z   1
loop_
 _symmetry_equiv_pos_site_id
 _symmetry_equiv_pos_as_xyz
  1  'x, y, z'
loop_
 _atom_site_type_symbol
 _atom_site_label
 _atom_site_symmetry_multiplicity
 _atom_site_fract_x
 _atom_site_fract_y
 _atom_site_fract_z
 _atom_site_occupancy
  Zn  Zn0  1  0.00000000  0.50000001  0.25000000  1
  Zn  Zn1  1  0.50000001  0.00000000  0.75000001  1
  Zn  Zn2  1  0.00000000  0.50000001  0.75000001  1
  Sn  Sn3  1  0.50000001  0.00000000  0.25000000  1
  Sn  Sn4  1  0.50000001  0.50000001  0.40557701  1
  Pb  Pb5  1  0.00000000  0.00000000  0.90557702  1
  Pb  Pb6  1  0.50000001  0.50000001  0.59442301  1
  Sn  Sn7  1  0.00000000  0.00000000  0.09442300  1
  Pb  Pb8  1  0.28879601  0.71120402  0.50000001  1
  Pb  Pb9  1  0.71120402  0.28879601  0.50000001  1
  O  O10  1  0.21120401  0.21120401  -0.00000000  1
  O  O11  1  0.78879602  0.78879602  0.00000000  1
  O  O12  1  0.26337801  0.26337801  0.33929901  1
  O  O13  1  0.73662202  0.73662202  0.33929901  1
  O  O14  1  0.23662201  0.76337802  0.83929902  1
  O  O15  1  0.76337802  0.23662201  0.83929902  1
  O  O16  1  0.73662202  0.73662202  0.66070101  1
  O  O17  1  0.26337801  0.26337801  0.66070101  1
  O  O18  1  0.76337802  0.23662201  0.16070100  1
  O  O19  1  0.23662201  0.76337802  0.16070100  1
