# generated using pymatgen
data_AgF3
_symmetry_space_group_name_H-M   'P 1'
_cell_length_a   4.46965790
_cell_length_b   6.68342781
_cell_length_c   7.12518978
_cell_angle_alpha   90.00000000
_cell_angle_beta   90.00000000
_cell_angle_gamma   90.00000000
_symmetry_Int_Tables_number   1
_chemical_formula_structural   AgF3
_chemical_formula_sum   'Ag4 F12'
_cell_volume   212.84820005
_cell_formula_units_Z   4
loop_
 _symmetry_equiv_pos_site_id
 _symmetry_equiv_pos_as_xyz
  1  'x, y, z'
loop_
 _atom_site_type_symbol
 _atom_site_label
 _atom_site_symmetry_multiplicity
 _atom_site_fract_x
 _atom_site_fract_y
 _atom_site_fract_z
 _atom_site_occupancy
  Ag  Ag0  1  0.94252202  0.63387302  0.75000002  1
  Ag  Ag1  1  0.44252201  0.86612702  0.25000001  1
  Ag  Ag2  1  0.55747801  0.13387300  0.75000002  1
  Ag  Ag3  1  0.05747800  0.36612701  0.25000001  1
  F  F4  1  0.39086201  0.16454700  0.43446501  1
  F  F5  1  0.89086202  0.33545301  0.56553502  1
  F  F6  1  0.10913800  0.66454702  0.06553500  1
  F  F7  1  0.60913801  0.83545302  0.93446503  1
  F  F8  1  0.57840401  0.52041301  0.25000001  1
  F  F9  1  0.07840400  0.97958703  0.75000002  1
  F  F10  1  0.92159602  0.02041300  0.25000001  1
  F  F11  1  0.42159601  0.47958701  0.75000002  1
  F  F12  1  0.39086201  0.16454700  0.06553500  1
  F  F13  1  0.89086202  0.33545301  0.93446503  1
  F  F14  1  0.10913800  0.66454702  0.43446501  1
  F  F15  1  0.60913801  0.83545302  0.56553502  1
