# generated using pymatgen
data_Ce3Ag3Pd2Pb
_symmetry_space_group_name_H-M   'P 1'
_cell_length_a   4.16539288
_cell_length_b   7.70633411
_cell_length_c   7.70633316
_cell_angle_alpha   120.00000000
_cell_angle_beta   90.00000000
_cell_angle_gamma   90.00000000
_symmetry_Int_Tables_number   1
_chemical_formula_structural   Ce3Ag3Pd2Pb
_chemical_formula_sum   'Ce3 Ag3 Pd2 Pb1'
_cell_volume   214.23095133
_cell_formula_units_Z   1
loop_
 _symmetry_equiv_pos_site_id
 _symmetry_equiv_pos_as_xyz
  1  'x, y, z'
loop_
 _atom_site_type_symbol
 _atom_site_label
 _atom_site_symmetry_multiplicity
 _atom_site_fract_x
 _atom_site_fract_y
 _atom_site_fract_z
 _atom_site_occupancy
  Ce  Ce0  1  -0.00000000  0.41325098  0.41325097  1
  Ce  Ce1  1  1.00000003  0.99999995  0.58674892  1
  Ce  Ce2  1  -0.00000000  0.58674897  -0.00000004  1
  Ag  Ag3  1  0.50000001  0.76104196  0.76104194  1
  Ag  Ag4  1  0.50000001  0.99999995  0.23895792  1
  Ag  Ag5  1  0.50000001  0.23895799  -0.00000002  1
  Pd  Pd6  1  0.50000001  0.66666663  0.33333328  1
  Pd  Pd7  1  0.50000001  0.33333332  0.66666664  1
  Pb  Pb8  1  0.00000000  0.00000000  0.00000000  1
