# generated using pymatgen
data_Nb5NiSb3
_symmetry_space_group_name_H-M   'P 1'
_cell_length_a   5.50063181
_cell_length_b   8.18869781
_cell_length_c   8.18869877
_cell_angle_alpha   120.00000000
_cell_angle_beta   90.00000000
_cell_angle_gamma   90.00000000
_symmetry_Int_Tables_number   1
_chemical_formula_structural   Nb5NiSb3
_chemical_formula_sum   'Nb10 Ni2 Sb6'
_cell_volume   319.42797461
_cell_formula_units_Z   2
loop_
 _symmetry_equiv_pos_site_id
 _symmetry_equiv_pos_as_xyz
  1  'x, y, z'
loop_
 _atom_site_type_symbol
 _atom_site_label
 _atom_site_symmetry_multiplicity
 _atom_site_fract_x
 _atom_site_fract_y
 _atom_site_fract_z
 _atom_site_occupancy
  Nb  Nb0  1  0.50000002  0.33333335  0.66666665  1
  Nb  Nb1  1  0.50000002  0.66666669  0.33333334  1
  Nb  Nb2  1  1.00000003  0.66666669  0.33333334  1
  Nb  Nb3  1  1.00000003  0.33333335  0.66666665  1
  Nb  Nb4  1  0.75000003  0.26903601  0.99999997  1
  Nb  Nb5  1  0.75000003  0.73096403  0.73096400  1
  Nb  Nb6  1  0.75000003  0.00000000  0.26903599  1
  Nb  Nb7  1  0.25000001  0.73096403  0.99999999  1
  Nb  Nb8  1  0.25000001  0.26903601  0.26903600  1
  Nb  Nb9  1  0.25000001  0.00000000  0.73096397  1
  Ni  Ni10  1  0.00000000  0.00000000  0.00000000  1
  Ni  Ni11  1  0.50000002  0.00000000  -0.00000000  1
  Sb  Sb12  1  0.75000003  0.61711302  0.99999998  1
  Sb  Sb13  1  0.75000003  0.38288702  0.38288700  1
  Sb  Sb14  1  0.75000003  0.00000000  0.61711298  1
  Sb  Sb15  1  0.25000001  0.38288702  0.99999997  1
  Sb  Sb16  1  0.25000001  0.61711302  0.61711300  1
  Sb  Sb17  1  0.25000001  0.00000000  0.38288698  1
