# generated using pymatgen
data_Rb2GeI4
_symmetry_space_group_name_H-M   'P 1'
_cell_length_a   8.14143181
_cell_length_b   8.61498642
_cell_length_c   11.28658485
_cell_angle_alpha   90.00000000
_cell_angle_beta   69.96286774
_cell_angle_gamma   90.00000000
_symmetry_Int_Tables_number   1
_chemical_formula_structural   Rb2GeI4
_chemical_formula_sum   'Rb4 Ge2 I8'
_cell_volume   743.70586899
_cell_formula_units_Z   2
loop_
 _symmetry_equiv_pos_site_id
 _symmetry_equiv_pos_as_xyz
  1  'x, y, z'
loop_
 _atom_site_type_symbol
 _atom_site_label
 _atom_site_symmetry_multiplicity
 _atom_site_fract_x
 _atom_site_fract_y
 _atom_site_fract_z
 _atom_site_occupancy
  Rb  Rb0  1  0.19772501  0.24999999  0.46510801  1
  Rb  Rb1  1  0.70020802  0.74999996  0.09030299  1
  Rb  Rb2  1  0.80227502  0.74999996  0.53489201  1
  Rb  Rb3  1  0.29979201  0.24999999  0.90969703  1
  Ge  Ge4  1  0.81514202  0.24999999  0.27652200  1
  Ge  Ge5  1  0.18485801  0.74999996  0.72347802  1
  I  I6  1  0.96048503  0.01366900  0.78516602  1
  I  I7  1  0.57529702  0.24999999  0.14479800  1
  I  I8  1  0.35607601  0.74999996  0.45345101  1
  I  I9  1  0.64392402  0.24999999  0.54654901  1
  I  I10  1  0.96048503  0.48633098  0.78516602  1
  I  I11  1  0.42470301  0.74999996  0.85520203  1
  I  I12  1  0.03951500  0.51366897  0.21483401  1
  I  I13  1  0.03951500  0.98633095  0.21483401  1
