# generated using pymatgen
data_La2CuSCl6
_symmetry_space_group_name_H-M   'P 1'
_cell_length_a   4.29758596
_cell_length_b   4.29758596
_cell_length_c   11.04100418
_cell_angle_alpha   90.00000000
_cell_angle_beta   90.00000000
_cell_angle_gamma   90.00000000
_symmetry_Int_Tables_number   1
_chemical_formula_structural   La2CuSCl6
_chemical_formula_sum   'La2 Cu1 S1 Cl6'
_cell_volume   203.91901258
_cell_formula_units_Z   1
loop_
 _symmetry_equiv_pos_site_id
 _symmetry_equiv_pos_as_xyz
  1  'x, y, z'
loop_
 _atom_site_type_symbol
 _atom_site_label
 _atom_site_symmetry_multiplicity
 _atom_site_fract_x
 _atom_site_fract_y
 _atom_site_fract_z
 _atom_site_occupancy
  La  La0  1  0.00000000  0.00000000  0.00000000  1
  La  La1  1  0.50000000  0.00000000  0.74650699  1
  Cu  Cu2  1  0.00000000  0.50000000  0.25349300  1
  Cl  Cl3  1  0.00000000  0.50000000  0.86711199  1
  S  S4  1  0.50000000  0.00000000  0.36020899  1
  Cl  Cl5  1  0.50000000  0.00000000  0.13288800  1
  Cl  Cl6  1  0.00000000  0.50000000  0.63979099  1
  Cl  Cl7  1  0.50000000  0.50000000  0.49999999  1
  Cl  Cl8  1  0.50000000  0.50000000  -0.00000000  1
  Cl  Cl9  1  0.00000000  0.00000000  0.49999999  1
