# generated using pymatgen
data_SrCuH3
_symmetry_space_group_name_H-M   'P 1'
_cell_length_a   4.23080921
_cell_length_b   5.47688341
_cell_length_c   5.47688341
_cell_angle_alpha   90.64440155
_cell_angle_beta   90.00000000
_cell_angle_gamma   90.00000000
_symmetry_Int_Tables_number   1
_chemical_formula_structural   SrCuH3
_chemical_formula_sum   'Sr2 Cu2 H6'
_cell_volume   126.90039241
_cell_formula_units_Z   2
loop_
 _symmetry_equiv_pos_site_id
 _symmetry_equiv_pos_as_xyz
  1  'x, y, z'
loop_
 _atom_site_type_symbol
 _atom_site_label
 _atom_site_symmetry_multiplicity
 _atom_site_fract_x
 _atom_site_fract_y
 _atom_site_fract_z
 _atom_site_occupancy
  Sr  Sr0  1  0.43498398  0.00000000  -0.00000000  1
  Sr  Sr1  1  0.97720695  0.00000000  0.49999998  1
  Cu  Cu2  1  0.97720695  0.49999998  0.00000003  1
  Cu  Cu3  1  0.38863398  0.49999998  0.50000001  1
  H  H4  1  0.55958497  0.00000000  0.49999998  1
  H  H5  1  0.55958497  0.49999998  0.00000003  1
  H  H6  1  0.06276700  0.73352197  0.73352201  1
  H  H7  1  0.06276700  0.26647799  0.26647800  1
  H  H8  1  0.07863200  0.24930599  0.75069398  1
  H  H9  1  0.07863200  0.75069397  0.24930603  1
