# generated using pymatgen
data_TiV3Sn4
_symmetry_space_group_name_H-M   'P 1'
_cell_length_a   4.69002819
_cell_length_b   4.69002867
_cell_length_c   8.34724331
_cell_angle_alpha   90.00000000
_cell_angle_beta   90.00000000
_cell_angle_gamma   120.00000000
_symmetry_Int_Tables_number   1
_chemical_formula_structural   TiV3Sn4
_chemical_formula_sum   'Ti1 V3 Sn4'
_cell_volume   159.01007955
_cell_formula_units_Z   1
loop_
 _symmetry_equiv_pos_site_id
 _symmetry_equiv_pos_as_xyz
  1  'x, y, z'
loop_
 _atom_site_type_symbol
 _atom_site_label
 _atom_site_symmetry_multiplicity
 _atom_site_fract_x
 _atom_site_fract_y
 _atom_site_fract_z
 _atom_site_occupancy
  Ti  Ti0  1  0.66666667  0.33333334  0.08772100  1
  V  V1  1  0.33333337  0.66666667  0.58772098  1
  V  V2  1  0.00000000  0.00000000  0.74999997  1
  V  V3  1  0.00000000  0.00000000  0.24999999  1
  Sn  Sn4  1  0.66666667  0.33333334  0.41227898  1
  Sn  Sn5  1  0.33333337  0.66666667  0.91227897  1
  Sn  Sn6  1  0.33333337  0.66666667  0.24999999  1
  Sn  Sn7  1  0.66666667  0.33333334  0.74999997  1
