# generated using pymatgen
data_K4W3O13
_symmetry_space_group_name_H-M   'P 1'
_cell_length_a   5.58105373
_cell_length_b   5.58105373
_cell_length_c   7.94425583
_cell_angle_alpha   90.00000000
_cell_angle_beta   90.00000000
_cell_angle_gamma   90.60105133
_symmetry_Int_Tables_number   1
_chemical_formula_structural   K4W3O13
_chemical_formula_sum   'K4 W3 O13'
_cell_volume   247.43534246
_cell_formula_units_Z   1
loop_
 _symmetry_equiv_pos_site_id
 _symmetry_equiv_pos_as_xyz
  1  'x, y, z'
loop_
 _atom_site_type_symbol
 _atom_site_label
 _atom_site_symmetry_multiplicity
 _atom_site_fract_x
 _atom_site_fract_y
 _atom_site_fract_z
 _atom_site_occupancy
  K  K0  1  0.51089596  0.48910398  0.25000001  1
  K  K1  1  0.48910396  0.51089598  0.75000002  1
  K  K2  1  0.00349496  0.99650496  0.25000001  1
  K  K3  1  0.99650496  0.00349500  0.75000002  1
  W  W4  1  0.49999998  0.00000000  -0.00000000  1
  W  W5  1  0.49999998  0.00000000  0.50000001  1
  W  W6  1  -0.00000002  0.49999998  -0.00000000  1
  O  O7  1  -0.00000002  0.49999998  0.50000001  1
  O  O8  1  0.46635794  0.95332496  0.75000002  1
  O  O9  1  0.53364198  0.04667500  0.25000001  1
  O  O10  1  0.95332494  0.46635798  0.25000001  1
  O  O11  1  0.04667498  0.53364198  0.75000002  1
  O  O12  1  0.70886496  0.29113499  0.96076702  1
  O  O13  1  0.29113496  0.70886497  0.46076701  1
  O  O14  1  0.29113496  0.70886497  0.03923300  1
  O  O15  1  0.70886496  0.29113499  0.53923301  1
  O  O16  1  0.20703398  0.20703399  0.50000001  1
  O  O17  1  0.79296594  0.79296597  -0.00000000  1
  O  O18  1  0.79296594  0.79296597  0.50000001  1
  O  O19  1  0.20703398  0.20703399  1.00000002  1
