# generated using pymatgen
data_Ce2Sb5
_symmetry_space_group_name_H-M   'P 1'
_cell_length_a   4.38761902
_cell_length_b   4.42272997
_cell_length_c   19.11049080
_cell_angle_alpha   90.00000000
_cell_angle_beta   90.00000000
_cell_angle_gamma   90.00000000
_symmetry_Int_Tables_number   1
_chemical_formula_structural   Ce2Sb5
_chemical_formula_sum   'Ce4 Sb10'
_cell_volume   370.84393043
_cell_formula_units_Z   2
loop_
 _symmetry_equiv_pos_site_id
 _symmetry_equiv_pos_as_xyz
  1  'x, y, z'
loop_
 _atom_site_type_symbol
 _atom_site_label
 _atom_site_symmetry_multiplicity
 _atom_site_fract_x
 _atom_site_fract_y
 _atom_site_fract_z
 _atom_site_occupancy
  Ce  Ce0  1  0.50000000  0.00000000  0.20044700  1
  Ce  Ce1  1  0.00000000  0.50000000  0.79955301  1
  Ce  Ce2  1  0.50000000  0.50000000  0.62889701  1
  Ce  Ce3  1  0.00000000  0.00000000  0.37110300  1
  Sb  Sb4  1  0.50000000  0.50000000  0.92314201  1
  Sb  Sb5  1  0.00000000  0.00000000  0.07685800  1
  Sb  Sb6  1  0.50000000  0.50000000  0.07674500  1
  Sb  Sb7  1  0.00000000  0.00000000  0.92325501  1
  Sb  Sb8  1  0.50000000  0.00000000  0.76740501  1
  Sb  Sb9  1  0.00000000  0.50000000  0.23259500  1
  Sb  Sb10  1  0.50000000  0.50000000  0.34089700  1
  Sb  Sb11  1  0.00000000  0.00000000  0.65910301  1
  Sb  Sb12  1  0.50000000  0.00000000  0.50053101  1
  Sb  Sb13  1  0.00000000  0.50000000  0.49946901  1
