# generated using pymatgen
data_Sc3Ag4S7
_symmetry_space_group_name_H-M   'P 1'
_cell_length_a   6.43023348
_cell_length_b   6.43023348
_cell_length_c   6.43023348
_cell_angle_alpha   109.47122192
_cell_angle_beta   109.47122192
_cell_angle_gamma   109.47122192
_symmetry_Int_Tables_number   1
_chemical_formula_structural   Sc3Ag4S7
_chemical_formula_sum   'Sc3 Ag4 S7'
_cell_volume   204.67194429
_cell_formula_units_Z   1
loop_
 _symmetry_equiv_pos_site_id
 _symmetry_equiv_pos_as_xyz
  1  'x, y, z'
loop_
 _atom_site_type_symbol
 _atom_site_label
 _atom_site_symmetry_multiplicity
 _atom_site_fract_x
 _atom_site_fract_y
 _atom_site_fract_z
 _atom_site_occupancy
  Sc  Sc0  1  0.00000003  0.50000002  0.13896603  1
  Sc  Sc1  1  1.00000003  0.50000002  0.63896605  1
  Ag  Ag2  1  0.36103402  0.36103401  0.86103402  1
  Sc  Sc3  1  0.63896606  1.00000003  0.00000007  1
  Ag  Ag4  1  0.86103406  0.86103403  0.36103407  1
  Ag  Ag5  1  0.50000001  0.13896600  0.50000002  1
  Ag  Ag6  1  0.13896600  0.00000000  0.00000000  1
  S  S7  1  0.50000004  0.63896602  0.50000004  1
  S  S8  1  0.25000006  0.87500003  0.62500005  1
  S  S9  1  0.87500001  0.12500000  0.75000002  1
  S  S10  1  0.62500002  0.37500001  0.25000003  1
  S  S11  1  0.75000004  0.62500002  0.87500005  1
  S  S12  1  0.12500002  0.25000001  0.37500001  1
  S  S13  1  0.37500005  0.75000002  0.12500005  1
