# generated using pymatgen
data_Y2NO
_symmetry_space_group_name_H-M   'P 1'
_cell_length_a   4.82491589
_cell_length_b   4.82491589
_cell_length_c   6.63970232
_cell_angle_alpha   111.30535126
_cell_angle_beta   111.30535126
_cell_angle_gamma   90.00000000
_symmetry_Int_Tables_number   1
_chemical_formula_structural   Y2NO
_chemical_formula_sum   'Y4 N2 O2'
_cell_volume   132.60452560
_cell_formula_units_Z   2
loop_
 _symmetry_equiv_pos_site_id
 _symmetry_equiv_pos_as_xyz
  1  'x, y, z'
loop_
 _atom_site_type_symbol
 _atom_site_label
 _atom_site_symmetry_multiplicity
 _atom_site_fract_x
 _atom_site_fract_y
 _atom_site_fract_z
 _atom_site_occupancy
  Y  Y0  1  0.49999998  0.50000000  -0.00000004  1
  Y  Y1  1  0.24999997  0.75000000  0.49999994  1
  Y  Y2  1  0.00000000  0.00000000  0.00000000  1
  Y  Y3  1  0.74999999  0.25000000  0.49999995  1
  N  N4  1  0.21720999  0.21721000  0.43441997  1
  N  N5  1  0.53279000  0.03279000  0.06557998  1
  O  O6  1  0.96720999  0.46721000  0.93441992  1
  O  O7  1  0.78278997  0.78279000  0.56557992  1
