# generated using pymatgen
data_KNaSiHO4
_symmetry_space_group_name_H-M   'P 1'
_cell_length_a   5.60810280
_cell_length_b   5.65630054
_cell_length_c   7.53915691
_cell_angle_alpha   90.00000000
_cell_angle_beta   90.00000000
_cell_angle_gamma   118.59846497
_symmetry_Int_Tables_number   1
_chemical_formula_structural   KNaSiHO4
_chemical_formula_sum   'K2 Na2 Si2 H2 O8'
_cell_volume   209.97310190
_cell_formula_units_Z   2
loop_
 _symmetry_equiv_pos_site_id
 _symmetry_equiv_pos_as_xyz
  1  'x, y, z'
loop_
 _atom_site_type_symbol
 _atom_site_label
 _atom_site_symmetry_multiplicity
 _atom_site_fract_x
 _atom_site_fract_y
 _atom_site_fract_z
 _atom_site_occupancy
  K  K0  1  0.64580402  0.27919399  0.23317800  1
  K  K1  1  0.35419600  0.72080598  0.73317801  1
  Na  Na2  1  0.00480898  0.99295897  0.48493801  1
  Na  Na3  1  0.99519104  0.00704100  0.98493801  1
  Si  Si4  1  0.31890900  0.62455098  0.24542000  1
  Si  Si5  1  0.68109102  0.37544899  0.74542001  1
  H  H6  1  0.04010099  0.53511899  0.00253700  1
  H  H7  1  0.95989903  0.46488099  0.50253701  1
  O  O8  1  0.65101201  0.78405698  0.23802200  1
  O  O9  1  0.34898801  0.21594299  0.73802201  1
  O  O10  1  0.18758200  0.29440299  0.24023700  1
  O  O11  1  0.81241802  0.70559698  0.74023701  1
  O  O12  1  0.19113299  0.71804498  0.41037400  1
  O  O13  1  0.80886702  0.28195499  0.91037401  1
  O  O14  1  0.19156899  0.70635298  0.06229500  1
  O  O15  1  0.80843102  0.29364699  0.56229501  1
