# generated using pymatgen
data_ZrSnIr
_symmetry_space_group_name_H-M   'P 1'
_cell_length_a   3.78255510
_cell_length_b   7.25292397
_cell_length_c   7.25292349
_cell_angle_alpha   120.00000000
_cell_angle_beta   90.00000000
_cell_angle_gamma   90.00000000
_symmetry_Int_Tables_number   1
_chemical_formula_structural   ZrSnIr
_chemical_formula_sum   'Zr3 Sn3 Ir3'
_cell_volume   172.32255129
_cell_formula_units_Z   3
loop_
 _symmetry_equiv_pos_site_id
 _symmetry_equiv_pos_as_xyz
  1  'x, y, z'
loop_
 _atom_site_type_symbol
 _atom_site_label
 _atom_site_symmetry_multiplicity
 _atom_site_fract_x
 _atom_site_fract_y
 _atom_site_fract_z
 _atom_site_occupancy
  Zr  Zr0  1  -0.00000000  0.40573499  1.00000000  1
  Zr  Zr1  1  -0.00000000  0.59426499  0.59426499  1
  Zr  Zr2  1  -0.00000000  0.00000000  0.40573501  1
  Sn  Sn3  1  0.49999999  0.74595099  0.99999999  1
  Sn  Sn4  1  0.49999999  0.25404900  0.25404900  1
  Sn  Sn5  1  0.49999999  0.00000000  0.74595101  1
  Ir  Ir6  1  0.00000000  0.00000000  0.00000000  1
  Ir  Ir7  1  0.49999999  0.33333333  0.66666667  1
  Ir  Ir8  1  0.49999999  0.66666666  0.33333332  1
