# generated using pymatgen
data_Ti2WO5
_symmetry_space_group_name_H-M   'P 1'
_cell_length_a   5.12096310
_cell_length_b   5.12096310
_cell_length_c   5.46606302
_cell_angle_alpha   62.06740570
_cell_angle_beta   62.06740570
_cell_angle_gamma   59.99998856
_symmetry_Int_Tables_number   1
_chemical_formula_structural   Ti2WO5
_chemical_formula_sum   'Ti2 W1 O5'
_cell_volume   104.41181407
_cell_formula_units_Z   1
loop_
 _symmetry_equiv_pos_site_id
 _symmetry_equiv_pos_as_xyz
  1  'x, y, z'
loop_
 _atom_site_type_symbol
 _atom_site_label
 _atom_site_symmetry_multiplicity
 _atom_site_fract_x
 _atom_site_fract_y
 _atom_site_fract_z
 _atom_site_occupancy
  Ti  Ti0  1  0.49999999  0.49999998  0.50000000  1
  Ti  Ti1  1  0.00000000  0.00000000  0.00000000  1
  W  W2  1  0.10840600  0.36734799  0.76092500  1
  O  O3  1  0.36734800  0.76332097  0.76092500  1
  O  O4  1  0.76332098  0.10840600  0.76092501  1
  O  O5  1  0.89159398  0.63265198  0.23907501  1
  O  O6  1  0.63265198  0.23667899  0.23907501  1
  O  O7  1  0.23667900  0.89159397  0.23907500  1
