# generated using pymatgen
data_Ce2Si2NiGe
_symmetry_space_group_name_H-M   'P 1'
_cell_length_a   4.04149389
_cell_length_b   4.18714237
_cell_length_c   7.02157021
_cell_angle_alpha   90.00543976
_cell_angle_beta   90.00000000
_cell_angle_gamma   90.00000000
_symmetry_Int_Tables_number   1
_chemical_formula_structural   Ce2Si2NiGe
_chemical_formula_sum   'Ce2 Si2 Ni1 Ge1'
_cell_volume   118.82118945
_cell_formula_units_Z   1
loop_
 _symmetry_equiv_pos_site_id
 _symmetry_equiv_pos_as_xyz
  1  'x, y, z'
loop_
 _atom_site_type_symbol
 _atom_site_label
 _atom_site_symmetry_multiplicity
 _atom_site_fract_x
 _atom_site_fract_y
 _atom_site_fract_z
 _atom_site_occupancy
  Ce  Ce0  1  -0.00000000  0.99995505  0.00512303  1
  Ce  Ce1  1  -0.00000000  0.49994402  0.49846702  1
  Ge  Ge2  1  0.50000001  0.99997505  0.32227603  1
  Si  Si3  1  0.50000001  0.49996202  0.83792102  1
  Si  Si4  1  0.50000001  0.50000302  0.18983902  1
  Ni  Ni5  1  0.50000001  0.99996005  0.64637403  1
