# generated using pymatgen
data_Sr2Sb3
_symmetry_space_group_name_H-M   'P 1'
_cell_length_a   4.49886417
_cell_length_b   4.49886370
_cell_length_c   11.03762436
_cell_angle_alpha   90.00000000
_cell_angle_beta   90.00000000
_cell_angle_gamma   120.00000000
_symmetry_Int_Tables_number   1
_chemical_formula_structural   Sr2Sb3
_chemical_formula_sum   'Sr2 Sb3'
_cell_volume   193.46925459
_cell_formula_units_Z   1
loop_
 _symmetry_equiv_pos_site_id
 _symmetry_equiv_pos_as_xyz
  1  'x, y, z'
loop_
 _atom_site_type_symbol
 _atom_site_label
 _atom_site_symmetry_multiplicity
 _atom_site_fract_x
 _atom_site_fract_y
 _atom_site_fract_z
 _atom_site_occupancy
  Sr  Sr0  1  0.33333328  0.66666662  0.34700499  1
  Sr  Sr1  1  0.66666662  0.33333331  0.65299498  1
  Sb  Sb2  1  0.00000000  0.00000000  0.49999998  1
  Sb  Sb3  1  0.66666662  0.33333331  0.16067699  1
  Sb  Sb4  1  0.33333328  0.66666662  0.83932297  1
