# generated using pymatgen
data_Ce11Pd3
_symmetry_space_group_name_H-M   'P 1'
_cell_length_a   6.79514980
_cell_length_b   7.83223152
_cell_length_c   9.06903458
_cell_angle_alpha   96.97615051
_cell_angle_beta   112.00173950
_cell_angle_gamma   90.00000000
_symmetry_Int_Tables_number   1
_chemical_formula_structural   Ce11Pd3
_chemical_formula_sum   'Ce11 Pd3'
_cell_volume   443.65721298
_cell_formula_units_Z   1
loop_
 _symmetry_equiv_pos_site_id
 _symmetry_equiv_pos_as_xyz
  1  'x, y, z'
loop_
 _atom_site_type_symbol
 _atom_site_label
 _atom_site_symmetry_multiplicity
 _atom_site_fract_x
 _atom_site_fract_y
 _atom_site_fract_z
 _atom_site_occupancy
  Ce  Ce0  1  0.20163202  0.42020400  0.18260202  1
  Ce  Ce1  1  0.01903000  0.07979600  0.81739797  1
  Ce  Ce2  1  0.79836805  0.57979600  0.81739802  1
  Ce  Ce3  1  0.98097007  0.92020399  0.18260207  1
  Ce  Ce4  1  0.79648205  0.31822000  0.43538102  1
  Ce  Ce5  1  0.36110102  0.18178000  0.56461899  1
  Ce  Ce6  1  0.20351803  0.68178000  0.56461902  1
  Ce  Ce7  1  0.63889906  0.81822000  0.43538105  1
  Ce  Ce8  1  0.57887603  0.25000000  0.00000003  1
  Ce  Ce9  1  0.42112404  0.75000000  0.00000006  1
  Pd  Pd10  1  0.40230802  0.08070800  0.21890601  1
  Ce  Ce11  1  0.18340202  0.41929200  0.78109399  1
  Pd  Pd12  1  0.59769206  0.91929199  0.78109403  1
  Pd  Pd13  1  0.81659806  0.58070800  0.21890605  1
