# generated using pymatgen
data_ScPaRu2
_symmetry_space_group_name_H-M   'P 1'
_cell_length_a   4.68837261
_cell_length_b   4.68837261
_cell_length_c   4.68837261
_cell_angle_alpha   60.00000000
_cell_angle_beta   60.00000000
_cell_angle_gamma   60.00000000
_symmetry_Int_Tables_number   1
_chemical_formula_structural   ScPaRu2
_chemical_formula_sum   'Sc1 Pa1 Ru2'
_cell_volume   72.87043515
_cell_formula_units_Z   1
loop_
 _symmetry_equiv_pos_site_id
 _symmetry_equiv_pos_as_xyz
  1  'x, y, z'
loop_
 _atom_site_type_symbol
 _atom_site_label
 _atom_site_symmetry_multiplicity
 _atom_site_fract_x
 _atom_site_fract_y
 _atom_site_fract_z
 _atom_site_occupancy
  Pa  Pa0  1  0.74999999  0.74999999  0.74999999  1
  Sc  Sc1  1  0.25000000  0.25000000  0.25000000  1
  Ru  Ru2  1  0.49999999  0.49999999  0.49999999  1
  Ru  Ru3  1  0.00000000  0.00000000  0.00000000  1
