# generated using pymatgen
data_Ta4NbSb
_symmetry_space_group_name_H-M   'P 1'
_cell_length_a   3.55294204
_cell_length_b   7.06326199
_cell_length_c   7.06326199
_cell_angle_alpha   90.00000000
_cell_angle_beta   90.00000000
_cell_angle_gamma   90.00000000
_symmetry_Int_Tables_number   1
_chemical_formula_structural   Ta4NbSb
_chemical_formula_sum   'Ta4 Nb1 Sb1'
_cell_volume   177.25510536
_cell_formula_units_Z   1
loop_
 _symmetry_equiv_pos_site_id
 _symmetry_equiv_pos_as_xyz
  1  'x, y, z'
loop_
 _atom_site_type_symbol
 _atom_site_label
 _atom_site_symmetry_multiplicity
 _atom_site_fract_x
 _atom_site_fract_y
 _atom_site_fract_z
 _atom_site_occupancy
  Ta  Ta0  1  0.00000000  0.00000000  0.00000000  1
  Ta  Ta1  1  0.49999999  0.50000000  0.50000000  1
  Sb  Sb2  1  0.00000000  0.28065400  0.28065400  1
  Ta  Ta3  1  0.00000000  0.71934600  0.71934600  1
  Nb  Nb4  1  0.49999999  0.21934600  0.78065400  1
  Ta  Ta5  1  0.49999999  0.78065400  0.21934600  1
