# generated using pymatgen
data_MnNb5Si8
_symmetry_space_group_name_H-M   'P 1'
_cell_length_a   3.66429591
_cell_length_b   3.68275189
_cell_length_c   16.37530899
_cell_angle_alpha   96.45646667
_cell_angle_beta   90.00000000
_cell_angle_gamma   90.00000000
_symmetry_Int_Tables_number   1
_chemical_formula_structural   MnNb5Si8
_chemical_formula_sum   'Mn1 Nb5 Si8'
_cell_volume   219.57821653
_cell_formula_units_Z   1
loop_
 _symmetry_equiv_pos_site_id
 _symmetry_equiv_pos_as_xyz
  1  'x, y, z'
loop_
 _atom_site_type_symbol
 _atom_site_label
 _atom_site_symmetry_multiplicity
 _atom_site_fract_x
 _atom_site_fract_y
 _atom_site_fract_z
 _atom_site_occupancy
  Nb  Nb0  1  0.25000001  0.04709800  0.09419599  1
  Nb  Nb1  1  0.75000002  0.95290202  0.90580394  1
  Nb  Nb2  1  0.25000001  0.32340401  0.64680796  1
  Nb  Nb3  1  0.75000002  0.67659601  0.35319197  1
  Mn  Mn4  1  0.25000001  0.74994602  0.49989196  1
  Nb  Nb5  1  0.75000002  0.25005401  0.50010797  1
  Si  Si6  1  0.25000001  0.47563401  0.95126795  1
  Si  Si7  1  0.75000002  0.52436601  0.04873199  1
  Si  Si8  1  0.25000001  0.61257401  0.22514798  1
  Si  Si9  1  0.75000002  0.38742601  0.77485196  1
  Si  Si10  1  0.25000001  0.88711602  0.77423195  1
  Si  Si11  1  0.75000002  0.11288400  0.22576799  1
  Si  Si12  1  0.25000001  0.20209700  0.40419398  1
  Si  Si13  1  0.75000002  0.79790302  0.59580596  1
