# generated using pymatgen
data_U2Sn2Au7
_symmetry_space_group_name_H-M   'P 1'
_cell_length_a   4.25366211
_cell_length_b   4.25366211
_cell_length_c   11.06751633
_cell_angle_alpha   90.00000000
_cell_angle_beta   90.00000000
_cell_angle_gamma   90.00000000
_symmetry_Int_Tables_number   1
_chemical_formula_structural   U2Sn2Au7
_chemical_formula_sum   'U2 Sn2 Au7'
_cell_volume   200.25167095
_cell_formula_units_Z   1
loop_
 _symmetry_equiv_pos_site_id
 _symmetry_equiv_pos_as_xyz
  1  'x, y, z'
loop_
 _atom_site_type_symbol
 _atom_site_label
 _atom_site_symmetry_multiplicity
 _atom_site_fract_x
 _atom_site_fract_y
 _atom_site_fract_z
 _atom_site_occupancy
  U  U0  1  0.00000000  0.00000000  0.69508298  1
  U  U1  1  0.00000000  0.00000000  0.30491699  1
  Sn  Sn2  1  0.49999999  0.00000000  0.88493397  1
  Sn  Sn3  1  0.00000000  0.49999999  0.88493397  1
  Au  Au4  1  0.49999999  0.00000000  0.11506600  1
  Au  Au5  1  0.00000000  0.49999999  0.11506600  1
  Au  Au6  1  0.49999999  0.00000000  0.49999999  1
  Au  Au7  1  0.00000000  0.49999999  0.49999999  1
  Au  Au8  1  0.49999999  0.49999999  0.70058098  1
  Au  Au9  1  0.49999999  0.49999999  0.29941899  1
  Au  Au10  1  0.00000000  0.00000000  0.00000000  1
