# generated using pymatgen
data_KCrO2
_symmetry_space_group_name_H-M   'P 1'
_cell_length_a   4.53735018
_cell_length_b   5.48625898
_cell_length_c   6.25185680
_cell_angle_alpha   90.00000000
_cell_angle_beta   111.27718353
_cell_angle_gamma   90.00000000
_symmetry_Int_Tables_number   1
_chemical_formula_structural   KCrO2
_chemical_formula_sum   'K2 Cr2 O4'
_cell_volume   145.01970608
_cell_formula_units_Z   2
loop_
 _symmetry_equiv_pos_site_id
 _symmetry_equiv_pos_as_xyz
  1  'x, y, z'
loop_
 _atom_site_type_symbol
 _atom_site_label
 _atom_site_symmetry_multiplicity
 _atom_site_fract_x
 _atom_site_fract_y
 _atom_site_fract_z
 _atom_site_occupancy
  K  K0  1  0.69674497  0.25000000  0.39348999  1
  K  K1  1  0.30325499  0.75000000  0.60651000  1
  Cr  Cr2  1  0.00254700  0.75000000  0.00509400  1
  Cr  Cr3  1  0.99745296  0.25000000  0.99490599  1
  O  O4  1  0.10591600  0.49519800  0.21183200  1
  O  O5  1  0.89408396  0.50480200  0.78816799  1
  O  O6  1  0.10591600  0.00480200  0.21183200  1
  O  O7  1  0.89408396  0.99519800  0.78816799  1
