# generated using pymatgen
data_Lu3(NiGe)4
_symmetry_space_group_name_H-M   'P 1'
_cell_length_a   4.14554405
_cell_length_b   6.54912996
_cell_length_c   7.87269068
_cell_angle_alpha   114.57851410
_cell_angle_beta   105.26515198
_cell_angle_gamma   90.00000000
_symmetry_Int_Tables_number   1
_chemical_formula_structural   Lu3(NiGe)4
_chemical_formula_sum   'Lu3 Ni4 Ge4'
_cell_volume   186.04998250
_cell_formula_units_Z   1
loop_
 _symmetry_equiv_pos_site_id
 _symmetry_equiv_pos_as_xyz
  1  'x, y, z'
loop_
 _atom_site_type_symbol
 _atom_site_label
 _atom_site_symmetry_multiplicity
 _atom_site_fract_x
 _atom_site_fract_y
 _atom_site_fract_z
 _atom_site_occupancy
  Lu  Lu0  1  0.12901202  0.62901202  0.25802404  1
  Lu  Lu1  1  0.87098800  0.37098801  0.74197603  1
  Lu  Lu2  1  0.00000000  0.00000000  0.00000000  1
  Ni  Ni3  1  0.66873100  0.35889101  0.33746202  1
  Ni  Ni4  1  0.33126901  0.64110902  0.66253805  1
  Ni  Ni5  1  0.66873102  0.97857103  0.33746206  1
  Ni  Ni6  1  0.33126900  0.02142900  0.66253801  1
  Ge  Ge7  1  0.78374801  0.78374803  0.56749605  1
  Ge  Ge8  1  0.21625200  0.21625201  0.43250402  1
  Ge  Ge9  1  0.50000000  0.31624401  0.00000002  1
  Ge  Ge10  1  0.50000001  0.68375602  0.00000004  1
