# generated using pymatgen
data_InCu3AsS3
_symmetry_space_group_name_H-M   'P 1'
_cell_length_a   5.97361851
_cell_length_b   6.01200819
_cell_length_c   6.95034790
_cell_angle_alpha   115.62612152
_cell_angle_beta   115.08345795
_cell_angle_gamma   90.00000000
_symmetry_Int_Tables_number   1
_chemical_formula_structural   InCu3AsS3
_chemical_formula_sum   'In1 Cu3 As1 S3'
_cell_volume   198.62868124
_cell_formula_units_Z   1
loop_
 _symmetry_equiv_pos_site_id
 _symmetry_equiv_pos_as_xyz
  1  'x, y, z'
loop_
 _atom_site_type_symbol
 _atom_site_label
 _atom_site_symmetry_multiplicity
 _atom_site_fract_x
 _atom_site_fract_y
 _atom_site_fract_z
 _atom_site_occupancy
  Cu  Cu0  1  0.38054100  0.50318297  0.24358400  1
  In  In1  1  0.61945900  0.25959899  0.75641604  1
  Cu  Cu2  1  0.86289700  0.98599795  0.24257500  1
  Cu  Cu3  1  0.13710300  0.74342296  0.75742499  1
  As  As4  1  0.00000000  0.15706499  -0.00000001  1
  S  S5  1  0.27877000  0.87461695  0.49925199  1
  S  S6  1  0.72123000  0.37536498  0.50074803  1
  S  S7  1  0.50000000  0.59074997  -0.00000000  1
