# generated using pymatgen
data_K2Na2CuB3O10
_symmetry_space_group_name_H-M   'P 1'
_cell_length_a   5.51276112
_cell_length_b   5.51276112
_cell_length_c   7.54152107
_cell_angle_alpha   90.00000000
_cell_angle_beta   90.00000000
_cell_angle_gamma   90.00000000
_symmetry_Int_Tables_number   1
_chemical_formula_structural   K2Na2CuB3O10
_chemical_formula_sum   'K2 Na2 Cu1 B3 O10'
_cell_volume   229.19086103
_cell_formula_units_Z   1
loop_
 _symmetry_equiv_pos_site_id
 _symmetry_equiv_pos_as_xyz
  1  'x, y, z'
loop_
 _atom_site_type_symbol
 _atom_site_label
 _atom_site_symmetry_multiplicity
 _atom_site_fract_x
 _atom_site_fract_y
 _atom_site_fract_z
 _atom_site_occupancy
  K  K0  1  0.00000000  0.00000000  0.01083500  1
  K  K1  1  0.49999999  0.49999999  0.01083500  1
  Na  Na2  1  0.00000000  0.00000000  0.51472000  1
  Na  Na3  1  0.49999999  0.49999999  0.51472000  1
  Cu  Cu4  1  0.49999999  0.00000000  0.73284999  1
  B  B5  1  -0.00000000  0.49999999  0.73284999  1
  B  B6  1  0.49999999  0.00000000  0.25226800  1
  B  B7  1  -0.00000000  0.49999999  0.25226800  1
  O  O8  1  0.15747600  0.65747599  0.34000500  1
  O  O9  1  0.84252398  0.34252399  0.34000500  1
  O  O10  1  0.34252399  0.15747600  0.34000500  1
  O  O11  1  0.65747599  0.84252398  0.34000500  1
  O  O12  1  0.49999999  0.00000000  0.06699300  1
  O  O13  1  -0.00000000  0.49999999  0.06699300  1
  O  O14  1  0.25265699  0.75265698  0.71266199  1
  O  O15  1  0.74734298  0.24734299  0.71266199  1
  O  O16  1  0.24734299  0.25265699  0.71266199  1
  O  O17  1  0.75265698  0.74734298  0.71266199  1
