# generated using pymatgen
data_Ti2CrO4
_symmetry_space_group_name_H-M   'P 1'
_cell_length_a   5.35904980
_cell_length_b   5.35904980
_cell_length_c   7.57822227
_cell_angle_alpha   98.18362427
_cell_angle_beta   110.08850861
_cell_angle_gamma   108.24050903
_symmetry_Int_Tables_number   1
_chemical_formula_structural   Ti2CrO4
_chemical_formula_sum   'Ti4 Cr2 O8'
_cell_volume   186.35872789
_cell_formula_units_Z   2
loop_
 _symmetry_equiv_pos_site_id
 _symmetry_equiv_pos_as_xyz
  1  'x, y, z'
loop_
 _atom_site_type_symbol
 _atom_site_label
 _atom_site_symmetry_multiplicity
 _atom_site_fract_x
 _atom_site_fract_y
 _atom_site_fract_z
 _atom_site_occupancy
  Ti  Ti0  1  0.00000000  0.00000000  0.00000000  1
  Ti  Ti1  1  0.49999999  0.00000000  0.49999999  1
  Ti  Ti2  1  0.22475201  0.47475200  0.74999998  1
  Ti  Ti3  1  0.77524801  0.52524800  0.24999996  1
  Cr  Cr4  1  0.13412303  0.88412301  0.24999997  1
  Cr  Cr5  1  0.86587699  0.11587700  0.74999997  1
  O  O6  1  0.64996902  0.77968101  0.37190596  1
  O  O7  1  0.90777500  0.27806300  0.12809397  1
  O  O8  1  0.36787801  0.29100700  0.04644098  1
  O  O9  1  0.74456600  0.32143700  0.45355897  1
  O  O10  1  0.63212202  0.70899300  0.95355896  1
  O  O11  1  0.25543402  0.67856300  0.54644097  1
  O  O12  1  0.09222502  0.72193700  0.87190598  1
  O  O13  1  0.35003100  0.22031900  0.62809398  1
