# generated using pymatgen
data_TaSe2
_symmetry_space_group_name_H-M   'P 1'
_cell_length_a   6.24606419
_cell_length_b   6.24606419
_cell_length_c   6.24606419
_cell_angle_alpha   90.00000000
_cell_angle_beta   90.00000000
_cell_angle_gamma   90.00000000
_symmetry_Int_Tables_number   1
_chemical_formula_structural   TaSe2
_chemical_formula_sum   'Ta4 Se8'
_cell_volume   243.67968720
_cell_formula_units_Z   4
loop_
 _symmetry_equiv_pos_site_id
 _symmetry_equiv_pos_as_xyz
  1  'x, y, z'
loop_
 _atom_site_type_symbol
 _atom_site_label
 _atom_site_symmetry_multiplicity
 _atom_site_fract_x
 _atom_site_fract_y
 _atom_site_fract_z
 _atom_site_occupancy
  Ta  Ta0  1  0.12483700  0.62483698  0.87516297  1
  Ta  Ta1  1  0.62483698  0.87516297  0.12483700  1
  Ta  Ta2  1  0.87516297  0.12483700  0.62483698  1
  Ta  Ta3  1  0.37516299  0.37516299  0.37516299  1
  Se  Se4  1  0.49308399  0.99308397  0.50691598  1
  Se  Se5  1  0.99308397  0.50691598  0.49308399  1
  Se  Se6  1  0.50691598  0.49308399  0.99308397  1
  Se  Se7  1  0.00691600  0.00691600  0.00691600  1
  Se  Se8  1  0.87708697  0.37708699  0.12291300  1
  Se  Se9  1  0.37708699  0.12291300  0.87708697  1
  Se  Se10  1  0.12291300  0.87708697  0.37708699  1
  Se  Se11  1  0.62291298  0.62291298  0.62291298  1
