# generated using pymatgen
data_NaPrSbO5
_symmetry_space_group_name_H-M   'P 1'
_cell_length_a   4.02522182
_cell_length_b   4.02522135
_cell_length_c   7.48202515
_cell_angle_alpha   90.00000000
_cell_angle_beta   90.00000000
_cell_angle_gamma   120.00000000
_symmetry_Int_Tables_number   1
_chemical_formula_structural   NaPrSbO5
_chemical_formula_sum   'Na1 Pr1 Sb1 O5'
_cell_volume   104.98551458
_cell_formula_units_Z   1
loop_
 _symmetry_equiv_pos_site_id
 _symmetry_equiv_pos_as_xyz
  1  'x, y, z'
loop_
 _atom_site_type_symbol
 _atom_site_label
 _atom_site_symmetry_multiplicity
 _atom_site_fract_x
 _atom_site_fract_y
 _atom_site_fract_z
 _atom_site_occupancy
  Na  Na0  1  0.66666667  0.33333334  0.09185400  1
  Pr  Pr1  1  0.33333330  0.66666668  0.90814598  1
  Sb  Sb2  1  0.33333330  0.66666668  0.56485499  1
  O  O3  1  0.66666667  0.33333334  0.43514499  1
  O  O4  1  0.00000000  0.00000000  0.27358599  1
  O  O5  1  0.00000000  0.00000000  0.72641399  1
  O  O6  1  0.66666667  0.33333334  0.74866499  1
  O  O7  1  0.33333330  0.66666668  0.25133500  1
