# generated using pymatgen
data_PrTiO4
_symmetry_space_group_name_H-M   'P 1'
_cell_length_a   3.92210007
_cell_length_b   5.29712439
_cell_length_c   9.90275764
_cell_angle_alpha   74.52236938
_cell_angle_beta   78.57817841
_cell_angle_gamma   68.27141571
_symmetry_Int_Tables_number   1
_chemical_formula_structural   PrTiO4
_chemical_formula_sum   'Pr2 Ti2 O8'
_cell_volume   183.05404729
_cell_formula_units_Z   2
loop_
 _symmetry_equiv_pos_site_id
 _symmetry_equiv_pos_as_xyz
  1  'x, y, z'
loop_
 _atom_site_type_symbol
 _atom_site_label
 _atom_site_symmetry_multiplicity
 _atom_site_fract_x
 _atom_site_fract_y
 _atom_site_fract_z
 _atom_site_occupancy
  Pr  Pr0  1  0.77833100  0.23845500  0.20488301  1
  Pr  Pr1  1  0.22166904  0.76154499  0.79511702  1
  Ti  Ti2  1  0.61870100  0.19248100  0.57011701  1
  Ti  Ti3  1  0.38129904  0.80751899  0.42988302  1
  O  O4  1  0.11403504  0.67714299  0.09478701  1
  O  O5  1  0.88596500  0.32285699  0.90521302  1
  O  O6  1  0.16782700  0.09940500  0.56494101  1
  O  O7  1  0.57785602  0.46902799  0.37526002  1
  O  O8  1  0.65064805  0.95080198  0.74790203  1
  O  O9  1  0.34935200  0.04919800  0.25209801  1
  O  O10  1  0.83217304  0.90059498  0.43505903  1
  O  O11  1  0.42214403  0.53097199  0.62474002  1
