# generated using pymatgen
data_InCu
_symmetry_space_group_name_H-M   'P 1'
_cell_length_a   4.95712996
_cell_length_b   4.95712996
_cell_length_c   9.19976521
_cell_angle_alpha   74.37047577
_cell_angle_beta   74.37047577
_cell_angle_gamma   60.00000000
_symmetry_Int_Tables_number   1
_chemical_formula_structural   InCu
_chemical_formula_sum   'In6 Cu6'
_cell_volume   186.06502519
_cell_formula_units_Z   6
loop_
 _symmetry_equiv_pos_site_id
 _symmetry_equiv_pos_as_xyz
  1  'x, y, z'
loop_
 _atom_site_type_symbol
 _atom_site_label
 _atom_site_symmetry_multiplicity
 _atom_site_fract_x
 _atom_site_fract_y
 _atom_site_fract_z
 _atom_site_occupancy
  In  In0  1  0.83082301  0.83082301  0.50753097  1
  In  In1  1  0.25000001  0.90383901  0.24999997  1
  In  In2  1  0.75000001  0.09616100  0.75000000  1
  In  In3  1  0.66917701  0.66917701  0.99246899  1
  Cu  Cu4  1  0.09616100  0.40383900  0.75000001  1
  In  In5  1  0.16917700  0.16917700  0.49246901  1
  Cu  Cu6  1  0.90383901  0.59616101  0.24999996  1
  In  In7  1  0.33082300  0.33082300  0.00753098  1
  Cu  Cu8  1  0.40383901  0.75000001  0.74999999  1
  Cu  Cu9  1  0.59616101  0.25000000  0.24999998  1
  Cu  Cu10  1  0.00000000  0.00000000  0.00000000  1
  Cu  Cu11  1  0.50000001  0.50000000  0.49999999  1
