# generated using pymatgen
data_YCo5
_symmetry_space_group_name_H-M   'P 1'
_cell_length_a   3.93194103
_cell_length_b   4.91893005
_cell_length_c   8.51682854
_cell_angle_alpha   90.00000000
_cell_angle_beta   90.00000000
_cell_angle_gamma   90.00000000
_symmetry_Int_Tables_number   1
_chemical_formula_structural   YCo5
_chemical_formula_sum   'Y2 Co10'
_cell_volume   164.72349454
_cell_formula_units_Z   2
loop_
 _symmetry_equiv_pos_site_id
 _symmetry_equiv_pos_as_xyz
  1  'x, y, z'
loop_
 _atom_site_type_symbol
 _atom_site_label
 _atom_site_symmetry_multiplicity
 _atom_site_fract_x
 _atom_site_fract_y
 _atom_site_fract_z
 _atom_site_occupancy
  Y  Y0  1  0.00000000  0.49999999  0.99992805  1
  Y  Y1  1  0.00000000  0.00000000  0.50017203  1
  Co  Co2  1  0.00000000  0.49999999  0.33518202  1
  Co  Co3  1  0.00000000  0.00000000  0.83161505  1
  Co  Co4  1  0.00000000  0.00000000  0.16836201  1
  Co  Co5  1  0.00000000  0.49999999  0.66464004  1
  Co  Co6  1  0.50000000  0.49999999  0.50027603  1
  Co  Co7  1  0.50000000  0.00000000  0.00025100  1
  Co  Co8  1  0.50000000  0.75304599  0.25247901  1
  Co  Co9  1  0.50000000  0.24877400  0.74734904  1
  Co  Co10  1  0.50000000  0.24695400  0.25247901  1
  Co  Co11  1  0.50000000  0.75122599  0.74734904  1
