# generated using pymatgen
data_Rb2Si3S7
_symmetry_space_group_name_H-M   'P 1'
_cell_length_a   5.17762613
_cell_length_b   7.19365740
_cell_length_c   7.19365740
_cell_angle_alpha   102.78310394
_cell_angle_beta   90.00000000
_cell_angle_gamma   90.00000000
_symmetry_Int_Tables_number   1
_chemical_formula_structural   Rb2Si3S7
_chemical_formula_sum   'Rb2 Si3 S7'
_cell_volume   261.29458101
_cell_formula_units_Z   1
loop_
 _symmetry_equiv_pos_site_id
 _symmetry_equiv_pos_as_xyz
  1  'x, y, z'
loop_
 _atom_site_type_symbol
 _atom_site_label
 _atom_site_symmetry_multiplicity
 _atom_site_fract_x
 _atom_site_fract_y
 _atom_site_fract_z
 _atom_site_occupancy
  Rb  Rb0  1  0.49999999  0.67046602  0.32953398  1
  Rb  Rb1  1  -0.00000000  0.32935701  0.67064301  1
  Si  Si2  1  0.75023398  0.85856202  0.85783999  1
  Si  Si3  1  0.24976699  0.85856202  0.85783999  1
  Si  Si4  1  0.75023398  0.14216000  0.14143800  1
  S  S5  1  0.24976699  0.14216000  0.14143800  1
  S  S6  1  -0.00000000  0.83031802  0.61736199  1
  S  S7  1  0.49999999  0.61968501  0.83434900  1
  S  S8  1  0.49999999  0.16565100  0.38031501  1
  S  S9  1  -0.00000000  0.38263801  0.16968199  1
  S  S10  1  -0.00000000  0.89194402  0.10805597  1
  S  S11  1  0.49999999  0.10849600  0.89150402  1
