# generated using pymatgen
data_LiFeNiO4
_symmetry_space_group_name_H-M   'P 1'
_cell_length_a   5.63437414
_cell_length_b   5.79307699
_cell_length_c   5.73984623
_cell_angle_alpha   119.69650269
_cell_angle_beta   90.00000000
_cell_angle_gamma   119.09783173
_symmetry_Int_Tables_number   1
_chemical_formula_structural   LiFeNiO4
_chemical_formula_sum   'Li2 Fe2 Ni2 O8'
_cell_volume   134.85126954
_cell_formula_units_Z   2
loop_
 _symmetry_equiv_pos_site_id
 _symmetry_equiv_pos_as_xyz
  1  'x, y, z'
loop_
 _atom_site_type_symbol
 _atom_site_label
 _atom_site_symmetry_multiplicity
 _atom_site_fract_x
 _atom_site_fract_y
 _atom_site_fract_z
 _atom_site_occupancy
  Li  Li0  1  0.49999999  0.00000000  0.49999998  1
  Li  Li1  1  0.49999992  0.99999996  -0.00000001  1
  Fe  Fe2  1  0.49999995  0.49999998  0.49999997  1
  Fe  Fe3  1  -0.00000003  0.49999998  0.49999997  1
  Ni  Ni4  1  0.00000000  0.00000000  0.00000000  1
  Ni  Ni5  1  0.00000000  0.00000000  0.49999998  1
  O  O6  1  0.25119199  0.04624200  0.27312099  1
  O  O7  1  0.74854595  0.49709198  0.71491097  1
  O  O8  1  0.20494993  0.95375796  0.72687896  1
  O  O9  1  0.74854495  0.49709098  0.28218098  1
  O  O10  1  0.25145496  0.50290898  0.71781897  1
  O  O11  1  0.79504998  0.04624200  0.27312099  1
  O  O12  1  0.25145396  0.50290798  0.28508898  1
  O  O13  1  0.74880792  0.95375796  0.72687896  1
