# generated using pymatgen
data_SrAg3S11O2
_symmetry_space_group_name_H-M   'P 1'
_cell_length_a   4.19785023
_cell_length_b   5.26374102
_cell_length_c   9.30672550
_cell_angle_alpha   90.00000000
_cell_angle_beta   89.84000397
_cell_angle_gamma   90.00000000
_symmetry_Int_Tables_number   1
_chemical_formula_structural   SrAg3S11O2
_chemical_formula_sum   'Sr1 Ag3 S11 O2'
_cell_volume   205.64429430
_cell_formula_units_Z   1
loop_
 _symmetry_equiv_pos_site_id
 _symmetry_equiv_pos_as_xyz
  1  'x, y, z'
loop_
 _atom_site_type_symbol
 _atom_site_label
 _atom_site_symmetry_multiplicity
 _atom_site_fract_x
 _atom_site_fract_y
 _atom_site_fract_z
 _atom_site_occupancy
  Sr  Sr0  1  0.23530899  0.00000000  0.82942899  1
  Ag  Ag1  1  0.24751099  0.50000000  0.35460600  1
  Ag  Ag2  1  0.24793199  0.27277400  0.57242099  1
  Ag  Ag3  1  0.24027199  0.74222200  0.08603300  1
  S  S4  1  0.24793199  0.72722600  0.57242099  1
  S  S5  1  0.24027199  0.25777800  0.08603300  1
  S  S6  1  0.75248896  0.50000000  0.64539400  1
  S  S7  1  0.76469096  0.00000000  0.17057101  1
  S  S8  1  0.75972796  0.25777800  0.91396699  1
  S  S9  1  0.75206796  0.72722600  0.42757900  1
  S  S10  1  0.75972796  0.74222200  0.91396699  1
  S  S11  1  0.75206796  0.27277400  0.42757900  1
  S  S12  1  0.25375999  0.50000000  0.82256299  1
  S  S13  1  0.25238999  0.00000000  0.34154400  1
  S  S14  1  0.74760996  0.00000000  0.65845600  1
  O  O15  1  0.74623996  0.50000000  0.17743801  1
  O  O16  1  0.49999997  0.00000000  0.00000001  1
