# generated using pymatgen
data_Ti2C
_symmetry_space_group_name_H-M   'P 1'
_cell_length_a   3.58868909
_cell_length_b   6.18586206
_cell_length_c   7.16927481
_cell_angle_alpha   90.00000000
_cell_angle_beta   90.00000000
_cell_angle_gamma   90.00000000
_symmetry_Int_Tables_number   1
_chemical_formula_structural   Ti2C
_chemical_formula_sum   'Ti8 C4'
_cell_volume   159.15170428
_cell_formula_units_Z   4
loop_
 _symmetry_equiv_pos_site_id
 _symmetry_equiv_pos_as_xyz
  1  'x, y, z'
loop_
 _atom_site_type_symbol
 _atom_site_label
 _atom_site_symmetry_multiplicity
 _atom_site_fract_x
 _atom_site_fract_y
 _atom_site_fract_z
 _atom_site_occupancy
  Ti  Ti0  1  0.74999998  0.85970099  0.55843802  1
  Ti  Ti1  1  0.24999999  0.14029900  0.44156201  1
  Ti  Ti2  1  0.74999998  0.35970100  0.94156203  1
  Ti  Ti3  1  0.24999999  0.64029899  0.05843800  1
  Ti  Ti4  1  0.24999999  0.52809799  0.67427302  1
  Ti  Ti5  1  0.74999998  0.47190200  0.32572701  1
  Ti  Ti6  1  0.24999999  0.02809800  0.82572702  1
  Ti  Ti7  1  0.74999998  0.97190199  0.17427300  1
  C  C8  1  0.24999999  0.27266800  0.12732600  1
  C  C9  1  0.74999998  0.72733199  0.87267402  1
  C  C10  1  0.24999999  0.77266799  0.37267401  1
  C  C11  1  0.74999998  0.22733200  0.62732602  1
