# generated using pymatgen
data_Mn10Si6AsC
_symmetry_space_group_name_H-M   'P 1'
_cell_length_a   4.81841803
_cell_length_b   6.93085814
_cell_length_c   6.93085814
_cell_angle_alpha   120.00000000
_cell_angle_beta   90.00000000
_cell_angle_gamma   90.00000000
_symmetry_Int_Tables_number   1
_chemical_formula_structural   Mn10Si6AsC
_chemical_formula_sum   'Mn10 Si6 As1 C1'
_cell_volume   200.45141471
_cell_formula_units_Z   1
loop_
 _symmetry_equiv_pos_site_id
 _symmetry_equiv_pos_as_xyz
  1  'x, y, z'
loop_
 _atom_site_type_symbol
 _atom_site_label
 _atom_site_symmetry_multiplicity
 _atom_site_fract_x
 _atom_site_fract_y
 _atom_site_fract_z
 _atom_site_occupancy
  Mn  Mn0  1  -0.00000000  0.33333333  0.66666665  1
  Mn  Mn1  1  -0.00000000  0.66666665  0.33333333  1
  Mn  Mn2  1  0.50000000  0.66666665  0.33333333  1
  Mn  Mn3  1  0.50000000  0.33333333  0.66666665  1
  Mn  Mn4  1  0.25000000  0.22971699  0.00000000  1
  Mn  Mn5  1  0.25000000  0.77028298  0.77028299  1
  Mn  Mn6  1  0.25000000  0.00000000  0.22971699  1
  Mn  Mn7  1  0.75000000  0.77028298  0.99999998  1
  Mn  Mn8  1  0.75000000  0.22971699  0.22971700  1
  Mn  Mn9  1  0.75000000  0.99999998  0.77028299  1
  Si  Si10  1  0.25000000  0.59431499  0.99999998  1
  Si  Si11  1  0.25000000  0.40568499  0.40568499  1
  Si  Si12  1  0.25000000  0.00000000  0.59431498  1
  Si  Si13  1  0.75000000  0.40568499  0.00000001  1
  Si  Si14  1  0.75000000  0.59431499  0.59431499  1
  Si  Si15  1  0.75000000  0.00000000  0.40568499  1
  As  As16  1  0.00000000  0.00000000  0.00000000  1
  C  C17  1  0.50000000  0.00000000  -0.00000000  1
