# generated using pymatgen
data_AsI3
_symmetry_space_group_name_H-M   'P 1'
_cell_length_a   4.08866310
_cell_length_b   8.46763897
_cell_length_c   10.57737541
_cell_angle_alpha   90.00000000
_cell_angle_beta   90.00000000
_cell_angle_gamma   90.00000000
_symmetry_Int_Tables_number   1
_chemical_formula_structural   AsI3
_chemical_formula_sum   'As3 I9'
_cell_volume   366.20273072
_cell_formula_units_Z   3
loop_
 _symmetry_equiv_pos_site_id
 _symmetry_equiv_pos_as_xyz
  1  'x, y, z'
loop_
 _atom_site_type_symbol
 _atom_site_label
 _atom_site_symmetry_multiplicity
 _atom_site_fract_x
 _atom_site_fract_y
 _atom_site_fract_z
 _atom_site_occupancy
  I  I0  1  0.24999999  0.88390000  0.86822897  1
  As  As1  1  0.74999998  0.11610000  0.13177099  1
  As  As2  1  0.24999999  0.38390000  0.63177098  1
  As  As3  1  0.74999998  0.61610000  0.36822899  1
  I  I4  1  0.74999998  0.82997100  0.03797100  1
  I  I5  1  0.24999999  0.67002900  0.53797098  1
  I  I6  1  0.74999998  0.32997100  0.46202898  1
  I  I7  1  0.24999999  0.17002900  0.96202896  1
  I  I8  1  0.24999999  0.97328600  0.31055699  1
  I  I9  1  0.74999998  0.52671400  0.81055697  1
  I  I10  1  0.24999999  0.47328600  0.18944299  1
  I  I11  1  0.74999998  0.02671400  0.68944297  1
