# generated using pymatgen
data_Sr4B2N5
_symmetry_space_group_name_H-M   'P 1'
_cell_length_a   3.54653192
_cell_length_b   6.32165623
_cell_length_c   7.12344980
_cell_angle_alpha   82.89174652
_cell_angle_beta   75.58557892
_cell_angle_gamma   73.70955658
_symmetry_Int_Tables_number   1
_chemical_formula_structural   Sr4B2N5
_chemical_formula_sum   'Sr4 B2 N5'
_cell_volume   148.21993077
_cell_formula_units_Z   1
loop_
 _symmetry_equiv_pos_site_id
 _symmetry_equiv_pos_as_xyz
  1  'x, y, z'
loop_
 _atom_site_type_symbol
 _atom_site_label
 _atom_site_symmetry_multiplicity
 _atom_site_fract_x
 _atom_site_fract_y
 _atom_site_fract_z
 _atom_site_occupancy
  Sr  Sr0  1  0.07466398  0.19851600  0.65215598  1
  Sr  Sr1  1  0.92533595  0.80148401  0.34784396  1
  Sr  Sr2  1  0.68739495  0.73796901  0.88724095  1
  Sr  Sr3  1  0.31260499  0.26203100  0.11275899  1
  B  B4  1  0.41113896  0.56817300  0.60954897  1
  B  B5  1  0.58886098  0.43182700  0.39045097  1
  N  N6  1  0.29159593  0.81349201  0.60331597  1
  N  N7  1  0.70840401  0.18650800  0.39668397  1
  N  N8  1  0.00000000  0.00000000  0.00000000  1
  N  N9  1  0.37964597  0.43952500  0.80118296  1
  N  N10  1  0.62035397  0.56047500  0.19881697  1
