# generated using pymatgen
data_TiFeN3
_symmetry_space_group_name_H-M   'P 1'
_cell_length_a   3.83698297
_cell_length_b   4.76671886
_cell_length_c   7.40852642
_cell_angle_alpha   90.00000000
_cell_angle_beta   97.11513519
_cell_angle_gamma   90.00000000
_symmetry_Int_Tables_number   1
_chemical_formula_structural   TiFeN3
_chemical_formula_sum   'Ti2 Fe2 N6'
_cell_volume   134.45715199
_cell_formula_units_Z   2
loop_
 _symmetry_equiv_pos_site_id
 _symmetry_equiv_pos_as_xyz
  1  'x, y, z'
loop_
 _atom_site_type_symbol
 _atom_site_label
 _atom_site_symmetry_multiplicity
 _atom_site_fract_x
 _atom_site_fract_y
 _atom_site_fract_z
 _atom_site_occupancy
  Ti  Ti0  1  0.91947400  0.25000001  0.71279297  1
  Ti  Ti1  1  0.08052600  0.75000002  0.28720699  1
  Fe  Fe2  1  0.48367900  0.75000002  0.90597097  1
  Fe  Fe3  1  0.51632100  0.25000001  0.09402899  1
  N  N4  1  0.53862500  0.25000001  0.36839498  1
  N  N5  1  0.46137500  0.75000002  0.63160498  1
  N  N6  1  0.98543101  0.75000002  0.90721496  1
  N  N7  1  0.29732700  0.25000001  0.46524798  1
  N  N8  1  0.70267300  0.75000002  0.53475197  1
  N  N9  1  0.01456900  0.25000001  0.09278500  1
