# generated using pymatgen
data_TeMoSe
_symmetry_space_group_name_H-M   'P 1'
_cell_length_a   3.43710399
_cell_length_b   3.43710446
_cell_length_c   24.47412872
_cell_angle_alpha   90.00000000
_cell_angle_beta   90.00000000
_cell_angle_gamma   119.99999237
_symmetry_Int_Tables_number   1
_chemical_formula_structural   TeMoSe
_chemical_formula_sum   'Te2 Mo2 Se2'
_cell_volume   250.39364851
_cell_formula_units_Z   2
loop_
 _symmetry_equiv_pos_site_id
 _symmetry_equiv_pos_as_xyz
  1  'x, y, z'
loop_
 _atom_site_type_symbol
 _atom_site_label
 _atom_site_symmetry_multiplicity
 _atom_site_fract_x
 _atom_site_fract_y
 _atom_site_fract_z
 _atom_site_occupancy
  Te  Te0  1  0.66666665  0.33333333  0.47229501  1
  Te  Te1  1  0.66666665  0.33333333  0.62488301  1
  Mo  Mo2  1  0.66666665  0.33333333  0.84956701  1
  Mo  Mo3  1  0.33333330  0.66666666  0.54858101  1
  Se  Se4  1  0.33333330  0.66666666  0.91671901  1
  Se  Se5  1  0.33333330  0.66666666  0.78235101  1
