# generated using pymatgen
data_Mn2AlSi
_symmetry_space_group_name_H-M   'P 1'
_cell_length_a   3.57518363
_cell_length_b   3.57518363
_cell_length_c   6.16128492
_cell_angle_alpha   73.13409424
_cell_angle_beta   73.13409424
_cell_angle_gamma   60.00000381
_symmetry_Int_Tables_number   1
_chemical_formula_structural   Mn2AlSi
_chemical_formula_sum   'Mn2 Al1 Si1'
_cell_volume   64.26098835
_cell_formula_units_Z   1
loop_
 _symmetry_equiv_pos_site_id
 _symmetry_equiv_pos_as_xyz
  1  'x, y, z'
loop_
 _atom_site_type_symbol
 _atom_site_label
 _atom_site_symmetry_multiplicity
 _atom_site_fract_x
 _atom_site_fract_y
 _atom_site_fract_z
 _atom_site_occupancy
  Mn  Mn0  1  0.00000000  0.00000000  0.00000000  1
  Mn  Mn1  1  0.49999998  0.50000002  0.50000002  1
  Al  Al2  1  0.25465699  0.25465701  0.23602901  1
  Si  Si3  1  0.74534297  0.74534302  0.76397104  1
