# generated using pymatgen
data_Tb2MgNi2
_symmetry_space_group_name_H-M   'P 1'
_cell_length_a   4.31424522
_cell_length_b   7.01876402
_cell_length_c   7.01876402
_cell_angle_alpha   90.00000000
_cell_angle_beta   90.00000000
_cell_angle_gamma   90.00000000
_symmetry_Int_Tables_number   1
_chemical_formula_structural   Tb2MgNi2
_chemical_formula_sum   'Tb4 Mg2 Ni4'
_cell_volume   212.53287108
_cell_formula_units_Z   2
loop_
 _symmetry_equiv_pos_site_id
 _symmetry_equiv_pos_as_xyz
  1  'x, y, z'
loop_
 _atom_site_type_symbol
 _atom_site_label
 _atom_site_symmetry_multiplicity
 _atom_site_fract_x
 _atom_site_fract_y
 _atom_site_fract_z
 _atom_site_occupancy
  Tb  Tb0  1  0.49999997  0.32372800  0.82372800  1
  Tb  Tb1  1  0.49999997  0.82372800  0.67627200  1
  Tb  Tb2  1  0.49999997  0.17627200  0.32372800  1
  Tb  Tb3  1  0.49999997  0.67627200  0.17627200  1
  Mg  Mg4  1  0.00000000  0.50000000  0.50000000  1
  Mg  Mg5  1  0.00000000  0.00000000  0.00000000  1
  Ni  Ni6  1  0.00000000  0.87060600  0.37060600  1
  Ni  Ni7  1  0.00000000  0.37060600  0.12939400  1
  Ni  Ni8  1  0.00000000  0.12939400  0.62939400  1
  Ni  Ni9  1  0.00000000  0.62939400  0.87060600  1
