# generated using pymatgen
data_U2B2Ru5C
_symmetry_space_group_name_H-M   'P 1'
_cell_length_a   4.22341490
_cell_length_b   4.22341490
_cell_length_c   8.44659615
_cell_angle_alpha   90.00000000
_cell_angle_beta   90.00000000
_cell_angle_gamma   90.00000000
_symmetry_Int_Tables_number   1
_chemical_formula_structural   U2B2Ru5C
_chemical_formula_sum   'U2 B2 Ru5 C1'
_cell_volume   150.66390688
_cell_formula_units_Z   1
loop_
 _symmetry_equiv_pos_site_id
 _symmetry_equiv_pos_as_xyz
  1  'x, y, z'
loop_
 _atom_site_type_symbol
 _atom_site_label
 _atom_site_symmetry_multiplicity
 _atom_site_fract_x
 _atom_site_fract_y
 _atom_site_fract_z
 _atom_site_occupancy
  U  U0  1  0.50000001  0.50000001  0.49999998  1
  U  U1  1  0.50000001  0.50000001  0.00000000  1
  Ru  Ru2  1  0.00000000  0.00000000  0.75361288  1
  B  B3  1  0.00000000  0.00000000  0.24638709  1
  B  B4  1  0.00000000  0.50000001  0.75754841  1
  C  C5  1  0.00000000  0.50000001  0.24245156  1
  Ru  Ru6  1  0.50000001  0.00000000  0.75754841  1
  Ru  Ru7  1  0.50000001  0.00000000  0.24245156  1
  Ru  Ru8  1  0.00000000  0.00000000  0.00000000  1
  Ru  Ru9  1  0.00000000  0.00000000  0.49999998  1
