# generated using pymatgen
data_Ba2CoSe4
_symmetry_space_group_name_H-M   'P 1'
_cell_length_a   4.33692122
_cell_length_b   7.25191021
_cell_length_c   7.25191021
_cell_angle_alpha   90.00000000
_cell_angle_beta   90.00000000
_cell_angle_gamma   90.00000000
_symmetry_Int_Tables_number   1
_chemical_formula_structural   Ba2CoSe4
_chemical_formula_sum   'Ba2 Co1 Se4'
_cell_volume   228.07956141
_cell_formula_units_Z   1
loop_
 _symmetry_equiv_pos_site_id
 _symmetry_equiv_pos_as_xyz
  1  'x, y, z'
loop_
 _atom_site_type_symbol
 _atom_site_label
 _atom_site_symmetry_multiplicity
 _atom_site_fract_x
 _atom_site_fract_y
 _atom_site_fract_z
 _atom_site_occupancy
  Ba  Ba0  1  0.49999998  0.00000000  0.49999999  1
  Ba  Ba1  1  0.49999998  0.49999999  -0.00000000  1
  Co  Co2  1  0.00000000  0.00000000  0.00000000  1
  Se  Se3  1  0.00000000  0.77260898  0.77260898  1
  Se  Se4  1  0.00000000  0.77260898  0.22739099  1
  Se  Se5  1  0.00000000  0.22739099  0.77260898  1
  Se  Se6  1  0.00000000  0.22739099  0.22739099  1
