# generated using pymatgen
data_Cu3GeS4
_symmetry_space_group_name_H-M   'P 1'
_cell_length_a   3.24531007
_cell_length_b   5.27233124
_cell_length_c   5.90977478
_cell_angle_alpha   89.99803925
_cell_angle_beta   90.00000000
_cell_angle_gamma   90.00000000
_symmetry_Int_Tables_number   1
_chemical_formula_structural   Cu3GeS4
_chemical_formula_sum   'Cu3 Ge1 S4'
_cell_volume   101.11831278
_cell_formula_units_Z   1
loop_
 _symmetry_equiv_pos_site_id
 _symmetry_equiv_pos_as_xyz
  1  'x, y, z'
loop_
 _atom_site_type_symbol
 _atom_site_label
 _atom_site_symmetry_multiplicity
 _atom_site_fract_x
 _atom_site_fract_y
 _atom_site_fract_z
 _atom_site_occupancy
  Cu  Cu0  1  0.49999999  0.50159898  0.30827199  1
  Cu  Cu1  1  0.49999999  0.00896200  0.20416801  1
  Cu  Cu2  1  0.00000000  0.48936298  0.68498701  1
  Ge  Ge3  1  0.00000000  0.00889200  0.80003903  1
  S  S4  1  0.49999999  0.68972397  0.92524501  1
  S  S5  1  0.49999999  0.18929999  0.57149001  1
  S  S6  1  0.00000000  0.30415599  0.07866599  1
  S  S7  1  0.00000000  0.80800496  0.42713199  1
