# generated using pymatgen
data_Ce2MgNi2
_symmetry_space_group_name_H-M   'P 1'
_cell_length_a   3.78302312
_cell_length_b   3.91865802
_cell_length_c   7.46606445
_cell_angle_alpha   105.21437836
_cell_angle_beta   90.00000000
_cell_angle_gamma   90.00000000
_symmetry_Int_Tables_number   1
_chemical_formula_structural   Ce2MgNi2
_chemical_formula_sum   'Ce2 Mg1 Ni2'
_cell_volume   106.80048019
_cell_formula_units_Z   1
loop_
 _symmetry_equiv_pos_site_id
 _symmetry_equiv_pos_as_xyz
  1  'x, y, z'
loop_
 _atom_site_type_symbol
 _atom_site_label
 _atom_site_symmetry_multiplicity
 _atom_site_fract_x
 _atom_site_fract_y
 _atom_site_fract_z
 _atom_site_occupancy
  Ce  Ce0  1  0.49999998  0.36394200  0.72788401  1
  Ce  Ce1  1  0.49999998  0.63605800  0.27211602  1
  Mg  Mg2  1  0.00000000  0.00000000  0.00000000  1
  Ni  Ni3  1  0.00000000  0.20125900  0.40251801  1
  Ni  Ni4  1  0.00000000  0.79874101  0.59748202  1
