# generated using pymatgen
data_La2Co4BC4
_symmetry_space_group_name_H-M   'P 1'
_cell_length_a   5.13167810
_cell_length_b   5.53779936
_cell_length_c   6.21499062
_cell_angle_alpha   70.57984924
_cell_angle_beta   65.61621094
_cell_angle_gamma   62.39768219
_symmetry_Int_Tables_number   1
_chemical_formula_structural   La2Co4BC4
_chemical_formula_sum   'La2 Co4 B1 C4'
_cell_volume   140.35716805
_cell_formula_units_Z   1
loop_
 _symmetry_equiv_pos_site_id
 _symmetry_equiv_pos_as_xyz
  1  'x, y, z'
loop_
 _atom_site_type_symbol
 _atom_site_label
 _atom_site_symmetry_multiplicity
 _atom_site_fract_x
 _atom_site_fract_y
 _atom_site_fract_z
 _atom_site_occupancy
  La  La0  1  0.27519097  0.80289704  0.64672101  1
  La  La1  1  0.72480897  0.19710301  0.35327904  1
  Co  Co2  1  0.67178897  0.27944301  0.87421405  1
  Co  Co3  1  0.32821097  0.72055703  0.12578600  1
  Co  Co4  1  -0.00000001  0.50000002  0.50000000  1
  Co  Co5  1  0.17455399  0.27944301  0.87421403  1
  B  B6  1  0.82544595  0.72055703  0.12578602  1
  C  C7  1  0.40246098  0.05899100  0.13608702  1
  C  C8  1  0.59753896  0.94100904  0.86391303  1
  C  C9  1  0.77786796  0.60349503  0.84076904  1
  C  C10  1  0.22213198  0.39650502  0.15923101  1
