# generated using pymatgen
data_ScB2Rh2C
_symmetry_space_group_name_H-M   'P 1'
_cell_length_a   3.80619407
_cell_length_b   3.80619407
_cell_length_c   5.80177546
_cell_angle_alpha   109.14862823
_cell_angle_beta   109.14862823
_cell_angle_gamma   90.00000000
_symmetry_Int_Tables_number   1
_chemical_formula_structural   ScB2Rh2C
_chemical_formula_sum   'Sc1 B2 Rh2 C1'
_cell_volume   74.46015615
_cell_formula_units_Z   1
loop_
 _symmetry_equiv_pos_site_id
 _symmetry_equiv_pos_as_xyz
  1  'x, y, z'
loop_
 _atom_site_type_symbol
 _atom_site_label
 _atom_site_symmetry_multiplicity
 _atom_site_fract_x
 _atom_site_fract_y
 _atom_site_fract_z
 _atom_site_occupancy
  Sc  Sc0  1  0.00000000  0.00000000  0.00000000  1
  B  B1  1  0.64521200  0.64521199  0.29042400  1
  B  B2  1  0.35478800  0.35478800  0.70957599  1
  Rh  Rh3  1  0.25000000  0.74999999  0.50000000  1
  Rh  Rh4  1  0.74999999  0.25000000  0.50000000  1
  C  C5  1  0.50000000  0.49999999  0.99999998  1
