# generated using pymatgen
data_BaCe2GaS5
_symmetry_space_group_name_H-M   'P 1'
_cell_length_a   7.87763023
_cell_length_b   8.75493622
_cell_length_c   7.87763023
_cell_angle_alpha   116.73704529
_cell_angle_beta   90.00000000
_cell_angle_gamma   116.73704529
_symmetry_Int_Tables_number   1
_chemical_formula_structural   BaCe2GaS5
_chemical_formula_sum   'Ba2 Ce4 Ga2 S10'
_cell_volume   419.15109860
_cell_formula_units_Z   2
loop_
 _symmetry_equiv_pos_site_id
 _symmetry_equiv_pos_as_xyz
  1  'x, y, z'
loop_
 _atom_site_type_symbol
 _atom_site_label
 _atom_site_symmetry_multiplicity
 _atom_site_fract_x
 _atom_site_fract_y
 _atom_site_fract_z
 _atom_site_occupancy
  Ba  Ba0  1  0.75000001  0.50000002  0.75000001  1
  Ba  Ba1  1  0.25000003  0.50000002  0.25000003  1
  Ce  Ce2  1  0.66303998  0.00000000  0.16304000  1
  Ce  Ce3  1  0.83696005  0.99999905  0.66303905  1
  Ce  Ce4  1  0.16304000  0.00000100  0.33696099  1
  Ce  Ce5  1  0.33695999  0.00000000  0.83695998  1
  Ga  Ga6  1  0.25000003  0.50000002  0.75000001  1
  Ga  Ga7  1  0.75000001  0.50000002  0.25000003  1
  S  S8  1  0.50999204  0.72912004  0.71912803  1
  S  S9  1  0.78087200  0.27088001  0.99000799  1
  S  S10  1  0.49000801  0.27088001  0.28087201  1
  S  S11  1  0.99000799  0.27088001  0.49000801  1
  S  S12  1  0.28087201  0.27088001  0.78087200  1
  S  S13  1  0.00999205  0.72912004  0.50999204  1
  S  S14  1  0.71912803  0.72912004  0.21912805  1
  S  S15  1  0.21912805  0.72912004  0.00999205  1
  S  S16  1  0.49999999  0.00000000  0.49999999  1
  S  S17  1  0.00000000  0.00000000  0.00000000  1
