# generated using pymatgen
data_LaGePd
_symmetry_space_group_name_H-M   'P 1'
_cell_length_a   4.65122604
_cell_length_b   7.49757814
_cell_length_c   7.62014294
_cell_angle_alpha   90.00000000
_cell_angle_beta   90.00000000
_cell_angle_gamma   90.00000000
_symmetry_Int_Tables_number   1
_chemical_formula_structural   LaGePd
_chemical_formula_sum   'La4 Ge4 Pd4'
_cell_volume   265.73671677
_cell_formula_units_Z   4
loop_
 _symmetry_equiv_pos_site_id
 _symmetry_equiv_pos_as_xyz
  1  'x, y, z'
loop_
 _atom_site_type_symbol
 _atom_site_label
 _atom_site_symmetry_multiplicity
 _atom_site_fract_x
 _atom_site_fract_y
 _atom_site_fract_z
 _atom_site_occupancy
  La  La0  1  0.25000000  0.80728098  0.47406900  1
  La  La1  1  0.74999999  0.19271900  0.52593100  1
  La  La2  1  0.74999999  0.30728099  0.02593100  1
  La  La3  1  0.25000000  0.69271899  0.97406901  1
  Ge  Ge4  1  0.74999999  0.57818399  0.32039000  1
  Ge  Ge5  1  0.74999999  0.92181598  0.82039001  1
  Ge  Ge6  1  0.25000000  0.07818400  0.17961000  1
  Ge  Ge7  1  0.25000000  0.42181599  0.67961001  1
  Pd  Pd8  1  0.74999999  0.59628299  0.68319601  1
  Pd  Pd9  1  0.74999999  0.90371698  0.18319600  1
  Pd  Pd10  1  0.25000000  0.09628300  0.81680401  1
  Pd  Pd11  1  0.25000000  0.40371699  0.31680400  1
