# generated using pymatgen
data_CaBiO3
_symmetry_space_group_name_H-M   'P 1'
_cell_length_a   5.62297297
_cell_length_b   5.95257092
_cell_length_c   8.23891735
_cell_angle_alpha   90.00000000
_cell_angle_beta   90.00000000
_cell_angle_gamma   90.00000000
_symmetry_Int_Tables_number   1
_chemical_formula_structural   CaBiO3
_chemical_formula_sum   'Ca4 Bi4 O12'
_cell_volume   275.76600001
_cell_formula_units_Z   4
loop_
 _symmetry_equiv_pos_site_id
 _symmetry_equiv_pos_as_xyz
  1  'x, y, z'
loop_
 _atom_site_type_symbol
 _atom_site_label
 _atom_site_symmetry_multiplicity
 _atom_site_fract_x
 _atom_site_fract_y
 _atom_site_fract_z
 _atom_site_occupancy
  Ca  Ca0  1  0.97958301  0.06453700  0.24999999  1
  Ca  Ca1  1  0.47958300  0.43546301  0.74999997  1
  Ca  Ca2  1  0.52041700  0.56453701  0.24999999  1
  Ca  Ca3  1  0.02041700  0.93546301  0.74999997  1
  Bi  Bi4  1  0.50000000  0.00000000  -0.00000000  1
  Bi  Bi5  1  0.50000000  0.00000000  0.49999998  1
  Bi  Bi6  1  0.00000000  0.50000001  0.00000000  1
  Bi  Bi7  1  0.00000000  0.50000001  0.49999998  1
  O  O8  1  0.63467800  0.06224800  0.74999997  1
  O  O9  1  0.18738100  0.19049100  0.56837998  1
  O  O10  1  0.18738100  0.19049100  0.93161996  1
  O  O11  1  0.68738100  0.30950900  0.43161998  1
  O  O12  1  0.68738100  0.30950900  0.06838000  1
  O  O13  1  0.13467800  0.43775201  0.24999999  1
  O  O14  1  0.86532201  0.56224801  0.74999997  1
  O  O15  1  0.31261900  0.69049101  0.93161996  1
  O  O16  1  0.31261900  0.69049101  0.56837998  1
  O  O17  1  0.81261901  0.80950901  0.06838000  1
  O  O18  1  0.81261901  0.80950901  0.43161998  1
  O  O19  1  0.36532200  0.93775201  0.24999999  1
