# generated using pymatgen
data_La2In2Sb3
_symmetry_space_group_name_H-M   'P 1'
_cell_length_a   4.40466309
_cell_length_b   4.40466309
_cell_length_c   10.86250973
_cell_angle_alpha   90.00000000
_cell_angle_beta   90.00000000
_cell_angle_gamma   90.00000000
_symmetry_Int_Tables_number   1
_chemical_formula_structural   La2In2Sb3
_chemical_formula_sum   'La2 In2 Sb3'
_cell_volume   210.74416931
_cell_formula_units_Z   1
loop_
 _symmetry_equiv_pos_site_id
 _symmetry_equiv_pos_as_xyz
  1  'x, y, z'
loop_
 _atom_site_type_symbol
 _atom_site_label
 _atom_site_symmetry_multiplicity
 _atom_site_fract_x
 _atom_site_fract_y
 _atom_site_fract_z
 _atom_site_occupancy
  La  La0  1  0.49999999  0.00000000  0.76436602  1
  La  La1  1  0.00000000  0.49999999  0.23563401  1
  In  In2  1  0.49999999  0.49999999  0.50000001  1
  In  In3  1  0.49999999  0.49999999  0.00000000  1
  Sb  Sb4  1  0.00000000  0.00000000  0.00000000  1
  Sb  Sb5  1  0.49999999  0.00000000  0.32823501  1
  Sb  Sb6  1  0.00000000  0.49999999  0.67176502  1
