# generated using pymatgen
data_K2Fe3WO8
_symmetry_space_group_name_H-M   'P 1'
_cell_length_a   5.50470400
_cell_length_b   5.50470352
_cell_length_c   9.24476147
_cell_angle_alpha   90.00000000
_cell_angle_beta   90.00000000
_cell_angle_gamma   120.00000000
_symmetry_Int_Tables_number   1
_chemical_formula_structural   K2Fe3WO8
_chemical_formula_sum   'K2 Fe3 W1 O8'
_cell_volume   242.60192678
_cell_formula_units_Z   1
loop_
 _symmetry_equiv_pos_site_id
 _symmetry_equiv_pos_as_xyz
  1  'x, y, z'
loop_
 _atom_site_type_symbol
 _atom_site_label
 _atom_site_symmetry_multiplicity
 _atom_site_fract_x
 _atom_site_fract_y
 _atom_site_fract_z
 _atom_site_occupancy
  K  K0  1  0.00000000  0.00000000  0.24999999  1
  K  K1  1  0.00000000  0.00000000  0.74999996  1
  Fe  Fe2  1  0.66666665  0.33333333  0.54771997  1
  Fe  Fe3  1  0.33333330  0.66666665  0.04772000  1
  Fe  Fe4  1  0.33333330  0.66666665  0.45227998  1
  W  W5  1  0.66666665  0.33333333  0.95227995  1
  O  O6  1  0.32778398  0.32778399  0.49999997  1
  O  O7  1  0.32778400  0.00000000  0.99999995  1
  O  O8  1  0.99999998  0.32778399  -0.00000000  1
  O  O9  1  0.99999996  0.67221599  0.49999997  1
  O  O10  1  0.67221600  0.00000000  0.49999997  1
  O  O11  1  0.67221596  0.67221599  0.99999995  1
  O  O12  1  0.66666665  0.33333333  0.74999996  1
  O  O13  1  0.33333330  0.66666665  0.24999999  1
