# generated using pymatgen
data_USnIr4
_symmetry_space_group_name_H-M   'P 1'
_cell_length_a   5.31308317
_cell_length_b   5.31308317
_cell_length_c   5.31308317
_cell_angle_alpha   60.00000000
_cell_angle_beta   60.00000000
_cell_angle_gamma   60.00000000
_symmetry_Int_Tables_number   1
_chemical_formula_structural   USnIr4
_chemical_formula_sum   'U1 Sn1 Ir4'
_cell_volume   106.05346089
_cell_formula_units_Z   1
loop_
 _symmetry_equiv_pos_site_id
 _symmetry_equiv_pos_as_xyz
  1  'x, y, z'
loop_
 _atom_site_type_symbol
 _atom_site_label
 _atom_site_symmetry_multiplicity
 _atom_site_fract_x
 _atom_site_fract_y
 _atom_site_fract_z
 _atom_site_occupancy
  U  U0  1  0.74999997  0.74999997  0.74999997  1
  Sn  Sn1  1  0.00000000  0.00000000  0.00000000  1
  Ir  Ir2  1  0.37491199  0.87526397  0.37491199  1
  Ir  Ir3  1  0.37491199  0.37491199  0.37491199  1
  Ir  Ir4  1  0.37491199  0.37491199  0.87526397  1
  Ir  Ir5  1  0.87526397  0.37491199  0.37491199  1
