# generated using pymatgen
data_Cs2SnBr4
_symmetry_space_group_name_H-M   'P 1'
_cell_length_a   8.16911125
_cell_length_b   8.38535786
_cell_length_c   10.28467560
_cell_angle_alpha   90.00000000
_cell_angle_beta   71.50819397
_cell_angle_gamma   90.00000000
_symmetry_Int_Tables_number   1
_chemical_formula_structural   Cs2SnBr4
_chemical_formula_sum   'Cs4 Sn2 Br8'
_cell_volume   668.13522662
_cell_formula_units_Z   2
loop_
 _symmetry_equiv_pos_site_id
 _symmetry_equiv_pos_as_xyz
  1  'x, y, z'
loop_
 _atom_site_type_symbol
 _atom_site_label
 _atom_site_symmetry_multiplicity
 _atom_site_fract_x
 _atom_site_fract_y
 _atom_site_fract_z
 _atom_site_occupancy
  Cs  Cs0  1  0.21432600  0.25000000  0.44950299  1
  Cs  Cs1  1  0.78567399  0.75000001  0.55049696  1
  Cs  Cs2  1  0.26696400  0.25000000  0.93171999  1
  Cs  Cs3  1  0.73303599  0.75000001  0.06827996  1
  Sn  Sn4  1  0.77610899  0.25000000  0.29956196  1
  Sn  Sn5  1  0.22389100  0.75000001  0.70043799  1
  Br  Br6  1  0.60426999  0.25000000  0.56947697  1
  Br  Br7  1  0.39573000  0.75000001  0.43052298  1
  Br  Br8  1  0.00455800  0.00074400  0.76088000  1
  Br  Br9  1  0.99544199  0.99925602  0.23911995  1
  Br  Br10  1  0.99544199  0.50074401  0.23911995  1
  Br  Br11  1  0.00455800  0.49925601  0.76088000  1
  Br  Br12  1  0.58379699  0.25000000  0.13021797  1
  Br  Br13  1  0.41620300  0.75000001  0.86978198  1
