# generated using pymatgen
data_ZrGe
_symmetry_space_group_name_H-M   'P 1'
_cell_length_a   5.92082691
_cell_length_b   7.91616011
_cell_length_c   7.91616011
_cell_angle_alpha   120.00000000
_cell_angle_beta   90.00000000
_cell_angle_gamma   90.00000000
_symmetry_Int_Tables_number   1
_chemical_formula_structural   ZrGe
_chemical_formula_sum   'Zr6 Ge6'
_cell_volume   321.32323865
_cell_formula_units_Z   6
loop_
 _symmetry_equiv_pos_site_id
 _symmetry_equiv_pos_as_xyz
  1  'x, y, z'
loop_
 _atom_site_type_symbol
 _atom_site_label
 _atom_site_symmetry_multiplicity
 _atom_site_fract_x
 _atom_site_fract_y
 _atom_site_fract_z
 _atom_site_occupancy
  Zr  Zr0  1  -0.00000000  0.68305900  0.68305903  1
  Zr  Zr1  1  -0.00000000  0.31694100  0.00000001  1
  Zr  Zr2  1  1.00000001  0.00000000  0.31694101  1
  Zr  Zr3  1  0.50000001  0.34917700  0.34917702  1
  Zr  Zr4  1  0.50000001  0.65082300  0.00000002  1
  Zr  Zr5  1  0.50000001  1.00000000  0.65082304  1
  Ge  Ge6  1  0.71411901  0.00000000  -0.00000000  1
  Ge  Ge7  1  0.28588100  0.00000000  -0.00000000  1
  Ge  Ge8  1  0.78112901  0.66666667  0.33333336  1
  Ge  Ge9  1  0.21887100  0.66666667  0.33333336  1
  Ge  Ge10  1  0.21887100  0.33333333  0.66666669  1
  Ge  Ge11  1  0.78112901  0.33333333  0.66666669  1
