# generated using pymatgen
data_Ce(ZnS)3
_symmetry_space_group_name_H-M   'P 1'
_cell_length_a   6.69012785
_cell_length_b   6.69012785
_cell_length_c   7.46010780
_cell_angle_alpha   63.35934830
_cell_angle_beta   63.35934830
_cell_angle_gamma   60.00000000
_symmetry_Int_Tables_number   1
_chemical_formula_structural   Ce(ZnS)3
_chemical_formula_sum   'Ce2 Zn6 S6'
_cell_volume   247.38747713
_cell_formula_units_Z   2
loop_
 _symmetry_equiv_pos_site_id
 _symmetry_equiv_pos_as_xyz
  1  'x, y, z'
loop_
 _atom_site_type_symbol
 _atom_site_label
 _atom_site_symmetry_multiplicity
 _atom_site_fract_x
 _atom_site_fract_y
 _atom_site_fract_z
 _atom_site_occupancy
  Ce  Ce0  1  0.83352099  0.83352101  0.49943700  1
  Ce  Ce1  1  0.16647900  0.16647900  0.50056301  1
  Zn  Zn2  1  0.28499599  0.62336101  0.13023299  1
  Zn  Zn3  1  0.62336099  0.96141002  0.13023299  1
  Zn  Zn4  1  0.96141000  0.28499600  0.13023299  1
  Zn  Zn5  1  0.03858999  0.71500401  0.86976702  1
  Zn  Zn6  1  0.37663900  0.03859000  0.86976702  1
  Zn  Zn7  1  0.71500400  0.37663901  0.86976701  1
  S  S8  1  0.08259799  0.41660901  0.75263102  1
  S  S9  1  0.74816201  0.08259800  0.75263101  1
  S  S10  1  0.41660899  0.74816201  0.75263101  1
  S  S11  1  0.58339100  0.25183800  0.24736900  1
  S  S12  1  0.25183799  0.91740202  0.24736900  1
  S  S13  1  0.91740200  0.58339101  0.24736899  1
