# generated using pymatgen
data_SrNiSn2
_symmetry_space_group_name_H-M   'P 1'
_cell_length_a   4.49120378
_cell_length_b   4.71245384
_cell_length_c   9.56721401
_cell_angle_alpha   90.00000000
_cell_angle_beta   103.57502747
_cell_angle_gamma   90.00000000
_symmetry_Int_Tables_number   1
_chemical_formula_structural   SrNiSn2
_chemical_formula_sum   'Sr2 Ni2 Sn4'
_cell_volume   196.82939116
_cell_formula_units_Z   2
loop_
 _symmetry_equiv_pos_site_id
 _symmetry_equiv_pos_as_xyz
  1  'x, y, z'
loop_
 _atom_site_type_symbol
 _atom_site_label
 _atom_site_symmetry_multiplicity
 _atom_site_fract_x
 _atom_site_fract_y
 _atom_site_fract_z
 _atom_site_occupancy
  Sr  Sr0  1  0.89547603  0.25000001  0.79095194  1
  Sr  Sr1  1  0.10452400  0.75000003  0.20904799  1
  Ni  Ni2  1  0.67613303  0.25000001  0.35226597  1
  Ni  Ni3  1  0.32386701  0.75000003  0.64773396  1
  Sn  Sn4  1  0.54083702  0.25000001  0.08167399  1
  Sn  Sn5  1  0.45916302  0.75000003  0.91832595  1
  Sn  Sn6  1  0.24931201  0.25000001  0.49862397  1
  Sn  Sn7  1  0.75068803  0.75000003  0.50137596  1
