# generated using pymatgen
data_Cs2MoF6
_symmetry_space_group_name_H-M   'P 1'
_cell_length_a   5.13966990
_cell_length_b   6.48242807
_cell_length_c   6.48242760
_cell_angle_alpha   120.00000000
_cell_angle_beta   90.00000000
_cell_angle_gamma   90.00000000
_symmetry_Int_Tables_number   1
_chemical_formula_structural   Cs2MoF6
_chemical_formula_sum   'Cs2 Mo1 F6'
_cell_volume   187.04290532
_cell_formula_units_Z   1
loop_
 _symmetry_equiv_pos_site_id
 _symmetry_equiv_pos_as_xyz
  1  'x, y, z'
loop_
 _atom_site_type_symbol
 _atom_site_label
 _atom_site_symmetry_multiplicity
 _atom_site_fract_x
 _atom_site_fract_y
 _atom_site_fract_z
 _atom_site_occupancy
  Cs  Cs0  1  0.30946401  0.66666665  0.33333332  1
  Cs  Cs1  1  0.69053601  0.33333332  0.66666667  1
  Mo  Mo2  1  0.00000000  0.00000000  0.00000000  1
  F  F3  1  0.21729000  0.14944700  0.29889400  1
  F  F4  1  0.21729000  0.14944700  0.85055401  1
  F  F5  1  0.21729000  0.70110698  0.85055400  1
  F  F6  1  0.78271002  0.85055298  0.70110599  1
  F  F7  1  0.78271002  0.85055298  0.14944598  1
  F  F8  1  0.78271002  0.29889299  0.14944599  1
