# generated using pymatgen
data_MnAsO3
_symmetry_space_group_name_H-M   'P 1'
_cell_length_a   5.24118757
_cell_length_b   6.13905668
_cell_length_c   7.87858438
_cell_angle_alpha   89.70075989
_cell_angle_beta   89.16635895
_cell_angle_gamma   88.37522888
_symmetry_Int_Tables_number   1
_chemical_formula_structural   MnAsO3
_chemical_formula_sum   'Mn4 As4 O12'
_cell_volume   253.36924268
_cell_formula_units_Z   4
loop_
 _symmetry_equiv_pos_site_id
 _symmetry_equiv_pos_as_xyz
  1  'x, y, z'
loop_
 _atom_site_type_symbol
 _atom_site_label
 _atom_site_symmetry_multiplicity
 _atom_site_fract_x
 _atom_site_fract_y
 _atom_site_fract_z
 _atom_site_occupancy
  Mn  Mn0  1  0.50000001  0.00000000  0.50000000  1
  Mn  Mn1  1  -0.00000000  0.50000001  0.50000000  1
  Mn  Mn2  1  0.50000001  0.00000000  0.00000000  1
  Mn  Mn3  1  -0.00000000  0.50000001  -0.00000000  1
  As  As4  1  0.50915801  0.47025101  0.75623900  1
  As  As5  1  0.98418702  0.96572401  0.75520601  1
  As  As6  1  0.49084201  0.52974901  0.24376100  1
  As  As7  1  0.01581300  0.03427600  0.24479400  1
  O  O8  1  0.61748401  0.30500800  0.92020700  1
  O  O9  1  0.86900301  0.81764601  0.58375600  1
  O  O10  1  0.37116901  0.68266501  0.41721100  1
  O  O11  1  0.12139000  0.19878800  0.07430000  1
  O  O12  1  0.38251601  0.69499201  0.07979300  1
  O  O13  1  0.13099700  0.18235400  0.41624400  1
  O  O14  1  0.62883101  0.31733500  0.58278900  1
  O  O15  1  0.87861001  0.80121201  0.92570000  1
  O  O16  1  0.17652200  0.42499501  0.75546500  1
  O  O17  1  0.31320900  0.91980301  0.74828000  1
  O  O18  1  0.82347801  0.57500501  0.24453500  1
  O  O19  1  0.68679101  0.08019700  0.25172000  1
