# generated using pymatgen
data_SrCa(ClO)2
_symmetry_space_group_name_H-M   'P 1'
_cell_length_a   4.04593611
_cell_length_b   4.04593611
_cell_length_c   6.91765213
_cell_angle_alpha   90.00000000
_cell_angle_beta   90.00000000
_cell_angle_gamma   90.00000000
_symmetry_Int_Tables_number   1
_chemical_formula_structural   SrCa(ClO)2
_chemical_formula_sum   'Sr1 Ca1 Cl2 O2'
_cell_volume   113.23919130
_cell_formula_units_Z   1
loop_
 _symmetry_equiv_pos_site_id
 _symmetry_equiv_pos_as_xyz
  1  'x, y, z'
loop_
 _atom_site_type_symbol
 _atom_site_label
 _atom_site_symmetry_multiplicity
 _atom_site_fract_x
 _atom_site_fract_y
 _atom_site_fract_z
 _atom_site_occupancy
  Sr  Sr0  1  0.00000000  0.00000000  0.17470100  1
  Ca  Ca1  1  0.49999999  0.49999999  0.83264298  1
  Cl  Cl2  1  0.00000000  0.00000000  0.63212699  1
  Cl  Cl3  1  0.49999999  0.49999999  0.37102799  1
  O  O4  1  0.49999999  0.00000000  0.99404998  1
  O  O5  1  0.00000000  0.49999999  0.99404998  1
