# generated using pymatgen
data_ZrCuAs
_symmetry_space_group_name_H-M   'P 1'
_cell_length_a   3.93974400
_cell_length_b   6.56896591
_cell_length_c   7.25912523
_cell_angle_alpha   90.00000000
_cell_angle_beta   90.00000000
_cell_angle_gamma   90.00000000
_symmetry_Int_Tables_number   1
_chemical_formula_structural   ZrCuAs
_chemical_formula_sum   'Zr4 Cu4 As4'
_cell_volume   187.86648049
_cell_formula_units_Z   4
loop_
 _symmetry_equiv_pos_site_id
 _symmetry_equiv_pos_as_xyz
  1  'x, y, z'
loop_
 _atom_site_type_symbol
 _atom_site_label
 _atom_site_symmetry_multiplicity
 _atom_site_fract_x
 _atom_site_fract_y
 _atom_site_fract_z
 _atom_site_occupancy
  Zr  Zr0  1  0.25000000  0.00936300  0.80099197  1
  Zr  Zr1  1  0.25000000  0.50936301  0.69900798  1
  Zr  Zr2  1  0.75000000  0.99063701  0.19900799  1
  Zr  Zr3  1  0.75000000  0.49063701  0.30099199  1
  Cu  Cu4  1  0.25000000  0.14119800  0.43121399  1
  Cu  Cu5  1  0.25000000  0.64119801  0.06878600  1
  Cu  Cu6  1  0.75000000  0.85880201  0.56878598  1
  Cu  Cu7  1  0.75000000  0.35880200  0.93121397  1
  As  As8  1  0.25000000  0.77406701  0.39479099  1
  As  As9  1  0.25000000  0.27406700  0.10520900  1
  As  As10  1  0.75000000  0.22593300  0.60520898  1
  As  As11  1  0.75000000  0.72593301  0.89479097  1
