# generated using pymatgen
data_Na2NiO2
_symmetry_space_group_name_H-M   'P 1'
_cell_length_a   2.86542010
_cell_length_b   5.30536509
_cell_length_c   8.30113029
_cell_angle_alpha   90.00000000
_cell_angle_beta   90.00000000
_cell_angle_gamma   105.66719818
_symmetry_Int_Tables_number   1
_chemical_formula_structural   Na2NiO2
_chemical_formula_sum   'Na4 Ni2 O4'
_cell_volume   121.50604040
_cell_formula_units_Z   2
loop_
 _symmetry_equiv_pos_site_id
 _symmetry_equiv_pos_as_xyz
  1  'x, y, z'
loop_
 _atom_site_type_symbol
 _atom_site_label
 _atom_site_symmetry_multiplicity
 _atom_site_fract_x
 _atom_site_fract_y
 _atom_site_fract_z
 _atom_site_occupancy
  Na  Na0  1  0.39525994  0.79052096  0.15244499  1
  Na  Na1  1  0.85143493  0.70286897  0.83077997  1
  Na  Na2  1  0.60473997  0.20947999  0.65244398  1
  Na  Na3  1  0.14856598  0.29713199  0.33077899  1
  Ni  Ni4  1  0.12204598  0.24409199  0.99838296  1
  Ni  Ni5  1  0.87795493  0.75590896  0.49838298  1
  O  O6  1  0.72231195  0.44462298  0.09353200  1
  O  O7  1  0.51983398  0.03966800  0.91016197  1
  O  O8  1  0.27768896  0.55537697  0.59353098  1
  O  O9  1  0.48016493  0.96033095  0.41016199  1
