# generated using pymatgen
data_Ba2Sr2Ta4O11
_symmetry_space_group_name_H-M   'P 1'
_cell_length_a   4.08195210
_cell_length_b   4.08195210
_cell_length_c   15.97956276
_cell_angle_alpha   90.00000000
_cell_angle_beta   90.00000000
_cell_angle_gamma   90.00000000
_symmetry_Int_Tables_number   1
_chemical_formula_structural   Ba2Sr2Ta4O11
_chemical_formula_sum   'Ba2 Sr2 Ta4 O11'
_cell_volume   266.25679439
_cell_formula_units_Z   1
loop_
 _symmetry_equiv_pos_site_id
 _symmetry_equiv_pos_as_xyz
  1  'x, y, z'
loop_
 _atom_site_type_symbol
 _atom_site_label
 _atom_site_symmetry_multiplicity
 _atom_site_fract_x
 _atom_site_fract_y
 _atom_site_fract_z
 _atom_site_occupancy
  Ba  Ba0  1  0.00000000  0.00000000  0.88226101  1
  Ba  Ba1  1  0.00000000  0.00000000  0.11773900  1
  Sr  Sr2  1  0.00000000  0.00000000  0.37301101  1
  Sr  Sr3  1  0.00000000  0.00000000  0.62698901  1
  Ta  Ta4  1  0.49999999  0.49999999  0.88407201  1
  Ta  Ta5  1  0.49999999  0.49999999  0.11592800  1
  Ta  Ta6  1  0.49999999  0.49999999  0.37285001  1
  Ta  Ta7  1  0.49999999  0.49999999  0.62715001  1
  O  O8  1  0.49999999  0.00000000  0.00000000  1
  O  O9  1  0.49999999  0.00000000  0.24902900  1
  O  O10  1  0.49999999  0.00000000  0.50000001  1
  O  O11  1  0.49999999  0.00000000  0.75097101  1
  O  O12  1  0.00000000  0.49999999  0.00000000  1
  O  O13  1  0.00000000  0.49999999  0.24902900  1
  O  O14  1  0.00000000  0.49999999  0.50000001  1
  O  O15  1  0.00000000  0.49999999  0.75097101  1
  O  O16  1  0.49999999  0.49999999  0.23911600  1
  O  O17  1  0.49999999  0.49999999  0.50000001  1
  O  O18  1  0.49999999  0.49999999  0.76088401  1
