# generated using pymatgen
data_Ca2TiSnO6
_symmetry_space_group_name_H-M   'P 1'
_cell_length_a   5.57214403
_cell_length_b   5.75036097
_cell_length_c   7.99485970
_cell_angle_alpha   90.00000000
_cell_angle_beta   90.01972961
_cell_angle_gamma   90.00000000
_symmetry_Int_Tables_number   1
_chemical_formula_structural   Ca2TiSnO6
_chemical_formula_sum   'Ca4 Ti2 Sn2 O12'
_cell_volume   256.16999627
_cell_formula_units_Z   2
loop_
 _symmetry_equiv_pos_site_id
 _symmetry_equiv_pos_as_xyz
  1  'x, y, z'
loop_
 _atom_site_type_symbol
 _atom_site_label
 _atom_site_symmetry_multiplicity
 _atom_site_fract_x
 _atom_site_fract_y
 _atom_site_fract_z
 _atom_site_occupancy
  Ca  Ca0  1  0.01257000  0.05116900  0.24829399  1
  Ca  Ca1  1  0.48743000  0.55116900  0.25170599  1
  Ca  Ca2  1  0.98742999  0.94883101  0.75170598  1
  Ca  Ca3  1  0.51257000  0.44883100  0.74829398  1
  Ti  Ti4  1  0.50000000  0.00000000  0.00000000  1
  Ti  Ti5  1  0.00000000  0.50000000  0.49999999  1
  Sn  Sn6  1  0.50000000  0.00000000  0.49999999  1
  Sn  Sn7  1  0.00000000  0.50000000  -0.00000000  1
  O  O8  1  0.29131000  0.30886000  0.44889899  1
  O  O9  1  0.20869000  0.80886000  0.05110100  1
  O  O10  1  0.70869000  0.69114000  0.55110099  1
  O  O11  1  0.79131000  0.19114000  0.94889897  1
  O  O12  1  0.81286000  0.21151600  0.55707698  1
  O  O13  1  0.68714000  0.71151600  0.94292297  1
  O  O14  1  0.18714000  0.78848400  0.44292299  1
  O  O15  1  0.31286000  0.28848400  0.05707700  1
  O  O16  1  0.89725599  0.46292400  0.26035799  1
  O  O17  1  0.60274400  0.96292401  0.23964199  1
  O  O18  1  0.39725600  0.03707600  0.76035798  1
  O  O19  1  0.10274400  0.53707600  0.73964198  1
