# generated using pymatgen
data_Tl2HgGeI4
_symmetry_space_group_name_H-M   'P 1'
_cell_length_a   7.07341719
_cell_length_b   7.07341719
_cell_length_c   7.07341719
_cell_angle_alpha   104.95391846
_cell_angle_beta   104.95391846
_cell_angle_gamma   118.94146729
_symmetry_Int_Tables_number   1
_chemical_formula_structural   Tl2HgGeI4
_chemical_formula_sum   'Tl2 Hg1 Ge1 I4'
_cell_volume   266.77328695
_cell_formula_units_Z   1
loop_
 _symmetry_equiv_pos_site_id
 _symmetry_equiv_pos_as_xyz
  1  'x, y, z'
loop_
 _atom_site_type_symbol
 _atom_site_label
 _atom_site_symmetry_multiplicity
 _atom_site_fract_x
 _atom_site_fract_y
 _atom_site_fract_z
 _atom_site_occupancy
  Tl  Tl0  1  0.49999998  0.99999999  0.50000007  1
  Tl  Tl1  1  -0.00000001  0.50000000  0.50000002  1
  Hg  Hg2  1  0.49999999  0.50000000  0.00000005  1
  Ge  Ge3  1  0.00000000  0.00000000  0.00000000  1
  I  I4  1  0.39717900  0.05075500  1.00000002  1
  I  I5  1  0.05075499  0.39717900  0.00000002  1
  I  I6  1  0.60282099  0.60282100  0.65357606  1
  I  I7  1  0.94924499  0.94924499  0.34642410  1
