# generated using pymatgen
data_CuS2
_symmetry_space_group_name_H-M   'P 1'
_cell_length_a   3.52462006
_cell_length_b   6.06000042
_cell_length_c   14.05792236
_cell_angle_alpha   90.00000000
_cell_angle_beta   90.00000000
_cell_angle_gamma   106.90647125
_symmetry_Int_Tables_number   1
_chemical_formula_structural   CuS2
_chemical_formula_sum   'Cu6 S12'
_cell_volume   287.28869030
_cell_formula_units_Z   6
loop_
 _symmetry_equiv_pos_site_id
 _symmetry_equiv_pos_as_xyz
  1  'x, y, z'
loop_
 _atom_site_type_symbol
 _atom_site_label
 _atom_site_symmetry_multiplicity
 _atom_site_fract_x
 _atom_site_fract_y
 _atom_site_fract_z
 _atom_site_occupancy
  Cu  Cu0  1  0.53058500  0.06117000  0.74999998  1
  Cu  Cu1  1  0.46941509  0.93883005  0.24999999  1
  Cu  Cu2  1  0.00000000  0.00000000  0.00000000  1
  Cu  Cu3  1  0.00000000  0.00000000  0.49999999  1
  Cu  Cu4  1  0.27446205  0.54892403  0.88928398  1
  Cu  Cu5  1  0.72553804  0.45107602  0.11071600  1
  S  S6  1  0.72553804  0.45107602  0.38928399  1
  S  S7  1  0.27446205  0.54892403  0.61071598  1
  S  S8  1  0.08266902  0.16533801  0.35817599  1
  S  S9  1  0.91733107  0.83466204  0.64182398  1
  S  S10  1  0.91733107  0.83466204  0.85817598  1
  S  S11  1  0.08266902  0.16533801  0.14182400  1
  S  S12  1  0.18292404  0.36584802  0.74999998  1
  S  S13  1  0.81707605  0.63415203  0.24999999  1
  S  S14  1  0.35522007  0.71044004  0.45646299  1
  S  S15  1  0.64478002  0.28956001  0.54353699  1
  S  S16  1  0.64478002  0.28956001  0.95646298  1
  S  S17  1  0.35522007  0.71044004  0.04353700  1
