# generated using pymatgen
data_CsRb3Pb4
_symmetry_space_group_name_H-M   'P 1'
_cell_length_a   5.64491606
_cell_length_b   9.39167213
_cell_length_c   9.39167213
_cell_angle_alpha   120.00000000
_cell_angle_beta   90.00000000
_cell_angle_gamma   90.00000000
_symmetry_Int_Tables_number   1
_chemical_formula_structural   CsRb3Pb4
_chemical_formula_sum   'Cs1 Rb3 Pb4'
_cell_volume   431.19524749
_cell_formula_units_Z   1
loop_
 _symmetry_equiv_pos_site_id
 _symmetry_equiv_pos_as_xyz
  1  'x, y, z'
loop_
 _atom_site_type_symbol
 _atom_site_label
 _atom_site_symmetry_multiplicity
 _atom_site_fract_x
 _atom_site_fract_y
 _atom_site_fract_z
 _atom_site_occupancy
  Cs  Cs0  1  0.74999999  0.80758700  0.19241303  1
  Rb  Rb1  1  0.74999999  0.38482600  0.19241302  1
  Rb  Rb2  1  0.74999999  0.80758700  0.61517404  1
  Rb  Rb3  1  0.25000000  0.19241300  0.80758703  1
  Pb  Pb4  1  0.25000000  0.61517400  0.80758704  1
  Pb  Pb5  1  0.25000000  0.19241300  0.38482602  1
  Pb  Pb6  1  0.25000000  0.66666667  0.33333336  1
  Pb  Pb7  1  0.74999999  0.33333333  0.66666670  1
