# generated using pymatgen
data_Rb2I3Br5
_symmetry_space_group_name_H-M   'P 1'
_cell_length_a   8.21355534
_cell_length_b   8.46589756
_cell_length_c   13.79284859
_cell_angle_alpha   102.78028870
_cell_angle_beta   90.00000000
_cell_angle_gamma   90.00000000
_symmetry_Int_Tables_number   1
_chemical_formula_structural   Rb2I3Br5
_chemical_formula_sum   'Rb4 I6 Br10'
_cell_volume   935.32646013
_cell_formula_units_Z   2
loop_
 _symmetry_equiv_pos_site_id
 _symmetry_equiv_pos_as_xyz
  1  'x, y, z'
loop_
 _atom_site_type_symbol
 _atom_site_label
 _atom_site_symmetry_multiplicity
 _atom_site_fract_x
 _atom_site_fract_y
 _atom_site_fract_z
 _atom_site_occupancy
  Rb  Rb0  1  0.51483198  0.32173502  0.31721401  1
  Rb  Rb1  1  0.01483200  0.17826501  0.18278600  1
  Rb  Rb2  1  0.48516798  0.67826504  0.68278602  1
  Rb  Rb3  1  0.98516796  0.82173505  0.81721402  1
  I  I4  1  0.86010596  0.48704903  0.34911801  1
  I  I5  1  0.36010599  0.01295100  0.15088200  1
  I  I6  1  0.13989399  0.51295103  0.65088201  1
  I  I7  1  0.63989397  0.98704906  0.84911802  1
  I  I8  1  0.08338700  0.17396001  0.94631000  1
  Br  Br9  1  0.58338698  0.32604002  0.55369001  1
  I  I10  1  0.91661296  0.82604005  0.05369002  1
  Br  Br11  1  0.41661298  0.67396004  0.44631002  1
  Br  Br12  1  0.74602897  0.52358103  0.81262901  1
  Br  Br13  1  0.24602899  0.97641906  0.68737102  1
  Br  Br14  1  0.25397099  0.47641903  0.18737101  1
  Br  Br15  1  0.75397097  0.02358100  0.31262900  1
  Br  Br16  1  0.30913099  0.69404704  0.89731102  1
  Br  Br17  1  0.80913097  0.80595305  0.60268902  1
  Br  Br18  1  0.69086897  0.30595302  0.10268901  1
  Br  Br19  1  0.19086899  0.19404701  0.39731100  1
