# generated using pymatgen
data_ScGaSn2
_symmetry_space_group_name_H-M   'P 1'
_cell_length_a   5.74408817
_cell_length_b   5.90416288
_cell_length_c   5.90416288
_cell_angle_alpha   77.02213287
_cell_angle_beta   71.89738464
_cell_angle_gamma   71.89738464
_symmetry_Int_Tables_number   1
_chemical_formula_structural   ScGaSn2
_chemical_formula_sum   'Sc2 Ga2 Sn4'
_cell_volume   179.07641059
_cell_formula_units_Z   2
loop_
 _symmetry_equiv_pos_site_id
 _symmetry_equiv_pos_as_xyz
  1  'x, y, z'
loop_
 _atom_site_type_symbol
 _atom_site_label
 _atom_site_symmetry_multiplicity
 _atom_site_fract_x
 _atom_site_fract_y
 _atom_site_fract_z
 _atom_site_occupancy
  Sc  Sc0  1  0.14750696  0.66298998  0.66299001  1
  Sc  Sc1  1  0.85249297  0.33700999  0.33700997  1
  Ga  Ga2  1  0.30918594  0.98859698  0.98859702  1
  Ga  Ga3  1  0.69081399  0.01140300  0.01140297  1
  Sn  Sn4  1  0.67905994  0.88524098  0.39501001  1
  Sn  Sn5  1  0.32093996  0.60498999  0.11475902  1
  Sn  Sn6  1  0.32093999  0.11475900  0.60498998  1
  Sn  Sn7  1  0.67905997  0.39500999  0.88524097  1
