# generated using pymatgen
data_Sr4Fe(NiO4)3
_symmetry_space_group_name_H-M   'P 1'
_cell_length_a   5.49453926
_cell_length_b   5.49446583
_cell_length_c   9.50044537
_cell_angle_alpha   74.53411865
_cell_angle_beta   74.53672028
_cell_angle_gamma   60.86743927
_symmetry_Int_Tables_number   1
_chemical_formula_structural   Sr4Fe(NiO4)3
_chemical_formula_sum   'Sr4 Fe1 Ni3 O12'
_cell_volume   238.24994908
_cell_formula_units_Z   1
loop_
 _symmetry_equiv_pos_site_id
 _symmetry_equiv_pos_as_xyz
  1  'x, y, z'
loop_
 _atom_site_type_symbol
 _atom_site_label
 _atom_site_symmetry_multiplicity
 _atom_site_fract_x
 _atom_site_fract_y
 _atom_site_fract_z
 _atom_site_occupancy
  Sr  Sr0  1  0.87498502  0.87492303  0.37488700  1
  Sr  Sr1  1  0.37567201  0.37569201  0.87472300  1
  Sr  Sr2  1  0.12619700  0.12601100  0.62303900  1
  Sr  Sr3  1  0.62433501  0.62430002  0.12436900  1
  Fe  Fe4  1  0.25028001  0.25018101  0.24851900  1
  Ni  Ni5  1  0.75117002  0.75117403  0.74860700  1
  Ni  Ni6  1  0.49967601  0.49961102  0.50189800  1
  Ni  Ni7  1  0.99971602  0.99970403  0.00144000  1
  O  O8  1  0.87978202  0.37022901  0.37403299  1
  O  O9  1  0.38147300  0.87129903  0.87469901  1
  O  O10  1  0.61988202  0.12546500  0.12681099  1
  O  O11  1  0.12119800  0.62574002  0.62712701  1
  O  O12  1  0.37026700  0.87971503  0.37403301  1
  O  O13  1  0.87126502  0.38145201  0.87470099  1
  O  O14  1  0.12548100  0.61988702  0.12679501  1
  O  O15  1  0.62563902  0.12125000  0.62709399  1
  O  O16  1  0.62201301  0.62228902  0.61862100  1
  O  O17  1  0.11980300  0.11983100  0.12034500  1
  O  O18  1  0.37902201  0.37902701  0.38034300  1
  O  O19  1  0.88214402  0.88221503  0.87791700  1
