# generated using pymatgen
data_Tb(SiRh)2
_symmetry_space_group_name_H-M   'P 1'
_cell_length_a   4.09487009
_cell_length_b   4.09487009
_cell_length_c   5.82562399
_cell_angle_alpha   110.57623291
_cell_angle_beta   110.57623291
_cell_angle_gamma   90.00000000
_symmetry_Int_Tables_number   1
_chemical_formula_structural   Tb(SiRh)2
_chemical_formula_sum   'Tb1 Si2 Rh2'
_cell_volume   84.76351962
_cell_formula_units_Z   1
loop_
 _symmetry_equiv_pos_site_id
 _symmetry_equiv_pos_as_xyz
  1  'x, y, z'
loop_
 _atom_site_type_symbol
 _atom_site_label
 _atom_site_symmetry_multiplicity
 _atom_site_fract_x
 _atom_site_fract_y
 _atom_site_fract_z
 _atom_site_occupancy
  Tb  Tb0  1  0.00000000  0.00000000  0.00000000  1
  Si  Si1  1  0.62316198  0.62316198  0.24632399  1
  Si  Si2  1  0.37683799  0.37683799  0.75367599  1
  Rh  Rh3  1  0.74999998  0.24999999  0.49999999  1
  Rh  Rh4  1  0.24999999  0.74999998  0.49999999  1
