# generated using pymatgen
data_Cr3Si2
_symmetry_space_group_name_H-M   'P 1'
_cell_length_a   3.30935407
_cell_length_b   6.23520517
_cell_length_c   6.23520517
_cell_angle_alpha   90.00000000
_cell_angle_beta   90.00000000
_cell_angle_gamma   90.00000000
_symmetry_Int_Tables_number   1
_chemical_formula_structural   Cr3Si2
_chemical_formula_sum   'Cr6 Si4'
_cell_volume   128.66035112
_cell_formula_units_Z   2
loop_
 _symmetry_equiv_pos_site_id
 _symmetry_equiv_pos_as_xyz
  1  'x, y, z'
loop_
 _atom_site_type_symbol
 _atom_site_label
 _atom_site_symmetry_multiplicity
 _atom_site_fract_x
 _atom_site_fract_y
 _atom_site_fract_z
 _atom_site_occupancy
  Cr  Cr0  1  0.00000000  0.00000000  0.00000000  1
  Cr  Cr1  1  0.00000000  0.49999999  0.49999999  1
  Cr  Cr2  1  0.49999999  0.32141699  0.82141698  1
  Cr  Cr3  1  0.49999999  0.82141698  0.67858298  1
  Cr  Cr4  1  0.49999999  0.17858300  0.32141699  1
  Cr  Cr5  1  0.49999999  0.67858298  0.17858300  1
  Si  Si6  1  0.00000000  0.10550600  0.60550598  1
  Si  Si7  1  0.00000000  0.60550598  0.89449398  1
  Si  Si8  1  0.00000000  0.39449399  0.10550600  1
  Si  Si9  1  0.00000000  0.89449398  0.39449399  1
