# generated using pymatgen
data_Sm3Ga7Ge
_symmetry_space_group_name_H-M   'P 1'
_cell_length_a   4.46531010
_cell_length_b   7.22582483
_cell_length_c   8.54077721
_cell_angle_alpha   115.02534485
_cell_angle_beta   105.15381622
_cell_angle_gamma   90.00000000
_symmetry_Int_Tables_number   1
_chemical_formula_structural   Sm3Ga7Ge
_chemical_formula_sum   'Sm3 Ga7 Ge1'
_cell_volume   239.08530386
_cell_formula_units_Z   1
loop_
 _symmetry_equiv_pos_site_id
 _symmetry_equiv_pos_as_xyz
  1  'x, y, z'
loop_
 _atom_site_type_symbol
 _atom_site_label
 _atom_site_symmetry_multiplicity
 _atom_site_fract_x
 _atom_site_fract_y
 _atom_site_fract_z
 _atom_site_occupancy
  Sm  Sm0  1  0.12760100  0.62760201  0.25520299  1
  Sm  Sm1  1  0.87239898  0.37239801  0.74479697  1
  Sm  Sm2  1  0.00000000  0.00000000  0.00000000  1
  Ga  Ga3  1  0.66860499  0.97370202  0.33720899  1
  Ga  Ga4  1  0.33139499  0.02629800  0.66279098  1
  Ga  Ga5  1  0.66860499  0.36350701  0.33720899  1
  Ga  Ga6  1  0.33139499  0.63649301  0.66279098  1
  Ga  Ga7  1  0.78337298  0.78337402  0.56674698  1
  Ga  Ga8  1  0.21662700  0.21662600  0.43325298  1
  Ga  Ga9  1  0.49999999  0.68157302  -0.00000000  1
  Ge  Ge10  1  0.49999999  0.31842701  0.99999996  1
