# generated using pymatgen
data_Sr2GdCu3O7
_symmetry_space_group_name_H-M   'P 1'
_cell_length_a   3.75853109
_cell_length_b   3.88632107
_cell_length_c   11.60401058
_cell_angle_alpha   89.99999237
_cell_angle_beta   89.99999237
_cell_angle_gamma   90.00984955
_symmetry_Int_Tables_number   1
_chemical_formula_structural   Sr2GdCu3O7
_chemical_formula_sum   'Sr2 Gd1 Cu3 O7'
_cell_volume   169.49813895
_cell_formula_units_Z   1
loop_
 _symmetry_equiv_pos_site_id
 _symmetry_equiv_pos_as_xyz
  1  'x, y, z'
loop_
 _atom_site_type_symbol
 _atom_site_label
 _atom_site_symmetry_multiplicity
 _atom_site_fract_x
 _atom_site_fract_y
 _atom_site_fract_z
 _atom_site_occupancy
  Sr  Sr0  1  0.49999900  0.49999999  0.18788699  1
  Sr  Sr1  1  0.50000100  0.49999999  0.81210601  1
  Gd  Gd2  1  0.49999900  0.49999999  0.50000200  1
  Cu  Cu3  1  0.00000400  0.00000100  -0.00000000  1
  Cu  Cu4  1  0.00000000  0.00000100  0.35205901  1
  Cu  Cu5  1  0.99999898  0.00000000  0.64794701  1
  O  O6  1  0.00000001  0.49999899  -0.00000001  1
  O  O7  1  0.99999901  0.99999999  0.16233397  1
  O  O8  1  0.00000003  0.99999899  0.83767301  1
  O  O9  1  0.00000101  0.49999999  0.37234501  1
  O  O10  1  0.99999899  0.49999999  0.62765000  1
  O  O11  1  0.49999902  0.99999999  0.37635899  1
  O  O12  1  0.49999902  0.99999999  0.62363700  1
