# generated using pymatgen
data_Ce3Sn3Pd2Pb
_symmetry_space_group_name_H-M   'P 1'
_cell_length_a   4.04341412
_cell_length_b   7.74672985
_cell_length_c   7.74673080
_cell_angle_alpha   120.00000000
_cell_angle_beta   90.00000000
_cell_angle_gamma   90.00000000
_symmetry_Int_Tables_number   1
_chemical_formula_structural   Ce3Sn3Pd2Pb
_chemical_formula_sum   'Ce3 Sn3 Pd2 Pb1'
_cell_volume   210.14338834
_cell_formula_units_Z   1
loop_
 _symmetry_equiv_pos_site_id
 _symmetry_equiv_pos_as_xyz
  1  'x, y, z'
loop_
 _atom_site_type_symbol
 _atom_site_label
 _atom_site_symmetry_multiplicity
 _atom_site_fract_x
 _atom_site_fract_y
 _atom_site_fract_z
 _atom_site_occupancy
  Ce  Ce0  1  0.49999999  0.00000000  0.59424101  1
  Ce  Ce1  1  0.49999999  0.40575902  0.40575904  1
  Ce  Ce2  1  0.49999999  0.59424103  1.00000006  1
  Sn  Sn3  1  0.00000000  0.00000000  0.25917400  1
  Sn  Sn4  1  -0.00000000  0.74082604  0.74082606  1
  Sn  Sn5  1  -0.00000000  0.25917401  0.00000002  1
  Pb  Pb6  1  0.49999999  0.00000000  -0.00000000  1
  Pd  Pd7  1  -0.00000000  0.33333335  0.66666670  1
  Pd  Pd8  1  -0.00000000  0.66666671  0.33333339  1
