# generated using pymatgen
data_NdSi2Ni
_symmetry_space_group_name_H-M   'P 1'
_cell_length_a   3.95061493
_cell_length_b   4.28490210
_cell_length_c   7.95105314
_cell_angle_alpha   103.09375000
_cell_angle_beta   90.00000000
_cell_angle_gamma   90.00000000
_symmetry_Int_Tables_number   1
_chemical_formula_structural   NdSi2Ni
_chemical_formula_sum   'Nd2 Si4 Ni2'
_cell_volume   131.09602470
_cell_formula_units_Z   2
loop_
 _symmetry_equiv_pos_site_id
 _symmetry_equiv_pos_as_xyz
  1  'x, y, z'
loop_
 _atom_site_type_symbol
 _atom_site_label
 _atom_site_symmetry_multiplicity
 _atom_site_fract_x
 _atom_site_fract_y
 _atom_site_fract_z
 _atom_site_occupancy
  Nd  Nd0  1  0.75000001  0.40417399  0.79485598  1
  Nd  Nd1  1  0.25000000  0.59582598  0.20514399  1
  Si  Si2  1  0.75000001  0.11712500  0.39102399  1
  Si  Si3  1  0.25000000  0.88287497  0.60897597  1
  Si  Si4  1  0.75000001  0.04022300  0.09769500  1
  Si  Si5  1  0.25000000  0.95977697  0.90230497  1
  Ni  Ni6  1  0.75000001  0.67063098  0.49246898  1
  Ni  Ni7  1  0.25000000  0.32936899  0.50753098  1
