# generated using pymatgen
data_Y4Co(TeBr2)3
_symmetry_space_group_name_H-M   'P 1'
_cell_length_a   8.19752502
_cell_length_b   8.19752502
_cell_length_c   11.87343502
_cell_angle_alpha   108.54979706
_cell_angle_beta   107.82843018
_cell_angle_gamma   95.49497223
_symmetry_Int_Tables_number   1
_chemical_formula_structural   Y4Co(TeBr2)3
_chemical_formula_sum   'Y4 Co1 Te3 Br6'
_cell_volume   703.42400445
_cell_formula_units_Z   1
loop_
 _symmetry_equiv_pos_site_id
 _symmetry_equiv_pos_as_xyz
  1  'x, y, z'
loop_
 _atom_site_type_symbol
 _atom_site_label
 _atom_site_symmetry_multiplicity
 _atom_site_fract_x
 _atom_site_fract_y
 _atom_site_fract_z
 _atom_site_occupancy
  Y  Y0  1  0.49585200  0.51170301  0.50635298  1
  Y  Y1  1  0.99465001  0.51050101  0.00635300  1
  Y  Y2  1  0.35080201  0.10845700  0.75647298  1
  Y  Y3  1  0.64801599  0.90567102  0.25647299  1
  Te  Te4  1  0.29703499  0.74496101  0.66621398  1
  Co  Co5  1  0.64965601  0.25255000  0.96899897  1
  Te  Te6  1  0.92125300  0.86917902  0.16621400  1
  Te  Te7  1  0.82135400  0.59361201  0.75877598  1
  Br  Br8  1  0.29565600  0.19106900  0.54308498  1
  Br  Br9  1  0.71644900  0.81934302  0.46899899  1
  Br  Br10  1  0.16516399  0.43742201  0.25877599  1
  Br  Br11  1  0.07793200  0.15913100  0.84529797  1
  Br  Br12  1  0.35201599  0.74742901  0.04308500  1
  Br  Br13  1  0.68616701  0.26736601  0.34529799  1
