# generated using pymatgen
data_Ce5Sb4
_symmetry_space_group_name_H-M   'P 1'
_cell_length_a   7.80527687
_cell_length_b   8.13152599
_cell_length_c   8.09910965
_cell_angle_alpha   90.00000000
_cell_angle_beta   70.75505066
_cell_angle_gamma   90.00000000
_symmetry_Int_Tables_number   1
_chemical_formula_structural   Ce5Sb4
_chemical_formula_sum   'Ce10 Sb8'
_cell_volume   485.31527481
_cell_formula_units_Z   2
loop_
 _symmetry_equiv_pos_site_id
 _symmetry_equiv_pos_as_xyz
  1  'x, y, z'
loop_
 _atom_site_type_symbol
 _atom_site_label
 _atom_site_symmetry_multiplicity
 _atom_site_fract_x
 _atom_site_fract_y
 _atom_site_fract_z
 _atom_site_occupancy
  Ce  Ce0  1  0.93105100  0.67881400  0.69221305  1
  Ce  Ce1  1  0.43105100  0.82118600  0.69221304  1
  Ce  Ce2  1  0.56894900  0.17881400  0.30778703  1
  Ce  Ce3  1  0.74759200  0.66965300  0.25580203  1
  Ce  Ce4  1  0.00000000  0.00000000  0.00000000  1
  Ce  Ce5  1  0.06894900  0.32118600  0.30778701  1
  Ce  Ce6  1  0.75240800  0.16965300  0.74419805  1
  Ce  Ce7  1  0.24759200  0.83034700  0.25580202  1
  Ce  Ce8  1  0.25240800  0.33034700  0.74419803  1
  Ce  Ce9  1  0.50000000  0.50000000  0.00000002  1
  Sb  Sb10  1  0.37004000  0.13196900  0.01233401  1
  Sb  Sb11  1  0.14446000  0.03289400  0.58253102  1
  Sb  Sb12  1  0.62996000  0.86803100  0.98766605  1
  Sb  Sb13  1  0.64446000  0.46710600  0.58253104  1
  Sb  Sb14  1  0.12996000  0.63196900  0.98766604  1
  Sb  Sb15  1  0.35554000  0.53289400  0.41746903  1
  Sb  Sb16  1  0.85554000  0.96710600  0.41746904  1
  Sb  Sb17  1  0.87004000  0.36803100  0.01233403  1
