# generated using pymatgen
data_CaY(SiO3)2
_symmetry_space_group_name_H-M   'P 1'
_cell_length_a   5.05467319
_cell_length_b   6.66557455
_cell_length_c   6.66556120
_cell_angle_alpha   86.53175354
_cell_angle_beta   82.32600403
_cell_angle_gamma   82.32584381
_symmetry_Int_Tables_number   1
_chemical_formula_structural   CaY(SiO3)2
_chemical_formula_sum   'Ca2 Y2 Si4 O12'
_cell_volume   220.36515084
_cell_formula_units_Z   2
loop_
 _symmetry_equiv_pos_site_id
 _symmetry_equiv_pos_as_xyz
  1  'x, y, z'
loop_
 _atom_site_type_symbol
 _atom_site_label
 _atom_site_symmetry_multiplicity
 _atom_site_fract_x
 _atom_site_fract_y
 _atom_site_fract_z
 _atom_site_occupancy
  Y  Y0  1  0.74998307  0.90573701  0.09425499  1
  Ca  Ca1  1  0.75000403  0.27650300  0.72351401  1
  Y  Y2  1  0.25002601  0.09424600  0.90573801  1
  Ca  Ca3  1  0.24999805  0.72349801  0.27650699  1
  Si  Si4  1  0.28940802  0.20840600  0.38744800  1
  Si  Si5  1  0.78940204  0.38744700  0.20839800  1
  Si  Si6  1  0.21059204  0.61255301  0.79159500  1
  Si  Si7  1  0.71059606  0.79160201  0.61255200  1
  O  O8  1  0.35013501  0.03290900  0.21981001  1
  O  O9  1  0.85012703  0.21980700  0.03289001  1
  O  O10  1  0.14986405  0.78019101  0.96709199  1
  O  O11  1  0.64986907  0.96711001  0.78018899  1
  O  O12  1  0.08451403  0.40559000  0.29587599  1
  O  O13  1  0.58452303  0.29587300  0.40559201  1
  O  O14  1  0.41548305  0.70412601  0.59440899  1
  O  O15  1  0.91547905  0.59440901  0.70413001  1
  O  O16  1  0.14578501  0.14433300  0.60609201  1
  O  O17  1  0.64578805  0.60608301  0.14433199  1
  O  O18  1  0.35422003  0.39390900  0.85566501  1
  O  O19  1  0.85420607  0.85566701  0.39391599  1
