# generated using pymatgen
data_YbTm2GaGe2
_symmetry_space_group_name_H-M   'P 1'
_cell_length_a   6.23650217
_cell_length_b   7.00584984
_cell_length_c   8.29844570
_cell_angle_alpha   114.96839142
_cell_angle_beta   112.07149506
_cell_angle_gamma   90.00000000
_symmetry_Int_Tables_number   1
_chemical_formula_structural   YbTm2GaGe2
_chemical_formula_sum   'Yb2 Tm4 Ga2 Ge4'
_cell_volume   299.12343085
_cell_formula_units_Z   2
loop_
 _symmetry_equiv_pos_site_id
 _symmetry_equiv_pos_as_xyz
  1  'x, y, z'
loop_
 _atom_site_type_symbol
 _atom_site_label
 _atom_site_symmetry_multiplicity
 _atom_site_fract_x
 _atom_site_fract_y
 _atom_site_fract_z
 _atom_site_occupancy
  Yb  Yb0  1  0.68947600  0.37489602  0.37895105  1
  Yb  Yb1  1  0.31052402  0.62510403  0.62104906  1
  Tm  Tm2  1  0.81052502  0.99594504  0.62105009  1
  Tm  Tm3  1  0.18947500  0.00405500  0.37895002  1
  Tm  Tm4  1  0.25000001  0.50000002  1.00000008  1
  Tm  Tm5  1  0.75000000  0.50000002  0.00000004  1
  Ga  Ga6  1  0.74999999  0.00000000  1.00000007  1
  Ga  Ga7  1  0.25000000  0.00000000  0.00000001  1
  Ge  Ge8  1  0.10341501  0.30491901  0.20683003  1
  Ge  Ge9  1  0.89658501  0.69508103  0.79317009  1
  Ge  Ge10  1  0.39658500  0.09808900  0.79317005  1
  Ge  Ge11  1  0.60341502  0.90191104  0.20683006  1
