# generated using pymatgen
data_Ce3Ru
_symmetry_space_group_name_H-M   'P 1'
_cell_length_a   6.16079903
_cell_length_b   7.28959894
_cell_length_c   8.84813309
_cell_angle_alpha   90.00000000
_cell_angle_beta   90.00000000
_cell_angle_gamma   90.00000000
_symmetry_Int_Tables_number   1
_chemical_formula_structural   Ce3Ru
_chemical_formula_sum   'Ce12 Ru4'
_cell_volume   397.36748087
_cell_formula_units_Z   4
loop_
 _symmetry_equiv_pos_site_id
 _symmetry_equiv_pos_as_xyz
  1  'x, y, z'
loop_
 _atom_site_type_symbol
 _atom_site_label
 _atom_site_symmetry_multiplicity
 _atom_site_fract_x
 _atom_site_fract_y
 _atom_site_fract_z
 _atom_site_occupancy
  Ce  Ce0  1  0.33312200  0.67561301  0.06197700  1
  Ce  Ce1  1  0.16687800  0.17561300  0.43802300  1
  Ce  Ce2  1  0.66687800  0.32438700  0.56197699  1
  Ce  Ce3  1  0.83312200  0.82438701  0.93802299  1
  Ce  Ce4  1  0.66687800  0.32438700  0.93802299  1
  Ce  Ce5  1  0.83312200  0.82438701  0.56197699  1
  Ce  Ce6  1  0.33312200  0.67561301  0.43802300  1
  Ce  Ce7  1  0.16687800  0.17561300  0.06197700  1
  Ce  Ce8  1  0.87114900  0.53931100  0.25000000  1
  Ce  Ce9  1  0.62885100  0.03931100  0.25000000  1
  Ce  Ce10  1  0.12885100  0.46068900  0.74999999  1
  Ce  Ce11  1  0.37114900  0.96068901  0.74999999  1
  Ru  Ru12  1  0.03868600  0.88336601  0.25000000  1
  Ru  Ru13  1  0.46131400  0.38336600  0.25000000  1
  Ru  Ru14  1  0.96131400  0.11663400  0.74999999  1
  Ru  Ru15  1  0.53868600  0.61663400  0.74999999  1
