# generated using pymatgen
data_SrAl3(BN5)2
_symmetry_space_group_name_H-M   'P 1'
_cell_length_a   4.93742180
_cell_length_b   6.80448580
_cell_length_c   6.86298418
_cell_angle_alpha   75.32170105
_cell_angle_beta   69.49518585
_cell_angle_gamma   69.07919312
_symmetry_Int_Tables_number   1
_chemical_formula_structural   SrAl3(BN5)2
_chemical_formula_sum   'Sr1 Al3 B2 N10'
_cell_volume   199.54578657
_cell_formula_units_Z   1
loop_
 _symmetry_equiv_pos_site_id
 _symmetry_equiv_pos_as_xyz
  1  'x, y, z'
loop_
 _atom_site_type_symbol
 _atom_site_label
 _atom_site_symmetry_multiplicity
 _atom_site_fract_x
 _atom_site_fract_y
 _atom_site_fract_z
 _atom_site_occupancy
  Sr  Sr0  1  0.27991301  0.01044200  0.99555400  1
  Al  Al1  1  0.82512404  0.52720899  0.14714000  1
  Al  Al2  1  0.32548202  0.33279399  0.33222699  1
  Al  Al3  1  0.98951005  0.66075699  0.66078000  1
  N  N4  1  0.50167103  0.46847899  0.85472699  1
  B  B5  1  0.81633903  0.14417000  0.53179501  1
  B  B6  1  0.48514304  0.85937899  0.47974298  1
  N  N7  1  0.69287603  0.29706299  0.31545300  1
  N  N8  1  0.30979103  0.69029099  0.68797998  1
  N  N9  1  0.23983902  0.44384199  0.09891699  1
  N  N10  1  0.76011204  0.56749499  0.88951699  1
  N  N11  1  0.21537901  0.10089900  0.44373300  1
  N  N12  1  0.76787705  0.89512298  0.55151499  1
  N  N13  1  0.62972103  0.22842200  0.76933600  1
  N  N14  1  0.07726702  0.49975899  0.49324598  1
  N  N15  1  0.61505604  0.77387699  0.24833599  1
