# generated using pymatgen
data_Sr5Bi3SeBr4O7
_symmetry_space_group_name_H-M   'P 1'
_cell_length_a   4.11218977
_cell_length_b   4.11218977
_cell_length_c   26.22118568
_cell_angle_alpha   90.00000000
_cell_angle_beta   90.00000000
_cell_angle_gamma   90.00000000
_symmetry_Int_Tables_number   1
_chemical_formula_structural   Sr5Bi3SeBr4O7
_chemical_formula_sum   'Sr5 Bi3 Se1 Br4 O7'
_cell_volume   443.40299534
_cell_formula_units_Z   1
loop_
 _symmetry_equiv_pos_site_id
 _symmetry_equiv_pos_as_xyz
  1  'x, y, z'
loop_
 _atom_site_type_symbol
 _atom_site_label
 _atom_site_symmetry_multiplicity
 _atom_site_fract_x
 _atom_site_fract_y
 _atom_site_fract_z
 _atom_site_occupancy
  Sr  Sr0  1  0.50000003  0.50000003  0.07781200  1
  Sr  Sr1  1  0.00000000  0.00000000  0.32918500  1
  Sr  Sr2  1  0.50000003  0.50000003  0.57918001  1
  Sr  Sr3  1  0.00000000  0.00000000  0.82949901  1
  Sr  Sr4  1  0.00000000  0.00000000  0.17050100  1
  Bi  Bi5  1  0.50000003  0.50000003  0.42082001  1
  Bi  Bi6  1  0.00000000  0.00000000  0.67081501  1
  Bi  Bi7  1  0.50000003  0.50000003  0.92218801  1
  Br  Br8  1  0.50000003  0.50000003  0.24997700  1
  Br  Br9  1  0.00000000  0.00000000  0.50000001  1
  Br  Br10  1  0.50000003  0.50000003  0.75002301  1
  Se  Se11  1  0.00000000  0.00000000  0.00000000  1
  O  O12  1  0.50000003  0.00000000  0.12441300  1
  Br  Br13  1  0.00000000  0.50000003  0.37500400  1
  O  O14  1  0.50000003  0.00000000  0.62499601  1
  O  O15  1  0.00000000  0.50000003  0.87558701  1
  O  O16  1  0.00000000  0.50000003  0.12441300  1
  O  O17  1  0.50000003  0.00000000  0.37500400  1
  O  O18  1  0.00000000  0.50000003  0.62499601  1
  O  O19  1  0.50000003  0.00000000  0.87558701  1
