# generated using pymatgen
data_Er2Al3BiO12
_symmetry_space_group_name_H-M   'P 1'
_cell_length_a   5.17427778
_cell_length_b   5.17427778
_cell_length_c   9.65199566
_cell_angle_alpha   89.99937439
_cell_angle_beta   90.00064087
_cell_angle_gamma   59.99793243
_symmetry_Int_Tables_number   1
_chemical_formula_structural   Er2Al3BiO12
_chemical_formula_sum   'Er2 Al3 Bi1 O12'
_cell_volume   223.78871440
_cell_formula_units_Z   1
loop_
 _symmetry_equiv_pos_site_id
 _symmetry_equiv_pos_as_xyz
  1  'x, y, z'
loop_
 _atom_site_type_symbol
 _atom_site_label
 _atom_site_symmetry_multiplicity
 _atom_site_fract_x
 _atom_site_fract_y
 _atom_site_fract_z
 _atom_site_occupancy
  Er  Er0  1  0.00000000  0.00000000  0.00000000  1
  Er  Er1  1  0.00000000  0.00000000  0.50000002  1
  Al  Al2  1  0.33345302  0.33345299  0.75000002  1
  Al  Al3  1  0.66654703  0.66654698  0.25000000  1
  Al  Al4  1  0.33333335  0.33333332  0.25000001  1
  Bi  Bi5  1  0.66666670  0.66666665  0.75000002  1
  O  O6  1  0.64829203  0.98978097  0.86199402  1
  O  O7  1  0.98980504  0.36190399  0.86200402  1
  O  O8  1  0.36191602  0.64827198  0.86199803  1
  O  O9  1  0.35170801  0.01021900  0.13800600  1
  O  O10  1  0.01019500  0.63809598  0.13799600  1
  O  O11  1  0.63808403  0.35172799  0.13800200  1
  O  O12  1  0.36190502  0.98980397  0.63799602  1
  O  O13  1  0.98978105  0.64829198  0.63800601  1
  O  O14  1  0.64827203  0.36191599  0.63800202  1
  O  O15  1  0.63809503  0.01019600  0.36200401  1
  O  O16  1  0.01021900  0.35170799  0.36199401  1
  O  O17  1  0.35172802  0.63808398  0.36199801  1
