# generated using pymatgen
data_Li2CaFe4O7
_symmetry_space_group_name_H-M   'P 1'
_cell_length_a   5.94739580
_cell_length_b   6.62239599
_cell_length_c   5.94739580
_cell_angle_alpha   116.68189240
_cell_angle_beta   90.00000000
_cell_angle_gamma   116.68189240
_symmetry_Int_Tables_number   1
_chemical_formula_structural   Li2CaFe4O7
_chemical_formula_sum   'Li2 Ca1 Fe4 O7'
_cell_volume   180.94999082
_cell_formula_units_Z   1
loop_
 _symmetry_equiv_pos_site_id
 _symmetry_equiv_pos_as_xyz
  1  'x, y, z'
loop_
 _atom_site_type_symbol
 _atom_site_label
 _atom_site_symmetry_multiplicity
 _atom_site_fract_x
 _atom_site_fract_y
 _atom_site_fract_z
 _atom_site_occupancy
  Ca  Ca0  1  0.62500004  0.25000001  0.37500004  1
  Li  Li1  1  0.62500004  0.25000001  0.87500005  1
  Li  Li2  1  0.62500009  0.75000003  0.37500008  1
  Fe  Fe3  1  0.12500007  0.75000003  0.37500008  1
  Fe  Fe4  1  0.00000000  0.00000000  0.00000000  1
  Fe  Fe5  1  0.25000005  0.50000002  0.75000007  1
  Fe  Fe6  1  0.24705802  0.09361600  0.70841703  1
  O  O7  1  0.84655804  0.09361600  0.38519902  1
  O  O8  1  0.40344205  0.40638402  0.36480105  1
  O  O9  1  0.00294204  0.40638402  0.04158304  1
  O  O10  1  0.29158309  0.90638404  0.15344209  1
  O  O11  1  0.61480110  0.90638404  0.75294211  1
  O  O12  1  0.63519908  0.59361602  0.99705809  1
  O  O13  1  0.95841709  0.59361602  0.59655807  1
