# generated using pymatgen
data_Eu2In
_symmetry_space_group_name_H-M   'P 1'
_cell_length_a   3.58891606
_cell_length_b   6.65398073
_cell_length_c   8.35817432
_cell_angle_alpha   103.29611969
_cell_angle_beta   90.00000000
_cell_angle_gamma   105.64533997
_symmetry_Int_Tables_number   1
_chemical_formula_structural   Eu2In
_chemical_formula_sum   'Eu4 In2'
_cell_volume   186.64061192
_cell_formula_units_Z   2
loop_
 _symmetry_equiv_pos_site_id
 _symmetry_equiv_pos_as_xyz
  1  'x, y, z'
loop_
 _atom_site_type_symbol
 _atom_site_label
 _atom_site_symmetry_multiplicity
 _atom_site_fract_x
 _atom_site_fract_y
 _atom_site_fract_z
 _atom_site_occupancy
  Eu  Eu0  1  0.99873806  0.99747599  0.00822504  1
  Eu  Eu1  1  0.67556401  0.35112800  0.33172702  1
  Eu  Eu2  1  0.05170901  0.10341800  0.60027101  1
  Eu  Eu3  1  0.32975804  0.65951599  0.66979703  1
  In  In4  1  0.71926102  0.43852200  0.94401802  1
  In  In5  1  0.39163805  0.78327599  0.27929504  1
