# generated using pymatgen
data_BaTl4
_symmetry_space_group_name_H-M   'P 1'
_cell_length_a   4.55852509
_cell_length_b   9.07201481
_cell_length_c   9.07201481
_cell_angle_alpha   90.00000000
_cell_angle_beta   90.00000000
_cell_angle_gamma   90.00000000
_symmetry_Int_Tables_number   1
_chemical_formula_structural   BaTl4
_chemical_formula_sum   'Ba2 Tl8'
_cell_volume   375.17323665
_cell_formula_units_Z   2
loop_
 _symmetry_equiv_pos_site_id
 _symmetry_equiv_pos_as_xyz
  1  'x, y, z'
loop_
 _atom_site_type_symbol
 _atom_site_label
 _atom_site_symmetry_multiplicity
 _atom_site_fract_x
 _atom_site_fract_y
 _atom_site_fract_z
 _atom_site_occupancy
  Ba  Ba0  1  0.00000000  0.50000001  0.50000001  1
  Ba  Ba1  1  0.00000000  0.00000000  0.00000000  1
  Tl  Tl2  1  0.49999999  0.34569201  0.84569202  1
  Tl  Tl3  1  0.49999999  0.84569202  0.65430801  1
  Tl  Tl4  1  0.49999999  0.65430801  0.15430800  1
  Tl  Tl5  1  0.49999999  0.15430800  0.34569201  1
  Tl  Tl6  1  0.00000000  0.14276500  0.64276501  1
  Tl  Tl7  1  0.00000000  0.64276501  0.85723502  1
  Tl  Tl8  1  0.00000000  0.35723501  0.14276500  1
  Tl  Tl9  1  0.00000000  0.85723502  0.35723501  1
