# generated using pymatgen
data_MgAu2
_symmetry_space_group_name_H-M   'P 1'
_cell_length_a   2.88821793
_cell_length_b   4.56867313
_cell_length_c   7.47090626
_cell_angle_alpha   90.00000000
_cell_angle_beta   101.14529419
_cell_angle_gamma   90.00000000
_symmetry_Int_Tables_number   1
_chemical_formula_structural   MgAu2
_chemical_formula_sum   'Mg2 Au4'
_cell_volume   96.72180384
_cell_formula_units_Z   2
loop_
 _symmetry_equiv_pos_site_id
 _symmetry_equiv_pos_as_xyz
  1  'x, y, z'
loop_
 _atom_site_type_symbol
 _atom_site_label
 _atom_site_symmetry_multiplicity
 _atom_site_fract_x
 _atom_site_fract_y
 _atom_site_fract_z
 _atom_site_occupancy
  Mg  Mg0  1  0.77765601  0.49999999  0.55531198  1
  Mg  Mg1  1  0.00054700  0.00000000  0.00109400  1
  Au  Au2  1  0.33769500  0.99999997  0.67538998  1
  Au  Au3  1  0.66359401  0.99999997  0.32718798  1
  Au  Au4  1  0.10615500  0.49999999  0.21230999  1
  Au  Au5  1  0.44768501  0.49999999  0.89536998  1
