# generated using pymatgen
data_LiSn4Au3
_symmetry_space_group_name_H-M   'P 1'
_cell_length_a   5.59755993
_cell_length_b   5.64047194
_cell_length_c   5.59755993
_cell_angle_alpha   119.74864960
_cell_angle_beta   90.00000000
_cell_angle_gamma   119.74864960
_symmetry_Int_Tables_number   1
_chemical_formula_structural   LiSn4Au3
_chemical_formula_sum   'Li1 Sn4 Au3'
_cell_volume   125.91131509
_cell_formula_units_Z   1
loop_
 _symmetry_equiv_pos_site_id
 _symmetry_equiv_pos_as_xyz
  1  'x, y, z'
loop_
 _atom_site_type_symbol
 _atom_site_label
 _atom_site_symmetry_multiplicity
 _atom_site_fract_x
 _atom_site_fract_y
 _atom_site_fract_z
 _atom_site_occupancy
  Li  Li0  1  0.74999997  0.49999995  0.24999997  1
  Sn  Sn1  1  0.24999997  0.49999995  0.74999997  1
  Sn  Sn2  1  0.24999997  0.49999995  0.24999997  1
  Sn  Sn3  1  0.74999997  0.49999995  0.74999997  1
  Au  Au4  1  0.69531901  0.00000000  0.80468101  1
  Sn  Sn5  1  0.30468100  0.00000000  0.19531900  1
  Au  Au6  1  0.19531893  0.99999991  0.69531893  1
  Au  Au7  1  0.80468101  0.00000000  0.30468100  1
