# generated using pymatgen
data_Li2FeO4
_symmetry_space_group_name_H-M   'P 1'
_cell_length_a   4.01696205
_cell_length_b   6.38628054
_cell_length_c   6.47193050
_cell_angle_alpha   105.87879944
_cell_angle_beta   90.00000000
_cell_angle_gamma   108.33058929
_symmetry_Int_Tables_number   1
_chemical_formula_structural   Li2FeO4
_chemical_formula_sum   'Li4 Fe2 O8'
_cell_volume   150.91430792
_cell_formula_units_Z   2
loop_
 _symmetry_equiv_pos_site_id
 _symmetry_equiv_pos_as_xyz
  1  'x, y, z'
loop_
 _atom_site_type_symbol
 _atom_site_label
 _atom_site_symmetry_multiplicity
 _atom_site_fract_x
 _atom_site_fract_y
 _atom_site_fract_z
 _atom_site_occupancy
  Li  Li0  1  0.06137999  0.12276000  0.34300100  1
  Li  Li1  1  0.94071493  0.88143001  0.63991202  1
  Li  Li2  1  0.39284794  0.78569601  0.29803402  1
  Li  Li3  1  0.61155998  0.22312000  0.72519399  1
  Fe  Fe4  1  0.28945796  0.57891500  0.70784500  1
  Fe  Fe5  1  0.71314796  0.42629600  0.30931901  1
  O  O6  1  0.12097198  0.24194400  0.67133199  1
  O  O7  1  0.24089597  0.48179200  0.35897801  1
  O  O8  1  0.34453395  0.68906801  0.98531200  1
  O  O9  1  0.44043794  0.88087601  0.64037202  1
  O  O10  1  0.54786799  0.09573600  0.35092900  1
  O  O11  1  0.64512597  0.29025200  0.99395099  1
  O  O12  1  0.76447596  0.52895200  0.65717000  1
  O  O13  1  0.88658194  0.77316401  0.31865102  1
