# generated using pymatgen
data_Ta2Cu5SiAs10
_symmetry_space_group_name_H-M   'P 1'
_cell_length_a   3.64971209
_cell_length_b   6.37445545
_cell_length_c   10.08008766
_cell_angle_alpha   90.00000000
_cell_angle_beta   90.00000000
_cell_angle_gamma   106.63516235
_symmetry_Int_Tables_number   1
_chemical_formula_structural   Ta2Cu5SiAs10
_chemical_formula_sum   'Ta2 Cu5 Si1 As10'
_cell_volume   224.69746859
_cell_formula_units_Z   1
loop_
 _symmetry_equiv_pos_site_id
 _symmetry_equiv_pos_as_xyz
  1  'x, y, z'
loop_
 _atom_site_type_symbol
 _atom_site_label
 _atom_site_symmetry_multiplicity
 _atom_site_fract_x
 _atom_site_fract_y
 _atom_site_fract_z
 _atom_site_occupancy
  Ta  Ta0  1  0.05751801  0.11503600  0.10911800  1
  Ta  Ta1  1  0.94248209  0.88496403  0.89088203  1
  Cu  Cu2  1  0.05751801  0.11503600  0.39088201  1
  Cu  Cu3  1  0.94248209  0.88496403  0.60911802  1
  Cu  Cu4  1  0.14935003  0.29870001  0.62523702  1
  Cu  Cu5  1  0.85065007  0.70130002  0.37476301  1
  Cu  Cu6  1  0.14935003  0.29870001  0.87476303  1
  Si  Si7  1  0.85065007  0.70130002  0.12523700  1
  As  As8  1  0.35228608  0.70457202  0.75000003  1
  As  As9  1  0.64771402  0.29542801  0.25000001  1
  As  As10  1  0.31944007  0.63888002  0.51356202  1
  As  As11  1  0.68056003  0.36112001  0.48643802  1
  As  As12  1  0.31944007  0.63888002  0.98643803  1
  As  As13  1  0.68056003  0.36112001  0.01356200  1
  As  As14  1  0.54509100  0.09018200  0.75000003  1
  As  As15  1  0.45490910  0.90981803  0.25000001  1
  As  As16  1  0.74003104  0.48006202  0.75000003  1
  As  As17  1  0.25996906  0.51993802  0.25000001  1
