# generated using pymatgen
data_LiFe(CuO2)2
_symmetry_space_group_name_H-M   'P 1'
_cell_length_a   6.08699799
_cell_length_b   6.15956688
_cell_length_c   6.72380018
_cell_angle_alpha   90.26322174
_cell_angle_beta   116.90975952
_cell_angle_gamma   119.60989380
_symmetry_Int_Tables_number   1
_chemical_formula_structural   LiFe(CuO2)2
_chemical_formula_sum   'Li2 Fe2 Cu4 O8'
_cell_volume   186.78394823
_cell_formula_units_Z   2
loop_
 _symmetry_equiv_pos_site_id
 _symmetry_equiv_pos_as_xyz
  1  'x, y, z'
loop_
 _atom_site_type_symbol
 _atom_site_label
 _atom_site_symmetry_multiplicity
 _atom_site_fract_x
 _atom_site_fract_y
 _atom_site_fract_z
 _atom_site_occupancy
  Li  Li0  1  0.00000000  0.00000000  0.50000000  1
  Li  Li1  1  0.50000000  0.00000000  0.49999998  1
  Fe  Fe2  1  0.49999995  0.49999996  0.49999993  1
  Fe  Fe3  1  -0.00000005  0.49999996  0.49999995  1
  Cu  Cu4  1  0.50000000  0.00000000  -0.00000002  1
  Cu  Cu5  1  0.00000000  0.00000000  0.00000000  1
  Cu  Cu6  1  0.49999995  0.49999996  -0.00000006  1
  Cu  Cu7  1  -0.00000005  0.49999996  0.99999995  1
  O  O8  1  0.78732996  0.39822097  0.67646393  1
  O  O9  1  0.28734396  0.39823997  0.67647295  1
  O  O10  1  0.71265594  0.60175995  0.32352692  1
  O  O11  1  0.21266994  0.60177895  0.32353594  1
  O  O12  1  0.78024391  0.88514793  0.67533289  1
  O  O13  1  0.28020992  0.88514693  0.67533091  1
  O  O14  1  0.71978999  0.11485299  0.32466896  1
  O  O15  1  0.21975599  0.11485199  0.32466698  1
