# generated using pymatgen
data_CrNiP
_symmetry_space_group_name_H-M   'P 1'
_cell_length_a   3.46399999
_cell_length_b   5.85401011
_cell_length_c   5.85401058
_cell_angle_alpha   120.00000000
_cell_angle_beta   90.00000000
_cell_angle_gamma   90.00000000
_symmetry_Int_Tables_number   1
_chemical_formula_structural   CrNiP
_chemical_formula_sum   'Cr3 Ni3 P3'
_cell_volume   102.80529516
_cell_formula_units_Z   3
loop_
 _symmetry_equiv_pos_site_id
 _symmetry_equiv_pos_as_xyz
  1  'x, y, z'
loop_
 _atom_site_type_symbol
 _atom_site_label
 _atom_site_symmetry_multiplicity
 _atom_site_fract_x
 _atom_site_fract_y
 _atom_site_fract_z
 _atom_site_occupancy
  Cr  Cr0  1  1.00000000  0.39960601  0.39960602  1
  Cr  Cr1  1  0.00000000  0.00000000  0.60039400  1
  Cr  Cr2  1  1.00000000  0.60039401  1.00000003  1
  Ni  Ni3  1  0.50000000  0.74237001  0.74237004  1
  Ni  Ni4  1  0.50000000  1.00000001  0.25763006  1
  Ni  Ni5  1  0.50000000  0.25763000  1.00000001  1
  P  P6  1  0.00000000  0.00000000  0.00000000  1
  P  P7  1  0.50000000  0.66666668  0.33333337  1
  P  P8  1  0.50000000  0.33333334  0.66666668  1
