# generated using pymatgen
data_CaNbO4
_symmetry_space_group_name_H-M   'P 1'
_cell_length_a   5.45058012
_cell_length_b   5.45058012
_cell_length_c   6.99186516
_cell_angle_alpha   112.94081879
_cell_angle_beta   112.94081879
_cell_angle_gamma   90.00000000
_symmetry_Int_Tables_number   1
_chemical_formula_structural   CaNbO4
_chemical_formula_sum   'Ca2 Nb2 O8'
_cell_volume   173.31162801
_cell_formula_units_Z   2
loop_
 _symmetry_equiv_pos_site_id
 _symmetry_equiv_pos_as_xyz
  1  'x, y, z'
loop_
 _atom_site_type_symbol
 _atom_site_label
 _atom_site_symmetry_multiplicity
 _atom_site_fract_x
 _atom_site_fract_y
 _atom_site_fract_z
 _atom_site_occupancy
  Ca  Ca0  1  0.49999999  0.49999999  0.99999996  1
  Ca  Ca1  1  0.74999998  0.24999999  0.49999998  1
  Nb  Nb2  1  0.24999999  0.74999998  0.49999998  1
  Nb  Nb3  1  0.00000000  0.00000000  0.00000000  1
  O  O4  1  0.39576199  0.80280598  0.32357199  1
  O  O5  1  0.92781098  0.52076699  0.32357299  1
  O  O6  1  0.06962400  0.67995098  0.83569297  1
  O  O7  1  0.76606898  0.15574200  0.83569397  1
  O  O8  1  0.84425798  0.93037498  0.16430599  1
  O  O9  1  0.32004799  0.23393099  0.16430699  1
  O  O10  1  0.19719400  0.07219000  0.67642798  1
  O  O11  1  0.47923399  0.60423799  0.67642697  1
