# generated using pymatgen
data_SrTmO3
_symmetry_space_group_name_H-M   'P 1'
_cell_length_a   4.48140335
_cell_length_b   6.19762278
_cell_length_c   6.19762278
_cell_angle_alpha   90.73155975
_cell_angle_beta   90.00000000
_cell_angle_gamma   90.00000000
_symmetry_Int_Tables_number   1
_chemical_formula_structural   SrTmO3
_chemical_formula_sum   'Sr2 Tm2 O6'
_cell_volume   172.11903841
_cell_formula_units_Z   2
loop_
 _symmetry_equiv_pos_site_id
 _symmetry_equiv_pos_as_xyz
  1  'x, y, z'
loop_
 _atom_site_type_symbol
 _atom_site_label
 _atom_site_symmetry_multiplicity
 _atom_site_fract_x
 _atom_site_fract_y
 _atom_site_fract_z
 _atom_site_occupancy
  Sr  Sr0  1  0.50000002  0.00000000  1.00000004  1
  Sr  Sr1  1  0.50000002  0.50000002  0.50000001  1
  Tm  Tm2  1  0.00000000  0.00000000  0.50000002  1
  Tm  Tm3  1  0.00000000  0.50000002  1.00000003  1
  O  O4  1  0.50000002  0.00000000  0.50000002  1
  O  O5  1  0.50000002  0.50000002  1.00000003  1
  O  O6  1  0.00000000  0.68374338  0.68374338  1
  O  O7  1  0.00000000  0.31625665  0.31625665  1
  O  O8  1  0.00000000  0.18890101  0.81109903  1
  O  O9  1  0.00000000  0.81109903  0.18890100  1
