# generated using pymatgen
data_Ce3Bi3Se4S
_symmetry_space_group_name_H-M   'P 1'
_cell_length_a   3.94571900
_cell_length_b   8.31574917
_cell_length_c   9.81915855
_cell_angle_alpha   105.14600372
_cell_angle_beta   101.59072876
_cell_angle_gamma   90.00000000
_symmetry_Int_Tables_number   1
_chemical_formula_structural   Ce3Bi3Se4S
_chemical_formula_sum   'Ce3 Bi3 Se4 S1'
_cell_volume   304.17914728
_cell_formula_units_Z   1
loop_
 _symmetry_equiv_pos_site_id
 _symmetry_equiv_pos_as_xyz
  1  'x, y, z'
loop_
 _atom_site_type_symbol
 _atom_site_label
 _atom_site_symmetry_multiplicity
 _atom_site_fract_x
 _atom_site_fract_y
 _atom_site_fract_z
 _atom_site_occupancy
  Ce  Ce0  1  0.99715302  0.20234001  0.99430699  1
  Ce  Ce1  1  0.99580904  0.79421902  0.99161800  1
  Bi  Bi2  1  0.33333337  0.88563502  0.66666667  1
  Ce  Ce3  1  0.65991601  0.10920200  0.31983200  1
  Bi  Bi4  1  0.53414901  0.02399500  0.06829801  1
  Bi  Bi5  1  0.45877104  0.97201703  0.91754200  1
  Se  Se6  1  0.83279903  0.61474002  0.66559801  1
  Se  Se7  1  0.15989802  0.37927301  0.31979700  1
  Se  Se8  1  0.49857603  0.49980501  0.99715198  1
  Se  Se9  1  0.83117001  0.16510300  0.66234099  1
  S  S10  1  0.16079604  0.82897002  0.32159201  1
