# generated using pymatgen
data_TiCo2
_symmetry_space_group_name_H-M   'P 1'
_cell_length_a   3.67061996
_cell_length_b   4.04872894
_cell_length_c   3.67061996
_cell_angle_alpha   116.95594025
_cell_angle_beta   90.00000000
_cell_angle_gamma   116.95594025
_symmetry_Int_Tables_number   1
_chemical_formula_structural   TiCo2
_chemical_formula_sum   'Ti1 Co2'
_cell_volume   41.86641883
_cell_formula_units_Z   1
loop_
 _symmetry_equiv_pos_site_id
 _symmetry_equiv_pos_as_xyz
  1  'x, y, z'
loop_
 _atom_site_type_symbol
 _atom_site_label
 _atom_site_symmetry_multiplicity
 _atom_site_fract_x
 _atom_site_fract_y
 _atom_site_fract_z
 _atom_site_occupancy
  Ti  Ti0  1  0.00000000  0.00000000  0.00000000  1
  Co  Co1  1  0.60485899  0.20971800  0.60485900  1
  Co  Co2  1  0.39514096  0.79028198  0.39514096  1
