# generated using pymatgen
data_V2P2O5
_symmetry_space_group_name_H-M   'P 1'
_cell_length_a   3.05965590
_cell_length_b   5.02108192
_cell_length_c   6.11383867
_cell_angle_alpha   89.50645447
_cell_angle_beta   75.51409149
_cell_angle_gamma   89.99967957
_symmetry_Int_Tables_number   1
_chemical_formula_structural   V2P2O5
_chemical_formula_sum   'V2 P2 O5'
_cell_volume   90.93600852
_cell_formula_units_Z   1
loop_
 _symmetry_equiv_pos_site_id
 _symmetry_equiv_pos_as_xyz
  1  'x, y, z'
loop_
 _atom_site_type_symbol
 _atom_site_label
 _atom_site_symmetry_multiplicity
 _atom_site_fract_x
 _atom_site_fract_y
 _atom_site_fract_z
 _atom_site_occupancy
  V  V0  1  0.85396210  0.60614201  0.29193897  1
  V  V1  1  0.14603805  0.39385801  0.70806097  1
  P  P2  1  0.64560614  0.94722702  0.70877594  1
  P  P3  1  0.35439402  0.05277300  0.29122400  1
  O  O4  1  0.00000006  0.50000001  -0.00000003  1
  O  O5  1  0.68743810  0.63958901  0.62520196  1
  O  O6  1  0.31256105  0.36041101  0.37479798  1
  O  O7  1  0.36684612  0.85372602  0.26625395  1
  O  O8  1  0.63315404  0.14627300  0.73374599  1
