# generated using pymatgen
data_MnV2O4
_symmetry_space_group_name_H-M   'P 1'
_cell_length_a   5.97529602
_cell_length_b   5.97529554
_cell_length_c   5.97529650
_cell_angle_alpha   59.99999237
_cell_angle_beta   59.99999619
_cell_angle_gamma   59.99999237
_symmetry_Int_Tables_number   1
_chemical_formula_structural   MnV2O4
_chemical_formula_sum   'Mn2 V4 O8'
_cell_volume   150.85621806
_cell_formula_units_Z   2
loop_
 _symmetry_equiv_pos_site_id
 _symmetry_equiv_pos_as_xyz
  1  'x, y, z'
loop_
 _atom_site_type_symbol
 _atom_site_label
 _atom_site_symmetry_multiplicity
 _atom_site_fract_x
 _atom_site_fract_y
 _atom_site_fract_z
 _atom_site_occupancy
  Mn  Mn0  1  0.37500105  0.87499900  0.87499994  1
  Mn  Mn1  1  0.62500001  0.12499800  0.12500099  1
  V  V2  1  0.49999903  0.50000000  0.50000196  1
  V  V3  1  0.00000002  0.50000000  0.49999997  1
  V  V4  1  0.00000302  0.50000000  0.99999795  1
  V  V5  1  0.00000005  0.99999900  0.50000195  1
  O  O6  1  0.23818002  0.28545900  0.73817997  1
  O  O7  1  0.21454102  0.26182000  0.26181898  1
  O  O8  1  0.76182105  0.71454000  0.26181896  1
  O  O9  1  0.23818004  0.73818100  0.73817995  1
  O  O10  1  0.78545905  0.73818000  0.73817995  1
  O  O11  1  0.76182202  0.26181800  0.71453997  1
  O  O12  1  0.76182002  0.26181900  0.26181898  1
  O  O13  1  0.23818104  0.73818000  0.28545796  1
