# generated using pymatgen
data_Ho3P5C2
_symmetry_space_group_name_H-M   'P 1'
_cell_length_a   5.19706297
_cell_length_b   5.19706297
_cell_length_c   5.66615295
_cell_angle_alpha   90.00000000
_cell_angle_beta   90.00000000
_cell_angle_gamma   90.00000000
_symmetry_Int_Tables_number   1
_chemical_formula_structural   Ho3P5C2
_chemical_formula_sum   'Ho3 P5 C2'
_cell_volume   153.03975143
_cell_formula_units_Z   1
loop_
 _symmetry_equiv_pos_site_id
 _symmetry_equiv_pos_as_xyz
  1  'x, y, z'
loop_
 _atom_site_type_symbol
 _atom_site_label
 _atom_site_symmetry_multiplicity
 _atom_site_fract_x
 _atom_site_fract_y
 _atom_site_fract_z
 _atom_site_occupancy
  Ho  Ho0  1  0.76754000  0.35318200  0.84261801  1
  Ho  Ho1  1  0.85318201  0.26754000  0.34261800  1
  Ho  Ho2  1  0.14681800  0.73246000  0.34261800  1
  P  P3  1  0.64681800  0.76754000  0.15738200  1
  P  P4  1  0.26754000  0.14681800  0.65738201  1
  P  P5  1  0.73246000  0.85318201  0.65738201  1
  P  P6  1  0.23246000  0.64681800  0.84261801  1
  P  P7  1  0.35318200  0.23246000  0.15738200  1
  C  C8  1  0.50000000  0.50000000  0.50000000  1
  C  C9  1  0.00000000  0.00000000  0.00000000  1
