# generated using pymatgen
data_KCuPO4
_symmetry_space_group_name_H-M   'P 1'
_cell_length_a   5.21371794
_cell_length_b   5.21371889
_cell_length_c   8.81856441
_cell_angle_alpha   90.00000000
_cell_angle_beta   90.00000000
_cell_angle_gamma   119.99999237
_symmetry_Int_Tables_number   1
_chemical_formula_structural   KCuPO4
_chemical_formula_sum   'K2 Cu2 P2 O8'
_cell_volume   207.59825577
_cell_formula_units_Z   2
loop_
 _symmetry_equiv_pos_site_id
 _symmetry_equiv_pos_as_xyz
  1  'x, y, z'
loop_
 _atom_site_type_symbol
 _atom_site_label
 _atom_site_symmetry_multiplicity
 _atom_site_fract_x
 _atom_site_fract_y
 _atom_site_fract_z
 _atom_site_occupancy
  K  K0  1  0.00000000  0.00000000  0.01009000  1
  K  K1  1  0.00000000  0.00000000  0.51008998  1
  Cu  Cu2  1  0.66666665  0.33333331  0.19733199  1
  Cu  Cu3  1  0.33333329  0.66666661  0.69733197  1
  P  P4  1  0.66666665  0.33333331  0.80766096  1
  P  P5  1  0.33333329  0.66666661  0.30766099  1
  O  O6  1  0.39930500  0.05967600  0.75272596  1
  O  O7  1  0.33962898  0.39930497  0.25272599  1
  O  O8  1  0.66666665  0.33333331  0.97673995  1
  O  O9  1  0.94032399  0.33962897  0.75272596  1
  O  O10  1  0.33333329  0.66666661  0.47673998  1
  O  O11  1  0.66037097  0.60069495  0.75272596  1
  O  O12  1  0.60069494  0.94032393  0.25272599  1
  O  O13  1  0.05967595  0.66037095  0.25272599  1
