# generated using pymatgen
data_Cs
_symmetry_space_group_name_H-M   'P 1'
_cell_length_a   2.45268726
_cell_length_b   2.45268726
_cell_length_c   7.86042070
_cell_angle_alpha   89.99591064
_cell_angle_beta   89.99581909
_cell_angle_gamma   75.31470490
_symmetry_Int_Tables_number   1
_chemical_formula_structural   Cs
_chemical_formula_sum   Cs4
_cell_volume   45.74104435
_cell_formula_units_Z   4
loop_
 _symmetry_equiv_pos_site_id
 _symmetry_equiv_pos_as_xyz
  1  'x, y, z'
loop_
 _atom_site_type_symbol
 _atom_site_label
 _atom_site_symmetry_multiplicity
 _atom_site_fract_x
 _atom_site_fract_y
 _atom_site_fract_z
 _atom_site_occupancy
  Cs  Cs0  1  0.99996193  0.99996299  0.49980901  1
  Cs  Cs1  1  0.50003797  0.50003699  0.75018600  1
  Cs  Cs2  1  0.99996393  0.99996499  0.99987301  1
  Cs  Cs3  1  0.50003497  0.50003399  0.25013200  1
