# generated using pymatgen
data_CsGdHgSe3
_symmetry_space_group_name_H-M   'P 1'
_cell_length_a   4.40936422
_cell_length_b   8.47573566
_cell_length_c   11.41265488
_cell_angle_alpha   90.00000000
_cell_angle_beta   90.00000000
_cell_angle_gamma   105.07699585
_symmetry_Int_Tables_number   1
_chemical_formula_structural   CsGdHgSe3
_chemical_formula_sum   'Cs2 Gd2 Hg2 Se6'
_cell_volume   411.83859121
_cell_formula_units_Z   2
loop_
 _symmetry_equiv_pos_site_id
 _symmetry_equiv_pos_as_xyz
  1  'x, y, z'
loop_
 _atom_site_type_symbol
 _atom_site_label
 _atom_site_symmetry_multiplicity
 _atom_site_fract_x
 _atom_site_fract_y
 _atom_site_fract_z
 _atom_site_occupancy
  Cs  Cs0  1  0.25635696  0.51271402  0.75000001  1
  Cs  Cs1  1  0.74364294  0.48728602  0.25000000  1
  Gd  Gd2  1  0.00000000  0.00000000  0.00000000  1
  Gd  Gd3  1  0.00000000  0.00000000  0.50000001  1
  Hg  Hg4  1  0.45606893  0.91213804  0.25000000  1
  Hg  Hg5  1  0.54393097  0.08786200  0.75000001  1
  Se  Se6  1  0.62135496  0.24271001  0.54707901  1
  Se  Se7  1  0.93873491  0.87747004  0.75000001  1
  Se  Se8  1  0.06126499  0.12253001  0.25000000  1
  Se  Se9  1  0.37864494  0.75729003  0.45292100  1
  Se  Se10  1  0.62135496  0.24271001  0.95292101  1
  Se  Se11  1  0.37864494  0.75729003  0.04707900  1
