# generated using pymatgen
data_NdTh2
_symmetry_space_group_name_H-M   'P 1'
_cell_length_a   3.54503465
_cell_length_b   3.54503465
_cell_length_c   8.79805374
_cell_angle_alpha   78.37725067
_cell_angle_beta   78.37725067
_cell_angle_gamma   59.99998856
_symmetry_Int_Tables_number   1
_chemical_formula_structural   NdTh2
_chemical_formula_sum   'Nd1 Th2'
_cell_volume   93.12719512
_cell_formula_units_Z   1
loop_
 _symmetry_equiv_pos_site_id
 _symmetry_equiv_pos_as_xyz
  1  'x, y, z'
loop_
 _atom_site_type_symbol
 _atom_site_label
 _atom_site_symmetry_multiplicity
 _atom_site_fract_x
 _atom_site_fract_y
 _atom_site_fract_z
 _atom_site_occupancy
  Nd  Nd0  1  0.00000000  0.00000000  0.00000000  1
  Th  Th1  1  0.77794100  0.77794099  0.66617697  1
  Th  Th2  1  0.22205900  0.22205900  0.33382299  1
