# generated using pymatgen
data_CeIr3
_symmetry_space_group_name_H-M   'P 1'
_cell_length_a   6.19876003
_cell_length_b   6.19876003
_cell_length_c   7.91809559
_cell_angle_alpha   66.95648956
_cell_angle_beta   66.95648956
_cell_angle_gamma   60.00000000
_symmetry_Int_Tables_number   1
_chemical_formula_structural   CeIr3
_chemical_formula_sum   'Ce3 Ir9'
_cell_volume   235.03819052
_cell_formula_units_Z   3
loop_
 _symmetry_equiv_pos_site_id
 _symmetry_equiv_pos_as_xyz
  1  'x, y, z'
loop_
 _atom_site_type_symbol
 _atom_site_label
 _atom_site_symmetry_multiplicity
 _atom_site_fract_x
 _atom_site_fract_y
 _atom_site_fract_z
 _atom_site_occupancy
  Ce  Ce0  1  0.78188805  0.78188800  0.65433594  1
  Ce  Ce1  1  0.21811201  0.21811200  0.34566399  1
  Ce  Ce2  1  0.00000000  0.00000000  0.00000000  1
  Ir  Ir3  1  0.70278104  0.70278100  0.33106794  1
  Ir  Ir4  1  0.70278102  0.26337000  0.33106796  1
  Ir  Ir5  1  0.26337003  0.70278100  0.33106796  1
  Ir  Ir6  1  0.50000003  0.50000000  -0.00000004  1
  Ir  Ir7  1  0.00000002  0.50000000  -0.00000002  1
  Ir  Ir8  1  0.50000001  0.00000000  -0.00000002  1
  Ir  Ir9  1  0.29721903  0.73663000  0.66893196  1
  Ir  Ir10  1  0.29721902  0.29721900  0.66893198  1
  Ir  Ir11  1  0.73663003  0.29721900  0.66893197  1
