# generated using pymatgen
data_Ti2N3
_symmetry_space_group_name_H-M   'P 1'
_cell_length_a   5.03695726
_cell_length_b   5.03771210
_cell_length_c   5.46424294
_cell_angle_alpha   90.01776123
_cell_angle_beta   117.42263794
_cell_angle_gamma   119.98596191
_symmetry_Int_Tables_number   1
_chemical_formula_structural   Ti2N3
_chemical_formula_sum   'Ti4 N6'
_cell_volume   101.69688165
_cell_formula_units_Z   2
loop_
 _symmetry_equiv_pos_site_id
 _symmetry_equiv_pos_as_xyz
  1  'x, y, z'
loop_
 _atom_site_type_symbol
 _atom_site_label
 _atom_site_symmetry_multiplicity
 _atom_site_fract_x
 _atom_site_fract_y
 _atom_site_fract_z
 _atom_site_occupancy
  Ti  Ti0  1  0.57947701  0.28975400  0.86921005  1
  Ti  Ti1  1  0.00547200  0.00258300  0.00830100  1
  Ti  Ti2  1  0.99407801  0.49694900  0.49110106  1
  Ti  Ti3  1  0.60204199  0.80092100  0.40303402  1
  N  N4  1  0.11427299  0.39671100  0.21843700  1
  N  N5  1  0.82158400  0.71744600  0.21831203  1
  N  N6  1  0.50091901  0.10417400  0.21840903  1
  N  N7  1  0.46682299  0.85248900  0.69162202  1
  N  N8  1  0.07716600  0.22461800  0.69166002  1
  N  N9  1  0.83896400  0.61435400  0.69151305  1
