# generated using pymatgen
data_KAlI3
_symmetry_space_group_name_H-M   'P 1'
_cell_length_a   4.21979713
_cell_length_b   9.64021397
_cell_length_c   15.78138733
_cell_angle_alpha   90.00000000
_cell_angle_beta   90.00000000
_cell_angle_gamma   90.00000000
_symmetry_Int_Tables_number   1
_chemical_formula_structural   KAlI3
_chemical_formula_sum   'K4 Al4 I12'
_cell_volume   641.98284812
_cell_formula_units_Z   4
loop_
 _symmetry_equiv_pos_site_id
 _symmetry_equiv_pos_as_xyz
  1  'x, y, z'
loop_
 _atom_site_type_symbol
 _atom_site_label
 _atom_site_symmetry_multiplicity
 _atom_site_fract_x
 _atom_site_fract_y
 _atom_site_fract_z
 _atom_site_occupancy
  K  K0  1  0.24999999  0.43848400  0.17731600  1
  K  K1  1  0.74999998  0.56151600  0.82268398  1
  K  K2  1  0.24999999  0.93848400  0.32268399  1
  K  K3  1  0.74999998  0.06151600  0.67731599  1
  Al  Al4  1  0.24999999  0.16767600  0.94467798  1
  Al  Al5  1  0.74999998  0.83232400  0.05532200  1
  Al  Al6  1  0.24999999  0.66767600  0.55532199  1
  Al  Al7  1  0.74999998  0.33232400  0.44467799  1
  I  I8  1  0.24999999  0.02089900  0.10236600  1
  I  I9  1  0.74999998  0.97910100  0.89763398  1
  I  I10  1  0.24999999  0.52089900  0.39763399  1
  I  I11  1  0.74999998  0.47910100  0.60236599  1
  I  I12  1  0.24999999  0.16606400  0.50623899  1
  I  I13  1  0.74999998  0.83393600  0.49376099  1
  I  I14  1  0.24999999  0.66606400  0.99376098  1
  I  I15  1  0.74999998  0.33393600  0.00623900  1
  I  I16  1  0.74999998  0.21251300  0.28862399  1
  I  I17  1  0.24999999  0.78748700  0.71137599  1
  I  I18  1  0.74999998  0.71251300  0.21137600  1
  I  I19  1  0.24999999  0.28748700  0.78862398  1
