# generated using pymatgen
data_SrLa(FeO3)2
_symmetry_space_group_name_H-M   'P 1'
_cell_length_a   5.48584700
_cell_length_b   5.59094524
_cell_length_c   7.77554655
_cell_angle_alpha   89.99004364
_cell_angle_beta   88.28146362
_cell_angle_gamma   89.06007385
_symmetry_Int_Tables_number   1
_chemical_formula_structural   SrLa(FeO3)2
_chemical_formula_sum   'Sr2 La2 Fe4 O12'
_cell_volume   238.34497896
_cell_formula_units_Z   2
loop_
 _symmetry_equiv_pos_site_id
 _symmetry_equiv_pos_as_xyz
  1  'x, y, z'
loop_
 _atom_site_type_symbol
 _atom_site_label
 _atom_site_symmetry_multiplicity
 _atom_site_fract_x
 _atom_site_fract_y
 _atom_site_fract_z
 _atom_site_occupancy
  Sr  Sr0  1  0.24743002  0.25213801  0.50171101  1
  Sr  Sr1  1  0.75101705  0.74651803  0.99943902  1
  La  La2  1  0.74898405  0.75347503  0.50055903  1
  La  La3  1  0.25256902  0.24786401  0.99829300  1
  Fe  Fe4  1  0.25000004  0.75000003  0.75000002  1
  Fe  Fe5  1  0.75000003  0.25000201  0.25000002  1
  Fe  Fe6  1  0.25000004  0.75000203  0.25000002  1
  Fe  Fe7  1  0.75000003  0.25000001  0.75000001  1
  O  O8  1  0.96401006  0.97954204  0.71411904  1
  O  O9  1  0.47425503  0.45852302  0.21999002  1
  O  O10  1  0.02574500  0.04147900  0.28000800  1
  O  O11  1  0.53599303  0.52045402  0.78588102  1
  O  O12  1  0.75965003  0.32275101  0.50756802  1
  O  O13  1  0.25167304  0.81396703  0.00414502  1
  O  O14  1  0.24832804  0.68603302  0.49584902  1
  O  O15  1  0.74035302  0.17725401  0.99243201  1
  O  O16  1  0.53194305  0.96729103  0.28630003  1
  O  O17  1  0.02328702  0.45958602  0.78469901  1
  O  O18  1  0.47670901  0.04041600  0.71530100  1
  O  O19  1  0.96805404  0.53271002  0.21370303  1
