# generated using pymatgen
data_Li2Fe3NiO8
_symmetry_space_group_name_H-M   'P 1'
_cell_length_a   5.83849716
_cell_length_b   5.83837938
_cell_length_c   5.95338488
_cell_angle_alpha   60.63588715
_cell_angle_beta   60.63674164
_cell_angle_gamma   59.99990845
_symmetry_Int_Tables_number   1
_chemical_formula_structural   Li2Fe3NiO8
_chemical_formula_sum   'Li2 Fe3 Ni1 O8'
_cell_volume   144.86142633
_cell_formula_units_Z   1
loop_
 _symmetry_equiv_pos_site_id
 _symmetry_equiv_pos_as_xyz
  1  'x, y, z'
loop_
 _atom_site_type_symbol
 _atom_site_label
 _atom_site_symmetry_multiplicity
 _atom_site_fract_x
 _atom_site_fract_y
 _atom_site_fract_z
 _atom_site_occupancy
  Li  Li0  1  0.11577401  0.11577000  0.65268300  1
  Li  Li1  1  0.88422506  0.88422797  0.34732193  1
  Fe  Fe2  1  0.49998504  0.50000398  0.50000397  1
  Fe  Fe3  1  0.49999104  0.50001798  0.99998797  1
  Fe  Fe4  1  0.00002602  0.49999398  0.99998099  1
  Ni  Ni5  1  0.49998402  0.00000300  0.00001798  1
  O  O6  1  0.26329002  0.26328399  0.21014298  1
  O  O7  1  0.25376304  0.70852498  0.78394297  1
  O  O8  1  0.70853803  0.25376399  0.78393397  1
  O  O9  1  0.25376602  0.25376399  0.78393999  1
  O  O10  1  0.74623405  0.74622997  0.21606594  1
  O  O11  1  0.29147804  0.74623197  0.21605996  1
  O  O12  1  0.74623404  0.29146299  0.21606596  1
  O  O13  1  0.73671305  0.73672097  0.78985095  1
