# generated using pymatgen
data_ZrPt2
_symmetry_space_group_name_H-M   'P 1'
_cell_length_a   7.06671715
_cell_length_b   7.17823982
_cell_length_c   7.17824078
_cell_angle_alpha   60.00000381
_cell_angle_beta   90.00000000
_cell_angle_gamma   90.00000000
_symmetry_Int_Tables_number   1
_chemical_formula_structural   ZrPt2
_chemical_formula_sum   'Zr6 Pt12'
_cell_volume   315.34383318
_cell_formula_units_Z   6
loop_
 _symmetry_equiv_pos_site_id
 _symmetry_equiv_pos_as_xyz
  1  'x, y, z'
loop_
 _atom_site_type_symbol
 _atom_site_label
 _atom_site_symmetry_multiplicity
 _atom_site_fract_x
 _atom_site_fract_y
 _atom_site_fract_z
 _atom_site_occupancy
  Zr  Zr0  1  0.74999998  0.61405801  0.97634800  1
  Zr  Zr1  1  0.24999999  0.02365200  0.38594200  1
  Zr  Zr2  1  0.24999999  0.59040601  0.02365201  1
  Zr  Zr3  1  0.24999999  0.38594201  0.59040600  1
  Zr  Zr4  1  0.74999998  0.40959401  0.61405800  1
  Zr  Zr5  1  0.74999998  0.97634802  0.40959401  1
  Pt  Pt6  1  0.00000000  0.00000000  0.73206899  1
  Pt  Pt7  1  0.49999999  0.00000000  0.73206899  1
  Pt  Pt8  1  0.49999999  0.73206901  0.26793101  1
  Pt  Pt9  1  0.00000000  0.73206901  0.26793101  1
  Pt  Pt10  1  0.99999998  0.26793101  0.00000000  1
  Pt  Pt11  1  0.49999999  0.26793101  0.00000000  1
  Pt  Pt12  1  0.46741399  0.66666668  0.66666667  1
  Pt  Pt13  1  0.24999999  0.00000000  0.00000000  1
  Pt  Pt14  1  0.03258600  0.66666668  0.66666667  1
  Pt  Pt15  1  0.96741398  0.33333334  0.33333333  1
  Pt  Pt16  1  0.53258599  0.33333334  0.33333333  1
  Pt  Pt17  1  0.74999998  0.00000000  0.00000000  1
