# generated using pymatgen
data_Na7Ag5
_symmetry_space_group_name_H-M   'P 1'
_cell_length_a   6.26462984
_cell_length_b   6.26462936
_cell_length_c   10.00743675
_cell_angle_alpha   90.00000000
_cell_angle_beta   90.00000000
_cell_angle_gamma   120.00000000
_symmetry_Int_Tables_number   1
_chemical_formula_structural   Na7Ag5
_chemical_formula_sum   'Na7 Ag5'
_cell_volume   340.12948569
_cell_formula_units_Z   1
loop_
 _symmetry_equiv_pos_site_id
 _symmetry_equiv_pos_as_xyz
  1  'x, y, z'
loop_
 _atom_site_type_symbol
 _atom_site_label
 _atom_site_symmetry_multiplicity
 _atom_site_fract_x
 _atom_site_fract_y
 _atom_site_fract_z
 _atom_site_occupancy
  Na  Na0  1  0.66666666  0.33333332  0.56197001  1
  Na  Na1  1  0.33333330  0.66666665  0.06197000  1
  Na  Na2  1  0.33333330  0.66666665  0.43803001  1
  Na  Na3  1  0.66666666  0.33333332  0.93803002  1
  Na  Na4  1  0.83111201  0.16888799  0.25000001  1
  Na  Na5  1  0.16888798  0.33777599  0.75000002  1
  Na  Na6  1  0.66222396  0.83111197  0.75000002  1
  Ag  Ag7  1  0.33777600  0.16888799  0.25000001  1
  Ag  Ag8  1  0.00000000  0.00000000  0.00000000  1
  Ag  Ag9  1  0.00000000  0.00000000  0.50000001  1
  Ag  Ag10  1  0.16888795  0.83111197  0.75000002  1
  Ag  Ag11  1  0.83111198  0.66222398  0.25000001  1
