# generated using pymatgen
data_Te
_symmetry_space_group_name_H-M   'P 1'
_cell_length_a   5.07675791
_cell_length_b   6.13435173
_cell_length_c   6.13435173
_cell_angle_alpha   68.33704376
_cell_angle_beta   65.55638885
_cell_angle_gamma   65.55638885
_symmetry_Int_Tables_number   1
_chemical_formula_structural   Te
_chemical_formula_sum   Te4
_cell_volume   153.74738992
_cell_formula_units_Z   4
loop_
 _symmetry_equiv_pos_site_id
 _symmetry_equiv_pos_as_xyz
  1  'x, y, z'
loop_
 _atom_site_type_symbol
 _atom_site_label
 _atom_site_symmetry_multiplicity
 _atom_site_fract_x
 _atom_site_fract_y
 _atom_site_fract_z
 _atom_site_occupancy
  Te  Te0  1  0.27741899  0.22258100  0.22258101  1
  Te  Te1  1  0.72258096  0.77741899  0.77741903  1
  Te  Te2  1  1.00000003  0.15474200  0.84525796  1
  Te  Te3  1  0.99999997  0.84525799  0.15474203  1
