# generated using pymatgen
data_Tb4Fe2P9C5
_symmetry_space_group_name_H-M   'P 1'
_cell_length_a   3.06491709
_cell_length_b   9.07777882
_cell_length_c   9.11932087
_cell_angle_alpha   89.99890900
_cell_angle_beta   90.00000000
_cell_angle_gamma   90.00000000
_symmetry_Int_Tables_number   1
_chemical_formula_structural   Tb4Fe2P9C5
_chemical_formula_sum   'Tb4 Fe2 P9 C5'
_cell_volume   253.72357618
_cell_formula_units_Z   1
loop_
 _symmetry_equiv_pos_site_id
 _symmetry_equiv_pos_as_xyz
  1  'x, y, z'
loop_
 _atom_site_type_symbol
 _atom_site_label
 _atom_site_symmetry_multiplicity
 _atom_site_fract_x
 _atom_site_fract_y
 _atom_site_fract_z
 _atom_site_occupancy
  Tb  Tb0  1  0.00000000  0.67208201  0.18125403  1
  Tb  Tb1  1  0.00000000  0.32791801  0.81874602  1
  Tb  Tb2  1  0.00000000  0.18264200  0.32217601  1
  Tb  Tb3  1  0.00000000  0.81735802  0.67782404  1
  Fe  Fe4  1  0.00000000  0.50000001  0.50000003  1
  Fe  Fe5  1  0.00000000  0.00000000  0.00000000  1
  P  P6  1  0.00000000  0.12527000  0.62620001  1
  C  C7  1  0.00000000  0.87473002  0.37380004  1
  P  P8  1  0.00000000  0.62343401  0.87335104  1
  P  P9  1  0.00000000  0.37656601  0.12664902  1
  P  P10  1  0.49999999  0.57321301  0.71164403  1
  P  P11  1  0.49999999  0.42678701  0.28835602  1
  P  P12  1  0.49999999  0.07301600  0.78594101  1
  P  P13  1  0.49999999  0.92698402  0.21405904  1
  P  P14  1  0.49999999  0.28452801  0.57334602  1
  P  P15  1  0.49999999  0.71547201  0.42665403  1
  C  C16  1  0.49999999  0.21461500  0.07265001  1
  C  C17  1  0.49999999  0.78538502  0.92735004  1
  C  C18  1  0.49999999  0.50000001  0.00000002  1
  C  C19  1  0.49999999  0.00000000  0.50000001  1
