# generated using pymatgen
data_TbFeGe
_symmetry_space_group_name_H-M   'P 1'
_cell_length_a   4.06736422
_cell_length_b   4.12661219
_cell_length_c   4.12661123
_cell_angle_alpha   120.00000763
_cell_angle_beta   90.00000000
_cell_angle_gamma   90.00000000
_symmetry_Int_Tables_number   1
_chemical_formula_structural   TbFeGe
_chemical_formula_sum   'Tb1 Fe1 Ge1'
_cell_volume   59.98337171
_cell_formula_units_Z   1
loop_
 _symmetry_equiv_pos_site_id
 _symmetry_equiv_pos_as_xyz
  1  'x, y, z'
loop_
 _atom_site_type_symbol
 _atom_site_label
 _atom_site_symmetry_multiplicity
 _atom_site_fract_x
 _atom_site_fract_y
 _atom_site_fract_z
 _atom_site_occupancy
  Tb  Tb0  1  0.99999995  0.33333332  0.66666669  1
  Fe  Fe1  1  0.49999997  0.00000000  -0.00000000  1
  Ge  Ge2  1  0.49999997  0.66666665  0.33333336  1
