# generated using pymatgen
data_YbInPt
_symmetry_space_group_name_H-M   'P 1'
_cell_length_a   4.44794703
_cell_length_b   7.21283817
_cell_length_c   7.87911606
_cell_angle_alpha   90.00000000
_cell_angle_beta   90.00000000
_cell_angle_gamma   90.00000000
_symmetry_Int_Tables_number   1
_chemical_formula_structural   YbInPt
_chemical_formula_sum   'Yb4 In4 Pt4'
_cell_volume   252.78033921
_cell_formula_units_Z   4
loop_
 _symmetry_equiv_pos_site_id
 _symmetry_equiv_pos_as_xyz
  1  'x, y, z'
loop_
 _atom_site_type_symbol
 _atom_site_label
 _atom_site_symmetry_multiplicity
 _atom_site_fract_x
 _atom_site_fract_y
 _atom_site_fract_z
 _atom_site_occupancy
  Yb  Yb0  1  0.50000000  0.46843699  0.56877100  1
  Yb  Yb1  1  0.50000000  0.96843698  0.43122900  1
  Yb  Yb2  1  0.00000000  0.52830499  0.92869199  1
  Yb  Yb3  1  0.00000000  0.02830500  0.07130800  1
  In  In4  1  0.50000000  0.35216699  0.18016600  1
  In  In5  1  0.50000000  0.85216698  0.81983399  1
  In  In6  1  0.00000000  0.64931298  0.31521400  1
  In  In7  1  0.00000000  0.14931300  0.68478599  1
  Pt  Pt8  1  -0.00000000  0.78307898  0.63853800  1
  Pt  Pt9  1  0.00000000  0.28307899  0.36146200  1
  Pt  Pt10  1  0.50000000  0.21869999  0.86152699  1
  Pt  Pt11  1  0.50000000  0.71869998  0.13847300  1
