# generated using pymatgen
data_Cu2O
_symmetry_space_group_name_H-M   'P 1'
_cell_length_a   2.82350397
_cell_length_b   4.28159380
_cell_length_c   4.71354294
_cell_angle_alpha   90.00000000
_cell_angle_beta   90.00000000
_cell_angle_gamma   90.00000000
_symmetry_Int_Tables_number   1
_chemical_formula_structural   Cu2O
_chemical_formula_sum   'Cu4 O2'
_cell_volume   56.98247825
_cell_formula_units_Z   2
loop_
 _symmetry_equiv_pos_site_id
 _symmetry_equiv_pos_as_xyz
  1  'x, y, z'
loop_
 _atom_site_type_symbol
 _atom_site_label
 _atom_site_symmetry_multiplicity
 _atom_site_fract_x
 _atom_site_fract_y
 _atom_site_fract_z
 _atom_site_occupancy
  Cu  Cu0  1  0.50000001  0.24952501  0.15643000  1
  Cu  Cu1  1  0.50000001  0.75047504  0.84357001  1
  Cu  Cu2  1  0.00000000  0.25047501  0.65643001  1
  Cu  Cu3  1  0.00000000  0.74952504  0.34357000  1
  O  O4  1  0.50000001  0.50000002  0.50000001  1
  O  O5  1  0.00000000  0.00000000  0.00000000  1
