# generated using pymatgen
data_Te4IBr11
_symmetry_space_group_name_H-M   'P 1'
_cell_length_a   7.42147923
_cell_length_b   7.53138018
_cell_length_c   12.72940636
_cell_angle_alpha   90.00000000
_cell_angle_beta   90.00000000
_cell_angle_gamma   108.63703156
_symmetry_Int_Tables_number   1
_chemical_formula_structural   Te4IBr11
_chemical_formula_sum   'Te4 I1 Br11'
_cell_volume   674.18775700
_cell_formula_units_Z   1
loop_
 _symmetry_equiv_pos_site_id
 _symmetry_equiv_pos_as_xyz
  1  'x, y, z'
loop_
 _atom_site_type_symbol
 _atom_site_label
 _atom_site_symmetry_multiplicity
 _atom_site_fract_x
 _atom_site_fract_y
 _atom_site_fract_z
 _atom_site_occupancy
  Te  Te0  1  0.51952198  0.00888500  0.66721998  1
  Te  Te1  1  0.98047793  0.99111498  0.16722000  1
  Te  Te2  1  0.01952200  0.00888500  0.83277998  1
  Te  Te3  1  0.48047795  0.99111498  0.33277999  1
  Br  Br4  1  0.78308397  0.24909300  0.81560298  1
  Br  Br5  1  0.71354697  0.23607000  0.49212299  1
  Br  Br6  1  0.77098395  0.78221599  0.67257198  1
  Br  Br7  1  0.72901597  0.21778400  0.17257200  1
  Br  Br8  1  0.78645295  0.76392999  0.99212297  1
  Br  Br9  1  0.28308398  0.24909300  0.68439698  1
  Br  Br10  1  0.71691595  0.75090699  0.31560299  1
  Br  Br11  1  0.21354698  0.23607000  0.00787700  1
  I  I12  1  0.27098396  0.78221599  0.82742798  1
  Br  Br13  1  0.22901599  0.21778400  0.32742799  1
  Br  Br14  1  0.28645296  0.76392999  0.50787699  1
  Br  Br15  1  0.21691597  0.75090699  0.18439699  1
