# generated using pymatgen
data_Ce2InCu2
_symmetry_space_group_name_H-M   'P 1'
_cell_length_a   3.61785698
_cell_length_b   7.68233490
_cell_length_c   7.68233490
_cell_angle_alpha   90.00000000
_cell_angle_beta   90.00000000
_cell_angle_gamma   90.00000000
_symmetry_Int_Tables_number   1
_chemical_formula_structural   Ce2InCu2
_chemical_formula_sum   'Ce4 In2 Cu4'
_cell_volume   213.51965827
_cell_formula_units_Z   2
loop_
 _symmetry_equiv_pos_site_id
 _symmetry_equiv_pos_as_xyz
  1  'x, y, z'
loop_
 _atom_site_type_symbol
 _atom_site_label
 _atom_site_symmetry_multiplicity
 _atom_site_fract_x
 _atom_site_fract_y
 _atom_site_fract_z
 _atom_site_occupancy
  Ce  Ce0  1  0.50000000  0.67682501  0.17682500  1
  Ce  Ce1  1  0.50000000  0.32317500  0.82317501  1
  Ce  Ce2  1  0.50000000  0.17682500  0.32317500  1
  Ce  Ce3  1  0.50000000  0.82317501  0.67682501  1
  In  In4  1  0.00000000  0.00000000  0.00000000  1
  In  In5  1  0.00000000  0.50000001  0.50000001  1
  Cu  Cu6  1  0.00000000  0.11918000  0.61918001  1
  Cu  Cu7  1  -0.00000000  0.88082001  0.38082000  1
  Cu  Cu8  1  0.00000000  0.61918001  0.88082001  1
  Cu  Cu9  1  0.00000000  0.38082000  0.11918000  1
