# generated using pymatgen
data_Sr4Cu2SiNiO10
_symmetry_space_group_name_H-M   'P 1'
_cell_length_a   5.35092640
_cell_length_b   5.61678934
_cell_length_c   8.37307549
_cell_angle_alpha   109.59925842
_cell_angle_beta   108.63460541
_cell_angle_gamma   90.00000000
_symmetry_Int_Tables_number   1
_chemical_formula_structural   Sr4Cu2SiNiO10
_chemical_formula_sum   'Sr4 Cu2 Si1 Ni1 O10'
_cell_volume   223.01907939
_cell_formula_units_Z   1
loop_
 _symmetry_equiv_pos_site_id
 _symmetry_equiv_pos_as_xyz
  1  'x, y, z'
loop_
 _atom_site_type_symbol
 _atom_site_label
 _atom_site_symmetry_multiplicity
 _atom_site_fract_x
 _atom_site_fract_y
 _atom_site_fract_z
 _atom_site_occupancy
  Sr  Sr0  1  0.87788198  0.41836101  0.77666798  1
  Sr  Sr1  1  0.60125899  0.14168700  0.22333299  1
  Sr  Sr2  1  0.10121401  0.58163901  0.22333199  1
  Sr  Sr3  1  0.37792601  0.85831302  0.77666698  1
  Cu  Cu4  1  0.50100100  0.50000001  0.99999998  1
  Cu  Cu5  1  0.00101800  0.00000000  -0.00000000  1
  Si  Si6  1  0.71280700  0.82322402  0.49998898  1
  Ni  Ni7  1  0.21281800  0.17677600  0.50001099  1
  O  O8  1  0.38036601  0.89539402  0.49999498  1
  O  O9  1  0.88036998  0.10460600  0.50000499  1
  O  O10  1  0.38554200  0.42459401  0.70283398  1
  O  O11  1  0.68270699  0.57540501  0.29716498  1
  O  O12  1  0.88552199  0.77823502  0.70280998  1
  O  O13  1  0.18271300  0.22176500  0.29718999  1
  O  O14  1  0.76372999  0.76836202  0.02912499  1
  O  O15  1  0.73460398  0.23163800  0.97087498  1
  O  O16  1  0.23457400  0.23921801  0.97082598  1
  O  O17  1  0.26374701  0.76078202  0.02917399  1
