# generated using pymatgen
data_Pb
_symmetry_space_group_name_H-M   'P 1'
_cell_length_a   3.43236661
_cell_length_b   3.43236661
_cell_length_c   15.17086506
_cell_angle_alpha   83.50458527
_cell_angle_beta   83.50458527
_cell_angle_gamma   59.99998474
_symmetry_Int_Tables_number   1
_chemical_formula_structural   Pb
_chemical_formula_sum   Pb5
_cell_volume   153.45857868
_cell_formula_units_Z   5
loop_
 _symmetry_equiv_pos_site_id
 _symmetry_equiv_pos_as_xyz
  1  'x, y, z'
loop_
 _atom_site_type_symbol
 _atom_site_label
 _atom_site_symmetry_multiplicity
 _atom_site_fract_x
 _atom_site_fract_y
 _atom_site_fract_z
 _atom_site_occupancy
  Pb  Pb0  1  0.60312600  0.60312603  0.19062200  1
  Pb  Pb1  1  0.20065700  0.20065701  0.39802900  1
  Pb  Pb2  1  0.79934301  0.79934304  0.60197101  1
  Pb  Pb3  1  0.39687400  0.39687402  0.80937801  1
  Pb  Pb4  1  0.00000000  0.00000000  0.00000000  1
