# generated using pymatgen
data_YMnS2
_symmetry_space_group_name_H-M   'P 1'
_cell_length_a   3.57635403
_cell_length_b   3.57635403
_cell_length_c   7.00062704
_cell_angle_alpha   75.20088196
_cell_angle_beta   75.20088196
_cell_angle_gamma   60.00000000
_symmetry_Int_Tables_number   1
_chemical_formula_structural   YMnS2
_chemical_formula_sum   'Y1 Mn1 S2'
_cell_volume   74.09443244
_cell_formula_units_Z   1
loop_
 _symmetry_equiv_pos_site_id
 _symmetry_equiv_pos_as_xyz
  1  'x, y, z'
loop_
 _atom_site_type_symbol
 _atom_site_label
 _atom_site_symmetry_multiplicity
 _atom_site_fract_x
 _atom_site_fract_y
 _atom_site_fract_z
 _atom_site_occupancy
  Y  Y0  1  0.50000004  0.50000000  0.49999999  1
  Mn  Mn1  1  0.00000000  0.00000000  0.00000000  1
  S  S2  1  0.73698106  0.73698100  0.78905699  1
  S  S3  1  0.26301902  0.26301900  0.21094300  1
