# generated using pymatgen
data_Y7Ni3
_symmetry_space_group_name_H-M   'P 1'
_cell_length_a   6.31341410
_cell_length_b   9.82190800
_cell_length_c   9.82190800
_cell_angle_alpha   120.00000000
_cell_angle_beta   90.00000000
_cell_angle_gamma   90.00000000
_symmetry_Int_Tables_number   1
_chemical_formula_structural   Y7Ni3
_chemical_formula_sum   'Y14 Ni6'
_cell_volume   527.45647833
_cell_formula_units_Z   2
loop_
 _symmetry_equiv_pos_site_id
 _symmetry_equiv_pos_as_xyz
  1  'x, y, z'
loop_
 _atom_site_type_symbol
 _atom_site_label
 _atom_site_symmetry_multiplicity
 _atom_site_fract_x
 _atom_site_fract_y
 _atom_site_fract_z
 _atom_site_occupancy
  Y  Y0  1  0.98326198  0.66666667  0.33333334  1
  Y  Y1  1  0.48326199  0.33333334  0.66666668  1
  Y  Y2  1  0.94075699  0.46050800  0.92101602  1
  Y  Y3  1  0.44075699  0.53949200  0.07898401  1
  Y  Y4  1  0.94075699  0.46050800  0.53949201  1
  Y  Y5  1  0.94075699  0.07898400  0.53949201  1
  Y  Y6  1  0.44075699  0.92101600  0.46050802  1
  Y  Y7  1  0.44075699  0.53949200  0.46050801  1
  Y  Y8  1  0.75373299  0.87420700  0.74841402  1
  Y  Y9  1  0.25373300  0.12579300  0.25158600  1
  Y  Y10  1  0.75373299  0.87420700  0.12579201  1
  Y  Y11  1  0.75373299  0.25158500  0.12579200  1
  Y  Y12  1  0.25373300  0.74841500  0.87420802  1
  Y  Y13  1  0.25373300  0.12579300  0.87420801  1
  Ni  Ni14  1  0.70126399  0.18724900  0.37449801  1
  Ni  Ni15  1  0.20126400  0.81275100  0.62550202  1
  Ni  Ni16  1  0.70126399  0.18724900  0.81275101  1
  Ni  Ni17  1  0.70126399  0.62550200  0.81275102  1
  Ni  Ni18  1  0.20126400  0.37449800  0.18724901  1
  Ni  Ni19  1  0.20126400  0.81275100  0.18724901  1
