# generated using pymatgen
data_Mn3CoSb3
_symmetry_space_group_name_H-M   'P 1'
_cell_length_a   3.99607491
_cell_length_b   6.83956051
_cell_length_c   7.30925131
_cell_angle_alpha   63.13683319
_cell_angle_beta   74.21997833
_cell_angle_gamma   89.88417816
_symmetry_Int_Tables_number   1
_chemical_formula_structural   Mn3CoSb3
_chemical_formula_sum   'Mn3 Co1 Sb3'
_cell_volume   169.78980051
_cell_formula_units_Z   1
loop_
 _symmetry_equiv_pos_site_id
 _symmetry_equiv_pos_as_xyz
  1  'x, y, z'
loop_
 _atom_site_type_symbol
 _atom_site_label
 _atom_site_symmetry_multiplicity
 _atom_site_fract_x
 _atom_site_fract_y
 _atom_site_fract_z
 _atom_site_occupancy
  Mn  Mn0  1  0.25087204  0.21804301  0.49950598  1
  Mn  Mn1  1  0.49398408  0.49424002  0.01250397  1
  Mn  Mn2  1  0.75377113  0.78455003  0.49036494  1
  Co  Co3  1  0.13137106  0.47197902  0.73794197  1
  Sb  Sb4  1  0.38709002  0.04278300  0.22416399  1
  Sb  Sb5  1  0.61516314  0.95123304  0.77099293  1
  Sb  Sb6  1  0.86774910  0.53717102  0.26452696  1
