# generated using pymatgen
data_K
_symmetry_space_group_name_H-M   'P 1'
_cell_length_a   8.52752781
_cell_length_b   10.65255833
_cell_length_c   10.65255833
_cell_angle_alpha   60.00000000
_cell_angle_beta   90.00000000
_cell_angle_gamma   90.00000000
_symmetry_Int_Tables_number   1
_chemical_formula_structural   K
_chemical_formula_sum   K8
_cell_volume   838.03395919
_cell_formula_units_Z   8
loop_
 _symmetry_equiv_pos_site_id
 _symmetry_equiv_pos_as_xyz
  1  'x, y, z'
loop_
 _atom_site_type_symbol
 _atom_site_label
 _atom_site_symmetry_multiplicity
 _atom_site_fract_x
 _atom_site_fract_y
 _atom_site_fract_z
 _atom_site_occupancy
  K  K0  1  0.25000001  0.83092298  0.33815399  1
  K  K1  1  0.25000001  0.83092298  0.83092298  1
  K  K2  1  0.25000001  0.33815399  0.83092298  1
  K  K3  1  0.75000002  0.16907700  0.66184599  1
  K  K4  1  0.75000002  0.16907700  0.16907700  1
  K  K5  1  0.75000002  0.66184598  0.16907699  1
  K  K6  1  0.75000002  0.66666665  0.66666665  1
  K  K7  1  0.25000001  0.33333332  0.33333332  1
