# generated using pymatgen
data_TiFeSi
_symmetry_space_group_name_H-M   'P 1'
_cell_length_a   3.63324809
_cell_length_b   3.63324809
_cell_length_c   6.15289688
_cell_angle_alpha   90.00000000
_cell_angle_beta   90.00000000
_cell_angle_gamma   90.00000000
_symmetry_Int_Tables_number   1
_chemical_formula_structural   TiFeSi
_chemical_formula_sum   'Ti2 Fe2 Si2'
_cell_volume   81.22126414
_cell_formula_units_Z   2
loop_
 _symmetry_equiv_pos_site_id
 _symmetry_equiv_pos_as_xyz
  1  'x, y, z'
loop_
 _atom_site_type_symbol
 _atom_site_label
 _atom_site_symmetry_multiplicity
 _atom_site_fract_x
 _atom_site_fract_y
 _atom_site_fract_z
 _atom_site_occupancy
  Ti  Ti0  1  0.00000000  0.49999999  0.35091701  1
  Ti  Ti1  1  0.49999999  0.00000000  0.64908301  1
  Fe  Fe2  1  0.00000000  0.00000000  0.00000000  1
  Fe  Fe3  1  0.49999999  0.49999999  0.00000000  1
  Si  Si4  1  0.00000000  0.49999999  0.77151301  1
  Si  Si5  1  0.49999999  0.00000000  0.22848700  1
