# generated using pymatgen
data_CsTlCuTe3
_symmetry_space_group_name_H-M   'P 1'
_cell_length_a   4.46575594
_cell_length_b   8.41172028
_cell_length_c   11.44475555
_cell_angle_alpha   90.00000000
_cell_angle_beta   90.00000000
_cell_angle_gamma   105.39360046
_symmetry_Int_Tables_number   1
_chemical_formula_structural   CsTlCuTe3
_chemical_formula_sum   'Cs2 Tl2 Cu2 Te6'
_cell_volume   414.49538432
_cell_formula_units_Z   2
loop_
 _symmetry_equiv_pos_site_id
 _symmetry_equiv_pos_as_xyz
  1  'x, y, z'
loop_
 _atom_site_type_symbol
 _atom_site_label
 _atom_site_symmetry_multiplicity
 _atom_site_fract_x
 _atom_site_fract_y
 _atom_site_fract_z
 _atom_site_occupancy
  Cs  Cs0  1  0.25653499  0.51306998  0.75000003  1
  Cs  Cs1  1  0.74346500  0.48692998  0.25000001  1
  Tl  Tl2  1  0.00000000  0.00000000  0.00000000  1
  Tl  Tl3  1  0.00000000  0.00000000  0.50000002  1
  Cu  Cu4  1  0.54271201  0.08542400  0.75000003  1
  Cu  Cu5  1  0.45728798  0.91457597  0.25000001  1
  Te  Te6  1  0.06115400  0.12230800  0.25000001  1
  Te  Te7  1  0.62112900  0.24225799  0.54749002  1
  Te  Te8  1  0.62112900  0.24225799  0.95251004  1
  Te  Te9  1  0.93884599  0.87769197  0.75000003  1
  Te  Te10  1  0.37887099  0.75774197  0.04749000  1
  Te  Te11  1  0.37887099  0.75774197  0.45251002  1
