# generated using pymatgen
data_CsRb2LaTiClO7
_symmetry_space_group_name_H-M   'P 1'
_cell_length_a   3.92904496
_cell_length_b   3.92904496
_cell_length_c   15.18542671
_cell_angle_alpha   90.00000000
_cell_angle_beta   90.00000000
_cell_angle_gamma   90.00000000
_symmetry_Int_Tables_number   1
_chemical_formula_structural   CsRb2LaTiClO7
_chemical_formula_sum   'Cs1 Rb2 La1 Ti1 Cl1 O7'
_cell_volume   234.42341996
_cell_formula_units_Z   1
loop_
 _symmetry_equiv_pos_site_id
 _symmetry_equiv_pos_as_xyz
  1  'x, y, z'
loop_
 _atom_site_type_symbol
 _atom_site_label
 _atom_site_symmetry_multiplicity
 _atom_site_fract_x
 _atom_site_fract_y
 _atom_site_fract_z
 _atom_site_occupancy
  Cs  Cs0  1  0.50000000  0.50000000  0.36644001  1
  Rb  Rb1  1  0.50000000  0.50000000  0.63356001  1
  Rb  Rb2  1  0.50000000  0.50000000  0.00000000  1
  La  La3  1  0.00000000  0.00000000  0.15292000  1
  Ti  Ti4  1  0.00000000  0.00000000  0.84708002  1
  Cl  Cl5  1  0.00000000  0.00000000  0.50000001  1
  O  O6  1  0.00000000  0.50000000  0.12404700  1
  O  O7  1  0.00000000  0.50000000  0.87595302  1
  O  O8  1  0.50000000  0.00000000  0.12404700  1
  O  O9  1  0.50000000  0.00000000  0.87595302  1
  O  O10  1  0.00000000  0.00000000  0.27203601  1
  O  O11  1  0.00000000  0.00000000  0.72796401  1
  O  O12  1  0.00000000  0.00000000  0.00000000  1
