# generated using pymatgen
data_TlO
_symmetry_space_group_name_H-M   'P 1'
_cell_length_a   4.38774395
_cell_length_b   4.38774490
_cell_length_c   5.57931709
_cell_angle_alpha   90.00000000
_cell_angle_beta   90.00000000
_cell_angle_gamma   119.99999237
_symmetry_Int_Tables_number   1
_chemical_formula_structural   TlO
_chemical_formula_sum   'Tl2 O2'
_cell_volume   93.02385995
_cell_formula_units_Z   2
loop_
 _symmetry_equiv_pos_site_id
 _symmetry_equiv_pos_as_xyz
  1  'x, y, z'
loop_
 _atom_site_type_symbol
 _atom_site_label
 _atom_site_symmetry_multiplicity
 _atom_site_fract_x
 _atom_site_fract_y
 _atom_site_fract_z
 _atom_site_occupancy
  Tl  Tl0  1  0.00000000  0.00000000  0.49999999  1
  Tl  Tl1  1  0.00000000  0.00000000  0.00000000  1
  O  O2  1  0.66666668  0.33333335  0.74999999  1
  O  O3  1  0.33333334  0.66666669  0.25000000  1
