# generated using pymatgen
data_EuN2
_symmetry_space_group_name_H-M   'P 1'
_cell_length_a   3.93735409
_cell_length_b   3.93735409
_cell_length_c   6.55708027
_cell_angle_alpha   83.26261139
_cell_angle_beta   83.26261139
_cell_angle_gamma   61.95948792
_symmetry_Int_Tables_number   1
_chemical_formula_structural   EuN2
_chemical_formula_sum   'Eu2 N4'
_cell_volume   88.87637768
_cell_formula_units_Z   2
loop_
 _symmetry_equiv_pos_site_id
 _symmetry_equiv_pos_as_xyz
  1  'x, y, z'
loop_
 _atom_site_type_symbol
 _atom_site_label
 _atom_site_symmetry_multiplicity
 _atom_site_fract_x
 _atom_site_fract_y
 _atom_site_fract_z
 _atom_site_occupancy
  Eu  Eu0  1  0.19823301  0.19823300  0.76959201  1
  Eu  Eu1  1  0.80176704  0.80176701  0.23040798  1
  N  N2  1  0.15231301  0.15231300  0.14129700  1
  N  N3  1  0.84768704  0.84768702  0.85870299  1
  N  N4  1  0.42110002  0.42110001  0.42885100  1
  N  N5  1  0.57890003  0.57890001  0.57114899  1
