# generated using pymatgen
data_Li2Cu3OF12
_symmetry_space_group_name_H-M   'P 1'
_cell_length_a   5.45820284
_cell_length_b   5.45820284
_cell_length_c   7.24873972
_cell_angle_alpha   71.25590515
_cell_angle_beta   71.25590515
_cell_angle_gamma   70.65773010
_symmetry_Int_Tables_number   1
_chemical_formula_structural   Li2Cu3OF12
_chemical_formula_sum   'Li2 Cu3 O1 F12'
_cell_volume   187.29355879
_cell_formula_units_Z   1
loop_
 _symmetry_equiv_pos_site_id
 _symmetry_equiv_pos_as_xyz
  1  'x, y, z'
loop_
 _atom_site_type_symbol
 _atom_site_label
 _atom_site_symmetry_multiplicity
 _atom_site_fract_x
 _atom_site_fract_y
 _atom_site_fract_z
 _atom_site_occupancy
  Li  Li0  1  0.32955799  0.32955800  0.16011602  1
  Li  Li1  1  0.65179398  0.65179401  0.32740303  1
  Cu  Cu2  1  0.34820599  0.34820600  0.67259701  1
  Cu  Cu3  1  0.67044198  0.67044201  0.83988403  1
  Cu  Cu4  1  0.00000000  0.00000000  0.49999999  1
  O  O5  1  0.00000000  0.00000000  0.00000000  1
  F  F6  1  0.97038499  0.36019800  0.33064803  1
  F  F7  1  0.63980200  0.02961500  0.66935201  1
  F  F8  1  0.43094499  0.43094500  0.37554402  1
  F  F9  1  0.76458598  0.76458601  0.03902705  1
  F  F10  1  0.23541399  0.23541400  0.96097300  1
  F  F11  1  0.56905498  0.56905501  0.62445602  1
  F  F12  1  0.02961498  0.63980201  0.66935201  1
  F  F13  1  0.36019797  0.97038501  0.33064804  1
  F  F14  1  0.69416899  0.30583100  0.00000003  1
  F  F15  1  0.30583098  0.69416901  0.00000003  1
  F  F16  1  0.11975100  0.11975100  0.69483400  1
  F  F17  1  0.88024897  0.88024901  0.30516605  1
