# generated using pymatgen
data_TmGaPd
_symmetry_space_group_name_H-M   'P 1'
_cell_length_a   4.43910980
_cell_length_b   6.83777523
_cell_length_c   7.66371584
_cell_angle_alpha   90.00000000
_cell_angle_beta   90.00000000
_cell_angle_gamma   90.00000000
_symmetry_Int_Tables_number   1
_chemical_formula_structural   TmGaPd
_chemical_formula_sum   'Tm4 Ga4 Pd4'
_cell_volume   232.62163372
_cell_formula_units_Z   4
loop_
 _symmetry_equiv_pos_site_id
 _symmetry_equiv_pos_as_xyz
  1  'x, y, z'
loop_
 _atom_site_type_symbol
 _atom_site_label
 _atom_site_symmetry_multiplicity
 _atom_site_fract_x
 _atom_site_fract_y
 _atom_site_fract_z
 _atom_site_occupancy
  Tm  Tm0  1  0.25000001  0.98482197  0.30265201  1
  Tm  Tm1  1  0.25000001  0.48482198  0.19734800  1
  Tm  Tm2  1  0.75000003  0.01517800  0.69734801  1
  Tm  Tm3  1  0.75000003  0.51517798  0.80265202  1
  Ga  Ga4  1  0.25000001  0.32443799  0.57221001  1
  Ga  Ga5  1  0.25000001  0.82443797  0.92779002  1
  Ga  Ga6  1  0.75000003  0.67556198  0.42779001  1
  Ga  Ga7  1  0.75000003  0.17556199  0.07221000  1
  Pd  Pd8  1  0.25000001  0.22109799  0.89897302  1
  Pd  Pd9  1  0.25000001  0.72109798  0.60102701  1
  Pd  Pd10  1  0.75000003  0.77890197  0.10102700  1
  Pd  Pd11  1  0.75000003  0.27890199  0.39897301  1
