# generated using pymatgen
data_Ho4Zn3Ga5
_symmetry_space_group_name_H-M   'P 1'
_cell_length_a   5.37742615
_cell_length_b   5.37742662
_cell_length_c   9.11654568
_cell_angle_alpha   90.00000000
_cell_angle_beta   90.00000000
_cell_angle_gamma   120.00000000
_symmetry_Int_Tables_number   1
_chemical_formula_structural   Ho4Zn3Ga5
_chemical_formula_sum   'Ho4 Zn3 Ga5'
_cell_volume   228.30209230
_cell_formula_units_Z   1
loop_
 _symmetry_equiv_pos_site_id
 _symmetry_equiv_pos_as_xyz
  1  'x, y, z'
loop_
 _atom_site_type_symbol
 _atom_site_label
 _atom_site_symmetry_multiplicity
 _atom_site_fract_x
 _atom_site_fract_y
 _atom_site_fract_z
 _atom_site_occupancy
  Ho  Ho0  1  0.66666667  0.33333333  0.56415002  1
  Ho  Ho1  1  0.33333336  0.66666666  0.43585002  1
  Ho  Ho2  1  0.33333336  0.66666666  0.06415000  1
  Ho  Ho3  1  0.66666667  0.33333333  0.93585003  1
  Zn  Zn4  1  0.82953599  0.17046300  0.25000001  1
  Zn  Zn5  1  0.82953601  0.65907199  0.25000001  1
  Ga  Ga6  1  0.65907302  0.82953699  0.75000003  1
  Ga  Ga7  1  0.17046404  0.82953699  0.75000003  1
  Ga  Ga8  1  0.34092700  0.17046300  0.25000001  1
  Ga  Ga9  1  0.00000000  0.00000000  0.00000000  1
  Zn  Zn10  1  0.17046401  0.34092800  0.75000003  1
  Ga  Ga11  1  0.00000000  0.00000000  0.50000002  1
