# generated using pymatgen
data_Mn2NiO3
_symmetry_space_group_name_H-M   'P 1'
_cell_length_a   3.77790308
_cell_length_b   5.95650291
_cell_length_c   8.64513206
_cell_angle_alpha   89.98417664
_cell_angle_beta   90.00020599
_cell_angle_gamma   90.00140381
_symmetry_Int_Tables_number   1
_chemical_formula_structural   Mn2NiO3
_chemical_formula_sum   'Mn4 Ni2 O6'
_cell_volume   194.54218354
_cell_formula_units_Z   2
loop_
 _symmetry_equiv_pos_site_id
 _symmetry_equiv_pos_as_xyz
  1  'x, y, z'
loop_
 _atom_site_type_symbol
 _atom_site_label
 _atom_site_symmetry_multiplicity
 _atom_site_fract_x
 _atom_site_fract_y
 _atom_site_fract_z
 _atom_site_occupancy
  Mn  Mn0  1  0.49967496  0.79013902  0.63451798  1
  Mn  Mn1  1  0.99967695  0.70988202  0.36547997  1
  Mn  Mn2  1  0.50032998  0.29020201  0.86551799  1
  Mn  Mn3  1  0.00031399  0.20982101  0.13444900  1
  Ni  Ni4  1  0.99967894  0.82498402  0.57312597  1
  O  O5  1  0.49996396  0.58574301  0.77364598  1
  Ni  Ni6  1  0.99994294  0.91431202  0.22634497  1
  O  O7  1  0.49966996  0.67499802  0.42693998  1
  O  O8  1  0.00033599  0.32500601  0.92693699  1
  O  O9  1  0.50005399  0.08570200  0.72631999  1
  O  O10  1  0.00003198  0.41420101  0.27362899  1
  O  O11  1  0.50032598  0.17501000  0.07309199  1
