# generated using pymatgen
data_Sm2Ga12Ir5
_symmetry_space_group_name_H-M   'P 1'
_cell_length_a   6.80270720
_cell_length_b   6.80270720
_cell_length_c   6.80270815
_cell_angle_alpha   82.55451202
_cell_angle_beta   82.55451202
_cell_angle_gamma   82.55451202
_symmetry_Int_Tables_number   1
_chemical_formula_structural   Sm2Ga12Ir5
_chemical_formula_sum   'Sm2 Ga12 Ir5'
_cell_volume   307.47816199
_cell_formula_units_Z   1
loop_
 _symmetry_equiv_pos_site_id
 _symmetry_equiv_pos_as_xyz
  1  'x, y, z'
loop_
 _atom_site_type_symbol
 _atom_site_label
 _atom_site_symmetry_multiplicity
 _atom_site_fract_x
 _atom_site_fract_y
 _atom_site_fract_z
 _atom_site_occupancy
  Sm  Sm0  1  0.66514304  0.66514301  0.66514303  1
  Sm  Sm1  1  0.33485702  0.33485700  0.33485702  1
  Ga  Ga2  1  0.64831802  0.16159500  0.64831802  1
  Ga  Ga3  1  0.70316601  0.00000000  0.29683402  1
  Ga  Ga4  1  0.29683404  0.70316601  0.00000002  1
  Ga  Ga5  1  0.00000003  0.70316601  0.29683401  1
  Ga  Ga6  1  0.29683405  1.00000001  0.70316603  1
  Ga  Ga7  1  0.35168202  0.35168200  0.83840501  1
  Ga  Ga8  1  0.10009601  0.10009600  0.10009600  1
  Ga  Ga9  1  0.00000001  0.29683400  0.70316600  1
  Ga  Ga10  1  0.00000000  0.00000000  0.50000000  1
  Ga  Ga11  1  0.83840503  0.35168200  0.35168203  1
  Ga  Ga12  1  0.35168204  0.83840501  0.35168203  1
  Ga  Ga13  1  0.89990406  0.89990401  0.89990404  1
  Ir  Ir14  1  0.16159503  0.64831801  0.64831802  1
  Ir  Ir15  1  0.64831804  0.64831801  0.16159503  1
  Ir  Ir16  1  0.70316603  0.29683400  0.00000003  1
  Ir  Ir17  1  0.00000002  0.50000001  0.00000001  1
  Ir  Ir18  1  0.50000001  0.00000000  0.00000001  1
