# generated using pymatgen
data_ErNi12
_symmetry_space_group_name_H-M   'P 1'
_cell_length_a   4.69022512
_cell_length_b   6.51907206
_cell_length_c   6.51907253
_cell_angle_alpha   82.15477753
_cell_angle_beta   68.91632080
_cell_angle_gamma   68.91632843
_symmetry_Int_Tables_number   1
_chemical_formula_structural   ErNi12
_chemical_formula_sum   'Er1 Ni12'
_cell_volume   173.52672019
_cell_formula_units_Z   1
loop_
 _symmetry_equiv_pos_site_id
 _symmetry_equiv_pos_as_xyz
  1  'x, y, z'
loop_
 _atom_site_type_symbol
 _atom_site_label
 _atom_site_symmetry_multiplicity
 _atom_site_fract_x
 _atom_site_fract_y
 _atom_site_fract_z
 _atom_site_occupancy
  Er  Er0  1  0.00000008  0.99426903  0.00573092  1
  Ni  Ni1  1  0.99999999  0.36770501  0.63229501  1
  Ni  Ni2  1  0.00085308  0.99774803  0.49948393  1
  Ni  Ni3  1  0.50191506  0.99774803  0.49948394  1
  Ni  Ni4  1  0.49808502  0.50051601  0.00225197  1
  Ni  Ni5  1  0.99914700  0.50051601  0.00225199  1
  Ni  Ni6  1  0.50000004  0.76585202  0.23414796  1
  Ni  Ni7  1  0.50000000  0.22985601  0.77014401  1
  Ni  Ni8  1  0.72856803  0.77255202  0.77031097  1
  Ni  Ni9  1  0.27143101  0.22968901  0.22744799  1
  Ni  Ni10  1  0.00000005  0.64308502  0.35691496  1
  Ni  Ni11  1  0.64150800  0.35872401  0.35826000  1
  Ni  Ni12  1  0.35849203  0.64174002  0.64127597  1
