# generated using pymatgen
data_ErGaPt
_symmetry_space_group_name_H-M   'P 1'
_cell_length_a   4.42079115
_cell_length_b   6.87540483
_cell_length_c   7.74118805
_cell_angle_alpha   90.00000000
_cell_angle_beta   90.00000000
_cell_angle_gamma   90.00000000
_symmetry_Int_Tables_number   1
_chemical_formula_structural   ErGaPt
_chemical_formula_sum   'Er4 Ga4 Pt4'
_cell_volume   235.29131166
_cell_formula_units_Z   4
loop_
 _symmetry_equiv_pos_site_id
 _symmetry_equiv_pos_as_xyz
  1  'x, y, z'
loop_
 _atom_site_type_symbol
 _atom_site_label
 _atom_site_symmetry_multiplicity
 _atom_site_fract_x
 _atom_site_fract_y
 _atom_site_fract_z
 _atom_site_occupancy
  Er  Er0  1  0.24999999  0.03182200  0.68039600  1
  Er  Er1  1  0.24999999  0.53182201  0.81960399  1
  Er  Er2  1  0.74999997  0.96817802  0.31960400  1
  Er  Er3  1  0.74999997  0.46817801  0.18039600  1
  Ga  Ga4  1  0.24999999  0.14531000  0.06325700  1
  Ga  Ga5  1  0.24999999  0.64531002  0.43674300  1
  Ga  Ga6  1  0.74999997  0.85469002  0.93674299  1
  Ga  Ga7  1  0.74999997  0.35469001  0.56325700  1
  Pt  Pt8  1  0.24999999  0.27368201  0.38241600  1
  Pt  Pt9  1  0.24999999  0.77368202  0.11758400  1
  Pt  Pt10  1  0.74999997  0.72631802  0.61758400  1
  Pt  Pt11  1  0.74999997  0.22631801  0.88241599  1
