# generated using pymatgen
data_Ti4CN3
_symmetry_space_group_name_H-M   'P 1'
_cell_length_a   3.02618909
_cell_length_b   3.02618909
_cell_length_c   8.55323601
_cell_angle_alpha   90.00000000
_cell_angle_beta   90.00000000
_cell_angle_gamma   90.00000000
_symmetry_Int_Tables_number   1
_chemical_formula_structural   Ti4CN3
_chemical_formula_sum   'Ti4 C1 N3'
_cell_volume   78.32899921
_cell_formula_units_Z   1
loop_
 _symmetry_equiv_pos_site_id
 _symmetry_equiv_pos_as_xyz
  1  'x, y, z'
loop_
 _atom_site_type_symbol
 _atom_site_label
 _atom_site_symmetry_multiplicity
 _atom_site_fract_x
 _atom_site_fract_y
 _atom_site_fract_z
 _atom_site_occupancy
  Ti  Ti0  1  0.49999999  0.49999999  0.75043000  1
  Ti  Ti1  1  0.00000000  0.00000000  0.50000000  1
  Ti  Ti2  1  0.49999999  0.49999999  0.24957000  1
  Ti  Ti3  1  0.00000000  0.00000000  0.00000000  1
  N  N4  1  0.00000000  0.00000000  0.25308000  1
  C  C5  1  0.49999999  0.49999999  0.00000000  1
  N  N6  1  0.00000000  0.00000000  0.74692000  1
  N  N7  1  0.49999999  0.49999999  0.50000000  1
