# generated using pymatgen
data_Li2CuO2
_symmetry_space_group_name_H-M   'P 1'
_cell_length_a   2.86964989
_cell_length_b   4.55105400
_cell_length_c   5.52341795
_cell_angle_alpha   114.32915497
_cell_angle_beta   105.05648804
_cell_angle_gamma   90.00000000
_symmetry_Int_Tables_number   1
_chemical_formula_structural   Li2CuO2
_chemical_formula_sum   'Li2 Cu1 O2'
_cell_volume   63.00168314
_cell_formula_units_Z   1
loop_
 _symmetry_equiv_pos_site_id
 _symmetry_equiv_pos_as_xyz
  1  'x, y, z'
loop_
 _atom_site_type_symbol
 _atom_site_label
 _atom_site_symmetry_multiplicity
 _atom_site_fract_x
 _atom_site_fract_y
 _atom_site_fract_z
 _atom_site_occupancy
  Li  Li0  1  0.67885804  0.67885801  0.35771602  1
  Li  Li1  1  0.32114202  0.32114200  0.64228402  1
  Cu  Cu2  1  0.00000000  0.00000000  0.00000000  1
  O  O3  1  0.36921603  0.86921601  0.73843203  1
  O  O4  1  0.63078403  0.13078400  0.26156801  1
