# generated using pymatgen
data_CaFeO3
_symmetry_space_group_name_H-M   'P 1'
_cell_length_a   5.43936682
_cell_length_b   5.46040583
_cell_length_c   7.64087296
_cell_angle_alpha   90.00000000
_cell_angle_beta   90.00000000
_cell_angle_gamma   90.00000000
_symmetry_Int_Tables_number   1
_chemical_formula_structural   CaFeO3
_chemical_formula_sum   'Ca4 Fe4 O12'
_cell_volume   226.94271579
_cell_formula_units_Z   4
loop_
 _symmetry_equiv_pos_site_id
 _symmetry_equiv_pos_as_xyz
  1  'x, y, z'
loop_
 _atom_site_type_symbol
 _atom_site_label
 _atom_site_symmetry_multiplicity
 _atom_site_fract_x
 _atom_site_fract_y
 _atom_site_fract_z
 _atom_site_occupancy
  Ca  Ca0  1  0.49071502  0.20541201  -0.00000000  1
  Ca  Ca1  1  0.99071503  0.79458803  0.50000000  1
  Ca  Ca2  1  0.00796200  0.71253802  0.00000000  1
  Ca  Ca3  1  0.50796202  0.28746201  0.50000000  1
  Fe  Fe4  1  0.00031400  0.24914601  0.75027400  1
  Fe  Fe5  1  0.00031400  0.24914601  0.24972600  1
  Fe  Fe6  1  0.50031402  0.75085402  0.25027400  1
  Fe  Fe7  1  0.50031402  0.75085402  0.74972600  1
  O  O8  1  0.07083600  0.23281801  0.50000000  1
  O  O9  1  0.22021601  0.96989203  0.78720300  1
  O  O10  1  0.22021601  0.96989203  0.21279700  1
  O  O11  1  0.28379801  0.46661001  0.20874100  1
  O  O12  1  0.28379801  0.46661001  0.79125900  1
  O  O13  1  0.42186801  0.73621502  0.50000000  1
  O  O14  1  0.57083602  0.76718202  0.00000000  1
  O  O15  1  0.72021602  0.03010800  0.71279700  1
  O  O16  1  0.72021602  0.03010800  0.28720300  1
  O  O17  1  0.78379803  0.53339002  0.70874100  1
  O  O18  1  0.78379803  0.53339002  0.29125900  1
  O  O19  1  0.92186803  0.26378501  0.00000000  1
