# generated using pymatgen
data_CeO2
_symmetry_space_group_name_H-M   'P 1'
_cell_length_a   6.65455675
_cell_length_b   6.65520668
_cell_length_c   6.65520668
_cell_angle_alpha   60.00234222
_cell_angle_beta   80.40553284
_cell_angle_gamma   99.59446716
_symmetry_Int_Tables_number   1
_chemical_formula_structural   CeO2
_chemical_formula_sum   'Ce6 O12'
_cell_volume   240.66145244
_cell_formula_units_Z   6
loop_
 _symmetry_equiv_pos_site_id
 _symmetry_equiv_pos_as_xyz
  1  'x, y, z'
loop_
 _atom_site_type_symbol
 _atom_site_label
 _atom_site_symmetry_multiplicity
 _atom_site_fract_x
 _atom_site_fract_y
 _atom_site_fract_z
 _atom_site_occupancy
  Ce  Ce0  1  0.50000004  0.49999999  0.49999998  1
  Ce  Ce1  1  0.50000006  0.83330099  0.83330098  1
  Ce  Ce2  1  0.50000002  0.16669900  0.16669898  1
  Ce  Ce3  1  0.00000004  0.66666666  0.66666667  1
  Ce  Ce4  1  0.00000000  0.00000000  0.00000000  1
  Ce  Ce5  1  0.00000002  0.33333333  0.33333333  1
  O  O6  1  0.62927407  0.88434199  0.11565799  1
  O  O7  1  0.87667108  0.95783799  0.70775197  1
  O  O8  1  0.12332904  0.70775199  0.95783799  1
  O  O9  1  0.88422806  0.62923899  0.37076097  1
  O  O10  1  0.87667104  0.29224800  0.04216197  1
  O  O11  1  0.37076305  0.79801799  0.54281199  1
  O  O12  1  0.37072602  0.11565800  0.88434197  1
  O  O13  1  0.62923703  0.20198200  0.45718797  1
  O  O14  1  0.11577202  0.37076099  0.62923899  1
  O  O15  1  0.12332901  0.04216200  0.29224799  1
  O  O16  1  0.62923705  0.54281199  0.79801797  1
  O  O17  1  0.37076304  0.45718799  0.20198199  1
