# generated using pymatgen
data_Nd2(MnSi3)3
_symmetry_space_group_name_H-M   'P 1'
_cell_length_a   6.02249002
_cell_length_b   6.02249002
_cell_length_c   7.63183594
_cell_angle_alpha   90.00000000
_cell_angle_beta   90.00000000
_cell_angle_gamma   90.00000000
_symmetry_Int_Tables_number   1
_chemical_formula_structural   Nd2(MnSi3)3
_chemical_formula_sum   'Nd2 Mn3 Si9'
_cell_volume   276.80963607
_cell_formula_units_Z   1
loop_
 _symmetry_equiv_pos_site_id
 _symmetry_equiv_pos_as_xyz
  1  'x, y, z'
loop_
 _atom_site_type_symbol
 _atom_site_label
 _atom_site_symmetry_multiplicity
 _atom_site_fract_x
 _atom_site_fract_y
 _atom_site_fract_z
 _atom_site_occupancy
  Nd  Nd0  1  -0.00000000  0.50000000  0.00000000  1
  Nd  Nd1  1  0.50000000  0.00000000  0.00000000  1
  Mn  Mn2  1  0.50000000  0.50000000  0.16233100  1
  Si  Si3  1  0.00000000  0.00000000  0.83766901  1
  Si  Si4  1  0.50000000  0.50000000  0.83766901  1
  Mn  Mn5  1  0.00000000  0.00000000  0.16233100  1
  Si  Si6  1  0.18629600  0.68629600  0.35082500  1
  Si  Si7  1  0.81370400  0.31370400  0.35082500  1
  Mn  Mn8  1  0.68629600  0.18629600  0.64917501  1
  Si  Si9  1  0.31370400  0.81370400  0.64917501  1
  Si  Si10  1  0.18629600  0.31370400  0.64917501  1
  Si  Si11  1  0.81370400  0.68629600  0.64917501  1
  Si  Si12  1  0.68629600  0.81370400  0.35082500  1
  Si  Si13  1  0.31370400  0.18629600  0.35082500  1
