# generated using pymatgen
data_Ho2(GeAu)3
_symmetry_space_group_name_H-M   'P 1'
_cell_length_a   4.37414598
_cell_length_b   4.37414646
_cell_length_c   9.19046307
_cell_angle_alpha   90.00000000
_cell_angle_beta   90.00000000
_cell_angle_gamma   120.00000000
_symmetry_Int_Tables_number   1
_chemical_formula_structural   Ho2(GeAu)3
_chemical_formula_sum   'Ho2 Ge3 Au3'
_cell_volume   152.28412059
_cell_formula_units_Z   1
loop_
 _symmetry_equiv_pos_site_id
 _symmetry_equiv_pos_as_xyz
  1  'x, y, z'
loop_
 _atom_site_type_symbol
 _atom_site_label
 _atom_site_symmetry_multiplicity
 _atom_site_fract_x
 _atom_site_fract_y
 _atom_site_fract_z
 _atom_site_occupancy
  Ho  Ho0  1  0.66666669  0.33333334  0.74999999  1
  Ho  Ho1  1  0.33333337  0.66666667  0.25000000  1
  Ge  Ge2  1  0.00000000  0.00000000  0.50000000  1
  Ge  Ge3  1  0.00000000  0.00000000  0.00000000  1
  Au  Au4  1  0.66666669  0.33333334  0.07814700  1
  Au  Au5  1  0.33333337  0.66666667  0.92185299  1
  Ge  Ge6  1  0.33333337  0.66666667  0.57814700  1
  Au  Au7  1  0.66666669  0.33333334  0.42185300  1
