# generated using pymatgen
data_Cs2Sr2Si2HO9
_symmetry_space_group_name_H-M   'P 1'
_cell_length_a   5.99999809
_cell_length_b   6.03740215
_cell_length_c   8.00937176
_cell_angle_alpha   90.00000000
_cell_angle_beta   90.00000000
_cell_angle_gamma   119.53514099
_symmetry_Int_Tables_number   1
_chemical_formula_structural   Cs2Sr2Si2HO9
_chemical_formula_sum   'Cs2 Sr2 Si2 H1 O9'
_cell_volume   252.43271372
_cell_formula_units_Z   1
loop_
 _symmetry_equiv_pos_site_id
 _symmetry_equiv_pos_as_xyz
  1  'x, y, z'
loop_
 _atom_site_type_symbol
 _atom_site_label
 _atom_site_symmetry_multiplicity
 _atom_site_fract_x
 _atom_site_fract_y
 _atom_site_fract_z
 _atom_site_occupancy
  Cs  Cs0  1  0.27510003  0.65056800  0.22891501  1
  Cs  Cs1  1  0.72490001  0.34943200  0.72891502  1
  Sr  Sr2  1  0.98973204  0.98611801  0.48352401  1
  Sr  Sr3  1  0.01026800  0.01388200  0.98352403  1
  Si  Si4  1  0.61951301  0.32215900  0.24650101  1
  Si  Si5  1  0.38048703  0.67784100  0.74650102  1
  H  H6  1  0.54075502  0.49204200  0.00646000  1
  O  O7  1  0.45924502  0.50795800  0.50646002  1
  O  O8  1  0.76973300  0.15690600  0.24104901  1
  O  O9  1  0.23026705  0.84309400  0.74104902  1
  O  O10  1  0.30451800  0.14088000  0.24141101  1
  O  O11  1  0.69548204  0.85912000  0.74141102  1
  O  O12  1  0.71014302  0.53355200  0.39846101  1
  O  O13  1  0.28985702  0.46644800  0.89846103  1
  O  O14  1  0.69745002  0.51530500  0.07067900  1
  O  O15  1  0.30255002  0.48469500  0.57067902  1
