# generated using pymatgen
data_ErNi12
_symmetry_space_group_name_H-M   'P 1'
_cell_length_a   4.73087597
_cell_length_b   6.40214014
_cell_length_c   6.40214014
_cell_angle_alpha   82.23099518
_cell_angle_beta   68.31668854
_cell_angle_gamma   68.31668854
_symmetry_Int_Tables_number   1
_chemical_formula_structural   ErNi12
_chemical_formula_sum   'Er1 Ni12'
_cell_volume   167.43544595
_cell_formula_units_Z   1
loop_
 _symmetry_equiv_pos_site_id
 _symmetry_equiv_pos_as_xyz
  1  'x, y, z'
loop_
 _atom_site_type_symbol
 _atom_site_label
 _atom_site_symmetry_multiplicity
 _atom_site_fract_x
 _atom_site_fract_y
 _atom_site_fract_z
 _atom_site_occupancy
  Er  Er0  1  0.00000004  0.99462295  0.00537702  1
  Ni  Ni1  1  0.00000002  0.37408198  0.62591799  1
  Ni  Ni2  1  0.50000003  0.76991396  0.23008603  1
  Ni  Ni3  1  0.50000001  0.22082199  0.77917799  1
  Ni  Ni4  1  0.71688303  0.78353996  0.78269402  1
  Ni  Ni5  1  0.28311701  0.21730599  0.21646001  1
  Ni  Ni6  1  0.00212704  0.99698295  0.49935201  1
  Ni  Ni7  1  0.50153804  0.99698295  0.49935202  1
  Ni  Ni8  1  0.49846202  0.50064798  0.00301703  1
  Ni  Ni9  1  0.99787301  0.50064798  0.00301704  1
  Ni  Ni10  1  0.00000003  0.64852797  0.35147200  1
  Ni  Ni11  1  0.64242101  0.35554098  0.35961702  1
  Ni  Ni12  1  0.35757902  0.64038297  0.64445901  1
