# generated using pymatgen
data_ErAlPt
_symmetry_space_group_name_H-M   'P 1'
_cell_length_a   4.47294283
_cell_length_b   6.87758684
_cell_length_c   7.74257612
_cell_angle_alpha   90.00000000
_cell_angle_beta   90.00000000
_cell_angle_gamma   90.00000000
_symmetry_Int_Tables_number   1
_chemical_formula_structural   ErAlPt
_chemical_formula_sum   'Er4 Al4 Pt4'
_cell_volume   238.18527763
_cell_formula_units_Z   4
loop_
 _symmetry_equiv_pos_site_id
 _symmetry_equiv_pos_as_xyz
  1  'x, y, z'
loop_
 _atom_site_type_symbol
 _atom_site_label
 _atom_site_symmetry_multiplicity
 _atom_site_fract_x
 _atom_site_fract_y
 _atom_site_fract_z
 _atom_site_occupancy
  Er  Er0  1  0.25000001  0.03266700  0.68031599  1
  Er  Er1  1  0.25000001  0.53266701  0.81968399  1
  Er  Er2  1  0.75000003  0.96733302  0.31968399  1
  Er  Er3  1  0.75000003  0.46733301  0.18031600  1
  Al  Al4  1  0.25000001  0.14636000  0.06218000  1
  Al  Al5  1  0.25000001  0.64636001  0.43781999  1
  Al  Al6  1  0.75000003  0.85364002  0.93781999  1
  Al  Al7  1  0.75000003  0.35364001  0.56217999  1
  Pt  Pt8  1  0.25000001  0.27336801  0.38282799  1
  Pt  Pt9  1  0.25000001  0.77336802  0.11717200  1
  Pt  Pt10  1  0.75000003  0.72663202  0.61717199  1
  Pt  Pt11  1  0.75000003  0.22663201  0.88282799  1
