# generated using pymatgen
data_Tl2S3
_symmetry_space_group_name_H-M   'P 1'
_cell_length_a   3.75387096
_cell_length_b   9.57251263
_cell_length_c   14.15166473
_cell_angle_alpha   90.00000000
_cell_angle_beta   90.00000000
_cell_angle_gamma   90.00000000
_symmetry_Int_Tables_number   1
_chemical_formula_structural   Tl2S3
_chemical_formula_sum   'Tl8 S12'
_cell_volume   508.52559792
_cell_formula_units_Z   4
loop_
 _symmetry_equiv_pos_site_id
 _symmetry_equiv_pos_as_xyz
  1  'x, y, z'
loop_
 _atom_site_type_symbol
 _atom_site_label
 _atom_site_symmetry_multiplicity
 _atom_site_fract_x
 _atom_site_fract_y
 _atom_site_fract_z
 _atom_site_occupancy
  Tl  Tl0  1  0.25000000  0.15758701  0.95258402  1
  Tl  Tl1  1  0.75000001  0.84241303  0.04741600  1
  Tl  Tl2  1  0.25000000  0.65758703  0.54741601  1
  Tl  Tl3  1  0.75000001  0.34241301  0.45258401  1
  Tl  Tl4  1  0.75000001  0.44446802  0.83404202  1
  Tl  Tl5  1  0.25000000  0.55553202  0.16595800  1
  Tl  Tl6  1  0.75000001  0.94446804  0.66595801  1
  Tl  Tl7  1  0.25000000  0.05553200  0.33404201  1
  S  S8  1  0.25000000  0.01063500  0.10656900  1
  S  S9  1  0.75000001  0.98936504  0.89343102  1
  S  S10  1  0.25000000  0.51063502  0.39343101  1
  S  S11  1  0.75000001  0.48936502  0.60656901  1
  S  S12  1  0.75000001  0.32326401  0.00792900  1
  S  S13  1  0.25000000  0.67673603  0.99207102  1
  S  S14  1  0.75000001  0.82326403  0.49207101  1
  S  S15  1  0.25000000  0.17673601  0.50792901  1
  S  S16  1  0.75000001  0.23360601  0.28731201  1
  S  S17  1  0.25000000  0.76639403  0.71268801  1
  S  S18  1  0.75000001  0.73360603  0.21268800  1
  S  S19  1  0.25000000  0.26639401  0.78731201  1
