# generated using pymatgen
data_TaPdC
_symmetry_space_group_name_H-M   'P 1'
_cell_length_a   3.74476790
_cell_length_b   5.80852222
_cell_length_c   6.73931408
_cell_angle_alpha   90.00000000
_cell_angle_beta   90.00000000
_cell_angle_gamma   90.00000000
_symmetry_Int_Tables_number   1
_chemical_formula_structural   TaPdC
_chemical_formula_sum   'Ta4 Pd4 C4'
_cell_volume   146.59064576
_cell_formula_units_Z   4
loop_
 _symmetry_equiv_pos_site_id
 _symmetry_equiv_pos_as_xyz
  1  'x, y, z'
loop_
 _atom_site_type_symbol
 _atom_site_label
 _atom_site_symmetry_multiplicity
 _atom_site_fract_x
 _atom_site_fract_y
 _atom_site_fract_z
 _atom_site_occupancy
  Ta  Ta0  1  0.75000002  0.64029698  0.43281399  1
  Ta  Ta1  1  0.25000001  0.85970297  0.93281399  1
  Ta  Ta2  1  0.75000002  0.14029699  0.06718600  1
  Ta  Ta3  1  0.25000001  0.35970299  0.56718599  1
  Pd  Pd4  1  0.25000001  0.46787498  0.17010700  1
  Pd  Pd5  1  0.25000001  0.96787496  0.32989300  1
  Pd  Pd6  1  0.75000002  0.03212500  0.67010699  1
  Pd  Pd7  1  0.75000002  0.53212498  0.82989299  1
  C  C8  1  0.25000001  0.73382897  0.61938699  1
  C  C9  1  0.25000001  0.23382899  0.88061299  1
  C  C10  1  0.75000002  0.26617099  0.38061300  1
  C  C11  1  0.75000002  0.76617097  0.11938700  1
