# generated using pymatgen
data_Yb2(EuSb)3
_symmetry_space_group_name_H-M   'P 1'
_cell_length_a   6.81172514
_cell_length_b   9.38127041
_cell_length_c   9.39842319
_cell_angle_alpha   119.93964386
_cell_angle_beta   90.00000000
_cell_angle_gamma   90.00000000
_symmetry_Int_Tables_number   1
_chemical_formula_structural   Yb2(EuSb)3
_chemical_formula_sum   'Yb4 Eu6 Sb6'
_cell_volume   520.43705408
_cell_formula_units_Z   2
loop_
 _symmetry_equiv_pos_site_id
 _symmetry_equiv_pos_as_xyz
  1  'x, y, z'
loop_
 _atom_site_type_symbol
 _atom_site_label
 _atom_site_symmetry_multiplicity
 _atom_site_fract_x
 _atom_site_fract_y
 _atom_site_fract_z
 _atom_site_occupancy
  Eu  Eu0  1  0.49999999  0.33337499  0.66674900  1
  Yb  Yb1  1  0.49999999  0.66666664  0.33325100  1
  Yb  Yb2  1  0.00000000  0.66666664  0.33325100  1
  Eu  Eu3  1  0.00000000  0.33337499  0.66674900  1
  Eu  Eu4  1  0.74999998  0.25068899  0.00000000  1
  Eu  Eu5  1  0.74999998  0.74925297  0.74923401  1
  Eu  Eu6  1  0.74999998  0.00001900  0.25076600  1
  Eu  Eu7  1  0.24999999  0.74931097  0.00000000  1
  Yb  Yb8  1  0.24999999  0.25074699  0.25076600  1
  Yb  Yb9  1  0.24999999  0.99998096  0.74923401  1
  Sb  Sb10  1  0.74999998  0.61024797  0.00000000  1
  Sb  Sb11  1  0.74999998  0.38994098  0.39007400  1
  Sb  Sb12  1  0.74999998  0.99986696  0.60992601  1
  Sb  Sb13  1  0.24999999  0.38975198  0.00000000  1
  Sb  Sb14  1  0.24999999  0.61005897  0.60992600  1
  Sb  Sb15  1  0.24999999  0.00013300  0.39007400  1
