# generated using pymatgen
data_SrBiO3
_symmetry_space_group_name_H-M   'P 1'
_cell_length_a   6.07930613
_cell_length_b   6.18155813
_cell_length_c   8.66015053
_cell_angle_alpha   90.04048157
_cell_angle_beta   89.91834259
_cell_angle_gamma   89.83537292
_symmetry_Int_Tables_number   1
_chemical_formula_structural   SrBiO3
_chemical_formula_sum   'Sr4 Bi4 O12'
_cell_volume   325.44310003
_cell_formula_units_Z   4
loop_
 _symmetry_equiv_pos_site_id
 _symmetry_equiv_pos_as_xyz
  1  'x, y, z'
loop_
 _atom_site_type_symbol
 _atom_site_label
 _atom_site_symmetry_multiplicity
 _atom_site_fract_x
 _atom_site_fract_y
 _atom_site_fract_z
 _atom_site_occupancy
  Sr  Sr0  1  0.98983438  0.03673720  0.25007034  1
  Sr  Sr1  1  0.01016566  0.96326284  0.74992968  1
  Sr  Sr2  1  0.50952068  0.54579718  0.25051348  1
  Sr  Sr3  1  0.49047936  0.45420286  0.74948654  1
  Bi  Bi4  1  0.49999999  0.00000000  0.00000000  1
  Bi  Bi5  1  0.00000003  0.50000002  0.50000001  1
  Bi  Bi6  1  0.00000003  0.50000002  0.00000002  1
  Bi  Bi7  1  0.49999999  0.00000000  0.49999999  1
  O  O8  1  0.21125941  0.22098607  0.95402655  1
  O  O9  1  0.30754468  0.70219858  0.54858285  1
  O  O10  1  0.78874063  0.77901397  0.04597347  1
  O  O11  1  0.69245536  0.29780146  0.45141717  1
  O  O12  1  0.29584384  0.69391709  0.95025773  1
  O  O13  1  0.22065435  0.21385184  0.54561408  1
  O  O14  1  0.70415620  0.30608295  0.04974230  1
  O  O15  1  0.77934569  0.78614820  0.45438595  1
  O  O16  1  0.42819871  0.96210501  0.25405531  1
  O  O17  1  0.10344091  0.48813759  0.24492924  1
  O  O18  1  0.57180133  0.03789503  0.74594471  1
  O  O19  1  0.89655913  0.51186245  0.75507079  1
