# generated using pymatgen
data_Hf2ZrTc5
_symmetry_space_group_name_H-M   'P 1'
_cell_length_a   4.68836880
_cell_length_b   5.81272602
_cell_length_c   5.81272554
_cell_angle_alpha   120.00000000
_cell_angle_beta   90.00000000
_cell_angle_gamma   90.00000000
_symmetry_Int_Tables_number   1
_chemical_formula_structural   Hf2ZrTc5
_chemical_formula_sum   'Hf2 Zr1 Tc5'
_cell_volume   137.18671898
_cell_formula_units_Z   1
loop_
 _symmetry_equiv_pos_site_id
 _symmetry_equiv_pos_as_xyz
  1  'x, y, z'
loop_
 _atom_site_type_symbol
 _atom_site_label
 _atom_site_symmetry_multiplicity
 _atom_site_fract_x
 _atom_site_fract_y
 _atom_site_fract_z
 _atom_site_occupancy
  Zr  Zr0  1  0.25000001  0.66666665  0.33333332  1
  Hf  Hf1  1  0.75000003  0.33333333  0.66666667  1
  Hf  Hf2  1  0.75000003  0.83129498  0.16870497  1
  Tc  Tc3  1  0.75000003  0.33740999  0.16870499  1
  Tc  Tc4  1  0.75000003  0.83129498  0.66258998  1
  Tc  Tc5  1  0.25000001  0.16870500  0.83129501  1
  Tc  Tc6  1  0.25000001  0.66258999  0.83129499  1
  Tc  Tc7  1  0.25000001  0.16870500  0.33741000  1
