# generated using pymatgen
data_Na2AgAs2
_symmetry_space_group_name_H-M   'P 1'
_cell_length_a   6.99099541
_cell_length_b   6.99099541
_cell_length_c   7.03282881
_cell_angle_alpha   119.02012634
_cell_angle_beta   119.02012634
_cell_angle_gamma   91.37297058
_symmetry_Int_Tables_number   1
_chemical_formula_structural   Na2AgAs2
_chemical_formula_sum   'Na4 Ag2 As4'
_cell_volume   247.25855203
_cell_formula_units_Z   2
loop_
 _symmetry_equiv_pos_site_id
 _symmetry_equiv_pos_as_xyz
  1  'x, y, z'
loop_
 _atom_site_type_symbol
 _atom_site_label
 _atom_site_symmetry_multiplicity
 _atom_site_fract_x
 _atom_site_fract_y
 _atom_site_fract_z
 _atom_site_occupancy
  Na  Na0  1  0.94201798  0.44201700  0.88403598  1
  Na  Na1  1  0.45091900  0.05624500  0.50716400  1
  Na  Na2  1  0.95238594  0.95238599  0.90477196  1
  Na  Na3  1  0.44201793  0.94201699  0.88403596  1
  Ag  Ag4  1  0.05624497  0.45091900  0.50716398  1
  Ag  Ag5  1  0.55412597  0.55412600  0.10825198  1
  As  As6  1  0.25717995  0.75857599  0.01575597  1
  As  As7  1  0.75857599  0.25718000  0.01575600  1
  As  As8  1  0.99499194  0.99499199  0.49153297  1
  As  As9  1  0.49654097  0.49654100  0.49153298  1
