# generated using pymatgen
data_ScCrN2
_symmetry_space_group_name_H-M   'P 1'
_cell_length_a   3.63301396
_cell_length_b   3.63301396
_cell_length_c   5.17946386
_cell_angle_alpha   90.00000000
_cell_angle_beta   90.00000000
_cell_angle_gamma   90.00000000
_symmetry_Int_Tables_number   1
_chemical_formula_structural   ScCrN2
_chemical_formula_sum   'Sc1 Cr1 N2'
_cell_volume   68.36265823
_cell_formula_units_Z   1
loop_
 _symmetry_equiv_pos_site_id
 _symmetry_equiv_pos_as_xyz
  1  'x, y, z'
loop_
 _atom_site_type_symbol
 _atom_site_label
 _atom_site_symmetry_multiplicity
 _atom_site_fract_x
 _atom_site_fract_y
 _atom_site_fract_z
 _atom_site_occupancy
  Sc  Sc0  1  0.00000000  0.00000000  0.00000000  1
  Cr  Cr1  1  0.50000000  0.50000000  0.00000000  1
  N  N2  1  0.50000000  0.00000000  0.76544702  1
  N  N3  1  0.00000000  0.50000000  0.23455301  1
