# generated using pymatgen
data_Ba3Mn2O7
_symmetry_space_group_name_H-M   'P 1'
_cell_length_a   4.09146786
_cell_length_b   4.09146786
_cell_length_c   11.02344131
_cell_angle_alpha   100.69496918
_cell_angle_beta   100.69496918
_cell_angle_gamma   90.00000000
_symmetry_Int_Tables_number   1
_chemical_formula_structural   Ba3Mn2O7
_chemical_formula_sum   'Ba3 Mn2 O7'
_cell_volume   178.06488384
_cell_formula_units_Z   1
loop_
 _symmetry_equiv_pos_site_id
 _symmetry_equiv_pos_as_xyz
  1  'x, y, z'
loop_
 _atom_site_type_symbol
 _atom_site_label
 _atom_site_symmetry_multiplicity
 _atom_site_fract_x
 _atom_site_fract_y
 _atom_site_fract_z
 _atom_site_occupancy
  Ba  Ba0  1  0.31621101  0.31621101  0.63242197  1
  Ba  Ba1  1  0.68378902  0.68378902  0.36757798  1
  Ba  Ba2  1  0.50000001  0.50000002  -0.00000000  1
  Mn  Mn3  1  0.09597500  0.09597500  0.19194999  1
  Mn  Mn4  1  0.90402503  0.90402503  0.80804996  1
  O  O5  1  0.90532303  0.40532301  0.81064597  1
  O  O6  1  0.40532301  0.90532303  0.81064597  1
  O  O7  1  0.09467700  0.59467702  0.18935399  1
  O  O8  1  0.59467702  0.09467700  0.18935399  1
  O  O9  1  0.00000000  0.00000000  0.00000000  1
  O  O10  1  0.19130601  0.19130601  0.38261198  1
  O  O11  1  0.80869402  0.80869403  0.61738797  1
