# generated using pymatgen
data_ZrNb3Si2
_symmetry_space_group_name_H-M   'P 1'
_cell_length_a   3.26586795
_cell_length_b   3.26586795
_cell_length_c   10.75315285
_cell_angle_alpha   90.00000000
_cell_angle_beta   90.00000000
_cell_angle_gamma   90.00000000
_symmetry_Int_Tables_number   1
_chemical_formula_structural   ZrNb3Si2
_chemical_formula_sum   'Zr1 Nb3 Si2'
_cell_volume   114.69198260
_cell_formula_units_Z   1
loop_
 _symmetry_equiv_pos_site_id
 _symmetry_equiv_pos_as_xyz
  1  'x, y, z'
loop_
 _atom_site_type_symbol
 _atom_site_label
 _atom_site_symmetry_multiplicity
 _atom_site_fract_x
 _atom_site_fract_y
 _atom_site_fract_z
 _atom_site_occupancy
  Zr  Zr0  1  0.50000001  0.50000001  0.50000001  1
  Nb  Nb1  1  0.00000000  0.00000000  0.00000000  1
  Nb  Nb2  1  0.00000000  0.00000000  0.71336501  1
  Nb  Nb3  1  0.00000000  0.00000000  0.28663500  1
  Si  Si4  1  0.50000001  0.50000001  0.84705801  1
  Si  Si5  1  0.50000001  0.50000001  0.15294200  1
