# generated using pymatgen
data_YMnSbO6
_symmetry_space_group_name_H-M   'P 1'
_cell_length_a   5.18389416
_cell_length_b   5.18389416
_cell_length_c   9.80296421
_cell_angle_alpha   90.00000000
_cell_angle_beta   90.00000000
_cell_angle_gamma   120.00000000
_symmetry_Int_Tables_number   1
_chemical_formula_structural   YMnSbO6
_chemical_formula_sum   'Y2 Mn2 Sb2 O12'
_cell_volume   228.13940271
_cell_formula_units_Z   2
loop_
 _symmetry_equiv_pos_site_id
 _symmetry_equiv_pos_as_xyz
  1  'x, y, z'
loop_
 _atom_site_type_symbol
 _atom_site_label
 _atom_site_symmetry_multiplicity
 _atom_site_fract_x
 _atom_site_fract_y
 _atom_site_fract_z
 _atom_site_occupancy
  Y  Y0  1  0.00000000  0.00000000  0.49999999  1
  Y  Y1  1  0.00000000  0.00000000  0.00000000  1
  Mn  Mn2  1  0.66666665  0.33333333  0.74999998  1
  Mn  Mn3  1  0.33333331  0.66666665  0.24999999  1
  Sb  Sb4  1  0.66666665  0.33333333  0.24999999  1
  Sb  Sb5  1  0.33333331  0.66666665  0.74999998  1
  O  O6  1  0.35467597  0.98958698  0.63936999  1
  O  O7  1  0.01041299  0.36508899  0.63936999  1
  O  O8  1  0.63491098  0.64532398  0.63936999  1
  O  O9  1  0.64532399  0.01041300  0.36062999  1
  O  O10  1  0.98958697  0.63491098  0.36062999  1
  O  O11  1  0.36508899  0.35467599  0.36062999  1
  O  O12  1  0.63491097  0.98958698  0.86062998  1
  O  O13  1  0.01041298  0.64532398  0.86062998  1
  O  O14  1  0.35467599  0.36508899  0.86062998  1
  O  O15  1  0.36508900  0.01041300  0.13937000  1
  O  O16  1  0.98958698  0.35467599  0.13937000  1
  O  O17  1  0.64532398  0.63491098  0.13937000  1
