# generated using pymatgen
data_Ti3Co3C4
_symmetry_space_group_name_H-M   'P 1'
_cell_length_a   3.09861207
_cell_length_b   7.53171110
_cell_length_c   9.62069702
_cell_angle_alpha   90.00000000
_cell_angle_beta   90.00000000
_cell_angle_gamma   90.00000000
_symmetry_Int_Tables_number   1
_chemical_formula_structural   Ti3Co3C4
_chemical_formula_sum   'Ti6 Co6 C8'
_cell_volume   224.52639291
_cell_formula_units_Z   2
loop_
 _symmetry_equiv_pos_site_id
 _symmetry_equiv_pos_as_xyz
  1  'x, y, z'
loop_
 _atom_site_type_symbol
 _atom_site_label
 _atom_site_symmetry_multiplicity
 _atom_site_fract_x
 _atom_site_fract_y
 _atom_site_fract_z
 _atom_site_occupancy
  Ti  Ti0  1  0.49999999  0.11531600  0.46077000  1
  Ti  Ti1  1  0.49999999  0.88468399  0.53923000  1
  Ti  Ti2  1  0.00000000  0.38468399  0.96077000  1
  Ti  Ti3  1  0.00000000  0.61531599  0.03923000  1
  Ti  Ti4  1  0.49999999  0.12528200  0.26781900  1
  Ti  Ti5  1  0.49999999  0.87471799  0.73218100  1
  Co  Co6  1  0.00000000  0.37471799  0.76781900  1
  Co  Co7  1  0.00000000  0.62528199  0.23218100  1
  Co  Co8  1  0.49999999  0.80901799  0.12922100  1
  Co  Co9  1  0.49999999  0.19098200  0.87077900  1
  Co  Co10  1  0.00000000  0.69098199  0.62922100  1
  C  C11  1  0.00000000  0.30901800  0.37077900  1
  Co  Co12  1  0.49999999  0.57457499  0.86019700  1
  C  C13  1  0.49999999  0.42542499  0.13980300  1
  C  C14  1  0.00000000  0.92542499  0.36019700  1
  C  C15  1  0.00000000  0.07457500  0.63980300  1
  C  C16  1  0.49999999  0.62030199  0.39185400  1
  C  C17  1  0.49999999  0.37969799  0.60814600  1
  C  C18  1  0.00000000  0.87969799  0.89185400  1
  C  C19  1  0.00000000  0.12030200  0.10814600  1
