# generated using pymatgen
data_Nd2YTe4
_symmetry_space_group_name_H-M   'P 1'
_cell_length_a   8.07045555
_cell_length_b   8.07045555
_cell_length_c   8.07045555
_cell_angle_alpha   109.80755615
_cell_angle_beta   109.30331421
_cell_angle_gamma   109.30331421
_symmetry_Int_Tables_number   1
_chemical_formula_structural   Nd2YTe4
_chemical_formula_sum   'Nd4 Y2 Te8'
_cell_volume   404.63275567
_cell_formula_units_Z   2
loop_
 _symmetry_equiv_pos_site_id
 _symmetry_equiv_pos_as_xyz
  1  'x, y, z'
loop_
 _atom_site_type_symbol
 _atom_site_label
 _atom_site_symmetry_multiplicity
 _atom_site_fract_x
 _atom_site_fract_y
 _atom_site_fract_z
 _atom_site_occupancy
  Nd  Nd0  1  0.49999998  0.75000000  0.24999998  1
  Nd  Nd1  1  -0.00000002  0.50000000  0.50000000  1
  Nd  Nd2  1  0.87634900  0.25134900  0.87499999  1
  Nd  Nd3  1  0.37634900  0.12500000  0.00134899  1
  Y  Y4  1  0.12365097  0.99865100  0.37499999  1
  Y  Y5  1  0.62365098  0.62500000  0.74865099  1
  Te  Te6  1  0.25371099  0.35984100  0.77013700  1
  Te  Te7  1  0.58970399  0.22986300  0.48357399  1
  Te  Te8  1  0.75371100  0.02013700  0.10984099  1
  Te  Te9  1  0.91029597  0.89015900  0.64386998  1
  Te  Te10  1  0.08970397  0.73357400  0.97986300  1
  Te  Te11  1  0.41029597  0.89387000  0.64015899  1
  Te  Te12  1  0.74628899  0.51642600  0.10612998  1
  Te  Te13  1  0.24628899  0.35613000  0.26642599  1
