# generated using pymatgen
data_BaIBr6
_symmetry_space_group_name_H-M   'P 1'
_cell_length_a   4.14020014
_cell_length_b   4.82563782
_cell_length_c   12.97854900
_cell_angle_alpha   90.00000000
_cell_angle_beta   90.00000000
_cell_angle_gamma   90.00000000
_symmetry_Int_Tables_number   1
_chemical_formula_structural   BaIBr6
_chemical_formula_sum   'Ba1 I1 Br6'
_cell_volume   259.29981091
_cell_formula_units_Z   1
loop_
 _symmetry_equiv_pos_site_id
 _symmetry_equiv_pos_as_xyz
  1  'x, y, z'
loop_
 _atom_site_type_symbol
 _atom_site_label
 _atom_site_symmetry_multiplicity
 _atom_site_fract_x
 _atom_site_fract_y
 _atom_site_fract_z
 _atom_site_occupancy
  I  I0  1  0.49999998  0.19667501  0.58016000  1
  Ba  Ba1  1  0.49999998  0.80332503  0.41984000  1
  Br  Br2  1  0.49999998  0.19667501  0.91984000  1
  Br  Br3  1  0.49999998  0.80332503  0.08016000  1
  Br  Br4  1  0.00000000  0.50000002  0.50000000  1
  Br  Br5  1  0.00000000  0.50000002  0.00000000  1
  Br  Br6  1  0.00000000  0.26497601  0.25000000  1
  Br  Br7  1  0.00000000  0.73502403  0.75000000  1
