# generated using pymatgen
data_Cu2Re2GeS8
_symmetry_space_group_name_H-M   'P 1'
_cell_length_a   6.55495405
_cell_length_b   6.55495405
_cell_length_c   6.87943411
_cell_angle_alpha   104.17510223
_cell_angle_beta   106.29325867
_cell_angle_gamma   116.65069580
_symmetry_Int_Tables_number   1
_chemical_formula_structural   Cu2Re2GeS8
_chemical_formula_sum   'Cu2 Re2 Ge1 S8'
_cell_volume   228.67576570
_cell_formula_units_Z   1
loop_
 _symmetry_equiv_pos_site_id
 _symmetry_equiv_pos_as_xyz
  1  'x, y, z'
loop_
 _atom_site_type_symbol
 _atom_site_label
 _atom_site_symmetry_multiplicity
 _atom_site_fract_x
 _atom_site_fract_y
 _atom_site_fract_z
 _atom_site_occupancy
  Cu  Cu0  1  0.50000001  0.00000000  0.50000004  1
  Re  Re1  1  0.23676801  0.27350100  0.51026901  1
  Re  Re2  1  0.76323204  0.72649901  0.48973102  1
  Cu  Cu3  1  0.72809704  0.72809701  1.00000003  1
  Ge  Ge4  1  0.27190301  0.27190300  1.00000003  1
  S  S5  1  0.80237102  0.01752800  0.81989906  1
  S  S6  1  0.71125803  0.45518900  0.16644702  1
  S  S7  1  0.28874202  0.54481101  0.83355302  1
  S  S8  1  0.19762904  0.98247201  0.18010097  1
  S  S9  1  0.30655602  0.54762001  0.33070300  1
  S  S10  1  0.78308302  0.02414700  0.33070304  1
  S  S11  1  0.69344403  0.45238000  0.66929703  1
  S  S12  1  0.21691704  0.97585301  0.66929699  1
