# generated using pymatgen
data_Pr5Y7InCo7
_symmetry_space_group_name_H-M   'P 1'
_cell_length_a   8.61436367
_cell_length_b   8.61436367
_cell_length_c   8.61436367
_cell_angle_alpha   109.47122192
_cell_angle_beta   109.47122192
_cell_angle_gamma   109.47122192
_symmetry_Int_Tables_number   1
_chemical_formula_structural   Pr5Y7InCo7
_chemical_formula_sum   'Pr5 Y7 In1 Co7'
_cell_volume   492.09357582
_cell_formula_units_Z   1
loop_
 _symmetry_equiv_pos_site_id
 _symmetry_equiv_pos_as_xyz
  1  'x, y, z'
loop_
 _atom_site_type_symbol
 _atom_site_label
 _atom_site_symmetry_multiplicity
 _atom_site_fract_x
 _atom_site_fract_y
 _atom_site_fract_z
 _atom_site_occupancy
  Pr  Pr0  1  0.56525900  0.25000000  0.81525900  1
  Pr  Pr1  1  0.93474102  0.75000000  0.68474104  1
  Pr  Pr2  1  0.31525903  0.56525900  0.75000001  1
  Pr  Pr3  1  0.74999999  0.18474100  0.43474101  1
  Y  Y4  1  0.18474105  0.93474100  0.25000005  1
  Pr  Pr5  1  0.25000001  0.31525900  0.06525902  1
  Y  Y6  1  0.78613004  1.00000000  0.00000007  1
  Y  Y7  1  0.71387002  0.71387000  0.21387005  1
  Y  Y8  1  0.00000003  0.50000000  0.28613002  1
  Y  Y9  1  0.50000004  0.78613000  0.50000004  1
  Y  Y10  1  0.40901505  1.00000000  1.00000003  1
  Y  Y11  1  0.09098500  0.09098500  0.59098499  1
  In  In12  1  0.00000003  0.50000000  0.90901499  1
  Co  Co13  1  0.50000001  0.40901500  0.50000002  1
  Co  Co14  1  0.13218901  0.25000000  0.38218900  1
  Co  Co15  1  0.36781104  0.75000000  0.11781105  1
  Co  Co16  1  0.88218898  0.13218900  0.74999900  1
  Co  Co17  1  0.75000002  0.61781000  0.86781102  1
  Co  Co18  1  0.61781101  0.36781100  0.25000003  1
  Co  Co19  1  0.25000005  0.88218900  0.63218903  1
