# generated using pymatgen
data_MnAg5Se6
_symmetry_space_group_name_H-M   'P 1'
_cell_length_a   5.78091383
_cell_length_b   5.78962803
_cell_length_c   8.30216122
_cell_angle_alpha   90.00000000
_cell_angle_beta   90.00000000
_cell_angle_gamma   119.95022583
_symmetry_Int_Tables_number   1
_chemical_formula_structural   MnAg5Se6
_chemical_formula_sum   'Mn1 Ag5 Se6'
_cell_volume   240.76123226
_cell_formula_units_Z   1
loop_
 _symmetry_equiv_pos_site_id
 _symmetry_equiv_pos_as_xyz
  1  'x, y, z'
loop_
 _atom_site_type_symbol
 _atom_site_label
 _atom_site_symmetry_multiplicity
 _atom_site_fract_x
 _atom_site_fract_y
 _atom_site_fract_z
 _atom_site_occupancy
  Mn  Mn0  1  0.30462402  0.33880201  0.49999999  1
  Ag  Ag1  1  0.96582206  0.66119802  0.49999999  1
  Ag  Ag2  1  0.62811702  0.00000000  0.49999999  1
  Ag  Ag3  1  0.64870903  0.31576601  -0.00000000  1
  Ag  Ag4  1  0.33294304  0.68423402  -0.00000000  1
  Ag  Ag5  1  0.96450603  0.00000000  0.00000000  1
  Se  Se6  1  0.30019404  0.66704102  0.30817699  1
  Se  Se7  1  0.63315303  0.33295901  0.69182298  1
  Se  Se8  1  0.30019404  0.66704102  0.69182298  1
  Se  Se9  1  0.63315303  0.33295901  0.30817699  1
  Se  Se10  1  0.96584203  0.00000000  0.68324198  1
  Se  Se11  1  0.96584203  0.00000000  0.31675799  1
