# generated using pymatgen
data_Ti3FeS6
_symmetry_space_group_name_H-M   'P 1'
_cell_length_a   6.02665854
_cell_length_b   6.02665854
_cell_length_c   6.16586685
_cell_angle_alpha   60.74407959
_cell_angle_beta   60.74407959
_cell_angle_gamma   59.99999237
_symmetry_Int_Tables_number   1
_chemical_formula_structural   Ti3FeS6
_chemical_formula_sum   'Ti3 Fe1 S6'
_cell_volume   160.11286048
_cell_formula_units_Z   1
loop_
 _symmetry_equiv_pos_site_id
 _symmetry_equiv_pos_as_xyz
  1  'x, y, z'
loop_
 _atom_site_type_symbol
 _atom_site_label
 _atom_site_symmetry_multiplicity
 _atom_site_fract_x
 _atom_site_fract_y
 _atom_site_fract_z
 _atom_site_occupancy
  Ti  Ti0  1  0.77654403  0.77654402  0.67036796  1
  Ti  Ti1  1  0.27654401  0.27654401  0.17036799  1
  Ti  Ti2  1  0.99023204  0.99023203  0.02930398  1
  Fe  Fe3  1  0.49023202  0.49023201  0.52930397  1
  S  S4  1  0.59067902  0.14786300  0.34518698  1
  S  S5  1  0.64786302  0.09067900  0.84518697  1
  S  S6  1  0.09067901  0.41627101  0.84518697  1
  S  S7  1  0.14786301  0.91627103  0.34518698  1
  S  S8  1  0.91627104  0.59067902  0.34518697  1
  S  S9  1  0.41627102  0.64786302  0.84518696  1
