# generated using pymatgen
data_Pm
_symmetry_space_group_name_H-M   'P 1'
_cell_length_a   5.72744179
_cell_length_b   7.21955204
_cell_length_c   7.21955156
_cell_angle_alpha   120.00000000
_cell_angle_beta   90.00000000
_cell_angle_gamma   90.00000000
_symmetry_Int_Tables_number   1
_chemical_formula_structural   Pm
_chemical_formula_sum   Pm8
_cell_volume   258.53050190
_cell_formula_units_Z   8
loop_
 _symmetry_equiv_pos_site_id
 _symmetry_equiv_pos_as_xyz
  1  'x, y, z'
loop_
 _atom_site_type_symbol
 _atom_site_label
 _atom_site_symmetry_multiplicity
 _atom_site_fract_x
 _atom_site_fract_y
 _atom_site_fract_z
 _atom_site_occupancy
  Pm  Pm0  1  0.25000001  0.66666665  0.33333331  1
  Pm  Pm1  1  0.75000003  0.33333333  0.66666666  1
  Pm  Pm2  1  0.75000003  0.83456598  0.16543397  1
  Pm  Pm3  1  0.75000003  0.33086799  0.16543399  1
  Pm  Pm4  1  0.75000003  0.83456598  0.66913198  1
  Pm  Pm5  1  0.25000001  0.16543400  0.83456600  1
  Pm  Pm6  1  0.25000001  0.66913198  0.83456598  1
  Pm  Pm7  1  0.25000001  0.16543400  0.33086800  1
