# generated using pymatgen
data_SrSm2NbO5
_symmetry_space_group_name_H-M   'P 1'
_cell_length_a   5.74907923
_cell_length_b   5.74907923
_cell_length_c   8.32085514
_cell_angle_alpha   90.00000000
_cell_angle_beta   90.00000000
_cell_angle_gamma   90.00000000
_symmetry_Int_Tables_number   1
_chemical_formula_structural   SrSm2NbO5
_chemical_formula_sum   'Sr2 Sm4 Nb2 O10'
_cell_volume   275.02017157
_cell_formula_units_Z   2
loop_
 _symmetry_equiv_pos_site_id
 _symmetry_equiv_pos_as_xyz
  1  'x, y, z'
loop_
 _atom_site_type_symbol
 _atom_site_label
 _atom_site_symmetry_multiplicity
 _atom_site_fract_x
 _atom_site_fract_y
 _atom_site_fract_z
 _atom_site_occupancy
  Sr  Sr0  1  0.00000000  0.00000000  0.00000000  1
  Sr  Sr1  1  0.49999998  0.49999998  0.00000000  1
  Sm  Sm2  1  -0.00000000  0.49999998  0.24089900  1
  Sm  Sm3  1  0.49999998  0.00000000  0.75910099  1
  Sm  Sm4  1  0.00000000  0.00000000  0.49999999  1
  Sm  Sm5  1  0.49999998  0.49999998  0.49999999  1
  Nb  Nb6  1  0.49999998  0.00000000  0.25955700  1
  Nb  Nb7  1  -0.00000000  0.49999998  0.74044299  1
  O  O8  1  0.49999998  0.00000000  0.03534000  1
  O  O9  1  0.26885099  0.76885097  0.33111599  1
  O  O10  1  0.73114897  0.76885097  0.33111599  1
  O  O11  1  0.26885099  0.23114899  0.33111599  1
  O  O12  1  0.73114897  0.23114899  0.33111599  1
  O  O13  1  0.76885097  0.26885099  0.66888399  1
  O  O14  1  0.23114899  0.26885099  0.66888399  1
  O  O15  1  0.76885097  0.73114897  0.66888399  1
  O  O16  1  0.23114899  0.73114897  0.66888399  1
  O  O17  1  -0.00000000  0.49999998  0.96465998  1
