# generated using pymatgen
data_Li6MnCo3O10
_symmetry_space_group_name_H-M   'P 1'
_cell_length_a   5.03117180
_cell_length_b   5.12168074
_cell_length_c   7.73778296
_cell_angle_alpha   83.77569580
_cell_angle_beta   71.32247162
_cell_angle_gamma   71.05197906
_symmetry_Int_Tables_number   1
_chemical_formula_structural   Li6MnCo3O10
_chemical_formula_sum   'Li6 Mn1 Co3 O10'
_cell_volume   178.64975305
_cell_formula_units_Z   1
loop_
 _symmetry_equiv_pos_site_id
 _symmetry_equiv_pos_as_xyz
  1  'x, y, z'
loop_
 _atom_site_type_symbol
 _atom_site_label
 _atom_site_symmetry_multiplicity
 _atom_site_fract_x
 _atom_site_fract_y
 _atom_site_fract_z
 _atom_site_occupancy
  Li  Li0  1  0.10489199  0.50271000  0.78778398  1
  Li  Li1  1  0.70443701  0.49912300  0.59368199  1
  Li  Li2  1  0.29054199  0.49893400  0.40879099  1
  Li  Li3  1  0.89686002  0.50145400  0.20496600  1
  Li  Li4  1  0.50293300  0.49959800  0.00154700  1
  Li  Li5  1  0.19673301  0.00359800  0.60051599  1
  Mn  Mn6  1  0.00306697  0.99829700  0.99666897  1
  Co  Co7  1  0.60226899  0.99898500  0.79604798  1
  Co  Co8  1  0.80419803  0.01001500  0.40677800  1
  Co  Co9  1  0.40274698  0.99074100  0.21424899  1
  O  O10  1  0.75585100  0.77871200  0.98957798  1
  O  O11  1  0.34502999  0.77861800  0.81400698  1
  O  O12  1  0.91425701  0.76600000  0.61137099  1
  O  O13  1  0.55030100  0.76953900  0.38787999  1
  O  O14  1  0.13426198  0.77362000  0.19204099  1
  O  O15  1  0.47196301  0.23250200  0.60934499  1
  O  O16  1  0.04756299  0.23577000  0.39064999  1
  O  O17  1  0.67072002  0.22892000  0.18645900  1
  O  O18  1  0.25943200  0.21285000  0.99461398  1
  O  O19  1  0.84194402  0.22001400  0.81302599  1
