# generated using pymatgen
data_Bi3Rh
_symmetry_space_group_name_H-M   'P 1'
_cell_length_a   7.09884310
_cell_length_b   7.09884310
_cell_length_c   7.28694820
_cell_angle_alpha   90.00000000
_cell_angle_beta   90.00000000
_cell_angle_gamma   90.00000000
_symmetry_Int_Tables_number   1
_chemical_formula_structural   Bi3Rh
_chemical_formula_sum   'Bi12 Rh4'
_cell_volume   367.21535864
_cell_formula_units_Z   4
loop_
 _symmetry_equiv_pos_site_id
 _symmetry_equiv_pos_as_xyz
  1  'x, y, z'
loop_
 _atom_site_type_symbol
 _atom_site_label
 _atom_site_symmetry_multiplicity
 _atom_site_fract_x
 _atom_site_fract_y
 _atom_site_fract_z
 _atom_site_occupancy
  Bi  Bi0  1  0.00000000  0.49999999  0.49999999  1
  Bi  Bi1  1  0.49999999  0.00000000  0.00000000  1
  Bi  Bi2  1  0.49999999  0.00000000  0.49999999  1
  Bi  Bi3  1  0.00000000  0.49999999  -0.00000000  1
  Bi  Bi4  1  0.34815800  0.65184199  0.24400299  1
  Bi  Bi5  1  0.65184199  0.34815800  0.24400299  1
  Bi  Bi6  1  0.15184200  0.15184200  0.74400298  1
  Bi  Bi7  1  0.84815799  0.84815799  0.74400298  1
  Bi  Bi8  1  0.65184199  0.34815800  0.75599698  1
  Bi  Bi9  1  0.34815800  0.65184199  0.75599698  1
  Bi  Bi10  1  0.84815799  0.84815799  0.25599699  1
  Bi  Bi11  1  0.15184200  0.15184200  0.25599699  1
  Rh  Rh12  1  0.15489300  0.84510699  0.49999999  1
  Rh  Rh13  1  0.84510699  0.15489300  0.49999999  1
  Rh  Rh14  1  0.34510700  0.34510700  -0.00000000  1
  Rh  Rh15  1  0.65489299  0.65489299  0.00000000  1
