# generated using pymatgen
data_Hf3Co2Ge3
_symmetry_space_group_name_H-M   'P 1'
_cell_length_a   4.04154205
_cell_length_b   5.34826565
_cell_length_c   13.29105568
_cell_angle_alpha   90.00000000
_cell_angle_beta   90.00000000
_cell_angle_gamma   112.19974518
_symmetry_Int_Tables_number   1
_chemical_formula_structural   Hf3Co2Ge3
_chemical_formula_sum   'Hf6 Co4 Ge6'
_cell_volume   265.99325550
_cell_formula_units_Z   2
loop_
 _symmetry_equiv_pos_site_id
 _symmetry_equiv_pos_as_xyz
  1  'x, y, z'
loop_
 _atom_site_type_symbol
 _atom_site_label
 _atom_site_symmetry_multiplicity
 _atom_site_fract_x
 _atom_site_fract_y
 _atom_site_fract_z
 _atom_site_occupancy
  Hf  Hf0  1  0.42003398  0.84006803  0.11054900  1
  Hf  Hf1  1  0.57996599  0.15993201  0.88945102  1
  Hf  Hf2  1  0.57996599  0.15993201  0.61054901  1
  Hf  Hf3  1  0.42003398  0.84006803  0.38945101  1
  Hf  Hf4  1  0.14656899  0.29313801  0.25000001  1
  Hf  Hf5  1  0.85343098  0.70686202  0.75000002  1
  Co  Co6  1  0.70902699  0.41805401  0.09796500  1
  Co  Co7  1  0.29097299  0.58194602  0.90203502  1
  Co  Co8  1  0.29097299  0.58194602  0.59796501  1
  Co  Co9  1  0.70902699  0.41805401  0.40203501  1
  Ge  Ge10  1  0.12320400  0.24640801  0.03984600  1
  Ge  Ge11  1  0.87679598  0.75359203  0.96015402  1
  Ge  Ge12  1  0.87679598  0.75359203  0.53984601  1
  Ge  Ge13  1  0.12320400  0.24640801  0.46015401  1
  Ge  Ge14  1  0.84645298  0.69290602  0.25000001  1
  Ge  Ge15  1  0.15354699  0.30709401  0.75000002  1
