# generated using pymatgen
data_CuS2
_symmetry_space_group_name_H-M   'P 1'
_cell_length_a   5.98507786
_cell_length_b   5.99181986
_cell_length_c   6.08559656
_cell_angle_alpha   112.13292694
_cell_angle_beta   90.00000000
_cell_angle_gamma   90.00000000
_symmetry_Int_Tables_number   1
_chemical_formula_structural   CuS2
_chemical_formula_sum   'Cu4 S8'
_cell_volume   202.15715922
_cell_formula_units_Z   4
loop_
 _symmetry_equiv_pos_site_id
 _symmetry_equiv_pos_as_xyz
  1  'x, y, z'
loop_
 _atom_site_type_symbol
 _atom_site_label
 _atom_site_symmetry_multiplicity
 _atom_site_fract_x
 _atom_site_fract_y
 _atom_site_fract_z
 _atom_site_occupancy
  Cu  Cu0  1  0.37025401  0.14280300  0.38417602  1
  Cu  Cu1  1  0.87025402  0.85719703  0.11582402  1
  Cu  Cu2  1  0.62974601  0.85719703  0.61582404  1
  Cu  Cu3  1  0.12974600  0.14280300  0.88417603  1
  S  S4  1  0.01223600  0.26305401  0.29062502  1
  S  S5  1  0.51223601  0.73694602  0.20937502  1
  S  S6  1  0.98776402  0.73694602  0.70937504  1
  S  S7  1  0.48776401  0.26305401  0.79062503  1
  S  S8  1  0.62549801  0.33531901  0.19382401  1
  S  S9  1  0.12549800  0.66468102  0.30617603  1
  S  S10  1  0.37450201  0.66468102  0.80617604  1
  S  S11  1  0.87450202  0.33531901  0.69382403  1
