# generated using pymatgen
data_Ga5Co14Ni
_symmetry_space_group_name_H-M   'P 1'
_cell_length_a   3.61717200
_cell_length_b   3.61717200
_cell_length_c   17.89136314
_cell_angle_alpha   90.00000000
_cell_angle_beta   90.00000000
_cell_angle_gamma   90.00000000
_symmetry_Int_Tables_number   1
_chemical_formula_structural   Ga5Co14Ni
_chemical_formula_sum   'Ga5 Co14 Ni1'
_cell_volume   234.08940198
_cell_formula_units_Z   1
loop_
 _symmetry_equiv_pos_site_id
 _symmetry_equiv_pos_as_xyz
  1  'x, y, z'
loop_
 _atom_site_type_symbol
 _atom_site_label
 _atom_site_symmetry_multiplicity
 _atom_site_fract_x
 _atom_site_fract_y
 _atom_site_fract_z
 _atom_site_occupancy
  Ga  Ga0  1  0.00000000  0.00000000  0.20367201  1
  Ga  Ga1  1  0.00000000  0.00000000  0.39997302  1
  Ga  Ga2  1  0.00000000  0.00000000  0.60002703  1
  Ga  Ga3  1  0.00000000  0.00000000  0.79632804  1
  Ga  Ga4  1  0.50000000  0.50000000  0.00000000  1
  Co  Co5  1  0.50000000  0.50000000  0.20295001  1
  Co  Co6  1  0.50000000  0.50000000  0.40024502  1
  Co  Co7  1  0.50000000  0.50000000  0.59975503  1
  Co  Co8  1  0.50000000  0.50000000  0.79705004  1
  Co  Co9  1  0.50000000  0.00000000  0.10689101  1
  Co  Co10  1  0.50000000  0.00000000  0.30117501  1
  Co  Co11  1  0.50000000  0.00000000  0.50000002  1
  Co  Co12  1  0.50000000  0.00000000  0.69882503  1
  Co  Co13  1  0.50000000  0.00000000  0.89310904  1
  Co  Co14  1  0.00000000  0.50000000  0.10689101  1
  Co  Co15  1  0.00000000  0.50000000  0.30117501  1
  Co  Co16  1  0.00000000  0.50000000  0.50000002  1
  Ni  Ni17  1  0.00000000  0.50000000  0.69882503  1
  Co  Co18  1  0.00000000  0.50000000  0.89310904  1
  Co  Co19  1  0.00000000  0.00000000  0.00000000  1
