# generated using pymatgen
data_KThO3
_symmetry_space_group_name_H-M   'P 1'
_cell_length_a   6.25906944
_cell_length_b   6.25906944
_cell_length_c   6.28872299
_cell_angle_alpha   90.31264496
_cell_angle_beta   119.61182404
_cell_angle_gamma   119.87141418
_symmetry_Int_Tables_number   1
_chemical_formula_structural   KThO3
_chemical_formula_sum   'K2 Th2 O6'
_cell_volume   175.08850938
_cell_formula_units_Z   2
loop_
 _symmetry_equiv_pos_site_id
 _symmetry_equiv_pos_as_xyz
  1  'x, y, z'
loop_
 _atom_site_type_symbol
 _atom_site_label
 _atom_site_symmetry_multiplicity
 _atom_site_fract_x
 _atom_site_fract_y
 _atom_site_fract_z
 _atom_site_occupancy
  K  K0  1  0.49331296  0.24842398  0.74173696  1
  K  K1  1  0.50668692  0.75157595  0.25826297  1
  Th  Th2  1  0.00000000  0.00000000  0.00000000  1
  Th  Th3  1  -0.00000004  0.49999997  0.49999998  1
  O  O4  1  0.93051394  0.26264398  0.19315796  1
  O  O5  1  0.06948593  0.73735595  0.80684196  1
  O  O6  1  0.52355696  0.29810698  0.30137097  1
  O  O7  1  0.47644292  0.70189296  0.69862896  1
  O  O8  1  0.99673595  0.22218599  0.69862894  1
  O  O9  1  0.00326393  0.77781395  0.30137098  1
