# generated using pymatgen
data_UFe2
_symmetry_space_group_name_H-M   'P 1'
_cell_length_a   5.10912228
_cell_length_b   5.10912228
_cell_length_c   8.83991146
_cell_angle_alpha   73.20307922
_cell_angle_beta   73.20307922
_cell_angle_gamma   60.00000000
_symmetry_Int_Tables_number   1
_chemical_formula_structural   UFe2
_chemical_formula_sum   'U4 Fe8'
_cell_volume   188.38115026
_cell_formula_units_Z   4
loop_
 _symmetry_equiv_pos_site_id
 _symmetry_equiv_pos_as_xyz
  1  'x, y, z'
loop_
 _atom_site_type_symbol
 _atom_site_label
 _atom_site_symmetry_multiplicity
 _atom_site_fract_x
 _atom_site_fract_y
 _atom_site_fract_z
 _atom_site_occupancy
  U  U0  1  0.12506699  0.12506800  0.62479798  1
  U  U1  1  0.62500897  0.62500899  0.12497305  1
  U  U2  1  0.99983295  0.99983199  0.00050208  1
  U  U3  1  0.50009698  0.50009600  0.49971002  1
  Fe  Fe4  1  0.56243899  0.06159600  0.81352499  1
  Fe  Fe5  1  0.06239398  0.56367500  0.31153701  1
  Fe  Fe6  1  0.06159598  0.56243900  0.81352499  1
  Fe  Fe7  1  0.56367499  0.06239400  0.31153701  1
  Fe  Fe8  1  0.81273096  0.81272999  0.56180804  1
  Fe  Fe9  1  0.31232598  0.31232600  0.06302202  1
  Fe  Fe10  1  0.56243897  0.56244000  0.81352501  1
  Fe  Fe11  1  0.06239400  0.06239400  0.31153699  1
