# generated using pymatgen
data_Er3(Ni2Sn)2
_symmetry_space_group_name_H-M   'P 1'
_cell_length_a   3.84055495
_cell_length_b   7.85407782
_cell_length_c   7.85407782
_cell_angle_alpha   120.00000000
_cell_angle_beta   90.00000000
_cell_angle_gamma   90.00000000
_symmetry_Int_Tables_number   1
_chemical_formula_structural   Er3(Ni2Sn)2
_chemical_formula_sum   'Er3 Ni4 Sn2'
_cell_volume   205.17054635
_cell_formula_units_Z   1
loop_
 _symmetry_equiv_pos_site_id
 _symmetry_equiv_pos_as_xyz
  1  'x, y, z'
loop_
 _atom_site_type_symbol
 _atom_site_label
 _atom_site_symmetry_multiplicity
 _atom_site_fract_x
 _atom_site_fract_y
 _atom_site_fract_z
 _atom_site_occupancy
  Er  Er0  1  0.50000001  0.60568201  -0.00000000  1
  Er  Er1  1  0.50000001  0.39431801  0.39431800  1
  Er  Er2  1  0.50000001  0.00000000  0.60568201  1
  Ni  Ni3  1  -0.00000000  0.23749600  -0.00000000  1
  Ni  Ni4  1  -0.00000000  0.76250402  0.76250401  1
  Ni  Ni5  1  0.00000000  0.00000000  0.23749600  1
  Sn  Sn6  1  0.50000001  0.00000000  -0.00000000  1
  Ni  Ni7  1  -0.00000000  0.33333334  0.66666668  1
  Sn  Sn8  1  -0.00000000  0.66666668  0.33333334  1
