# generated using pymatgen
data_MnNi
_symmetry_space_group_name_H-M   'P 1'
_cell_length_a   3.09570789
_cell_length_b   3.16478992
_cell_length_c   4.55342531
_cell_angle_alpha   69.66445160
_cell_angle_beta   90.00000000
_cell_angle_gamma   90.00000000
_symmetry_Int_Tables_number   1
_chemical_formula_structural   MnNi
_chemical_formula_sum   'Mn2 Ni2'
_cell_volume   41.83066044
_cell_formula_units_Z   2
loop_
 _symmetry_equiv_pos_site_id
 _symmetry_equiv_pos_as_xyz
  1  'x, y, z'
loop_
 _atom_site_type_symbol
 _atom_site_label
 _atom_site_symmetry_multiplicity
 _atom_site_fract_x
 _atom_site_fract_y
 _atom_site_fract_z
 _atom_site_occupancy
  Mn  Mn0  1  0.25000001  0.55946601  0.88106797  1
  Mn  Mn1  1  0.75000003  0.44053401  0.11893201  1
  Ni  Ni2  1  0.25000001  0.85568701  0.28862601  1
  Ni  Ni3  1  0.75000003  0.14431300  0.71137397  1
