# generated using pymatgen
data_Hf2TaN3
_symmetry_space_group_name_H-M   'P 1'
_cell_length_a   5.67173576
_cell_length_b   5.73963785
_cell_length_c   5.76262331
_cell_angle_alpha   112.07751465
_cell_angle_beta   90.00000000
_cell_angle_gamma   90.00000000
_symmetry_Int_Tables_number   1
_chemical_formula_structural   Hf2TaN3
_chemical_formula_sum   'Hf4 Ta2 N6'
_cell_volume   173.83960411
_cell_formula_units_Z   2
loop_
 _symmetry_equiv_pos_site_id
 _symmetry_equiv_pos_as_xyz
  1  'x, y, z'
loop_
 _atom_site_type_symbol
 _atom_site_label
 _atom_site_symmetry_multiplicity
 _atom_site_fract_x
 _atom_site_fract_y
 _atom_site_fract_z
 _atom_site_occupancy
  Hf  Hf0  1  0.00882700  0.28816301  0.29690201  1
  Hf  Hf1  1  0.50882702  0.71183703  0.20309803  1
  Hf  Hf2  1  0.99117304  0.71183703  0.70309803  1
  Hf  Hf3  1  0.49117302  0.28816301  0.79690201  1
  Ta  Ta4  1  0.86835104  0.14622101  0.87131101  1
  Ta  Ta5  1  0.36835102  0.85377903  0.62868904  1
  N  N6  1  0.13164901  0.85377903  0.12868903  1
  N  N7  1  0.63164903  0.14622101  0.37131101  1
  N  N8  1  0.86702104  0.65206803  0.32326603  1
  N  N9  1  0.36702102  0.34793201  0.17673401  1
  N  N10  1  0.13297901  0.34793201  0.67673402  1
  N  N11  1  0.63297903  0.65206803  0.82326603  1
