# generated using pymatgen
data_Sr4Fe3CuO10
_symmetry_space_group_name_H-M   'P 1'
_cell_length_a   5.71600580
_cell_length_b   5.71600723
_cell_length_c   7.37558317
_cell_angle_alpha   90.00007629
_cell_angle_beta   89.99995422
_cell_angle_gamma   89.99363708
_symmetry_Int_Tables_number   1
_chemical_formula_structural   Sr4Fe3CuO10
_chemical_formula_sum   'Sr4 Fe3 Cu1 O10'
_cell_volume   240.98043982
_cell_formula_units_Z   1
loop_
 _symmetry_equiv_pos_site_id
 _symmetry_equiv_pos_as_xyz
  1  'x, y, z'
loop_
 _atom_site_type_symbol
 _atom_site_label
 _atom_site_symmetry_multiplicity
 _atom_site_fract_x
 _atom_site_fract_y
 _atom_site_fract_z
 _atom_site_occupancy
  Sr  Sr0  1  0.00000600  0.00000600  -0.00000000  1
  Sr  Sr1  1  0.00000600  0.00000600  0.50000299  1
  Sr  Sr2  1  0.50000102  0.50001100  0.00000100  1
  Sr  Sr3  1  0.50000202  0.50001100  0.50000298  1
  Fe  Fe4  1  0.49997004  0.99994901  0.24997798  1
  Fe  Fe5  1  0.00003302  0.50001100  0.24999298  1
  Fe  Fe6  1  0.49992904  0.99988301  0.74998496  1
  Cu  Cu7  1  0.00001002  0.50003000  0.75001897  1
  O  O8  1  0.00000302  0.50000800  0.00001198  1
  O  O9  1  0.00000302  0.50000800  0.49999797  1
  O  O10  1  0.26383401  0.23618000  0.74999998  1
  O  O11  1  0.26383401  0.23617900  0.24999999  1
  O  O12  1  0.73617503  0.76383801  0.75000198  1
  O  O13  1  0.73617403  0.76383901  0.25000199  1
  O  O14  1  0.26387003  0.76387501  0.75000097  1
  O  O15  1  0.26386703  0.76387201  0.25000198  1
  O  O16  1  0.73614202  0.23614700  0.75000099  1
  O  O17  1  0.73614202  0.23614700  0.25000200  1
