# generated using pymatgen
data_CeUCo4
_symmetry_space_group_name_H-M   'P 1'
_cell_length_a   5.23809576
_cell_length_b   5.23809576
_cell_length_c   5.23809576
_cell_angle_alpha   60.00000000
_cell_angle_beta   60.00000000
_cell_angle_gamma   60.00000000
_symmetry_Int_Tables_number   1
_chemical_formula_structural   CeUCo4
_chemical_formula_sum   'Ce1 U1 Co4'
_cell_volume   101.62611028
_cell_formula_units_Z   1
loop_
 _symmetry_equiv_pos_site_id
 _symmetry_equiv_pos_as_xyz
  1  'x, y, z'
loop_
 _atom_site_type_symbol
 _atom_site_label
 _atom_site_symmetry_multiplicity
 _atom_site_fract_x
 _atom_site_fract_y
 _atom_site_fract_z
 _atom_site_occupancy
  Ce  Ce0  1  0.74999999  0.74999999  0.74999999  1
  U  U1  1  0.00000000  0.00000000  0.00000000  1
  Co  Co2  1  0.37496400  0.87510999  0.37496300  1
  Co  Co3  1  0.37496400  0.37496300  0.37496300  1
  Co  Co4  1  0.37496400  0.37496300  0.87510999  1
  Co  Co5  1  0.87511099  0.37496300  0.37496300  1
