# generated using pymatgen
data_U3SnGe6
_symmetry_space_group_name_H-M   'P 1'
_cell_length_a   8.49374485
_cell_length_b   8.49374485
_cell_length_c   8.49374485
_cell_angle_alpha   109.47122192
_cell_angle_beta   109.47122192
_cell_angle_gamma   109.47122192
_symmetry_Int_Tables_number   1
_chemical_formula_structural   U3SnGe6
_chemical_formula_sum   'U6 Sn2 Ge12'
_cell_volume   471.71069258
_cell_formula_units_Z   2
loop_
 _symmetry_equiv_pos_site_id
 _symmetry_equiv_pos_as_xyz
  1  'x, y, z'
loop_
 _atom_site_type_symbol
 _atom_site_label
 _atom_site_symmetry_multiplicity
 _atom_site_fract_x
 _atom_site_fract_y
 _atom_site_fract_z
 _atom_site_occupancy
  U  U0  1  0.75000007  0.62500004  0.87500008  1
  U  U1  1  0.25000006  0.87500006  0.62500007  1
  U  U2  1  0.87500004  0.12500001  0.75000005  1
  U  U3  1  0.62500005  0.37500002  0.25000004  1
  U  U4  1  0.12500002  0.25000002  0.37500003  1
  U  U5  1  0.37500006  0.75000005  0.12500005  1
  Ge  Ge6  1  0.75000003  0.12500001  0.37500003  1
  Ge  Ge7  1  0.25000003  0.37500002  0.12500003  1
  Sn  Sn8  1  0.37500005  0.62500004  0.75000006  1
  Sn  Sn9  1  0.12500006  0.87500006  0.25000006  1
  Ge  Ge10  1  0.62500004  0.25000002  0.87500005  1
  Ge  Ge11  1  0.87500008  0.75000005  0.62500008  1
  Ge  Ge12  1  0.65220609  1.00000007  0.00000007  1
  Ge  Ge13  1  0.00000003  0.50000003  0.15220603  1
  Ge  Ge14  1  0.50000006  0.65220604  0.50000006  1
  Ge  Ge15  1  0.15220607  1.00000007  0.00000006  1
  Ge  Ge16  1  0.84779408  0.84779406  0.34779408  1
  Ge  Ge17  1  0.00000003  0.50000003  0.65220604  1
  Ge  Ge18  1  0.34779403  0.34779402  0.84779405  1
  Ge  Ge19  1  0.50000003  0.15220601  0.50000003  1
