# generated using pymatgen
data_UNiGe2
_symmetry_space_group_name_H-M   'P 1'
_cell_length_a   4.06555223
_cell_length_b   4.11945581
_cell_length_c   8.59039497
_cell_angle_alpha   90.00000000
_cell_angle_beta   103.68793488
_cell_angle_gamma   90.00000000
_symmetry_Int_Tables_number   1
_chemical_formula_structural   UNiGe2
_chemical_formula_sum   'U2 Ni2 Ge4'
_cell_volume   139.78467881
_cell_formula_units_Z   2
loop_
 _symmetry_equiv_pos_site_id
 _symmetry_equiv_pos_as_xyz
  1  'x, y, z'
loop_
 _atom_site_type_symbol
 _atom_site_label
 _atom_site_symmetry_multiplicity
 _atom_site_fract_x
 _atom_site_fract_y
 _atom_site_fract_z
 _atom_site_occupancy
  U  U0  1  0.10980199  0.25000001  0.21960400  1
  U  U1  1  0.89019794  0.75000003  0.78039600  1
  Ni  Ni2  1  0.32164098  0.25000001  0.64328201  1
  Ni  Ni3  1  0.67835896  0.75000003  0.35671800  1
  Ge  Ge4  1  0.74862295  0.25000001  0.49724600  1
  Ge  Ge5  1  0.25137698  0.75000003  0.50275400  1
  Ge  Ge6  1  0.45602297  0.25000001  0.91204601  1
  Ge  Ge7  1  0.54397696  0.75000003  0.08795399  1
