# generated using pymatgen
data_NbRu
_symmetry_space_group_name_H-M   'P 1'
_cell_length_a   7.61908197
_cell_length_b   7.61908197
_cell_length_c   7.61908197
_cell_angle_alpha   109.47122192
_cell_angle_beta   109.47122192
_cell_angle_gamma   109.47122192
_symmetry_Int_Tables_number   1
_chemical_formula_structural   NbRu
_chemical_formula_sum   'Nb10 Ru10'
_cell_volume   340.47562603
_cell_formula_units_Z   10
loop_
 _symmetry_equiv_pos_site_id
 _symmetry_equiv_pos_as_xyz
  1  'x, y, z'
loop_
 _atom_site_type_symbol
 _atom_site_label
 _atom_site_symmetry_multiplicity
 _atom_site_fract_x
 _atom_site_fract_y
 _atom_site_fract_z
 _atom_site_occupancy
  Nb  Nb0  1  0.50000005  0.75000002  0.25000005  1
  Nb  Nb1  1  0.25000003  0.50000002  0.75000003  1
  Nb  Nb2  1  0.75000003  0.50000002  0.25000004  1
  Nb  Nb3  1  0.25000005  0.75000002  0.50000004  1
  Nb  Nb4  1  0.75000002  0.25000001  0.50000003  1
  Nb  Nb5  1  0.50000002  0.25000001  0.75000002  1
  Nb  Nb6  1  0.66536506  1.00000003  1.00000006  1
  Nb  Nb7  1  0.66536504  0.66536502  0.66536505  1
  Nb  Nb8  1  0.00000000  0.00000000  0.33463500  1
  Nb  Nb9  1  1.00000002  0.33463501  1.00000004  1
  Ru  Ru10  1  0.00000000  0.00000000  0.66536500  1
  Ru  Ru11  1  1.00000004  0.66536502  0.00000006  1
  Ru  Ru12  1  0.33463502  0.33463501  0.33463502  1
  Ru  Ru13  1  0.33463506  1.00000003  1.00000006  1
  Ru  Ru14  1  0.00000002  0.33974801  0.33974802  1
  Ru  Ru15  1  0.66025206  1.00000003  0.66025207  1
  Ru  Ru16  1  0.33974806  1.00000003  0.33974806  1
  Ru  Ru17  1  0.33974802  0.33974801  1.00000002  1
  Ru  Ru18  1  0.66025204  0.66025202  1.00000005  1
  Ru  Ru19  1  1.00000004  0.66025202  0.66025206  1
