# generated using pymatgen
data_Ce3Sn5
_symmetry_space_group_name_H-M   'P 1'
_cell_length_a   6.38539505
_cell_length_b   6.38539457
_cell_length_c   10.34061432
_cell_angle_alpha   90.00000000
_cell_angle_beta   90.00000000
_cell_angle_gamma   102.10919952
_symmetry_Int_Tables_number   1
_chemical_formula_structural   Ce3Sn5
_chemical_formula_sum   'Ce6 Sn10'
_cell_volume   412.23938617
_cell_formula_units_Z   2
loop_
 _symmetry_equiv_pos_site_id
 _symmetry_equiv_pos_as_xyz
  1  'x, y, z'
loop_
 _atom_site_type_symbol
 _atom_site_label
 _atom_site_symmetry_multiplicity
 _atom_site_fract_x
 _atom_site_fract_y
 _atom_site_fract_z
 _atom_site_occupancy
  Ce  Ce0  1  0.62853201  0.62853200  0.74999998  1
  Ce  Ce1  1  0.37146801  0.37146800  0.24999999  1
  Ce  Ce2  1  0.79690102  0.20309900  0.49999998  1
  Ce  Ce3  1  0.79690102  0.20309900  0.99999997  1
  Ce  Ce4  1  0.20309900  0.79690100  0.49999998  1
  Ce  Ce5  1  0.20309900  0.79690100  -0.00000000  1
  Sn  Sn6  1  0.01282700  0.01282700  0.74999998  1
  Sn  Sn7  1  0.98717302  0.98717300  0.24999999  1
  Sn  Sn8  1  0.31049601  0.31049600  0.95349297  1
  Sn  Sn9  1  0.68950401  0.68950400  0.04650700  1
  Sn  Sn10  1  0.31049601  0.31049600  0.54650698  1
  Sn  Sn11  1  0.68950401  0.68950400  0.45349299  1
  Sn  Sn12  1  0.06931000  0.50760300  0.74999998  1
  Sn  Sn13  1  0.49239701  0.93069000  0.24999999  1
  Sn  Sn14  1  0.93069002  0.49239700  0.24999999  1
  Sn  Sn15  1  0.50760301  0.06931000  0.74999998  1
