# generated using pymatgen
data_KFeO2
_symmetry_space_group_name_H-M   'P 1'
_cell_length_a   5.93428993
_cell_length_b   6.41436291
_cell_length_c   7.95801592
_cell_angle_alpha   87.23169708
_cell_angle_beta   84.00689697
_cell_angle_gamma   62.44639587
_symmetry_Int_Tables_number   1
_chemical_formula_structural   KFeO2
_chemical_formula_sum   'K4 Fe4 O8'
_cell_volume   267.09398142
_cell_formula_units_Z   4
loop_
 _symmetry_equiv_pos_site_id
 _symmetry_equiv_pos_as_xyz
  1  'x, y, z'
loop_
 _atom_site_type_symbol
 _atom_site_label
 _atom_site_symmetry_multiplicity
 _atom_site_fract_x
 _atom_site_fract_y
 _atom_site_fract_z
 _atom_site_occupancy
  K  K0  1  0.67532001  0.17973000  0.43110996  1
  K  K1  1  0.14495000  0.17973000  0.06888999  1
  K  K2  1  0.32468001  0.82027001  0.56888996  1
  K  K3  1  0.85505002  0.82027001  0.93110993  1
  Fe  Fe4  1  0.55886601  0.39736301  0.86047895  1
  Fe  Fe5  1  0.44113401  0.60263701  0.13952097  1
  Fe  Fe6  1  0.95622902  0.60263701  0.36047894  1
  Fe  Fe7  1  0.04377100  0.39736301  0.63952098  1
  O  O8  1  0.88613002  0.22774000  0.74999994  1
  O  O9  1  0.68873802  0.62252401  0.24999996  1
  O  O10  1  0.11387001  0.77226001  0.24999998  1
  O  O11  1  0.31126201  0.37747601  0.74999996  1
  O  O12  1  0.84561202  0.72252701  0.58381694  1
  O  O13  1  0.43186101  0.72252701  0.91618295  1
  O  O14  1  0.15438801  0.27747300  0.41618298  1
  O  O15  1  0.56813901  0.27747300  0.08381697  1
