# generated using pymatgen
data_Ba2BiSbO6
_symmetry_space_group_name_H-M   'P 1'
_cell_length_a   5.80029869
_cell_length_b   5.80682135
_cell_length_c   10.05277920
_cell_angle_alpha   73.30718994
_cell_angle_beta   73.25165558
_cell_angle_gamma   60.06592941
_symmetry_Int_Tables_number   1
_chemical_formula_structural   Ba2BiSbO6
_chemical_formula_sum   'Ba4 Bi2 Sb2 O12'
_cell_volume   276.74609957
_cell_formula_units_Z   2
loop_
 _symmetry_equiv_pos_site_id
 _symmetry_equiv_pos_as_xyz
  1  'x, y, z'
loop_
 _atom_site_type_symbol
 _atom_site_label
 _atom_site_symmetry_multiplicity
 _atom_site_fract_x
 _atom_site_fract_y
 _atom_site_fract_z
 _atom_site_occupancy
  Ba  Ba0  1  0.25015800  0.25018300  0.24994002  1
  Ba  Ba1  1  0.74999699  0.74963899  0.75009806  1
  Ba  Ba2  1  0.37443600  0.37515399  0.87470105  1
  Ba  Ba3  1  0.87491599  0.87485399  0.37526306  1
  Bi  Bi4  1  0.12555600  0.12318700  0.62529803  1
  Bi  Bi5  1  0.62603099  0.62554699  0.12514503  1
  Sb  Sb6  1  0.99966302  0.00045700  0.00010602  1
  Sb  Sb7  1  0.50035600  0.49952999  0.49987904  1
  O  O8  1  0.35610098  0.88173999  0.88109106  1
  O  O9  1  0.85702101  0.38032099  0.38119304  1
  O  O10  1  0.61885401  0.14377300  0.61893204  1
  O  O11  1  0.11752898  0.64458399  0.11882302  1
  O  O12  1  0.88001999  0.88161899  0.88142908  1
  O  O13  1  0.38090900  0.38067299  0.38135003  1
  O  O14  1  0.14385999  0.61864299  0.61894704  1
  O  O15  1  0.64302601  0.11964000  0.11883402  1
  O  O16  1  0.88145501  0.35618099  0.88104306  1
  O  O17  1  0.38179998  0.85539099  0.38092905  1
  O  O18  1  0.61963899  0.61921799  0.61826205  1
  O  O19  1  0.11867300  0.11966500  0.11873601  1
