# generated using pymatgen
data_TmSiRh
_symmetry_space_group_name_H-M   'P 1'
_cell_length_a   4.34137583
_cell_length_b   7.00278521
_cell_length_c   7.10908604
_cell_angle_alpha   90.00000000
_cell_angle_beta   90.00000000
_cell_angle_gamma   90.00000000
_symmetry_Int_Tables_number   1
_chemical_formula_structural   TmSiRh
_chemical_formula_sum   'Tm4 Si4 Rh4'
_cell_volume   216.12846035
_cell_formula_units_Z   4
loop_
 _symmetry_equiv_pos_site_id
 _symmetry_equiv_pos_as_xyz
  1  'x, y, z'
loop_
 _atom_site_type_symbol
 _atom_site_label
 _atom_site_symmetry_multiplicity
 _atom_site_fract_x
 _atom_site_fract_y
 _atom_site_fract_z
 _atom_site_occupancy
  Tm  Tm0  1  0.25000001  0.98598397  0.81337500  1
  Tm  Tm1  1  0.75000003  0.01401600  0.18662500  1
  Tm  Tm2  1  0.25000001  0.48598399  0.68662500  1
  Tm  Tm3  1  0.75000003  0.51401598  0.31337500  1
  Si  Si4  1  0.25000001  0.30425099  0.10612000  1
  Si  Si5  1  0.75000003  0.69574898  0.89388000  1
  Si  Si6  1  0.25000001  0.80425098  0.39388000  1
  Si  Si7  1  0.75000003  0.19574899  0.60612000  1
  Rh  Rh8  1  0.75000003  0.84704198  0.56733400  1
  Rh  Rh9  1  0.25000001  0.15295800  0.43266600  1
  Rh  Rh10  1  0.75000003  0.34704199  0.93266600  1
  Rh  Rh11  1  0.25000001  0.65295798  0.06733400  1
