# generated using pymatgen
data_Cu3Ag4HgS7
_symmetry_space_group_name_H-M   'P 1'
_cell_length_a   6.72055101
_cell_length_b   6.72055101
_cell_length_c   7.23144341
_cell_angle_alpha   62.31077194
_cell_angle_beta   62.31077194
_cell_angle_gamma   59.99999237
_symmetry_Int_Tables_number   1
_chemical_formula_structural   Cu3Ag4HgS7
_chemical_formula_sum   'Cu3 Ag4 Hg1 S7'
_cell_volume   238.69125453
_cell_formula_units_Z   1
loop_
 _symmetry_equiv_pos_site_id
 _symmetry_equiv_pos_as_xyz
  1  'x, y, z'
loop_
 _atom_site_type_symbol
 _atom_site_label
 _atom_site_symmetry_multiplicity
 _atom_site_fract_x
 _atom_site_fract_y
 _atom_site_fract_z
 _atom_site_occupancy
  Cu  Cu0  1  0.89720297  0.51664398  0.35862499  1
  Ag  Ag1  1  0.48335598  0.77247197  0.64137499  1
  Ag  Ag2  1  0.77247197  0.10279700  0.64137499  1
  Ag  Ag3  1  0.65856498  0.65856498  0.02430500  1
  Ag  Ag4  1  0.34143499  0.34143499  0.97569498  1
  Cu  Cu5  1  0.22752799  0.89720297  0.35862499  1
  Cu  Cu6  1  0.51664398  0.22752799  0.35862499  1
  Hg  Hg7  1  0.10279700  0.48335598  0.64137499  1
  S  S8  1  0.00000000  0.00000000  0.00000000  1
  S  S9  1  0.76420197  0.37807999  0.76933099  1
  S  S10  1  0.62191998  0.91161197  0.23067000  1
  S  S11  1  0.91161297  0.23579799  0.23066900  1
  S  S12  1  0.08838800  0.76420197  0.76932999  1
  S  S13  1  0.37807999  0.08838700  0.76933099  1
  S  S14  1  0.23579799  0.62191998  0.23066900  1
