# generated using pymatgen
data_SrTi(SiO3)2
_symmetry_space_group_name_H-M   'P 1'
_cell_length_a   5.51303482
_cell_length_b   6.88258171
_cell_length_c   6.88258171
_cell_angle_alpha   82.89265442
_cell_angle_beta   78.43994141
_cell_angle_gamma   78.43994141
_symmetry_Int_Tables_number   1
_chemical_formula_structural   SrTi(SiO3)2
_chemical_formula_sum   'Sr2 Ti2 Si4 O12'
_cell_volume   249.71278351
_cell_formula_units_Z   2
loop_
 _symmetry_equiv_pos_site_id
 _symmetry_equiv_pos_as_xyz
  1  'x, y, z'
loop_
 _atom_site_type_symbol
 _atom_site_label
 _atom_site_symmetry_multiplicity
 _atom_site_fract_x
 _atom_site_fract_y
 _atom_site_fract_z
 _atom_site_occupancy
  Sr  Sr0  1  0.24999998  0.69687303  0.30312700  1
  Sr  Sr1  1  0.74999998  0.30312701  0.69687301  1
  Ti  Ti2  1  0.24999999  0.09341100  0.90658903  1
  Ti  Ti3  1  0.74999997  0.90658903  0.09341099  1
  Si  Si4  1  0.22554498  0.61758102  0.81381902  1
  Si  Si5  1  0.27445499  0.18618101  0.38241901  1
  Si  Si6  1  0.77445498  0.38241901  0.18618099  1
  Si  Si7  1  0.72554497  0.81381903  0.61758100  1
  O  O8  1  0.48366098  0.67137703  0.61160601  1
  O  O9  1  0.01633899  0.38839401  0.32862301  1
  O  O10  1  0.51633899  0.32862301  0.38839400  1
  O  O11  1  0.98366097  0.61160602  0.67137700  1
  O  O12  1  0.84518197  0.89681603  0.37568099  1
  O  O13  1  0.65481798  0.62431902  0.10318399  1
  O  O14  1  0.15481800  0.10318400  0.62431902  1
  O  O15  1  0.34518199  0.37568101  0.89681602  1
  O  O16  1  0.13423898  0.79886303  0.98420203  1
  O  O17  1  0.36576099  0.01579800  0.20113700  1
  O  O18  1  0.86576098  0.20113701  0.01579798  1
  O  O19  1  0.63423897  0.98420204  0.79886301  1
