# generated using pymatgen
data_EuTiClO3
_symmetry_space_group_name_H-M   'P 1'
_cell_length_a   3.92857409
_cell_length_b   5.30831575
_cell_length_c   10.26420498
_cell_angle_alpha   75.38858032
_cell_angle_beta   78.96710205
_cell_angle_gamma   68.28193665
_symmetry_Int_Tables_number   1
_chemical_formula_structural   EuTiClO3
_chemical_formula_sum   'Eu2 Ti2 Cl2 O6'
_cell_volume   191.27803334
_cell_formula_units_Z   2
loop_
 _symmetry_equiv_pos_site_id
 _symmetry_equiv_pos_as_xyz
  1  'x, y, z'
loop_
 _atom_site_type_symbol
 _atom_site_label
 _atom_site_symmetry_multiplicity
 _atom_site_fract_x
 _atom_site_fract_y
 _atom_site_fract_z
 _atom_site_occupancy
  Eu  Eu0  1  0.77935097  0.23941000  0.20188798  1
  Eu  Eu1  1  0.22064895  0.76059000  0.79811198  1
  Ti  Ti2  1  0.61917498  0.19702300  0.56462698  1
  Ti  Ti3  1  0.38082494  0.80297700  0.43537297  1
  Cl  Cl4  1  0.11189995  0.67897600  0.09722398  1
  Cl  Cl5  1  0.88809997  0.32102400  0.90277598  1
  O  O6  1  0.64938393  0.96323500  0.73799696  1
  O  O7  1  0.57640396  0.46650900  0.38068298  1
  O  O8  1  0.35061599  0.03676500  0.26200299  1
  O  O9  1  0.42359596  0.53349100  0.61931698  1
  O  O10  1  0.16688399  0.10658700  0.55964499  1
  O  O11  1  0.83311593  0.89341300  0.44035496  1
