# generated using pymatgen
data_CaVO3
_symmetry_space_group_name_H-M   'P 1'
_cell_length_a   5.46677208
_cell_length_b   5.48540401
_cell_length_c   7.74529219
_cell_angle_alpha   90.00000000
_cell_angle_beta   90.00000000
_cell_angle_gamma   90.00000000
_symmetry_Int_Tables_number   1
_chemical_formula_structural   CaVO3
_chemical_formula_sum   'Ca4 V4 O12'
_cell_volume   232.26158938
_cell_formula_units_Z   4
loop_
 _symmetry_equiv_pos_site_id
 _symmetry_equiv_pos_as_xyz
  1  'x, y, z'
loop_
 _atom_site_type_symbol
 _atom_site_label
 _atom_site_symmetry_multiplicity
 _atom_site_fract_x
 _atom_site_fract_y
 _atom_site_fract_z
 _atom_site_occupancy
  Ca  Ca0  1  0.03745300  0.99157000  0.74999998  1
  Ca  Ca1  1  0.53745299  0.50843000  0.74999998  1
  Ca  Ca2  1  0.46254699  0.49157000  0.24999999  1
  Ca  Ca3  1  0.96254699  0.00843000  0.24999999  1
  V  V4  1  -0.00000000  0.50000000  0.49999999  1
  V  V5  1  0.49999999  0.00000000  0.00000000  1
  V  V6  1  0.49999999  0.00000000  0.49999999  1
  V  V7  1  -0.00000000  0.50000000  -0.00000000  1
  O  O8  1  0.71899999  0.27972000  0.45883899  1
  O  O9  1  0.21900000  0.22028000  0.04116100  1
  O  O10  1  0.78099999  0.77972000  0.54116099  1
  O  O11  1  0.28100000  0.72028000  0.95883898  1
  O  O12  1  0.28100000  0.72028000  0.54116099  1
  O  O13  1  0.78099999  0.77972000  0.95883898  1
  O  O14  1  0.21900000  0.22028000  0.45883899  1
  O  O15  1  0.71899999  0.27972000  0.04116100  1
  O  O16  1  0.51029999  0.92537500  0.24999999  1
  O  O17  1  0.01030000  0.57462500  0.24999999  1
  O  O18  1  0.98969999  0.42537500  0.74999998  1
  O  O19  1  0.48969999  0.07462500  0.74999998  1
