# generated using pymatgen
data_Cs4SClO14
_symmetry_space_group_name_H-M   'P 1'
_cell_length_a   6.78144979
_cell_length_b   8.15098953
_cell_length_c   8.23595333
_cell_angle_alpha   90.00000000
_cell_angle_beta   90.00000000
_cell_angle_gamma   90.00000000
_symmetry_Int_Tables_number   1
_chemical_formula_structural   Cs4SClO14
_chemical_formula_sum   'Cs4 S1 Cl1 O14'
_cell_volume   455.24665489
_cell_formula_units_Z   1
loop_
 _symmetry_equiv_pos_site_id
 _symmetry_equiv_pos_as_xyz
  1  'x, y, z'
loop_
 _atom_site_type_symbol
 _atom_site_label
 _atom_site_symmetry_multiplicity
 _atom_site_fract_x
 _atom_site_fract_y
 _atom_site_fract_z
 _atom_site_occupancy
  Cs  Cs0  1  0.75000002  0.88355705  0.64496597  1
  Cs  Cs1  1  0.25000001  0.11644301  0.35503399  1
  Cs  Cs2  1  0.75000002  0.61644304  0.14496599  1
  Cs  Cs3  1  0.25000001  0.38355702  0.85503397  1
  Cl  Cl4  1  0.75000002  0.13720401  0.06595800  1
  S  S5  1  0.25000001  0.86279605  0.93404196  1
  O  O6  1  0.75000002  0.36279602  0.56595798  1
  O  O7  1  0.25000001  0.63720404  0.43404198  1
  O  O8  1  0.06933800  0.76554504  0.90352496  1
  O  O9  1  0.56933802  0.23445501  0.09647500  1
  O  O10  1  0.93066203  0.26554502  0.59647498  1
  O  O11  1  0.43066201  0.73445504  0.40352498  1
  O  O12  1  0.43066201  0.76554504  0.90352496  1
  O  O13  1  0.93066203  0.23445501  0.09647500  1
  O  O14  1  0.06933800  0.73445504  0.40352498  1
  O  O15  1  0.56933802  0.26554502  0.59647498  1
  O  O16  1  0.25000001  0.50946103  0.25462799  1
  O  O17  1  0.75000002  0.49053903  0.74537197  1
  O  O18  1  0.75000002  0.00946100  0.24537199  1
  O  O19  1  0.25000001  0.99053906  0.75462797  1
