# generated using pymatgen
data_YbGe2
_symmetry_space_group_name_H-M   'P 1'
_cell_length_a   5.63614941
_cell_length_b   5.63614941
_cell_length_c   5.76056862
_cell_angle_alpha   104.65383148
_cell_angle_beta   104.65383148
_cell_angle_gamma   118.87326813
_symmetry_Int_Tables_number   1
_chemical_formula_structural   YbGe2
_chemical_formula_sum   'Yb2 Ge4'
_cell_volume   139.00479380
_cell_formula_units_Z   2
loop_
 _symmetry_equiv_pos_site_id
 _symmetry_equiv_pos_as_xyz
  1  'x, y, z'
loop_
 _atom_site_type_symbol
 _atom_site_label
 _atom_site_symmetry_multiplicity
 _atom_site_fract_x
 _atom_site_fract_y
 _atom_site_fract_z
 _atom_site_occupancy
  Yb  Yb0  1  0.24999993  0.74999994  0.49999990  1
  Yb  Yb1  1  0.00000000  0.00000000  0.00000000  1
  Ge  Ge2  1  0.91881996  0.08117999  0.49999992  1
  Ge  Ge3  1  0.58117994  0.41881996  0.49999991  1
  Ge  Ge4  1  0.33117993  0.66881994  -0.00000009  1
  Ge  Ge5  1  0.66881995  0.33117997  -0.00000008  1
