# generated using pymatgen
data_Ba2Cu2SnPAu2
_symmetry_space_group_name_H-M   'P 1'
_cell_length_a   4.59327078
_cell_length_b   4.64933014
_cell_length_c   9.72663593
_cell_angle_alpha   103.82752228
_cell_angle_beta   90.00000000
_cell_angle_gamma   90.00000000
_symmetry_Int_Tables_number   1
_chemical_formula_structural   Ba2Cu2SnPAu2
_chemical_formula_sum   'Ba2 Cu2 Sn1 P1 Au2'
_cell_volume   201.69869349
_cell_formula_units_Z   1
loop_
 _symmetry_equiv_pos_site_id
 _symmetry_equiv_pos_as_xyz
  1  'x, y, z'
loop_
 _atom_site_type_symbol
 _atom_site_label
 _atom_site_symmetry_multiplicity
 _atom_site_fract_x
 _atom_site_fract_y
 _atom_site_fract_z
 _atom_site_occupancy
  Ba  Ba0  1  0.25000001  0.60950898  0.21901800  1
  Ba  Ba1  1  0.75000004  0.39049099  0.78098200  1
  Cu  Cu2  1  0.75000004  0.18141800  0.36283600  1
  Cu  Cu3  1  0.25000001  0.81858198  0.63716400  1
  Sn  Sn4  1  0.75000004  0.04717800  0.09435600  1
  P  P5  1  0.25000001  0.24941099  0.49882200  1
  Au  Au6  1  0.75000004  0.75058898  0.50117800  1
  Au  Au7  1  0.25000001  0.95282198  0.90564400  1
