# generated using pymatgen
data_SmSiNi2C
_symmetry_space_group_name_H-M   'P 1'
_cell_length_a   3.66146398
_cell_length_b   5.58290672
_cell_length_c   6.96211290
_cell_angle_alpha   90.00000000
_cell_angle_beta   90.00000000
_cell_angle_gamma   109.14241791
_symmetry_Int_Tables_number   1
_chemical_formula_structural   SmSiNi2C
_chemical_formula_sum   'Sm2 Si2 Ni4 C2'
_cell_volume   134.44760134
_cell_formula_units_Z   2
loop_
 _symmetry_equiv_pos_site_id
 _symmetry_equiv_pos_as_xyz
  1  'x, y, z'
loop_
 _atom_site_type_symbol
 _atom_site_label
 _atom_site_symmetry_multiplicity
 _atom_site_fract_x
 _atom_site_fract_y
 _atom_site_fract_z
 _atom_site_occupancy
  Sm  Sm0  1  0.45660007  0.91320005  0.75000001  1
  Sm  Sm1  1  0.54340001  0.08680000  0.25000000  1
  Ni  Ni2  1  0.16800403  0.33600802  0.93893101  1
  Si  Si3  1  0.83199605  0.66399203  0.06106900  1
  Ni  Ni4  1  0.83199605  0.66399203  0.43893101  1
  Ni  Ni5  1  0.16800403  0.33600802  0.56106901  1
  Si  Si6  1  0.73601304  0.47202602  0.75000001  1
  Ni  Ni7  1  0.26398704  0.52797403  0.25000000  1
  C  C8  1  0.00000000  0.00000000  0.00000000  1
  C  C9  1  0.00000000  0.00000000  0.50000001  1
