# generated using pymatgen
data_MgPb2
_symmetry_space_group_name_H-M   'P 1'
_cell_length_a   3.25355196
_cell_length_b   6.57492924
_cell_length_c   7.66146898
_cell_angle_alpha   105.08695984
_cell_angle_beta   90.00000000
_cell_angle_gamma   104.32495880
_symmetry_Int_Tables_number   1
_chemical_formula_structural   MgPb2
_chemical_formula_sum   'Mg2 Pb4'
_cell_volume   152.96025196
_cell_formula_units_Z   2
loop_
 _symmetry_equiv_pos_site_id
 _symmetry_equiv_pos_as_xyz
  1  'x, y, z'
loop_
 _atom_site_type_symbol
 _atom_site_label
 _atom_site_symmetry_multiplicity
 _atom_site_fract_x
 _atom_site_fract_y
 _atom_site_fract_z
 _atom_site_occupancy
  Mg  Mg0  1  0.63971303  0.27942600  0.02748099  1
  Mg  Mg1  1  0.36028707  0.72057401  0.97251895  1
  Pb  Pb2  1  0.97278509  0.94557001  0.70680295  1
  Pb  Pb3  1  0.69508304  0.39016601  0.64709497  1
  Pb  Pb4  1  0.30491706  0.60983401  0.35290497  1
  Pb  Pb5  1  0.02721501  0.05443000  0.29319699  1
