# generated using pymatgen
data_Yb2ZnGe3Pd2
_symmetry_space_group_name_H-M   'P 1'
_cell_length_a   4.37612200
_cell_length_b   8.92589760
_cell_length_c   9.50414181
_cell_angle_alpha   118.00699615
_cell_angle_beta   103.31013489
_cell_angle_gamma   90.00000000
_symmetry_Int_Tables_number   1
_chemical_formula_structural   Yb2ZnGe3Pd2
_chemical_formula_sum   'Yb4 Zn2 Ge6 Pd4'
_cell_volume   316.42440755
_cell_formula_units_Z   2
loop_
 _symmetry_equiv_pos_site_id
 _symmetry_equiv_pos_as_xyz
  1  'x, y, z'
loop_
 _atom_site_type_symbol
 _atom_site_label
 _atom_site_symmetry_multiplicity
 _atom_site_fract_x
 _atom_site_fract_y
 _atom_site_fract_z
 _atom_site_occupancy
  Yb  Yb0  1  1.00000004  0.74088003  1.00000002  1
  Yb  Yb1  1  0.00000001  0.25912001  0.00000000  1
  Yb  Yb2  1  0.20299503  0.70299503  0.40599001  1
  Yb  Yb3  1  0.79700502  0.29700501  0.59401002  1
  Zn  Zn4  1  0.57724401  0.07724400  0.15448801  1
  Zn  Zn5  1  0.42275604  0.92275604  0.84551201  1
  Ge  Ge6  1  0.57467203  0.57467203  0.14934401  1
  Ge  Ge7  1  0.42532802  0.42532802  0.85065601  1
  Ge  Ge8  1  0.80074705  0.94867904  0.60149402  1
  Ge  Ge9  1  0.19925300  0.05132100  0.39850601  1
  Ge  Ge10  1  0.80074703  0.65281503  0.60149402  1
  Ge  Ge11  1  0.19925302  0.34718502  0.39850601  1
  Pd  Pd12  1  0.64735804  0.89577004  0.29471501  1
  Pd  Pd13  1  0.35264201  0.10423000  0.70528501  1
  Pd  Pd14  1  0.64735702  0.39894502  0.29471401  1
  Pd  Pd15  1  0.35264303  0.60105503  0.70528601  1
