# generated using pymatgen
data_Ce(FeGe)2
_symmetry_space_group_name_H-M   'P 1'
_cell_length_a   3.96189594
_cell_length_b   3.96189594
_cell_length_c   5.83656693
_cell_angle_alpha   109.84049988
_cell_angle_beta   109.84049988
_cell_angle_gamma   90.00000000
_symmetry_Int_Tables_number   1
_chemical_formula_structural   Ce(FeGe)2
_chemical_formula_sum   'Ce1 Fe2 Ge2'
_cell_volume   80.37099189
_cell_formula_units_Z   1
loop_
 _symmetry_equiv_pos_site_id
 _symmetry_equiv_pos_as_xyz
  1  'x, y, z'
loop_
 _atom_site_type_symbol
 _atom_site_label
 _atom_site_symmetry_multiplicity
 _atom_site_fract_x
 _atom_site_fract_y
 _atom_site_fract_z
 _atom_site_occupancy
  Ce  Ce0  1  0.99887198  0.99887200  0.99774398  1
  Fe  Fe1  1  0.75412200  0.25412200  0.50824399  1
  Fe  Fe2  1  0.25412198  0.75412200  0.50824399  1
  Ge  Ge3  1  0.36308599  0.36308600  0.72617201  1
  Ge  Ge4  1  0.62979798  0.62979800  0.25959598  1
