# generated using pymatgen
data_Ce(NiSn3)4
_symmetry_space_group_name_H-M   'P 1'
_cell_length_a   8.16949272
_cell_length_b   8.16949272
_cell_length_c   8.16949272
_cell_angle_alpha   109.47122192
_cell_angle_beta   109.47122192
_cell_angle_gamma   109.47122192
_symmetry_Int_Tables_number   1
_chemical_formula_structural   Ce(NiSn3)4
_chemical_formula_sum   'Ce1 Ni4 Sn12'
_cell_volume   419.72357090
_cell_formula_units_Z   1
loop_
 _symmetry_equiv_pos_site_id
 _symmetry_equiv_pos_as_xyz
  1  'x, y, z'
loop_
 _atom_site_type_symbol
 _atom_site_label
 _atom_site_symmetry_multiplicity
 _atom_site_fract_x
 _atom_site_fract_y
 _atom_site_fract_z
 _atom_site_occupancy
  Ce  Ce0  1  0.00000000  0.00000000  0.00000000  1
  Sn  Sn1  1  0.15692803  0.33879203  0.49572004  1
  Sn  Sn2  1  0.84307208  0.66120805  0.50428008  1
  Sn  Sn3  1  0.15692805  0.66120805  0.81813607  1
  Sn  Sn4  1  0.84307206  0.33879203  0.18186405  1
  Sn  Sn5  1  0.66120806  0.50428004  0.84307208  1
  Sn  Sn6  1  0.33879205  0.49572004  0.15692804  1
  Sn  Sn7  1  0.33879203  0.18186401  0.84307205  1
  Sn  Sn8  1  0.66120808  0.81813606  0.15692807  1
  Sn  Sn9  1  0.81813605  0.15692801  0.66120805  1
  Sn  Sn10  1  0.18186406  0.84307207  0.33879206  1
  Sn  Sn11  1  0.49572003  0.15692801  0.33879203  1
  Sn  Sn12  1  0.50428008  0.84307207  0.66120808  1
  Ni  Ni13  1  0.50000005  0.50000004  0.50000006  1
  Ni  Ni14  1  0.00000000  0.00000000  0.50000002  1
  Ni  Ni15  1  1.00000008  0.50000004  1.00000009  1
  Ni  Ni16  1  0.50000002  0.00000000  0.00000001  1
