# generated using pymatgen
data_Ti3Ge
_symmetry_space_group_name_H-M   'P 1'
_cell_length_a   4.54612494
_cell_length_b   5.65252399
_cell_length_c   5.65252352
_cell_angle_alpha   120.00000000
_cell_angle_beta   90.00000000
_cell_angle_gamma   90.00000000
_symmetry_Int_Tables_number   1
_chemical_formula_structural   Ti3Ge
_chemical_formula_sum   'Ti6 Ge2'
_cell_volume   125.79309161
_cell_formula_units_Z   2
loop_
 _symmetry_equiv_pos_site_id
 _symmetry_equiv_pos_as_xyz
  1  'x, y, z'
loop_
 _atom_site_type_symbol
 _atom_site_label
 _atom_site_symmetry_multiplicity
 _atom_site_fract_x
 _atom_site_fract_y
 _atom_site_fract_z
 _atom_site_occupancy
  Ti  Ti0  1  0.75000001  0.33333333  0.66666667  1
  Ti  Ti1  1  0.25000000  0.66666665  0.33333332  1
  Ti  Ti2  1  0.25000000  0.16253700  0.32507400  1
  Ti  Ti3  1  0.25000000  0.67492599  0.83746300  1
  Ti  Ti4  1  0.25000000  0.16253700  0.83746302  1
  Ti  Ti5  1  0.75000001  0.83746298  0.67492599  1
  Ge  Ge6  1  0.75000001  0.32507399  0.16253699  1
  Ge  Ge7  1  0.75000001  0.83746298  0.16253697  1
