# generated using pymatgen
data_PrCoGe
_symmetry_space_group_name_H-M   'P 1'
_cell_length_a   4.26484299
_cell_length_b   4.26484299
_cell_length_c   14.16153526
_cell_angle_alpha   90.00000000
_cell_angle_beta   90.00000000
_cell_angle_gamma   90.00000000
_symmetry_Int_Tables_number   1
_chemical_formula_structural   PrCoGe
_chemical_formula_sum   'Pr4 Co4 Ge4'
_cell_volume   257.58254630
_cell_formula_units_Z   4
loop_
 _symmetry_equiv_pos_site_id
 _symmetry_equiv_pos_as_xyz
  1  'x, y, z'
loop_
 _atom_site_type_symbol
 _atom_site_label
 _atom_site_symmetry_multiplicity
 _atom_site_fract_x
 _atom_site_fract_y
 _atom_site_fract_z
 _atom_site_occupancy
  Pr  Pr0  1  0.50000000  0.50000000  0.00000000  1
  Pr  Pr1  1  0.00000000  0.00000000  0.49999999  1
  Pr  Pr2  1  0.50000000  0.00000000  0.75075299  1
  Pr  Pr3  1  0.00000000  0.50000000  0.24924700  1
  Co  Co4  1  0.00000000  0.00000000  0.91652398  1
  Co  Co5  1  0.50000000  0.50000000  0.41547399  1
  Ge  Ge6  1  0.00000000  0.50000000  0.83526198  1
  Co  Co7  1  0.50000000  0.00000000  0.33377399  1
  Co  Co8  1  0.00000000  0.00000000  0.08347600  1
  Ge  Ge9  1  0.50000000  0.50000000  0.58452599  1
  Ge  Ge10  1  0.50000000  0.00000000  0.16473800  1
  Ge  Ge11  1  0.00000000  0.50000000  0.66622599  1
