# generated using pymatgen
data_Li2CuF6
_symmetry_space_group_name_H-M   'P 1'
_cell_length_a   5.88648367
_cell_length_b   5.88648367
_cell_length_c   7.50540018
_cell_angle_alpha   73.67955017
_cell_angle_beta   73.67955017
_cell_angle_gamma   73.85887909
_symmetry_Int_Tables_number   1
_chemical_formula_structural   Li2CuF6
_chemical_formula_sum   'Li4 Cu2 F12'
_cell_volume   233.87080643
_cell_formula_units_Z   2
loop_
 _symmetry_equiv_pos_site_id
 _symmetry_equiv_pos_as_xyz
  1  'x, y, z'
loop_
 _atom_site_type_symbol
 _atom_site_label
 _atom_site_symmetry_multiplicity
 _atom_site_fract_x
 _atom_site_fract_y
 _atom_site_fract_z
 _atom_site_occupancy
  Li  Li0  1  0.67195603  0.67195599  0.84535793  1
  Li  Li1  1  0.34022501  0.34022500  0.65367896  1
  Li  Li2  1  0.65826703  0.65826699  0.31927794  1
  Li  Li3  1  0.33956501  0.33956500  0.17485797  1
  Cu  Cu4  1  0.99752904  0.99752899  0.49746390  1
  Cu  Cu5  1  0.98838204  0.98838199  0.99810689  1
  F  F6  1  0.75802703  0.75802699  0.04537893  1
  F  F7  1  0.44729502  0.44729500  0.36467195  1
  F  F8  1  0.63530200  0.02848400  0.67381296  1
  F  F9  1  0.97590201  0.36042000  0.33587094  1
  F  F10  1  0.87930404  0.87930399  0.30602392  1
  F  F11  1  0.58191702  0.58191699  0.62466494  1
  F  F12  1  0.23197601  0.23197600  0.96418996  1
  F  F13  1  0.10334600  0.10334600  0.70142798  1
  F  F14  1  0.36042004  0.97590199  0.33587093  1
  F  F15  1  0.02848403  0.63530199  0.67381296  1
  F  F16  1  0.69773201  0.30437100  0.99276594  1
  F  F17  1  0.30437103  0.69773199  0.99276594  1
