# generated using pymatgen
data_CsCrSe2
_symmetry_space_group_name_H-M   'P 1'
_cell_length_a   5.77350807
_cell_length_b   7.48871517
_cell_length_c   12.55419636
_cell_angle_alpha   84.91470337
_cell_angle_beta   76.70626068
_cell_angle_gamma   67.32642365
_symmetry_Int_Tables_number   1
_chemical_formula_structural   CsCrSe2
_chemical_formula_sum   'Cs4 Cr4 Se8'
_cell_volume   487.42514392
_cell_formula_units_Z   4
loop_
 _symmetry_equiv_pos_site_id
 _symmetry_equiv_pos_as_xyz
  1  'x, y, z'
loop_
 _atom_site_type_symbol
 _atom_site_label
 _atom_site_symmetry_multiplicity
 _atom_site_fract_x
 _atom_site_fract_y
 _atom_site_fract_z
 _atom_site_occupancy
  Cs  Cs0  1  0.82030600  0.00000000  0.35938798  1
  Cs  Cs1  1  0.17969400  0.00000000  0.64061198  1
  Cs  Cs2  1  0.92969400  0.50000000  0.14061198  1
  Cs  Cs3  1  0.57030600  0.50000000  0.85938797  1
  Cr  Cr4  1  0.00000000  0.00000000  0.00000000  1
  Cr  Cr5  1  0.75000000  0.50000000  0.49999998  1
  Cr  Cr6  1  0.25000000  0.50000000  0.49999998  1
  Cr  Cr7  1  0.50000000  0.00000000  -0.00000001  1
  Se  Se8  1  0.15225500  0.29597400  0.38632899  1
  Se  Se9  1  0.91544200  0.79597400  0.88632896  1
  Se  Se10  1  0.19822900  0.20402600  0.88632898  1
  Se  Se11  1  0.28858400  0.79597400  0.11367099  1
  Se  Se12  1  0.55177100  0.29597400  0.61367098  1
  Se  Se13  1  0.46141600  0.70402600  0.38632898  1
  Se  Se14  1  0.59774500  0.20402600  0.11367099  1
  Se  Se15  1  0.83455800  0.70402600  0.61367097  1
