# generated using pymatgen
data_Ba3NaNi3O
_symmetry_space_group_name_H-M   'P 1'
_cell_length_a   3.35742998
_cell_length_b   3.35743022
_cell_length_c   17.58302879
_cell_angle_alpha   90.00000000
_cell_angle_beta   90.00000000
_cell_angle_gamma   120.00000000
_symmetry_Int_Tables_number   1
_chemical_formula_structural   Ba3NaNi3O
_chemical_formula_sum   'Ba3 Na1 Ni3 O1'
_cell_volume   171.64781459
_cell_formula_units_Z   1
loop_
 _symmetry_equiv_pos_site_id
 _symmetry_equiv_pos_as_xyz
  1  'x, y, z'
loop_
 _atom_site_type_symbol
 _atom_site_label
 _atom_site_symmetry_multiplicity
 _atom_site_fract_x
 _atom_site_fract_y
 _atom_site_fract_z
 _atom_site_occupancy
  Na  Na0  1  0.33333337  0.66666670  0.25000000  1
  Ba  Ba1  1  0.66666669  0.33333335  0.75000001  1
  Ba  Ba2  1  0.00000000  0.00000000  0.00000000  1
  Ba  Ba3  1  0.00000000  0.00000000  0.50000001  1
  Ni  Ni4  1  0.00000000  0.00000000  0.66107401  1
  Ni  Ni5  1  0.00000000  0.00000000  0.16107400  1
  Ni  Ni6  1  0.00000000  0.00000000  0.83892601  1
  O  O7  1  0.00000000  0.00000000  0.33892600  1
