# generated using pymatgen
data_NaInAg4
_symmetry_space_group_name_H-M   'P 1'
_cell_length_a   5.25803566
_cell_length_b   5.25803566
_cell_length_c   6.19925308
_cell_angle_alpha   64.90717316
_cell_angle_beta   64.90717316
_cell_angle_gamma   60.00000381
_symmetry_Int_Tables_number   1
_chemical_formula_structural   NaInAg4
_chemical_formula_sum   'Na1 In1 Ag4'
_cell_volume   129.41403841
_cell_formula_units_Z   1
loop_
 _symmetry_equiv_pos_site_id
 _symmetry_equiv_pos_as_xyz
  1  'x, y, z'
loop_
 _atom_site_type_symbol
 _atom_site_label
 _atom_site_symmetry_multiplicity
 _atom_site_fract_x
 _atom_site_fract_y
 _atom_site_fract_z
 _atom_site_occupancy
  Na  Na0  1  0.00000001  0.33843001  -0.00000000  1
  In  In1  1  0.83279306  0.83279302  0.50162101  1
  Ag  Ag2  1  0.66157002  0.00000000  -0.00000000  1
  Ag  Ag3  1  0.33843003  0.66157001  -0.00000001  1
  Ag  Ag4  1  0.16720701  0.16720700  0.49837901  1
  Ag  Ag5  1  0.50000003  0.50000001  0.50000001  1
