# generated using pymatgen
data_CeMnGeIr2
_symmetry_space_group_name_H-M   'P 1'
_cell_length_a   4.05219698
_cell_length_b   4.05219698
_cell_length_c   6.06240320
_cell_angle_alpha   109.52433777
_cell_angle_beta   109.52433014
_cell_angle_gamma   90.00000000
_symmetry_Int_Tables_number   1
_chemical_formula_structural   CeMnGeIr2
_chemical_formula_sum   'Ce1 Mn1 Ge1 Ir2'
_cell_volume   87.72587700
_cell_formula_units_Z   1
loop_
 _symmetry_equiv_pos_site_id
 _symmetry_equiv_pos_as_xyz
  1  'x, y, z'
loop_
 _atom_site_type_symbol
 _atom_site_label
 _atom_site_symmetry_multiplicity
 _atom_site_fract_x
 _atom_site_fract_y
 _atom_site_fract_z
 _atom_site_occupancy
  Ce  Ce0  1  0.00000000  0.00000000  0.00000000  1
  Mn  Mn1  1  0.38453802  0.38453701  0.76907504  1
  Ge  Ge2  1  0.61546203  0.61546301  0.23092504  1
  Ir  Ir3  1  0.25000003  0.75000001  0.50000003  1
  Ir  Ir4  1  0.75000003  0.25000000  0.50000005  1
