# generated using pymatgen
data_Tb(CoGe)2
_symmetry_space_group_name_H-M   'P 1'
_cell_length_a   4.05377197
_cell_length_b   4.05377197
_cell_length_c   5.67327309
_cell_angle_alpha   110.93258667
_cell_angle_beta   110.93258667
_cell_angle_gamma   90.00000000
_symmetry_Int_Tables_number   1
_chemical_formula_structural   Tb(CoGe)2
_chemical_formula_sum   'Tb1 Co2 Ge2'
_cell_volume   80.45407661
_cell_formula_units_Z   1
loop_
 _symmetry_equiv_pos_site_id
 _symmetry_equiv_pos_as_xyz
  1  'x, y, z'
loop_
 _atom_site_type_symbol
 _atom_site_label
 _atom_site_symmetry_multiplicity
 _atom_site_fract_x
 _atom_site_fract_y
 _atom_site_fract_z
 _atom_site_occupancy
  Tb  Tb0  1  0.00000000  0.00000000  0.00000000  1
  Co  Co1  1  0.25000002  0.75000001  0.50000002  1
  Co  Co2  1  0.75000002  0.25000000  0.50000002  1
  Ge  Ge3  1  0.62799702  0.62799701  0.25599403  1
  Ge  Ge4  1  0.37200301  0.37200301  0.74400602  1
