# generated using pymatgen
data_TmGePd
_symmetry_space_group_name_H-M   'P 1'
_cell_length_a   4.24875498
_cell_length_b   6.91684484
_cell_length_c   7.45889807
_cell_angle_alpha   90.00000000
_cell_angle_beta   90.00000000
_cell_angle_gamma   90.00000000
_symmetry_Int_Tables_number   1
_chemical_formula_structural   TmGePd
_chemical_formula_sum   'Tm4 Ge4 Pd4'
_cell_volume   219.20193953
_cell_formula_units_Z   4
loop_
 _symmetry_equiv_pos_site_id
 _symmetry_equiv_pos_as_xyz
  1  'x, y, z'
loop_
 _atom_site_type_symbol
 _atom_site_label
 _atom_site_symmetry_multiplicity
 _atom_site_fract_x
 _atom_site_fract_y
 _atom_site_fract_z
 _atom_site_occupancy
  Tm  Tm0  1  0.75000000  0.49882401  0.31021600  1
  Tm  Tm1  1  0.25000000  0.00117600  0.81021599  1
  Tm  Tm2  1  0.75000000  0.99882402  0.18978400  1
  Tm  Tm3  1  0.25000000  0.50117601  0.68978399  1
  Ge  Ge4  1  0.25000000  0.29658301  0.10325900  1
  Ge  Ge5  1  0.25000000  0.79658302  0.39674100  1
  Ge  Ge6  1  0.75000000  0.70341702  0.89674099  1
  Ge  Ge7  1  0.75000000  0.20341700  0.60325899  1
  Pd  Pd8  1  0.25000000  0.65399901  0.06956800  1
  Pd  Pd9  1  0.25000000  0.15399900  0.43043200  1
  Pd  Pd10  1  0.75000000  0.84600102  0.56956799  1
  Pd  Pd11  1  0.75000000  0.34600101  0.93043199  1
