# generated using pymatgen
data_LiTaO4
_symmetry_space_group_name_H-M   'P 1'
_cell_length_a   5.72129631
_cell_length_b   5.72129631
_cell_length_c   7.17494297
_cell_angle_alpha   74.32460785
_cell_angle_beta   74.32460785
_cell_angle_gamma   75.45102692
_symmetry_Int_Tables_number   1
_chemical_formula_structural   LiTaO4
_chemical_formula_sum   'Li3 Ta3 O12'
_cell_volume   213.65330079
_cell_formula_units_Z   3
loop_
 _symmetry_equiv_pos_site_id
 _symmetry_equiv_pos_as_xyz
  1  'x, y, z'
loop_
 _atom_site_type_symbol
 _atom_site_label
 _atom_site_symmetry_multiplicity
 _atom_site_fract_x
 _atom_site_fract_y
 _atom_site_fract_z
 _atom_site_occupancy
  Li  Li0  1  0.33222299  0.66777703  0.00000001  1
  Li  Li1  1  0.66939099  0.99587704  0.15464103  1
  Li  Li2  1  0.31258199  0.68741803  0.50000003  1
  Ta  Ta3  1  0.69565402  0.00635400  0.66967303  1
  Ta  Ta4  1  0.99364602  0.30434601  0.33032703  1
  Ta  Ta5  1  0.00412299  0.33060901  0.84535903  1
  O  O6  1  0.43291799  0.77951703  0.19873702  1
  O  O7  1  0.78211802  0.10459900  0.86805904  1
  O  O8  1  0.89540102  0.21788201  0.13194102  1
  O  O9  1  0.22048299  0.56708202  0.80126304  1
  O  O10  1  0.01986297  0.98013704  0.50000003  1
  O  O11  1  0.97445801  0.66633603  0.18096603  1
  O  O12  1  0.61465401  0.38534601  0.50000003  1
  O  O13  1  0.08442399  0.42032402  0.53925402  1
  O  O14  1  0.57967599  0.91557604  0.46074604  1
  O  O15  1  0.36347500  0.30875301  0.16915601  1
  O  O16  1  0.69124700  0.63652502  0.83084404  1
  O  O17  1  0.33366401  0.02554200  0.81903403  1
