# generated using pymatgen
data_Pr3NbSb5
_symmetry_space_group_name_H-M   'P 1'
_cell_length_a   6.32487392
_cell_length_b   9.57406044
_cell_length_c   9.57406044
_cell_angle_alpha   120.00000000
_cell_angle_beta   90.00000000
_cell_angle_gamma   90.00000000
_symmetry_Int_Tables_number   1
_chemical_formula_structural   Pr3NbSb5
_chemical_formula_sum   'Pr6 Nb2 Sb10'
_cell_volume   502.08221091
_cell_formula_units_Z   2
loop_
 _symmetry_equiv_pos_site_id
 _symmetry_equiv_pos_as_xyz
  1  'x, y, z'
loop_
 _atom_site_type_symbol
 _atom_site_label
 _atom_site_symmetry_multiplicity
 _atom_site_fract_x
 _atom_site_fract_y
 _atom_site_fract_z
 _atom_site_occupancy
  Pr  Pr0  1  0.25000000  0.38099099  0.38099103  1
  Pr  Pr1  1  0.75000001  0.61900899  0.61900905  1
  Pr  Pr2  1  0.25000000  0.00000000  0.61900902  1
  Pr  Pr3  1  0.75000001  0.00000000  0.38099101  1
  Pr  Pr4  1  0.25000000  0.61900899  0.00000003  1
  Pr  Pr5  1  0.75000001  0.38099099  0.00000002  1
  Nb  Nb6  1  0.50000001  0.00000000  -0.00000000  1
  Nb  Nb7  1  0.00000000  0.00000000  0.00000000  1
  Sb  Sb8  1  0.25000000  0.74419798  0.74419806  1
  Sb  Sb9  1  0.75000001  0.25580199  0.25580202  1
  Sb  Sb10  1  0.25000000  0.99999998  0.25580206  1
  Sb  Sb11  1  0.75000001  0.00000000  0.74419802  1
  Sb  Sb12  1  0.25000000  0.25580199  0.00000001  1
  Sb  Sb13  1  0.75000001  0.74419798  0.00000004  1
  Sb  Sb14  1  0.50000001  0.66666665  0.33333338  1
  Sb  Sb15  1  0.50000001  0.33333333  0.66666670  1
  Sb  Sb16  1  -0.00000000  0.33333333  0.66666670  1
  Sb  Sb17  1  -0.00000000  0.66666665  0.33333338  1
