# generated using pymatgen
data_K3ThO6
_symmetry_space_group_name_H-M   'P 1'
_cell_length_a   6.40695381
_cell_length_b   6.65463781
_cell_length_c   9.16373730
_cell_angle_alpha   90.00000000
_cell_angle_beta   90.82123566
_cell_angle_gamma   90.00000000
_symmetry_Int_Tables_number   1
_chemical_formula_structural   K3ThO6
_chemical_formula_sum   'K6 Th2 O12'
_cell_volume   390.66457732
_cell_formula_units_Z   2
loop_
 _symmetry_equiv_pos_site_id
 _symmetry_equiv_pos_as_xyz
  1  'x, y, z'
loop_
 _atom_site_type_symbol
 _atom_site_label
 _atom_site_symmetry_multiplicity
 _atom_site_fract_x
 _atom_site_fract_y
 _atom_site_fract_z
 _atom_site_occupancy
  K  K0  1  0.51599601  0.05108600  0.24326499  1
  K  K1  1  0.98400403  0.55108602  0.25673498  1
  K  K2  1  0.48400401  0.94891403  0.75673499  1
  K  K3  1  0.01599600  0.44891401  0.74326500  1
  K  K4  1  0.00000000  0.00000000  0.50000000  1
  K  K5  1  0.50000001  0.50000001  -0.00000001  1
  Th  Th6  1  0.50000001  0.50000001  0.49999999  1
  Th  Th7  1  0.00000000  0.00000000  0.00000000  1
  O  O8  1  0.88345803  0.06258700  0.77722599  1
  O  O9  1  0.61654202  0.56258702  0.72277399  1
  O  O10  1  0.11654200  0.93741303  0.22277400  1
  O  O11  1  0.38345801  0.43741301  0.27722599  1
  O  O12  1  0.83091102  0.26917601  0.07477799  1
  O  O13  1  0.66908902  0.76917602  0.42522199  1
  O  O14  1  0.16908900  0.73082402  0.92522200  1
  O  O15  1  0.33091101  0.23082401  0.57477799  1
  O  O16  1  0.22068801  0.67668502  0.54952000  1
  O  O17  1  0.27931201  0.17668500  0.95048000  1
  O  O18  1  0.77931202  0.32331501  0.45047999  1
  O  O19  1  0.72068802  0.82331502  0.04951999  1
