# generated using pymatgen
data_MgPb2
_symmetry_space_group_name_H-M   'P 1'
_cell_length_a   3.70351601
_cell_length_b   5.94339085
_cell_length_c   8.02933025
_cell_angle_alpha   111.54016876
_cell_angle_beta   90.00000000
_cell_angle_gamma   108.15362549
_symmetry_Int_Tables_number   1
_chemical_formula_structural   MgPb2
_chemical_formula_sum   'Mg2 Pb4'
_cell_volume   154.89728240
_cell_formula_units_Z   2
loop_
 _symmetry_equiv_pos_site_id
 _symmetry_equiv_pos_as_xyz
  1  'x, y, z'
loop_
 _atom_site_type_symbol
 _atom_site_label
 _atom_site_symmetry_multiplicity
 _atom_site_fract_x
 _atom_site_fract_y
 _atom_site_fract_z
 _atom_site_occupancy
  Mg  Mg0  1  0.18870601  0.37741200  0.63893701  1
  Mg  Mg1  1  0.81129401  0.62258801  0.36106299  1
  Pb  Pb2  1  0.85582301  0.71164601  0.96662301  1
  Pb  Pb3  1  0.47132701  0.94265401  0.68641999  1
  Pb  Pb4  1  0.52867300  0.05734600  0.31358001  1
  Pb  Pb5  1  0.14417700  0.28835400  0.03337699  1
