# generated using pymatgen
data_EuGeAu3
_symmetry_space_group_name_H-M   'P 1'
_cell_length_a   4.68263721
_cell_length_b   4.68263721
_cell_length_c   10.20726776
_cell_angle_alpha   90.00000000
_cell_angle_beta   90.00000000
_cell_angle_gamma   90.00000000
_symmetry_Int_Tables_number   1
_chemical_formula_structural   EuGeAu3
_chemical_formula_sum   'Eu2 Ge2 Au6'
_cell_volume   223.81569196
_cell_formula_units_Z   2
loop_
 _symmetry_equiv_pos_site_id
 _symmetry_equiv_pos_as_xyz
  1  'x, y, z'
loop_
 _atom_site_type_symbol
 _atom_site_label
 _atom_site_symmetry_multiplicity
 _atom_site_fract_x
 _atom_site_fract_y
 _atom_site_fract_z
 _atom_site_occupancy
  Eu  Eu0  1  0.49999998  0.00000000  0.76691002  1
  Eu  Eu1  1  -0.00000000  0.49999998  0.23309001  1
  Ge  Ge2  1  0.49999998  0.00000000  0.37610201  1
  Ge  Ge3  1  -0.00000000  0.49999998  0.62389801  1
  Au  Au4  1  0.00000000  0.00000000  0.00000000  1
  Au  Au5  1  0.49999998  0.49999998  0.00000000  1
  Au  Au6  1  0.49999998  0.00000000  0.12454400  1
  Au  Au7  1  -0.00000000  0.49999998  0.87545602  1
  Au  Au8  1  0.00000000  0.00000000  0.50000001  1
  Au  Au9  1  0.49999998  0.49999998  0.50000001  1
