# generated using pymatgen
data_YMn2SnTe6
_symmetry_space_group_name_H-M   'P 1'
_cell_length_a   7.40389395
_cell_length_b   7.40389395
_cell_length_c   13.24503422
_cell_angle_alpha   90.00000000
_cell_angle_beta   90.00000000
_cell_angle_gamma   120.00000000
_symmetry_Int_Tables_number   1
_chemical_formula_structural   YMn2SnTe6
_chemical_formula_sum   'Y2 Mn4 Sn2 Te12'
_cell_volume   628.78778299
_cell_formula_units_Z   2
loop_
 _symmetry_equiv_pos_site_id
 _symmetry_equiv_pos_as_xyz
  1  'x, y, z'
loop_
 _atom_site_type_symbol
 _atom_site_label
 _atom_site_symmetry_multiplicity
 _atom_site_fract_x
 _atom_site_fract_y
 _atom_site_fract_z
 _atom_site_occupancy
  Y  Y0  1  0.33333332  0.66666664  0.53841699  1
  Mn  Mn1  1  0.33333332  0.66666664  0.96158298  1
  Y  Y2  1  0.66666666  0.33333332  0.46158299  1
  Mn  Mn3  1  0.66666666  0.33333332  0.03841700  1
  Mn  Mn4  1  0.00000000  0.00000000  0.25000000  1
  Mn  Mn5  1  0.00000000  0.00000000  0.74999999  1
  Sn  Sn6  1  0.33333332  0.66666664  0.25000000  1
  Sn  Sn7  1  0.66666666  0.33333332  0.74999999  1
  Te  Te8  1  0.63192298  0.95131296  0.13053900  1
  Te  Te9  1  0.04868699  0.36807699  0.36946099  1
  Te  Te10  1  0.63192299  0.68060997  0.36946099  1
  Te  Te11  1  0.31938998  0.95131296  0.36946099  1
  Te  Te12  1  0.04868698  0.68060997  0.13053900  1
  Te  Te13  1  0.31938999  0.36807699  0.13053900  1
  Te  Te14  1  0.68061000  0.04868700  0.63053899  1
  Te  Te15  1  0.36807700  0.31938999  0.63053899  1
  Te  Te16  1  0.95131299  0.63192298  0.63053899  1
  Te  Te17  1  0.36807700  0.04868700  0.86946099  1
  Te  Te18  1  0.95131300  0.31938999  0.86946099  1
  Te  Te19  1  0.68060999  0.63192298  0.86946099  1
