# generated using pymatgen
data_NaCuNiH
_symmetry_space_group_name_H-M   'P 1'
_cell_length_a   4.15291023
_cell_length_b   4.15290976
_cell_length_c   4.79882097
_cell_angle_alpha   90.00000000
_cell_angle_beta   90.00000000
_cell_angle_gamma   120.00000763
_symmetry_Int_Tables_number   1
_chemical_formula_structural   NaCuNiH
_chemical_formula_sum   'Na1 Cu1 Ni1 H1'
_cell_volume   71.67540969
_cell_formula_units_Z   1
loop_
 _symmetry_equiv_pos_site_id
 _symmetry_equiv_pos_as_xyz
  1  'x, y, z'
loop_
 _atom_site_type_symbol
 _atom_site_label
 _atom_site_symmetry_multiplicity
 _atom_site_fract_x
 _atom_site_fract_y
 _atom_site_fract_z
 _atom_site_occupancy
  Na  Na0  1  0.66666666  0.33333333  0.99998801  1
  Cu  Cu1  1  0.00000000  0.00000000  0.43489400  1
  Ni  Ni2  1  0.33333337  0.66666665  0.57562000  1
  H  H3  1  0.00000000  0.00000000  0.07069900  1
