# generated using pymatgen
data_NdCo3C
_symmetry_space_group_name_H-M   'P 1'
_cell_length_a   3.78971004
_cell_length_b   5.88932085
_cell_length_c   7.14907217
_cell_angle_alpha   90.00000000
_cell_angle_beta   90.00000000
_cell_angle_gamma   108.76844025
_symmetry_Int_Tables_number   1
_chemical_formula_structural   NdCo3C
_chemical_formula_sum   'Nd2 Co6 C2'
_cell_volume   151.07456155
_cell_formula_units_Z   2
loop_
 _symmetry_equiv_pos_site_id
 _symmetry_equiv_pos_as_xyz
  1  'x, y, z'
loop_
 _atom_site_type_symbol
 _atom_site_label
 _atom_site_symmetry_multiplicity
 _atom_site_fract_x
 _atom_site_fract_y
 _atom_site_fract_z
 _atom_site_occupancy
  Nd  Nd0  1  0.45331799  0.90663603  0.74999998  1
  Nd  Nd1  1  0.54668199  0.09336400  0.24999999  1
  Co  Co2  1  0.73157999  0.46316002  0.74999998  1
  Co  Co3  1  0.26841999  0.53684002  0.24999999  1
  Co  Co4  1  0.16384199  0.32768401  0.55675299  1
  Co  Co5  1  0.83615798  0.67231602  0.05675300  1
  Co  Co6  1  0.83615798  0.67231602  0.44324699  1
  Co  Co7  1  0.16384199  0.32768401  0.94324698  1
  C  C8  1  0.00000000  0.00000000  0.49999999  1
  C  C9  1  0.00000000  0.00000000  0.00000000  1
