# generated using pymatgen
data_TaSb3
_symmetry_space_group_name_H-M   'P 1'
_cell_length_a   3.82281399
_cell_length_b   6.88718271
_cell_length_c   8.57883453
_cell_angle_alpha   90.00000000
_cell_angle_beta   90.00000000
_cell_angle_gamma   106.11290741
_symmetry_Int_Tables_number   1
_chemical_formula_structural   TaSb3
_chemical_formula_sum   'Ta2 Sb6'
_cell_volume   216.99432859
_cell_formula_units_Z   2
loop_
 _symmetry_equiv_pos_site_id
 _symmetry_equiv_pos_as_xyz
  1  'x, y, z'
loop_
 _atom_site_type_symbol
 _atom_site_label
 _atom_site_symmetry_multiplicity
 _atom_site_fract_x
 _atom_site_fract_y
 _atom_site_fract_z
 _atom_site_occupancy
  Ta  Ta0  1  0.75935704  0.51871399  0.75000004  1
  Ta  Ta1  1  0.24064303  0.48128599  0.25000001  1
  Sb  Sb2  1  0.15828102  0.31656199  0.93157805  1
  Sb  Sb3  1  0.84171905  0.68343798  0.06842200  1
  Sb  Sb4  1  0.59959502  0.19919000  0.25000001  1
  Sb  Sb5  1  0.40040506  0.80080998  0.75000004  1
  Sb  Sb6  1  0.15828102  0.31656199  0.56842203  1
  Sb  Sb7  1  0.84171905  0.68343798  0.43157802  1
