# generated using pymatgen
data_Te6MoW3Se2
_symmetry_space_group_name_H-M   'P 1'
_cell_length_a   3.49815202
_cell_length_b   3.49815154
_cell_length_c   39.68219757
_cell_angle_alpha   90.00000000
_cell_angle_beta   90.00000000
_cell_angle_gamma   120.00000763
_symmetry_Int_Tables_number   1
_chemical_formula_structural   Te6MoW3Se2
_chemical_formula_sum   'Te6 Mo1 W3 Se2'
_cell_volume   420.53641795
_cell_formula_units_Z   1
loop_
 _symmetry_equiv_pos_site_id
 _symmetry_equiv_pos_as_xyz
  1  'x, y, z'
loop_
 _atom_site_type_symbol
 _atom_site_label
 _atom_site_symmetry_multiplicity
 _atom_site_fract_x
 _atom_site_fract_y
 _atom_site_fract_z
 _atom_site_occupancy
  Te  Te0  1  0.00000000  0.00000000  0.67176399  1
  Te  Te1  1  0.00000000  0.00000000  0.29602500  1
  Te  Te2  1  0.66666669  0.33333335  0.57649299  1
  Te  Te3  1  0.66666669  0.33333335  0.48418699  1
  Te  Te4  1  0.00000000  0.00000000  0.76465099  1
  Te  Te5  1  0.00000000  0.00000000  0.38891199  1
  Mo  Mo6  1  0.00000000  0.00000000  0.53034099  1
  W  W7  1  0.00000000  0.00000000  0.90608399  1
  W  W8  1  0.66666669  0.33333335  0.71822499  1
  W  W9  1  0.66666669  0.33333335  0.34244900  1
  Se  Se10  1  0.66666669  0.33333335  0.94696799  1
  Se  Se11  1  0.66666669  0.33333335  0.86515099  1
