# generated using pymatgen
data_YFe3Ge7
_symmetry_space_group_name_H-M   'P 1'
_cell_length_a   3.80897403
_cell_length_b   7.29182005
_cell_length_c   7.29181957
_cell_angle_alpha   120.00000000
_cell_angle_beta   90.00000000
_cell_angle_gamma   90.00000000
_symmetry_Int_Tables_number   1
_chemical_formula_structural   YFe3Ge7
_chemical_formula_sum   'Y1 Fe3 Ge7'
_cell_volume   175.39229039
_cell_formula_units_Z   1
loop_
 _symmetry_equiv_pos_site_id
 _symmetry_equiv_pos_as_xyz
  1  'x, y, z'
loop_
 _atom_site_type_symbol
 _atom_site_label
 _atom_site_symmetry_multiplicity
 _atom_site_fract_x
 _atom_site_fract_y
 _atom_site_fract_z
 _atom_site_occupancy
  Y  Y0  1  0.00000000  0.00000000  0.00000000  1
  Fe  Fe1  1  0.50000000  0.18826500  0.81173401  1
  Fe  Fe2  1  -0.00000000  0.66666665  0.33333332  1
  Ge  Ge3  1  0.50000000  0.62346899  0.81173400  1
  Ge  Ge4  1  0.50000000  0.18826500  0.37653000  1
  Fe  Fe5  1  0.99999999  0.46504999  0.53495000  1
  Ge  Ge6  1  0.50000000  0.39799199  0.19899599  1
  Ge  Ge7  1  0.50000000  0.80100398  0.19899598  1
  Ge  Ge8  1  -0.00000000  0.46504999  0.93010000  1
  Ge  Ge9  1  0.50000000  0.80100398  0.60200799  1
  Ge  Ge10  1  0.99999999  0.06990000  0.53495001  1
