# generated using pymatgen
data_PrMgZn4
_symmetry_space_group_name_H-M   'P 1'
_cell_length_a   5.39655399
_cell_length_b   5.39655399
_cell_length_c   5.39655399
_cell_angle_alpha   61.61238861
_cell_angle_beta   61.61238861
_cell_angle_gamma   61.61238480
_symmetry_Int_Tables_number   1
_chemical_formula_structural   PrMgZn4
_chemical_formula_sum   'Pr1 Mg1 Zn4'
_cell_volume   115.14992238
_cell_formula_units_Z   1
loop_
 _symmetry_equiv_pos_site_id
 _symmetry_equiv_pos_as_xyz
  1  'x, y, z'
loop_
 _atom_site_type_symbol
 _atom_site_label
 _atom_site_symmetry_multiplicity
 _atom_site_fract_x
 _atom_site_fract_y
 _atom_site_fract_z
 _atom_site_occupancy
  Pr  Pr0  1  0.37428104  0.37428102  0.37428097  1
  Mg  Mg1  1  0.62571907  0.62571903  0.62571894  1
  Zn  Zn2  1  0.50000008  1.00000004  0.99999993  1
  Zn  Zn3  1  0.00000003  0.50000002  0.99999997  1
  Zn  Zn4  1  0.00000000  0.00000000  0.50000000  1
  Zn  Zn5  1  0.00000000  0.00000000  0.00000000  1
