# generated using pymatgen
data_SrNd(FeO3)2
_symmetry_space_group_name_H-M   'P 1'
_cell_length_a   5.43781996
_cell_length_b   5.50522089
_cell_length_c   7.74591017
_cell_angle_alpha   90.00000000
_cell_angle_beta   90.00000000
_cell_angle_gamma   90.00000000
_symmetry_Int_Tables_number   1
_chemical_formula_structural   SrNd(FeO3)2
_chemical_formula_sum   'Sr2 Nd2 Fe4 O12'
_cell_volume   231.88466536
_cell_formula_units_Z   2
loop_
 _symmetry_equiv_pos_site_id
 _symmetry_equiv_pos_as_xyz
  1  'x, y, z'
loop_
 _atom_site_type_symbol
 _atom_site_label
 _atom_site_symmetry_multiplicity
 _atom_site_fract_x
 _atom_site_fract_y
 _atom_site_fract_z
 _atom_site_occupancy
  Sr  Sr0  1  0.49564200  0.77709602  0.49999999  1
  Sr  Sr1  1  0.99564201  0.22290400  0.00000000  1
  Nd  Nd2  1  0.00550400  0.29001001  0.49999999  1
  Nd  Nd3  1  0.50550400  0.70999001  0.00000000  1
  Fe  Fe4  1  0.50367400  0.24338000  0.75121698  1
  Fe  Fe5  1  0.00367400  0.75662002  0.25121699  1
  Fe  Fe6  1  0.50367400  0.24338000  0.24878299  1
  Fe  Fe7  1  0.00367400  0.75662002  0.74878298  1
  O  O8  1  0.57165800  0.23509900  0.49999999  1
  O  O9  1  0.94173201  0.73416101  0.49999999  1
  O  O10  1  0.44173200  0.26583901  0.00000000  1
  O  O11  1  0.07165800  0.76490102  0.00000000  1
  O  O12  1  0.28206800  0.53352301  0.72038498  1
  O  O13  1  0.20699000  0.04208300  0.28755399  1
  O  O14  1  0.70699001  0.95791702  0.21244600  1
  O  O15  1  0.78206801  0.46647701  0.77961498  1
  O  O16  1  0.70699001  0.95791702  0.78755398  1
  O  O17  1  0.78206801  0.46647701  0.22038500  1
  O  O18  1  0.28206800  0.53352301  0.27961499  1
  O  O19  1  0.20699000  0.04208300  0.71244598  1
