# generated using pymatgen
data_V4O3F10
_symmetry_space_group_name_H-M   'P 1'
_cell_length_a   5.26325417
_cell_length_b   5.70992613
_cell_length_c   9.23451614
_cell_angle_alpha   73.24115753
_cell_angle_beta   88.62812805
_cell_angle_gamma   63.95595169
_symmetry_Int_Tables_number   1
_chemical_formula_structural   V4O3F10
_chemical_formula_sum   'V4 O3 F10'
_cell_volume   237.04608353
_cell_formula_units_Z   1
loop_
 _symmetry_equiv_pos_site_id
 _symmetry_equiv_pos_as_xyz
  1  'x, y, z'
loop_
 _atom_site_type_symbol
 _atom_site_label
 _atom_site_symmetry_multiplicity
 _atom_site_fract_x
 _atom_site_fract_y
 _atom_site_fract_z
 _atom_site_occupancy
  V  V0  1  0.76066702  0.44071797  0.58429802  1
  V  V1  1  0.53578402  0.91029294  0.82784204  1
  V  V2  1  0.32899501  0.40399897  0.10856702  1
  V  V3  1  0.02992902  0.93733994  0.36429104  1
  O  O4  1  0.01916202  0.98846193  0.99848305  1
  O  O5  1  0.40287702  0.74019795  0.01000003  1
  O  O6  1  0.02728701  0.72918895  0.20310703  1
  F  F7  1  0.95259402  0.66802495  0.53192703  1
  F  F8  1  0.43260902  0.70417795  0.40917003  1
  F  F9  1  0.53945602  0.65920596  0.71141103  1
  F  F10  1  0.62824101  0.17640799  0.28859101  1
  F  F11  1  0.60670201  0.17980599  0.97038202  1
  F  F12  1  0.61470701  0.17023399  0.66198301  1
  F  F13  1  0.95388903  0.69679995  0.92248404  1
  F  F14  1  0.08887600  0.18974399  0.79863902  1
  F  F15  1  0.01295500  0.20219699  0.47550401  1
  F  F16  1  0.10158900  0.17912099  0.14631201  1
