# generated using pymatgen
data_Ba3NaNi3O
_symmetry_space_group_name_H-M   'P 1'
_cell_length_a   3.34089804
_cell_length_b   3.34089851
_cell_length_c   17.64769745
_cell_angle_alpha   90.00000000
_cell_angle_beta   90.00000000
_cell_angle_gamma   119.99999237
_symmetry_Int_Tables_number   1
_chemical_formula_structural   Ba3NaNi3O
_chemical_formula_sum   'Ba3 Na1 Ni3 O1'
_cell_volume   170.58672023
_cell_formula_units_Z   1
loop_
 _symmetry_equiv_pos_site_id
 _symmetry_equiv_pos_as_xyz
  1  'x, y, z'
loop_
 _atom_site_type_symbol
 _atom_site_label
 _atom_site_symmetry_multiplicity
 _atom_site_fract_x
 _atom_site_fract_y
 _atom_site_fract_z
 _atom_site_occupancy
  Na  Na0  1  0.33333328  0.66666662  0.24999999  1
  Ba  Ba1  1  0.66666663  0.33333331  0.74999998  1
  Ba  Ba2  1  0.00000000  0.00000000  0.00000000  1
  Ba  Ba3  1  0.00000000  0.00000000  0.49999999  1
  Ni  Ni4  1  0.00000000  0.00000000  0.66159398  1
  Ni  Ni5  1  0.00000000  0.00000000  0.16159400  1
  Ni  Ni6  1  0.00000000  0.00000000  0.83840598  1
  O  O7  1  0.00000000  0.00000000  0.33840599  1
