# generated using pymatgen
data_KSr2Sn9
_symmetry_space_group_name_H-M   'P 1'
_cell_length_a   4.64499998
_cell_length_b   4.64756584
_cell_length_c   14.07998562
_cell_angle_alpha   99.49964905
_cell_angle_beta   90.00000000
_cell_angle_gamma   90.00000000
_symmetry_Int_Tables_number   1
_chemical_formula_structural   KSr2Sn9
_chemical_formula_sum   'K1 Sr2 Sn9'
_cell_volume   299.78963755
_cell_formula_units_Z   1
loop_
 _symmetry_equiv_pos_site_id
 _symmetry_equiv_pos_as_xyz
  1  'x, y, z'
loop_
 _atom_site_type_symbol
 _atom_site_label
 _atom_site_symmetry_multiplicity
 _atom_site_fract_x
 _atom_site_fract_y
 _atom_site_fract_z
 _atom_site_occupancy
  Sr  Sr0  1  0.50000000  0.50000002  0.99999998  1
  Sr  Sr1  1  1.00000000  0.81544103  0.63088198  1
  K  K2  1  1.00000000  0.18455901  0.36911799  1
  Sn  Sn3  1  0.50000000  0.37272901  0.74545798  1
  Sn  Sn4  1  0.50000000  0.62727102  0.25454199  1
  Sn  Sn5  1  0.50000000  0.28262801  0.56525599  1
  Sn  Sn6  1  0.50000000  0.71737202  0.43474399  1
  Sn  Sn7  1  1.00000000  0.40985301  0.81970598  1
  Sn  Sn8  1  0.00000000  0.00000000  0.00000000  1
  Sn  Sn9  1  1.00000000  0.59014702  0.18029399  1
  Sn  Sn10  1  0.50000000  0.09031800  0.18063600  1
  Sn  Sn11  1  0.50000000  0.90968203  0.81936398  1
