# generated using pymatgen
data_K2IO
_symmetry_space_group_name_H-M   'P 1'
_cell_length_a   4.19584608
_cell_length_b   4.19584608
_cell_length_c   8.34226418
_cell_angle_alpha   75.43481445
_cell_angle_beta   75.43481445
_cell_angle_gamma   59.99999619
_symmetry_Int_Tables_number   1
_chemical_formula_structural   K2IO
_chemical_formula_sum   'K2 I1 O1'
_cell_volume   121.70953830
_cell_formula_units_Z   1
loop_
 _symmetry_equiv_pos_site_id
 _symmetry_equiv_pos_as_xyz
  1  'x, y, z'
loop_
 _atom_site_type_symbol
 _atom_site_label
 _atom_site_symmetry_multiplicity
 _atom_site_fract_x
 _atom_site_fract_y
 _atom_site_fract_z
 _atom_site_occupancy
  K  K0  1  0.22845801  0.22845801  0.31462599  1
  K  K1  1  0.77154205  0.77154203  0.68537395  1
  I  I2  1  0.00000000  0.00000000  0.00000000  1
  O  O3  1  0.50000003  0.50000002  0.49999997  1
