# generated using pymatgen
data_Tl2Zn(GeSe2)2
_symmetry_space_group_name_H-M   'P 1'
_cell_length_a   6.76425600
_cell_length_b   6.94914818
_cell_length_c   12.83111000
_cell_angle_alpha   81.44245148
_cell_angle_beta   74.71692657
_cell_angle_gamma   60.87630081
_symmetry_Int_Tables_number   1
_chemical_formula_structural   Tl2Zn(GeSe2)2
_chemical_formula_sum   'Tl4 Zn2 Ge4 Se8'
_cell_volume   508.09914219
_cell_formula_units_Z   2
loop_
 _symmetry_equiv_pos_site_id
 _symmetry_equiv_pos_as_xyz
  1  'x, y, z'
loop_
 _atom_site_type_symbol
 _atom_site_label
 _atom_site_symmetry_multiplicity
 _atom_site_fract_x
 _atom_site_fract_y
 _atom_site_fract_z
 _atom_site_occupancy
  Tl  Tl0  1  0.25567002  0.69376197  0.94280297  1
  Tl  Tl1  1  0.89223502  0.80623797  0.55719700  1
  Tl  Tl2  1  0.74433000  0.30623799  0.05719701  1
  Tl  Tl3  1  0.10776501  0.19376199  0.44280299  1
  Zn  Zn4  1  0.87557102  0.74999997  0.25000000  1
  Zn  Zn5  1  0.12442901  0.24999999  0.74999998  1
  Ge  Ge6  1  0.32903803  0.96385496  0.15275600  1
  Ge  Ge7  1  0.44564902  0.53614498  0.34724399  1
  Ge  Ge8  1  0.67096200  0.03614500  0.84724398  1
  Ge  Ge9  1  0.55435101  0.46385498  0.65275599  1
  Se  Se10  1  0.93773100  0.09720300  0.25210701  1
  Se  Se11  1  0.28704101  0.40279699  0.24789300  1
  Se  Se12  1  0.06226903  0.90279697  0.74789297  1
  Se  Se13  1  0.71295902  0.59720298  0.75210699  1
  Se  Se14  1  0.56869402  0.74206797  0.42265099  1
  Se  Se15  1  0.73341302  0.75793197  0.07734901  1
  Se  Se16  1  0.43130601  0.25793199  0.57734899  1
  Se  Se17  1  0.26658701  0.24206799  0.92265097  1
