# generated using pymatgen
data_Lu5Mg
_symmetry_space_group_name_H-M   'P 1'
_cell_length_a   3.19814110
_cell_length_b   3.19814110
_cell_length_c   13.63347816
_cell_angle_alpha   90.00000000
_cell_angle_beta   90.00000000
_cell_angle_gamma   90.00000000
_symmetry_Int_Tables_number   1
_chemical_formula_structural   Lu5Mg
_chemical_formula_sum   'Lu5 Mg1'
_cell_volume   139.44466640
_cell_formula_units_Z   1
loop_
 _symmetry_equiv_pos_site_id
 _symmetry_equiv_pos_as_xyz
  1  'x, y, z'
loop_
 _atom_site_type_symbol
 _atom_site_label
 _atom_site_symmetry_multiplicity
 _atom_site_fract_x
 _atom_site_fract_y
 _atom_site_fract_z
 _atom_site_occupancy
  Lu  Lu0  1  0.49999998  0.49999998  0.33585300  1
  Lu  Lu1  1  0.49999998  0.49999998  0.66414699  1
  Lu  Lu2  1  0.00000000  0.00000000  0.17885200  1
  Lu  Lu3  1  0.00000000  0.00000000  0.82114799  1
  Lu  Lu4  1  0.00000000  0.00000000  0.49999999  1
  Mg  Mg5  1  0.49999998  0.49999998  0.00000000  1
