# generated using pymatgen
data_Nb5Si2BiN
_symmetry_space_group_name_H-M   'P 1'
_cell_length_a   5.68805504
_cell_length_b   8.15875816
_cell_length_c   8.15875721
_cell_angle_alpha   120.00000000
_cell_angle_beta   90.00000000
_cell_angle_gamma   90.00000000
_symmetry_Int_Tables_number   1
_chemical_formula_structural   Nb5Si2BiN
_chemical_formula_sum   'Nb10 Si4 Bi2 N2'
_cell_volume   327.90081149
_cell_formula_units_Z   2
loop_
 _symmetry_equiv_pos_site_id
 _symmetry_equiv_pos_as_xyz
  1  'x, y, z'
loop_
 _atom_site_type_symbol
 _atom_site_label
 _atom_site_symmetry_multiplicity
 _atom_site_fract_x
 _atom_site_fract_y
 _atom_site_fract_z
 _atom_site_occupancy
  Nb  Nb0  1  0.74999999  0.77591797  0.77591798  1
  Nb  Nb1  1  0.25000000  0.22408199  0.22408199  1
  Nb  Nb2  1  0.74999999  0.99999996  0.22408196  1
  Nb  Nb3  1  0.25000000  0.99999996  0.77591797  1
  Nb  Nb4  1  0.74999999  0.22408199  -0.00000001  1
  Nb  Nb5  1  0.25000000  0.77591797  -0.00000004  1
  Nb  Nb6  1  0.99999999  0.66666664  0.33333331  1
  Nb  Nb7  1  -0.00000000  0.33333332  0.66666667  1
  Nb  Nb8  1  0.50000000  0.33333332  0.66666667  1
  Nb  Nb9  1  0.50000000  0.66666664  0.33333331  1
  Si  Si10  1  0.74999999  0.40262898  0.40262899  1
  Si  Si11  1  0.25000000  0.59737097  0.59737098  1
  Si  Si12  1  0.74999999  0.99999996  0.59737097  1
  Bi  Bi13  1  0.25000000  0.99999996  0.40262896  1
  Si  Si14  1  0.74999999  0.59737097  -0.00000003  1
  Bi  Bi15  1  0.25000000  0.40262898  1.00000000  1
  N  N16  1  0.00000000  0.00000000  0.00000000  1
  N  N17  1  0.50000000  0.00000000  -0.00000000  1
