# generated using pymatgen
data_NdGe4Ir
_symmetry_space_group_name_H-M   'P 1'
_cell_length_a   3.99184704
_cell_length_b   5.33534288
_cell_length_c   9.02892494
_cell_angle_alpha   90.00000000
_cell_angle_beta   90.00000000
_cell_angle_gamma   90.00000000
_symmetry_Int_Tables_number   1
_chemical_formula_structural   NdGe4Ir
_chemical_formula_sum   'Nd2 Ge8 Ir2'
_cell_volume   192.29689394
_cell_formula_units_Z   2
loop_
 _symmetry_equiv_pos_site_id
 _symmetry_equiv_pos_as_xyz
  1  'x, y, z'
loop_
 _atom_site_type_symbol
 _atom_site_label
 _atom_site_symmetry_multiplicity
 _atom_site_fract_x
 _atom_site_fract_y
 _atom_site_fract_z
 _atom_site_occupancy
  Nd  Nd0  1  0.00000000  0.50000001  0.00000000  1
  Nd  Nd1  1  0.00000000  0.00000000  0.50000000  1
  Ge  Ge2  1  0.50000000  0.00000000  0.00000000  1
  Ge  Ge3  1  0.50000000  0.74662102  0.25635500  1
  Ge  Ge4  1  0.50000000  0.25337901  0.74364500  1
  Ge  Ge5  1  0.50000000  0.25337901  0.25635500  1
  Ge  Ge6  1  0.50000000  0.74662102  0.74364500  1
  Ge  Ge7  1  0.00000000  0.50000001  0.34018200  1
  Ge  Ge8  1  0.00000000  0.00000000  0.83356501  1
  Ge  Ge9  1  0.00000000  0.00000000  0.16643500  1
  Ir  Ir10  1  0.00000000  0.50000001  0.65981800  1
  Ir  Ir11  1  0.50000000  0.50000001  0.50000000  1
