# generated using pymatgen
data_MgPb2
_symmetry_space_group_name_H-M   'P 1'
_cell_length_a   3.40067410
_cell_length_b   3.40067387
_cell_length_c   15.38905621
_cell_angle_alpha   90.00000000
_cell_angle_beta   90.00000000
_cell_angle_gamma   120.00000000
_symmetry_Int_Tables_number   1
_chemical_formula_structural   MgPb2
_chemical_formula_sum   'Mg2 Pb4'
_cell_volume   154.12483186
_cell_formula_units_Z   2
loop_
 _symmetry_equiv_pos_site_id
 _symmetry_equiv_pos_as_xyz
  1  'x, y, z'
loop_
 _atom_site_type_symbol
 _atom_site_label
 _atom_site_symmetry_multiplicity
 _atom_site_fract_x
 _atom_site_fract_y
 _atom_site_fract_z
 _atom_site_occupancy
  Mg  Mg0  1  0.66666664  0.33333334  0.25000000  1
  Mg  Mg1  1  0.33333332  0.66666668  0.74999999  1
  Pb  Pb2  1  0.33333332  0.66666668  0.09097400  1
  Pb  Pb3  1  0.33333332  0.66666668  0.40902599  1
  Pb  Pb4  1  0.66666664  0.33333334  0.59097399  1
  Pb  Pb5  1  0.66666664  0.33333334  0.90902599  1
