# generated using pymatgen
data_HfGeIr
_symmetry_space_group_name_H-M   'P 1'
_cell_length_a   4.07845688
_cell_length_b   6.62580585
_cell_length_c   7.60323381
_cell_angle_alpha   90.00000000
_cell_angle_beta   90.00000000
_cell_angle_gamma   90.00000000
_symmetry_Int_Tables_number   1
_chemical_formula_structural   HfGeIr
_chemical_formula_sum   'Hf4 Ge4 Ir4'
_cell_volume   205.46266990
_cell_formula_units_Z   4
loop_
 _symmetry_equiv_pos_site_id
 _symmetry_equiv_pos_as_xyz
  1  'x, y, z'
loop_
 _atom_site_type_symbol
 _atom_site_label
 _atom_site_symmetry_multiplicity
 _atom_site_fract_x
 _atom_site_fract_y
 _atom_site_fract_z
 _atom_site_occupancy
  Hf  Hf0  1  0.25000001  0.02151400  0.81425902  1
  Hf  Hf1  1  0.25000001  0.52151401  0.68574102  1
  Hf  Hf2  1  0.75000002  0.97848602  0.18574100  1
  Hf  Hf3  1  0.75000002  0.47848601  0.31425901  1
  Ge  Ge4  1  0.25000001  0.76975302  0.37955201  1
  Ge  Ge5  1  0.25000001  0.26975301  0.12044800  1
  Ge  Ge6  1  0.75000002  0.23024701  0.62044802  1
  Ge  Ge7  1  0.75000002  0.73024702  0.87955202  1
  Ir  Ir8  1  0.25000001  0.15195100  0.43802901  1
  Ir  Ir9  1  0.25000001  0.65195101  0.06197100  1
  Ir  Ir10  1  0.75000002  0.84804902  0.56197101  1
  Ir  Ir11  1  0.75000002  0.34804901  0.93802902  1
