# generated using pymatgen
data_Pr4Ni3Ge8
_symmetry_space_group_name_H-M   'P 1'
_cell_length_a   4.10975885
_cell_length_b   4.11742115
_cell_length_c   16.64957428
_cell_angle_alpha   90.00000000
_cell_angle_beta   90.00000000
_cell_angle_gamma   90.00000000
_symmetry_Int_Tables_number   1
_chemical_formula_structural   Pr4Ni3Ge8
_chemical_formula_sum   'Pr4 Ni3 Ge8'
_cell_volume   281.73756978
_cell_formula_units_Z   1
loop_
 _symmetry_equiv_pos_site_id
 _symmetry_equiv_pos_as_xyz
  1  'x, y, z'
loop_
 _atom_site_type_symbol
 _atom_site_label
 _atom_site_symmetry_multiplicity
 _atom_site_fract_x
 _atom_site_fract_y
 _atom_site_fract_z
 _atom_site_occupancy
  Pr  Pr0  1  0.25000001  0.00000000  0.10476200  1
  Pr  Pr1  1  0.25000001  0.49999998  0.60690299  1
  Pr  Pr2  1  0.75000003  0.49999998  0.38924199  1
  Pr  Pr3  1  0.75000003  0.00000000  0.89237499  1
  Ni  Ni4  1  0.25000001  0.49999998  0.82094099  1
  Ni  Ni5  1  0.75000003  0.49999998  0.18297200  1
  Ni  Ni6  1  0.75000003  0.00000000  0.67946099  1
  Ge  Ge7  1  0.25000001  0.00000000  0.44932899  1
  Ge  Ge8  1  0.25000001  0.49999998  0.95817198  1
  Ge  Ge9  1  0.75000003  0.49999998  0.04421900  1
  Ge  Ge10  1  0.75000003  0.00000000  0.54094099  1
  Ge  Ge11  1  0.25000001  0.49999998  0.25541700  1
  Ge  Ge12  1  0.25000001  0.00000000  0.74852299  1
  Ge  Ge13  1  0.75000003  0.00000000  0.25546600  1
  Ge  Ge14  1  0.75000003  0.49999998  0.75087899  1
