# generated using pymatgen
data_LiFe5(OF5)2
_symmetry_space_group_name_H-M   'P 1'
_cell_length_a   3.09443498
_cell_length_b   4.76362991
_cell_length_c   14.18754959
_cell_angle_alpha   92.27772522
_cell_angle_beta   90.00000000
_cell_angle_gamma   90.00000000
_symmetry_Int_Tables_number   1
_chemical_formula_structural   LiFe5(OF5)2
_chemical_formula_sum   'Li1 Fe5 O2 F10'
_cell_volume   208.96978953
_cell_formula_units_Z   1
loop_
 _symmetry_equiv_pos_site_id
 _symmetry_equiv_pos_as_xyz
  1  'x, y, z'
loop_
 _atom_site_type_symbol
 _atom_site_label
 _atom_site_symmetry_multiplicity
 _atom_site_fract_x
 _atom_site_fract_y
 _atom_site_fract_z
 _atom_site_occupancy
  Li  Li0  1  0.00000000  0.00000000  0.00000000  1
  Fe  Fe1  1  1.00000001  0.98440202  0.32822198  1
  Fe  Fe2  1  1.00000001  0.01559800  0.67177799  1
  Fe  Fe3  1  0.50000000  0.52487601  0.17522599  1
  Fe  Fe4  1  0.50000000  0.50000001  0.49999998  1
  Fe  Fe5  1  0.50000000  0.47512401  0.82477398  1
  O  O6  1  1.00000001  0.31480201  0.76833098  1
  O  O7  1  1.00000001  0.68519801  0.23166899  1
  F  F8  1  0.50000000  0.19293700  0.26614499  1
  F  F9  1  0.50000000  0.20079000  0.93544498  1
  F  F10  1  0.50000000  0.20223300  0.60085299  1
  F  F11  1  0.00000000  0.31024301  0.10415099  1
  F  F12  1  1.00000001  0.29704301  0.43259299  1
  F  F13  1  1.00000001  0.70295701  0.56740698  1
  F  F14  1  1.00000001  0.68975701  0.89584897  1
  F  F15  1  0.50000000  0.79921001  0.06455499  1
  F  F16  1  0.50000000  0.79776701  0.39914698  1
  F  F17  1  0.50000000  0.80706301  0.73385498  1
