# generated using pymatgen
data_ZnCuSe2
_symmetry_space_group_name_H-M   'P 1'
_cell_length_a   5.76141214
_cell_length_b   5.76141214
_cell_length_c   7.02125931
_cell_angle_alpha   114.22263336
_cell_angle_beta   114.22263336
_cell_angle_gamma   90.00000000
_symmetry_Int_Tables_number   1
_chemical_formula_structural   ZnCuSe2
_chemical_formula_sum   'Zn2 Cu2 Se4'
_cell_volume   189.81888742
_cell_formula_units_Z   2
loop_
 _symmetry_equiv_pos_site_id
 _symmetry_equiv_pos_as_xyz
  1  'x, y, z'
loop_
 _atom_site_type_symbol
 _atom_site_label
 _atom_site_symmetry_multiplicity
 _atom_site_fract_x
 _atom_site_fract_y
 _atom_site_fract_z
 _atom_site_occupancy
  Zn  Zn0  1  0.74999994  0.24999998  0.49999995  1
  Zn  Zn1  1  0.49999994  0.49999997  -0.00000007  1
  Cu  Cu2  1  0.24999994  0.74999995  0.49999994  1
  Cu  Cu3  1  0.00000000  0.00000000  0.00000000  1
  Se  Se4  1  0.10123195  0.63123596  0.73580296  1
  Se  Se5  1  0.63457096  0.10456699  0.73580298  1
  Se  Se6  1  0.36876396  0.36542898  0.26419696  1
  Se  Se7  1  0.89543289  0.89876794  0.26419688  1
