# generated using pymatgen
data_Ba2CuClO3
_symmetry_space_group_name_H-M   'P 1'
_cell_length_a   3.92114091
_cell_length_b   3.92126107
_cell_length_c   14.87809563
_cell_angle_alpha   89.99996948
_cell_angle_beta   89.99996948
_cell_angle_gamma   89.99082184
_symmetry_Int_Tables_number   1
_chemical_formula_structural   Ba2CuClO3
_chemical_formula_sum   'Ba4 Cu2 Cl2 O6'
_cell_volume   228.76287579
_cell_formula_units_Z   2
loop_
 _symmetry_equiv_pos_site_id
 _symmetry_equiv_pos_as_xyz
  1  'x, y, z'
loop_
 _atom_site_type_symbol
 _atom_site_label
 _atom_site_symmetry_multiplicity
 _atom_site_fract_x
 _atom_site_fract_y
 _atom_site_fract_z
 _atom_site_occupancy
  Ba  Ba0  1  0.74999801  0.25000100  0.09063200  1
  Ba  Ba1  1  0.24999898  0.74999999  0.90937202  1
  Ba  Ba2  1  0.74999901  0.25000100  0.34175601  1
  Ba  Ba3  1  0.24999898  0.75000099  0.65824801  1
  Cu  Cu4  1  0.24999998  0.74999899  0.21041700  1
  Cu  Cu5  1  0.75000801  0.24999100  0.78956402  1
  Cl  Cl6  1  0.24999898  0.75000099  0.42260201  1
  Cl  Cl7  1  0.75000001  0.25000200  0.57740201  1
  O  O8  1  0.74999999  0.75000099  0.23096300  1
  O  O9  1  0.24999900  0.25000100  0.23096400  1
  O  O10  1  0.25000200  0.25000100  0.76904002  1
  O  O11  1  0.74999899  0.74999899  0.76903902  1
  O  O12  1  0.24999898  0.75000199  0.07406400  1
  O  O13  1  0.74999901  0.25000000  0.92593802  1
