# generated using pymatgen
data_CuSe2
_symmetry_space_group_name_H-M   'P 1'
_cell_length_a   5.96711922
_cell_length_b   5.98080587
_cell_length_c   6.05615759
_cell_angle_alpha   90.00000000
_cell_angle_beta   67.91671753
_cell_angle_gamma   90.00000000
_symmetry_Int_Tables_number   1
_chemical_formula_structural   CuSe2
_chemical_formula_sum   'Cu4 Se8'
_cell_volume   200.27736337
_cell_formula_units_Z   4
loop_
 _symmetry_equiv_pos_site_id
 _symmetry_equiv_pos_as_xyz
  1  'x, y, z'
loop_
 _atom_site_type_symbol
 _atom_site_label
 _atom_site_symmetry_multiplicity
 _atom_site_fract_x
 _atom_site_fract_y
 _atom_site_fract_z
 _atom_site_occupancy
  Cu  Cu0  1  0.14386700  0.87128802  0.11873500  1
  Cu  Cu1  1  0.85613298  0.37128801  0.38126498  1
  Cu  Cu2  1  0.85613298  0.12871200  0.88126498  1
  Cu  Cu3  1  0.14386700  0.62871201  0.61873500  1
  Se  Se4  1  0.26404099  0.51091601  0.20971099  1
  Se  Se5  1  0.73595898  0.01091600  0.29028898  1
  Se  Se6  1  0.73595898  0.48908401  0.79028898  1
  Se  Se7  1  0.26404099  0.98908402  0.70971099  1
  Se  Se8  1  0.33390699  0.12456900  0.30737399  1
  Se  Se9  1  0.66609298  0.62456901  0.19262599  1
  Se  Se10  1  0.66609298  0.87543102  0.69262598  1
  Se  Se11  1  0.33390699  0.37543101  0.80737399  1
