# generated using pymatgen
data_NaCaLuBiO6
_symmetry_space_group_name_H-M   'P 1'
_cell_length_a   5.55048895
_cell_length_b   5.55049229
_cell_length_c   5.58526611
_cell_angle_alpha   119.76572418
_cell_angle_beta   119.76570892
_cell_angle_gamma   90.04705811
_symmetry_Int_Tables_number   1
_chemical_formula_structural   NaCaLuBiO6
_chemical_formula_sum   'Na1 Ca1 Lu1 Bi1 O6'
_cell_volume   122.47993564
_cell_formula_units_Z   1
loop_
 _symmetry_equiv_pos_site_id
 _symmetry_equiv_pos_as_xyz
  1  'x, y, z'
loop_
 _atom_site_type_symbol
 _atom_site_label
 _atom_site_symmetry_multiplicity
 _atom_site_fract_x
 _atom_site_fract_y
 _atom_site_fract_z
 _atom_site_occupancy
  Na  Na0  1  0.97335305  0.97335301  0.94670603  1
  Lu  Lu1  1  0.21536502  0.71536501  0.43073399  1
  Ca  Ca2  1  0.71536402  0.21536400  0.43073204  1
  Bi  Bi3  1  0.51775803  0.51775801  0.03551803  1
  O  O4  1  0.45853004  0.93434601  0.39286901  1
  O  O5  1  0.93434604  0.45853001  0.39287005  1
  O  O6  1  0.45855402  0.45855401  0.39293102  1
  O  O7  1  0.93437705  0.93437701  0.39292904  1
  O  O8  1  0.45896304  0.95896101  0.91792700  1
  O  O9  1  0.95896104  0.45896201  0.91792604  1
