# generated using pymatgen
data_LiBN3
_symmetry_space_group_name_H-M   'P 1'
_cell_length_a   5.01674414
_cell_length_b   5.01674414
_cell_length_c   6.24900389
_cell_angle_alpha   66.33405304
_cell_angle_beta   66.33405304
_cell_angle_gamma   59.99999619
_symmetry_Int_Tables_number   1
_chemical_formula_structural   LiBN3
_chemical_formula_sum   'Li2 B2 N6'
_cell_volume   120.68862226
_cell_formula_units_Z   2
loop_
 _symmetry_equiv_pos_site_id
 _symmetry_equiv_pos_as_xyz
  1  'x, y, z'
loop_
 _atom_site_type_symbol
 _atom_site_label
 _atom_site_symmetry_multiplicity
 _atom_site_fract_x
 _atom_site_fract_y
 _atom_site_fract_z
 _atom_site_occupancy
  Li  Li0  1  0.49999999  0.50000001  0.49999999  1
  Li  Li1  1  0.00000000  0.00000000  0.00000000  1
  B  B2  1  0.74999999  0.75000002  0.74999998  1
  B  B3  1  0.25000000  0.25000001  0.24999999  1
  N  N4  1  0.74999999  0.49101301  0.74999999  1
  N  N5  1  0.00898698  0.75000002  0.74999999  1
  N  N6  1  0.50898698  0.99101302  0.24999999  1
  N  N7  1  0.24999999  0.50898701  0.24999999  1
  N  N8  1  0.99101300  0.25000001  0.24999999  1
  N  N9  1  0.49101301  0.00898700  0.74999999  1
