# generated using pymatgen
data_Ce2NbSbSe2
_symmetry_space_group_name_H-M   'P 1'
_cell_length_a   4.11369801
_cell_length_b   4.11369801
_cell_length_c   10.08448982
_cell_angle_alpha   90.00000000
_cell_angle_beta   90.00000000
_cell_angle_gamma   120.00000000
_symmetry_Int_Tables_number   1
_chemical_formula_structural   Ce2NbSbSe2
_chemical_formula_sum   'Ce2 Nb1 Sb1 Se2'
_cell_volume   147.79147244
_cell_formula_units_Z   1
loop_
 _symmetry_equiv_pos_site_id
 _symmetry_equiv_pos_as_xyz
  1  'x, y, z'
loop_
 _atom_site_type_symbol
 _atom_site_label
 _atom_site_symmetry_multiplicity
 _atom_site_fract_x
 _atom_site_fract_y
 _atom_site_fract_z
 _atom_site_occupancy
  Ce  Ce0  1  0.00000000  0.00000000  0.50000001  1
  Ce  Ce1  1  0.66666667  0.33333334  0.82463101  1
  Nb  Nb2  1  0.33333334  0.66666667  0.17536900  1
  Sb  Sb3  1  0.00000000  0.00000000  0.00000000  1
  Se  Se4  1  0.66666667  0.33333334  0.33656501  1
  Se  Se5  1  0.33333334  0.66666667  0.66343501  1
