# generated using pymatgen
data_Ni4Se3S5
_symmetry_space_group_name_H-M   'P 1'
_cell_length_a   5.74217319
_cell_length_b   5.74217319
_cell_length_c   5.74217319
_cell_angle_alpha   90.00000000
_cell_angle_beta   90.00000000
_cell_angle_gamma   90.00000000
_symmetry_Int_Tables_number   1
_chemical_formula_structural   Ni4Se3S5
_chemical_formula_sum   'Ni4 Se3 S5'
_cell_volume   189.33411000
_cell_formula_units_Z   1
loop_
 _symmetry_equiv_pos_site_id
 _symmetry_equiv_pos_as_xyz
  1  'x, y, z'
loop_
 _atom_site_type_symbol
 _atom_site_label
 _atom_site_symmetry_multiplicity
 _atom_site_fract_x
 _atom_site_fract_y
 _atom_site_fract_z
 _atom_site_occupancy
  Ni  Ni0  1  0.49999998  0.49999998  0.00000000  1
  Ni  Ni1  1  0.49999998  0.00000000  0.49999998  1
  Ni  Ni2  1  0.00000000  0.49999998  0.49999998  1
  Ni  Ni3  1  0.00000000  0.00000000  0.00000000  1
  Se  Se4  1  0.10884200  0.89115797  0.39115799  1
  Se  Se5  1  0.89115797  0.39115799  0.10884200  1
  S  S6  1  0.39115799  0.10884200  0.89115797  1
  Se  Se7  1  0.60884198  0.60884198  0.60884198  1
  S  S8  1  0.89115797  0.10884200  0.60884198  1
  S  S9  1  0.10884200  0.60884198  0.89115797  1
  S  S10  1  0.60884198  0.89115797  0.10884200  1
  S  S11  1  0.39115799  0.39115799  0.39115799  1
