# generated using pymatgen
data_Ta2Si
_symmetry_space_group_name_H-M   'P 1'
_cell_length_a   3.98030996
_cell_length_b   5.53751993
_cell_length_c   6.64049244
_cell_angle_alpha   91.56362915
_cell_angle_beta   90.00000000
_cell_angle_gamma   90.00000000
_symmetry_Int_Tables_number   1
_chemical_formula_structural   Ta2Si
_chemical_formula_sum   'Ta4 Si2'
_cell_volume   146.30889754
_cell_formula_units_Z   2
loop_
 _symmetry_equiv_pos_site_id
 _symmetry_equiv_pos_as_xyz
  1  'x, y, z'
loop_
 _atom_site_type_symbol
 _atom_site_label
 _atom_site_symmetry_multiplicity
 _atom_site_fract_x
 _atom_site_fract_y
 _atom_site_fract_z
 _atom_site_occupancy
  Ta  Ta0  1  0.00000000  0.21086800  0.63558301  1
  Ta  Ta1  1  0.00000000  0.78913201  0.36441698  1
  Ta  Ta2  1  0.50000000  0.70724701  0.86796201  1
  Ta  Ta3  1  0.50000000  0.29275300  0.13203799  1
  Si  Si4  1  0.50000000  0.50000001  0.50000000  1
  Si  Si5  1  0.00000000  0.00000000  0.00000000  1
