# generated using pymatgen
data_Sr2NdHfO6
_symmetry_space_group_name_H-M   'P 1'
_cell_length_a   5.97358513
_cell_length_b   6.13709497
_cell_length_c   8.53458023
_cell_angle_alpha   90.00000000
_cell_angle_beta   89.77927399
_cell_angle_gamma   90.00000000
_symmetry_Int_Tables_number   1
_chemical_formula_structural   Sr2NdHfO6
_chemical_formula_sum   'Sr4 Nd2 Hf2 O12'
_cell_volume   312.87930924
_cell_formula_units_Z   2
loop_
 _symmetry_equiv_pos_site_id
 _symmetry_equiv_pos_as_xyz
  1  'x, y, z'
loop_
 _atom_site_type_symbol
 _atom_site_label
 _atom_site_symmetry_multiplicity
 _atom_site_fract_x
 _atom_site_fract_y
 _atom_site_fract_z
 _atom_site_occupancy
  Sr  Sr0  1  0.48683799  0.54738300  0.24705902  1
  Sr  Sr1  1  0.01316200  0.04738300  0.25294100  1
  Sr  Sr2  1  0.98683798  0.95261700  0.74705905  1
  Sr  Sr3  1  0.51316199  0.45261700  0.75294103  1
  Nd  Nd4  1  -0.00000000  0.50000000  0.50000001  1
  Nd  Nd5  1  0.49999999  0.00000000  0.00000002  1
  Hf  Hf6  1  -0.00000000  0.50000000  -0.00000000  1
  Hf  Hf7  1  0.49999999  0.00000000  0.50000003  1
  O  O8  1  0.10390500  0.54390000  0.76647901  1
  O  O9  1  0.39609499  0.04390000  0.73352102  1
  O  O10  1  0.89609498  0.45610000  0.23352104  1
  O  O11  1  0.60390499  0.95610000  0.26647903  1
  O  O12  1  0.21733900  0.81149100  0.45100901  1
  O  O13  1  0.28266099  0.31149100  0.04899101  1
  O  O14  1  0.78266098  0.18850900  0.54899104  1
  O  O15  1  0.71733898  0.68850900  0.95100904  1
  O  O16  1  0.81360798  0.22090600  0.93820604  1
  O  O17  1  0.68639199  0.72090600  0.56179403  1
  O  O18  1  0.18639200  0.77909400  0.06179401  1
  O  O19  1  0.31360799  0.27909400  0.43820602  1
