# generated using pymatgen
data_Eu5Ge3H
_symmetry_space_group_name_H-M   'P 1'
_cell_length_a   7.73174000
_cell_length_b   7.73174000
_cell_length_c   9.05875683
_cell_angle_alpha   115.26180267
_cell_angle_beta   115.26180267
_cell_angle_gamma   90.00000000
_symmetry_Int_Tables_number   1
_chemical_formula_structural   Eu5Ge3H
_chemical_formula_sum   'Eu10 Ge6 H2'
_cell_volume   431.78721029
_cell_formula_units_Z   2
loop_
 _symmetry_equiv_pos_site_id
 _symmetry_equiv_pos_as_xyz
  1  'x, y, z'
loop_
 _atom_site_type_symbol
 _atom_site_label
 _atom_site_symmetry_multiplicity
 _atom_site_fract_x
 _atom_site_fract_y
 _atom_site_fract_z
 _atom_site_occupancy
  Eu  Eu0  1  0.50000000  0.50000000  -0.00000000  1
  Eu  Eu1  1  0.00000000  0.00000000  0.00000000  1
  Eu  Eu2  1  0.52310500  0.67941400  0.70251896  1
  Eu  Eu3  1  0.17941400  0.02310500  0.70251897  1
  Eu  Eu4  1  0.02310500  0.52310500  0.70251896  1
  Eu  Eu5  1  0.67941400  0.17941400  0.70251896  1
  Eu  Eu6  1  0.47689500  0.32058600  0.29748098  1
  Eu  Eu7  1  0.82058600  0.97689500  0.29748098  1
  Eu  Eu8  1  0.97689500  0.47689500  0.29748098  1
  Eu  Eu9  1  0.32058600  0.82058600  0.29748098  1
  Ge  Ge10  1  0.25000000  0.25000000  0.49999997  1
  Ge  Ge11  1  0.75000000  0.75000000  0.49999997  1
  Ge  Ge12  1  0.89017700  0.60982400  0.00000100  1
  Ge  Ge13  1  0.10982300  0.39017600  0.99999895  1
  Ge  Ge14  1  0.39017700  0.89017700  0.99999995  1
  Ge  Ge15  1  0.60982300  0.10982300  0.99999995  1
  H  H16  1  0.25000000  0.75000000  0.49999997  1
  H  H17  1  0.75000000  0.25000000  0.49999997  1
