# generated using pymatgen
data_Ca3SiO4
_symmetry_space_group_name_H-M   'P 1'
_cell_length_a   6.24688578
_cell_length_b   6.24688578
_cell_length_c   6.24688578
_cell_angle_alpha   90.00000000
_cell_angle_beta   90.00000000
_cell_angle_gamma   90.00000000
_symmetry_Int_Tables_number   1
_chemical_formula_structural   Ca3SiO4
_chemical_formula_sum   'Ca6 Si2 O8'
_cell_volume   243.77585875
_cell_formula_units_Z   2
loop_
 _symmetry_equiv_pos_site_id
 _symmetry_equiv_pos_as_xyz
  1  'x, y, z'
loop_
 _atom_site_type_symbol
 _atom_site_label
 _atom_site_symmetry_multiplicity
 _atom_site_fract_x
 _atom_site_fract_y
 _atom_site_fract_z
 _atom_site_occupancy
  Ca  Ca0  1  0.00000000  0.50000002  0.25000001  1
  Ca  Ca1  1  0.00000000  0.50000002  0.75000003  1
  Ca  Ca2  1  0.75000003  0.00000000  0.50000002  1
  Ca  Ca3  1  0.50000002  0.25000001  0.00000000  1
  Ca  Ca4  1  0.25000001  0.00000000  0.50000002  1
  Ca  Ca5  1  0.50000002  0.75000003  0.00000000  1
  Si  Si6  1  0.50000002  0.50000002  0.50000002  1
  Si  Si7  1  0.00000000  0.00000000  0.00000000  1
  O  O8  1  0.83922003  0.83922003  0.83922003  1
  O  O9  1  0.66078002  0.33922001  0.66078002  1
  O  O10  1  0.33922001  0.66078002  0.66078002  1
  O  O11  1  0.66078002  0.66078002  0.33922001  1
  O  O12  1  0.33922001  0.33922001  0.33922001  1
  O  O13  1  0.16078001  0.16078001  0.83922003  1
  O  O14  1  0.16078001  0.83922003  0.16078001  1
  O  O15  1  0.83922003  0.16078001  0.16078001  1
