# generated using pymatgen
data_LaGa2Sn
_symmetry_space_group_name_H-M   'P 1'
_cell_length_a   4.59092712
_cell_length_b   8.80228519
_cell_length_c   9.25414371
_cell_angle_alpha   90.00000000
_cell_angle_beta   90.00000000
_cell_angle_gamma   105.11637878
_symmetry_Int_Tables_number   1
_chemical_formula_structural   LaGa2Sn
_chemical_formula_sum   'La4 Ga8 Sn4'
_cell_volume   361.02603702
_cell_formula_units_Z   4
loop_
 _symmetry_equiv_pos_site_id
 _symmetry_equiv_pos_as_xyz
  1  'x, y, z'
loop_
 _atom_site_type_symbol
 _atom_site_label
 _atom_site_symmetry_multiplicity
 _atom_site_fract_x
 _atom_site_fract_y
 _atom_site_fract_z
 _atom_site_occupancy
  La  La0  1  0.79213603  0.58427203  0.25000001  1
  La  La1  1  0.20786403  0.41572802  0.75000002  1
  La  La2  1  0.00000000  0.00000000  0.50000002  1
  La  La3  1  0.00000000  0.00000000  0.00000000  1
  Ga  Ga4  1  0.18581302  0.37162702  0.39255101  1
  Ga  Ga5  1  0.81418703  0.62837303  0.60744902  1
  Ga  Ga6  1  0.18581302  0.37162702  0.10744900  1
  Ga  Ga7  1  0.81418703  0.62837303  0.89255103  1
  Ga  Ga8  1  0.34193305  0.68386603  0.48807702  1
  Ga  Ga9  1  0.65806701  0.31613401  0.51192302  1
  Ga  Ga10  1  0.34193305  0.68386603  0.01192300  1
  Ga  Ga11  1  0.65806701  0.31613401  0.98807703  1
  Sn  Sn12  1  0.60578100  0.21156201  0.25000001  1
  Sn  Sn13  1  0.39421905  0.78843804  0.75000002  1
  Sn  Sn14  1  0.44427806  0.88855604  0.25000001  1
  Sn  Sn15  1  0.55572199  0.11144401  0.75000002  1
