# generated using pymatgen
data_DyInPd
_symmetry_space_group_name_H-M   'P 1'
_cell_length_a   4.08287907
_cell_length_b   7.62757397
_cell_length_c   7.62757349
_cell_angle_alpha   120.00000000
_cell_angle_beta   90.00000000
_cell_angle_gamma   90.00000000
_symmetry_Int_Tables_number   1
_chemical_formula_structural   DyInPd
_chemical_formula_sum   'Dy3 In3 Pd3'
_cell_volume   205.71690258
_cell_formula_units_Z   3
loop_
 _symmetry_equiv_pos_site_id
 _symmetry_equiv_pos_as_xyz
  1  'x, y, z'
loop_
 _atom_site_type_symbol
 _atom_site_label
 _atom_site_symmetry_multiplicity
 _atom_site_fract_x
 _atom_site_fract_y
 _atom_site_fract_z
 _atom_site_occupancy
  Dy  Dy0  1  0.49999999  0.00000000  0.58339198  1
  Dy  Dy1  1  0.49999999  0.41660799  0.41660796  1
  Dy  Dy2  1  0.49999999  0.58339198  0.99999993  1
  In  In3  1  0.99999998  0.23836399  -0.00000002  1
  In  In4  1  -0.00000000  0.76163598  0.76163593  1
  In  In5  1  0.99999998  0.00000000  0.23836399  1
  Pd  Pd6  1  0.49999999  0.00000000  -0.00000000  1
  Pd  Pd7  1  0.99999998  0.33333332  0.66666663  1
  Pd  Pd8  1  0.99999998  0.66666665  0.33333328  1
