# generated using pymatgen
data_TiC2
_symmetry_space_group_name_H-M   'P 1'
_cell_length_a   3.64279294
_cell_length_b   6.01346207
_cell_length_c   7.08072805
_cell_angle_alpha   90.00000000
_cell_angle_beta   90.00000000
_cell_angle_gamma   90.00000000
_symmetry_Int_Tables_number   1
_chemical_formula_structural   TiC2
_chemical_formula_sum   'Ti4 C8'
_cell_volume   155.10899251
_cell_formula_units_Z   4
loop_
 _symmetry_equiv_pos_site_id
 _symmetry_equiv_pos_as_xyz
  1  'x, y, z'
loop_
 _atom_site_type_symbol
 _atom_site_label
 _atom_site_symmetry_multiplicity
 _atom_site_fract_x
 _atom_site_fract_y
 _atom_site_fract_z
 _atom_site_occupancy
  Ti  Ti0  1  0.25000000  0.75147999  0.60554400  1
  Ti  Ti1  1  0.75000001  0.24852000  0.39445600  1
  Ti  Ti2  1  0.25000000  0.25148000  0.89445599  1
  Ti  Ti3  1  0.75000001  0.74851999  0.10554400  1
  C  C4  1  0.25000000  0.98465299  0.33940600  1
  C  C5  1  0.75000001  0.01534700  0.66059399  1
  C  C6  1  0.25000000  0.48465299  0.16059400  1
  C  C7  1  0.75000001  0.51534699  0.83940599  1
  C  C8  1  0.75000001  0.14135300  0.07772300  1
  C  C9  1  0.25000000  0.85864699  0.92227699  1
  C  C10  1  0.75000001  0.64135299  0.42227700  1
  C  C11  1  0.25000000  0.35864700  0.57772300  1
