# generated using pymatgen
data_CrSi
_symmetry_space_group_name_H-M   'P 1'
_cell_length_a   3.65413690
_cell_length_b   4.57268381
_cell_length_c   7.60847378
_cell_angle_alpha   90.00000000
_cell_angle_beta   90.00000000
_cell_angle_gamma   90.00000000
_symmetry_Int_Tables_number   1
_chemical_formula_structural   CrSi
_chemical_formula_sum   'Cr4 Si4'
_cell_volume   127.13160613
_cell_formula_units_Z   4
loop_
 _symmetry_equiv_pos_site_id
 _symmetry_equiv_pos_as_xyz
  1  'x, y, z'
loop_
 _atom_site_type_symbol
 _atom_site_label
 _atom_site_symmetry_multiplicity
 _atom_site_fract_x
 _atom_site_fract_y
 _atom_site_fract_z
 _atom_site_occupancy
  Cr  Cr0  1  0.49095401  0.50000002  0.75000002  1
  Cr  Cr1  1  0.50904601  0.50000002  0.25000001  1
  Cr  Cr2  1  0.00000000  0.00000000  0.50000001  1
  Cr  Cr3  1  0.00000000  0.00000000  0.00000000  1
  Si  Si4  1  0.25356001  0.00000000  0.25000001  1
  Si  Si5  1  0.74644002  0.00000000  0.75000002  1
  Si  Si6  1  0.00000000  0.50000002  0.50000001  1
  Si  Si7  1  0.00000000  0.50000002  0.00000000  1
