# generated using pymatgen
data_LiUO2
_symmetry_space_group_name_H-M   'P 1'
_cell_length_a   4.49404192
_cell_length_b   4.49404192
_cell_length_c   5.61504126
_cell_angle_alpha   113.58914948
_cell_angle_beta   113.59000397
_cell_angle_gamma   89.99951172
_symmetry_Int_Tables_number   1
_chemical_formula_structural   LiUO2
_chemical_formula_sum   'Li2 U2 O4'
_cell_volume   93.49520171
_cell_formula_units_Z   2
loop_
 _symmetry_equiv_pos_site_id
 _symmetry_equiv_pos_as_xyz
  1  'x, y, z'
loop_
 _atom_site_type_symbol
 _atom_site_label
 _atom_site_symmetry_multiplicity
 _atom_site_fract_x
 _atom_site_fract_y
 _atom_site_fract_z
 _atom_site_occupancy
  Li  Li0  1  0.62500094  0.37500099  0.74999992  1
  Li  Li1  1  0.37499891  0.62499898  0.24999991  1
  U  U2  1  0.87499798  0.12499900  0.24999994  1
  U  U3  1  0.12500187  0.87500097  0.74999989  1
  O  O4  1  0.63380787  0.88380497  0.76760586  1
  O  O5  1  0.36619198  0.11619500  0.23239397  1
  O  O6  1  0.11619795  0.36620199  0.73239394  1
  O  O7  1  0.88380190  0.63379798  0.26760589  1
