# generated using pymatgen
data_Nb5GaGe3
_symmetry_space_group_name_H-M   'P 1'
_cell_length_a   5.48639107
_cell_length_b   8.25239182
_cell_length_c   8.25239182
_cell_angle_alpha   120.00000000
_cell_angle_beta   90.00000000
_cell_angle_gamma   90.00000000
_symmetry_Int_Tables_number   1
_chemical_formula_structural   Nb5GaGe3
_chemical_formula_sum   'Nb10 Ga2 Ge6'
_cell_volume   323.57657345
_cell_formula_units_Z   2
loop_
 _symmetry_equiv_pos_site_id
 _symmetry_equiv_pos_as_xyz
  1  'x, y, z'
loop_
 _atom_site_type_symbol
 _atom_site_label
 _atom_site_symmetry_multiplicity
 _atom_site_fract_x
 _atom_site_fract_y
 _atom_site_fract_z
 _atom_site_occupancy
  Nb  Nb0  1  0.25000000  0.75441401  0.75441400  1
  Nb  Nb1  1  0.74999999  0.24558600  0.24558600  1
  Nb  Nb2  1  0.25000000  1.00000002  0.24558599  1
  Nb  Nb3  1  0.74999999  1.00000002  0.75441400  1
  Nb  Nb4  1  0.25000000  0.24558600  -0.00000000  1
  Nb  Nb5  1  0.74999999  0.75441401  -0.00000001  1
  Nb  Nb6  1  0.49999999  0.66666668  0.33333333  1
  Nb  Nb7  1  0.49999999  0.33333334  0.66666667  1
  Nb  Nb8  1  0.99999999  0.33333334  0.66666667  1
  Nb  Nb9  1  -0.00000000  0.66666668  0.33333333  1
  Ga  Ga10  1  0.49999999  0.00000000  -0.00000000  1
  Ga  Ga11  1  0.00000000  0.00000000  0.00000000  1
  Ge  Ge12  1  0.25000000  0.39480601  0.39480600  1
  Ge  Ge13  1  0.74999999  0.60519401  0.60519400  1
  Ge  Ge14  1  0.25000000  1.00000002  0.60519400  1
  Ge  Ge15  1  0.74999999  1.00000002  0.39480600  1
  Ge  Ge16  1  0.25000000  0.60519401  1.00000001  1
  Ge  Ge17  1  0.74999999  0.39480601  -0.00000000  1
