# generated using pymatgen
data_LaMoC2
_symmetry_space_group_name_H-M   'P 1'
_cell_length_a   3.91737556
_cell_length_b   6.30019665
_cell_length_c   6.30019665
_cell_angle_alpha   105.29212952
_cell_angle_beta   90.50395203
_cell_angle_gamma   90.50395203
_symmetry_Int_Tables_number   1
_chemical_formula_structural   LaMoC2
_chemical_formula_sum   'La2 Mo2 C4'
_cell_volume   149.96923795
_cell_formula_units_Z   2
loop_
 _symmetry_equiv_pos_site_id
 _symmetry_equiv_pos_as_xyz
  1  'x, y, z'
loop_
 _atom_site_type_symbol
 _atom_site_label
 _atom_site_symmetry_multiplicity
 _atom_site_fract_x
 _atom_site_fract_y
 _atom_site_fract_z
 _atom_site_occupancy
  La  La0  1  1.00000000  0.49999998  -0.00000000  1
  La  La1  1  0.00000000  0.00000000  0.49999998  1
  Mo  Mo2  1  0.50000001  0.00000000  -0.00000001  1
  Mo  Mo3  1  0.49999999  0.49999998  0.49999999  1
  C  C4  1  0.49999998  0.70648098  0.29351900  1
  C  C5  1  0.50000000  0.29351899  0.70648097  1
  C  C6  1  0.72684999  0.75189598  0.75189598  1
  C  C7  1  0.27315000  0.24810399  0.24810399  1
