# generated using pymatgen
data_HoTc2
_symmetry_space_group_name_H-M   'P 1'
_cell_length_a   5.23995590
_cell_length_b   5.24432373
_cell_length_c   8.87149811
_cell_angle_alpha   90.00000000
_cell_angle_beta   90.00000000
_cell_angle_gamma   119.97245026
_symmetry_Int_Tables_number   1
_chemical_formula_structural   HoTc2
_chemical_formula_sum   'Ho4 Tc8'
_cell_volume   211.18604555
_cell_formula_units_Z   4
loop_
 _symmetry_equiv_pos_site_id
 _symmetry_equiv_pos_as_xyz
  1  'x, y, z'
loop_
 _atom_site_type_symbol
 _atom_site_label
 _atom_site_symmetry_multiplicity
 _atom_site_fract_x
 _atom_site_fract_y
 _atom_site_fract_z
 _atom_site_occupancy
  Ho  Ho0  1  0.33333332  0.66666668  0.43326199  1
  Ho  Ho1  1  0.66666667  0.33333334  0.56673799  1
  Ho  Ho2  1  0.66666667  0.33333334  0.93326199  1
  Ho  Ho3  1  0.33333332  0.66666668  0.06673800  1
  Tc  Tc4  1  0.00000000  0.00000000  0.49999999  1
  Tc  Tc5  1  0.00000000  0.00000000  0.00000000  1
  Tc  Tc6  1  0.82874001  0.17143400  0.25000000  1
  Tc  Tc7  1  0.82856599  0.65713202  0.25000000  1
  Tc  Tc8  1  0.34269400  0.17143400  0.25000000  1
  Tc  Tc9  1  0.17125998  0.82856602  0.74999999  1
  Tc  Tc10  1  0.17143399  0.34286801  0.74999999  1
  Tc  Tc11  1  0.65730598  0.82856602  0.74999999  1
