# generated using pymatgen
data_Pr2Ga3Co14
_symmetry_space_group_name_H-M   'P 1'
_cell_length_a   6.35695267
_cell_length_b   6.35695267
_cell_length_c   6.35695314
_cell_angle_alpha   82.78723907
_cell_angle_beta   82.78723907
_cell_angle_gamma   82.78723145
_symmetry_Int_Tables_number   1
_chemical_formula_structural   Pr2Ga3Co14
_chemical_formula_sum   'Pr2 Ga3 Co14'
_cell_volume   251.26229732
_cell_formula_units_Z   1
loop_
 _symmetry_equiv_pos_site_id
 _symmetry_equiv_pos_as_xyz
  1  'x, y, z'
loop_
 _atom_site_type_symbol
 _atom_site_label
 _atom_site_symmetry_multiplicity
 _atom_site_fract_x
 _atom_site_fract_y
 _atom_site_fract_z
 _atom_site_occupancy
  Pr  Pr0  1  0.35045999  0.35046000  0.35046005  1
  Pr  Pr1  1  0.64953998  0.64954001  0.64954010  1
  Co  Co2  1  0.10652200  0.10652200  0.10652202  1
  Ga  Ga3  1  0.89347797  0.89347801  0.89347813  1
  Ga  Ga4  1  0.00000000  0.00000000  0.50000001  1
  Ga  Ga5  1  -0.00000002  0.50000001  1.00000005  1
  Co  Co6  1  0.49999997  1.00000001  0.00000010  1
  Co  Co7  1  0.71144600  0.28855400  0.00000007  1
  Co  Co8  1  0.28855396  1.00000001  0.71144610  1
  Co  Co9  1  -0.00000003  0.71144601  0.28855405  1
  Co  Co10  1  0.71144601  0.00000000  0.28855405  1
  Co  Co11  1  -0.00000001  0.28855400  0.71144603  1
  Co  Co12  1  0.28855398  0.71144601  0.00000007  1
  Co  Co13  1  0.65081598  0.65081601  0.15113509  1
  Co  Co14  1  0.65081600  0.15113500  0.65081606  1
  Co  Co15  1  0.15113498  0.65081601  0.65081606  1
  Co  Co16  1  0.34918399  0.34918400  0.84886506  1
  Co  Co17  1  0.34918397  0.84886501  0.34918409  1
  Co  Co18  1  0.84886499  0.34918400  0.34918409  1
