# generated using pymatgen
data_ZrSnPt
_symmetry_space_group_name_H-M   'P 1'
_cell_length_a   3.78416300
_cell_length_b   7.49071217
_cell_length_c   7.49071121
_cell_angle_alpha   120.00000000
_cell_angle_beta   90.00000000
_cell_angle_gamma   90.00000000
_symmetry_Int_Tables_number   1
_chemical_formula_structural   ZrSnPt
_chemical_formula_sum   'Zr3 Sn3 Pt3'
_cell_volume   183.88513802
_cell_formula_units_Z   3
loop_
 _symmetry_equiv_pos_site_id
 _symmetry_equiv_pos_as_xyz
  1  'x, y, z'
loop_
 _atom_site_type_symbol
 _atom_site_label
 _atom_site_symmetry_multiplicity
 _atom_site_fract_x
 _atom_site_fract_y
 _atom_site_fract_z
 _atom_site_occupancy
  Zr  Zr0  1  0.50000000  0.00000000  0.58905800  1
  Zr  Zr1  1  0.50000000  0.41094198  0.41094197  1
  Zr  Zr2  1  0.50000000  0.58905797  0.99999996  1
  Sn  Sn3  1  -0.00000000  0.25518499  -0.00000002  1
  Sn  Sn4  1  -0.00000000  0.00000000  0.25518500  1
  Sn  Sn5  1  -0.00000000  0.74481496  0.74481495  1
  Pt  Pt6  1  0.50000000  0.00000000  -0.00000000  1
  Pt  Pt7  1  -0.00000000  0.33333331  0.66666665  1
  Pt  Pt8  1  1.00000000  0.66666663  0.33333329  1
