# generated using pymatgen
data_CsTa(WO2)2
_symmetry_space_group_name_H-M   'P 1'
_cell_length_a   5.98764515
_cell_length_b   5.98764515
_cell_length_c   5.98764515
_cell_angle_alpha   90.00000000
_cell_angle_beta   90.00000000
_cell_angle_gamma   90.00000000
_symmetry_Int_Tables_number   1
_chemical_formula_structural   CsTa(WO2)2
_chemical_formula_sum   'Cs1 Ta1 W2 O4'
_cell_volume   214.66842179
_cell_formula_units_Z   1
loop_
 _symmetry_equiv_pos_site_id
 _symmetry_equiv_pos_as_xyz
  1  'x, y, z'
loop_
 _atom_site_type_symbol
 _atom_site_label
 _atom_site_symmetry_multiplicity
 _atom_site_fract_x
 _atom_site_fract_y
 _atom_site_fract_z
 _atom_site_occupancy
  Cs  Cs0  1  0.00000000  0.00000000  0.00000000  1
  Ta  Ta1  1  -0.00000000  0.49999999  0.00000000  1
  W  W2  1  0.49999999  0.00000000  0.00000000  1
  W  W3  1  0.00000000  0.00000000  0.49999999  1
  O  O4  1  0.25723899  0.74276098  0.74276098  1
  O  O5  1  0.25723899  0.25723899  0.25723899  1
  O  O6  1  0.74276098  0.25723899  0.74276098  1
  O  O7  1  0.74276098  0.74276098  0.25723899  1
