# generated using pymatgen
data_Ti3VO4
_symmetry_space_group_name_H-M   'P 1'
_cell_length_a   5.93215656
_cell_length_b   5.93215656
_cell_length_c   5.93215656
_cell_angle_alpha   60.00000000
_cell_angle_beta   60.00000000
_cell_angle_gamma   60.00000000
_symmetry_Int_Tables_number   1
_chemical_formula_structural   Ti3VO4
_chemical_formula_sum   'Ti6 V2 O8'
_cell_volume   147.61239126
_cell_formula_units_Z   2
loop_
 _symmetry_equiv_pos_site_id
 _symmetry_equiv_pos_as_xyz
  1  'x, y, z'
loop_
 _atom_site_type_symbol
 _atom_site_label
 _atom_site_symmetry_multiplicity
 _atom_site_fract_x
 _atom_site_fract_y
 _atom_site_fract_z
 _atom_site_occupancy
  Ti  Ti0  1  0.37499999  0.37499999  0.87499997  1
  Ti  Ti1  1  0.37499999  0.87499997  0.37499999  1
  Ti  Ti2  1  0.37499999  0.37499999  0.37499999  1
  Ti  Ti3  1  0.87499997  0.37499999  0.37499999  1
  Ti  Ti4  1  0.87499997  0.37499999  0.87499997  1
  Ti  Ti5  1  0.87499997  0.87499997  0.87499997  1
  V  V6  1  0.87499997  0.87499997  0.37499999  1
  V  V7  1  0.37499999  0.87499997  0.87499997  1
  O  O8  1  0.62936398  0.62936498  0.62936498  1
  O  O9  1  0.63809498  0.12063500  0.12063500  1
  O  O10  1  0.62936398  0.11190600  0.62936498  1
  O  O11  1  0.62936398  0.62936498  0.11190600  1
  O  O12  1  0.11190500  0.62936498  0.62936498  1
  O  O13  1  0.12063600  0.12063500  0.63809398  1
  O  O14  1  0.12063600  0.12063500  0.12063500  1
  O  O15  1  0.12063600  0.63809398  0.12063500  1
