# generated using pymatgen
data_Zr4Ni2O9
_symmetry_space_group_name_H-M   'P 1'
_cell_length_a   5.93882418
_cell_length_b   5.93882418
_cell_length_c   5.93882418
_cell_angle_alpha   60.00000000
_cell_angle_beta   60.00000000
_cell_angle_gamma   60.00000000
_symmetry_Int_Tables_number   1
_chemical_formula_structural   Zr4Ni2O9
_chemical_formula_sum   'Zr4 Ni2 O9'
_cell_volume   148.11069020
_cell_formula_units_Z   1
loop_
 _symmetry_equiv_pos_site_id
 _symmetry_equiv_pos_as_xyz
  1  'x, y, z'
loop_
 _atom_site_type_symbol
 _atom_site_label
 _atom_site_symmetry_multiplicity
 _atom_site_fract_x
 _atom_site_fract_y
 _atom_site_fract_z
 _atom_site_occupancy
  Zr  Zr0  1  0.00000000  0.50000002  0.50000002  1
  Zr  Zr1  1  0.00000000  0.00000000  0.50000002  1
  Zr  Zr2  1  0.50000002  0.50000002  -0.00000000  1
  Zr  Zr3  1  0.50000002  0.00000000  -0.00000000  1
  Ni  Ni4  1  0.50000002  0.00000000  0.50000002  1
  Ni  Ni5  1  0.00000000  0.50000002  0.00000000  1
  O  O6  1  0.00000000  0.00000000  0.00000000  1
  O  O7  1  0.75407303  0.24592701  0.75407303  1
  O  O8  1  0.75000003  0.75000003  0.75000003  1
  O  O9  1  0.25000001  0.25000001  0.25000001  1
  O  O10  1  0.24592701  0.75407303  0.24592701  1
  O  O11  1  0.24592701  0.24592701  0.75407303  1
  O  O12  1  0.24592701  0.75407303  0.75407303  1
  O  O13  1  0.75407303  0.24592701  0.24592701  1
  O  O14  1  0.75407303  0.75407303  0.24592701  1
