# generated using pymatgen
data_Cu8B5Ir4C3
_symmetry_space_group_name_H-M   'P 1'
_cell_length_a   2.90562201
_cell_length_b   7.20725393
_cell_length_c   9.33298016
_cell_angle_alpha   90.00000000
_cell_angle_beta   90.00000000
_cell_angle_gamma   90.00000000
_symmetry_Int_Tables_number   1
_chemical_formula_structural   Cu8B5Ir4C3
_chemical_formula_sum   'Cu8 B5 Ir4 C3'
_cell_volume   195.44712310
_cell_formula_units_Z   1
loop_
 _symmetry_equiv_pos_site_id
 _symmetry_equiv_pos_as_xyz
  1  'x, y, z'
loop_
 _atom_site_type_symbol
 _atom_site_label
 _atom_site_symmetry_multiplicity
 _atom_site_fract_x
 _atom_site_fract_y
 _atom_site_fract_z
 _atom_site_occupancy
  Cu  Cu0  1  0.50000000  0.80781401  0.13860600  1
  Cu  Cu1  1  0.50000000  0.19218600  0.86139399  1
  Cu  Cu2  1  0.00000000  0.69218601  0.63860599  1
  Cu  Cu3  1  0.00000000  0.30781400  0.36139399  1
  Cu  Cu4  1  0.50000000  0.56441701  0.86051099  1
  Cu  Cu5  1  0.50000000  0.43558300  0.13948900  1
  Cu  Cu6  1  0.00000000  0.93558301  0.36051099  1
  Cu  Cu7  1  0.00000000  0.06441700  0.63948899  1
  B  B8  1  0.50000000  0.11636600  0.46300199  1
  B  B9  1  0.50000000  0.88363401  0.53699799  1
  B  B10  1  0.00000000  0.38363400  0.96300198  1
  B  B11  1  0.00000000  0.61636601  0.03699800  1
  Ir  Ir12  1  0.50000000  0.12390000  0.27254600  1
  C  C13  1  0.50000000  0.87610001  0.72745399  1
  C  C14  1  0.00000000  0.37610000  0.77254599  1
  B  B15  1  0.00000000  0.62390001  0.22745400  1
  Ir  Ir16  1  0.50000000  0.62381401  0.39464199  1
  C  C17  1  0.50000000  0.37618600  0.60535799  1
  Ir  Ir18  1  0.00000000  0.87618601  0.89464199  1
  Ir  Ir19  1  0.00000000  0.12381400  0.10535800  1
