# generated using pymatgen
data_CsMn(CuSe2)2
_symmetry_space_group_name_H-M   'P 1'
_cell_length_a   5.72738218
_cell_length_b   7.79359102
_cell_length_c   10.03200054
_cell_angle_alpha   90.00000000
_cell_angle_beta   106.58608246
_cell_angle_gamma   90.00000000
_symmetry_Int_Tables_number   1
_chemical_formula_structural   CsMn(CuSe2)2
_chemical_formula_sum   'Cs2 Mn2 Cu4 Se8'
_cell_volume   429.16517805
_cell_formula_units_Z   2
loop_
 _symmetry_equiv_pos_site_id
 _symmetry_equiv_pos_as_xyz
  1  'x, y, z'
loop_
 _atom_site_type_symbol
 _atom_site_label
 _atom_site_symmetry_multiplicity
 _atom_site_fract_x
 _atom_site_fract_y
 _atom_site_fract_z
 _atom_site_occupancy
  Cs  Cs0  1  0.92370595  0.25000000  0.36756895  1
  Cs  Cs1  1  0.55613697  0.75000000  0.63243096  1
  Mn  Mn2  1  0.60872997  0.75000000  0.21804697  1
  Mn  Mn3  1  0.39068298  0.25000000  0.78195296  1
  Cu  Cu4  1  0.10666499  0.75000000  0.21315199  1
  Cu  Cu5  1  0.89351296  0.25000000  0.78684794  1
  Cu  Cu6  1  0.48372998  0.50000000  0.99999995  1
  Cu  Cu7  1  0.48372998  0.00000000  0.99999995  1
  Se  Se8  1  0.74925996  0.75000000  0.00600897  1
  Se  Se9  1  0.14399799  0.50560900  0.78639997  1
  Se  Se10  1  0.54104597  0.25000000  0.57862796  1
  Se  Se11  1  0.74325096  0.25000000  0.99399094  1
  Se  Se12  1  0.96241795  0.75000000  0.42137195  1
  Se  Se13  1  0.14399799  0.99439100  0.78639997  1
  Se  Se14  1  0.35759798  0.00560900  0.21359998  1
  Se  Se15  1  0.35759798  0.49439100  0.21359998  1
