# generated using pymatgen
data_Cr(CuSe2)2
_symmetry_space_group_name_H-M   'P 1'
_cell_length_a   5.94503307
_cell_length_b   6.06793499
_cell_length_c   7.06386805
_cell_angle_alpha   89.99967194
_cell_angle_beta   89.99864197
_cell_angle_gamma   92.40863800
_symmetry_Int_Tables_number   1
_chemical_formula_structural   Cr(CuSe2)2
_chemical_formula_sum   'Cr2 Cu4 Se8'
_cell_volume   254.59736569
_cell_formula_units_Z   2
loop_
 _symmetry_equiv_pos_site_id
 _symmetry_equiv_pos_as_xyz
  1  'x, y, z'
loop_
 _atom_site_type_symbol
 _atom_site_label
 _atom_site_symmetry_multiplicity
 _atom_site_fract_x
 _atom_site_fract_y
 _atom_site_fract_z
 _atom_site_occupancy
  Cr  Cr0  1  0.49997899  0.49999799  0.76177902  1
  Cr  Cr1  1  0.49997797  0.99998898  0.48587603  1
  Cu  Cu2  1  0.49998499  0.50000199  0.25145802  1
  Cu  Cu3  1  0.49997001  0.00006300  0.99820600  1
  Cu  Cu4  1  0.00003496  0.99998198  0.00575802  1
  Cu  Cu5  1  0.00000896  0.99997698  0.49517802  1
  Se  Se6  1  0.73322999  0.68582598  0.01361904  1
  Se  Se7  1  0.74563199  0.67023098  0.49448303  1
  Se  Se8  1  0.75042801  0.16863300  0.75566602  1
  Se  Se9  1  0.74305901  0.18374800  0.23709603  1
  Se  Se10  1  0.24959397  0.83137198  0.75567902  1
  Se  Se11  1  0.25695697  0.81625698  0.23709902  1
  Se  Se12  1  0.25435399  0.32976999  0.49448501  1
  Se  Se13  1  0.26679099  0.31415099  0.01361702  1
