# generated using pymatgen
data_SmRh3C2
_symmetry_space_group_name_H-M   'P 1'
_cell_length_a   3.10181904
_cell_length_b   5.51779413
_cell_length_c   9.55129528
_cell_angle_alpha   89.98651123
_cell_angle_beta   90.00000000
_cell_angle_gamma   90.00000000
_symmetry_Int_Tables_number   1
_chemical_formula_structural   SmRh3C2
_chemical_formula_sum   'Sm2 Rh6 C4'
_cell_volume   163.47231385
_cell_formula_units_Z   2
loop_
 _symmetry_equiv_pos_site_id
 _symmetry_equiv_pos_as_xyz
  1  'x, y, z'
loop_
 _atom_site_type_symbol
 _atom_site_label
 _atom_site_symmetry_multiplicity
 _atom_site_fract_x
 _atom_site_fract_y
 _atom_site_fract_z
 _atom_site_occupancy
  Sm  Sm0  1  0.00000000  0.99986800  0.99978800  1
  Sm  Sm1  1  0.00000000  0.50014300  0.50021200  1
  C  C2  1  0.00000000  0.99997100  0.33333334  1
  C  C3  1  -0.00000000  0.50012800  0.83350600  1
  C  C4  1  0.00000000  0.49993800  0.16668601  1
  C  C5  1  0.00000000  0.99978800  0.66648801  1
  Rh  Rh6  1  0.49999999  0.00000300  0.50034599  1
  Rh  Rh7  1  0.49999999  0.50001300  0.99964399  1
  Rh  Rh8  1  0.49999999  0.24999400  0.24993300  1
  Rh  Rh9  1  0.49999999  0.74998400  0.75009100  1
  Rh  Rh10  1  0.49999999  0.74999600  0.24990401  1
  Rh  Rh11  1  0.49999999  0.24997400  0.75007999  1
