# generated using pymatgen
data_Mn2Cu3Te10
_symmetry_space_group_name_H-M   'P 1'
_cell_length_a   5.24444246
_cell_length_b   5.27974176
_cell_length_c   9.30210018
_cell_angle_alpha   73.51328278
_cell_angle_beta   87.17445374
_cell_angle_gamma   79.99694061
_symmetry_Int_Tables_number   1
_chemical_formula_structural   Mn2Cu3Te10
_chemical_formula_sum   'Mn2 Cu3 Te10'
_cell_volume   243.22441259
_cell_formula_units_Z   1
loop_
 _symmetry_equiv_pos_site_id
 _symmetry_equiv_pos_as_xyz
  1  'x, y, z'
loop_
 _atom_site_type_symbol
 _atom_site_label
 _atom_site_symmetry_multiplicity
 _atom_site_fract_x
 _atom_site_fract_y
 _atom_site_fract_z
 _atom_site_occupancy
  Mn  Mn0  1  0.51220407  0.85471304  1.00000000  1
  Mn  Mn1  1  0.15042304  0.49687503  1.00000002  1
  Cu  Cu2  1  0.68556403  0.26369101  0.15376399  1
  Cu  Cu3  1  0.68556404  0.41745502  0.84623601  1
  Cu  Cu4  1  0.21367501  0.06836200  0.23653600  1
  Te  Te5  1  0.21367503  0.30489802  0.76346402  1
  Te  Te6  1  0.80793906  0.69451404  0.24699998  1
  Te  Te7  1  0.80793908  0.94151405  0.75299999  1
  Te  Te8  1  0.58364702  0.07934800  0.47005901  1
  Te  Te9  1  0.58364705  0.54940703  0.52994100  1
  Te  Te10  1  0.07373405  0.72719604  0.49976899  1
  Te  Te11  1  0.07373402  0.22696501  0.50023101  1
  Te  Te12  1  0.99231402  0.01010300  1.00000003  1
  Te  Te13  1  0.33097104  0.53397203  0.27401499  1
  Te  Te14  1  0.33097106  0.80798704  0.72598500  1
