# generated using pymatgen
data_Zr3Pt4
_symmetry_space_group_name_H-M   'P 1'
_cell_length_a   5.71071434
_cell_length_b   7.83688736
_cell_length_c   7.83688736
_cell_angle_alpha   114.29911804
_cell_angle_beta   104.05769348
_cell_angle_gamma   104.05769348
_symmetry_Int_Tables_number   1
_chemical_formula_structural   Zr3Pt4
_chemical_formula_sum   'Zr6 Pt8'
_cell_volume   285.82351628
_cell_formula_units_Z   2
loop_
 _symmetry_equiv_pos_site_id
 _symmetry_equiv_pos_as_xyz
  1  'x, y, z'
loop_
 _atom_site_type_symbol
 _atom_site_label
 _atom_site_symmetry_multiplicity
 _atom_site_fract_x
 _atom_site_fract_y
 _atom_site_fract_z
 _atom_site_occupancy
  Zr  Zr0  1  0.72035197  0.74599301  0.12388798  1
  Zr  Zr1  1  0.59646396  0.87611201  0.62210500  1
  Zr  Zr2  1  0.97435899  0.37789500  0.25400699  1
  Zr  Zr3  1  0.27964799  0.25400700  0.87611202  1
  Zr  Zr4  1  0.40353600  0.12388800  0.37789500  1
  Zr  Zr5  1  0.02564097  0.62210501  0.74599301  1
  Pt  Pt6  1  0.00000000  0.00000000  0.00000000  1
  Pt  Pt7  1  0.50000000  0.00000000  -0.00000001  1
  Pt  Pt8  1  0.44838498  0.51004701  0.67411000  1
  Pt  Pt9  1  0.77427499  0.32589000  0.83593601  1
  Pt  Pt10  1  0.93833900  0.16406400  0.48995400  1
  Pt  Pt11  1  0.55161498  0.48995301  0.32588999  1
  Pt  Pt12  1  0.22572497  0.67411001  0.16406399  1
  Pt  Pt13  1  0.06166096  0.83593601  0.51004600  1
