# generated using pymatgen
data_Ce2Si5Rh3
_symmetry_space_group_name_H-M   'P 1'
_cell_length_a   4.22621584
_cell_length_b   4.22621584
_cell_length_c   10.20863533
_cell_angle_alpha   90.00000000
_cell_angle_beta   90.00000000
_cell_angle_gamma   90.00000000
_symmetry_Int_Tables_number   1
_chemical_formula_structural   Ce2Si5Rh3
_chemical_formula_sum   'Ce2 Si5 Rh3'
_cell_volume   182.33541805
_cell_formula_units_Z   1
loop_
 _symmetry_equiv_pos_site_id
 _symmetry_equiv_pos_as_xyz
  1  'x, y, z'
loop_
 _atom_site_type_symbol
 _atom_site_label
 _atom_site_symmetry_multiplicity
 _atom_site_fract_x
 _atom_site_fract_y
 _atom_site_fract_z
 _atom_site_occupancy
  Ce  Ce0  1  0.50000002  0.00000000  0.74645898  1
  Ce  Ce1  1  0.00000000  0.50000002  0.25354099  1
  Si  Si2  1  0.00000000  0.50000002  0.86509797  1
  Si  Si3  1  0.50000002  0.00000000  0.37831899  1
  Si  Si4  1  0.50000002  0.00000000  0.13490200  1
  Si  Si5  1  0.00000000  0.50000002  0.62168098  1
  Si  Si6  1  0.50000002  0.50000002  -0.00000000  1
  Rh  Rh7  1  0.00000000  0.00000000  0.49999998  1
  Rh  Rh8  1  0.00000000  0.00000000  0.00000000  1
  Rh  Rh9  1  0.50000002  0.50000002  0.49999998  1
