# generated using pymatgen
data_Ce2MnCo6
_symmetry_space_group_name_H-M   'P 1'
_cell_length_a   4.93788385
_cell_length_b   4.93788385
_cell_length_c   12.36865330
_cell_angle_alpha   78.48567200
_cell_angle_beta   78.48567200
_cell_angle_gamma   60.00000000
_symmetry_Int_Tables_number   1
_chemical_formula_structural   Ce2MnCo6
_chemical_formula_sum   'Ce4 Mn2 Co12'
_cell_volume   254.14444839
_cell_formula_units_Z   2
loop_
 _symmetry_equiv_pos_site_id
 _symmetry_equiv_pos_as_xyz
  1  'x, y, z'
loop_
 _atom_site_type_symbol
 _atom_site_label
 _atom_site_symmetry_multiplicity
 _atom_site_fract_x
 _atom_site_fract_y
 _atom_site_fract_z
 _atom_site_occupancy
  Ce  Ce0  1  0.94956407  0.94956403  0.15130798  1
  Ce  Ce1  1  0.14716201  0.14716201  0.55851401  1
  Ce  Ce2  1  0.05043600  0.05043600  0.84869202  1
  Ce  Ce3  1  0.85283806  0.85283803  0.44148599  1
  Mn  Mn4  1  0.72181905  0.72181903  0.83454301  1
  Mn  Mn5  1  0.38826503  0.38826501  0.83520502  1
  Co  Co6  1  0.89113405  0.38998801  0.32889000  1
  Co  Co7  1  0.61173504  0.61173502  0.16479499  1
  Co  Co8  1  0.50000005  1.00000004  -0.00000002  1
  Co  Co9  1  0.61001204  0.61001202  0.67111001  1
  Co  Co10  1  0.50000004  0.50000002  0.50000000  1
  Co  Co11  1  0.38998803  0.38998801  0.32889000  1
  Co  Co12  1  0.27818102  0.27818101  0.16545700  1
  Co  Co13  1  0.10886602  0.61001202  0.67111001  1
  Co  Co14  1  0.38998804  0.89113403  0.32889000  1
  Co  Co15  1  0.00000001  0.50000002  -0.00000001  1
  Co  Co16  1  0.50000004  0.50000002  -0.00000001  1
  Co  Co17  1  0.61001203  0.10886600  0.67111001  1
