# generated using pymatgen
data_Y2Al3S3N4
_symmetry_space_group_name_H-M   'P 1'
_cell_length_a   3.91222405
_cell_length_b   3.91222405
_cell_length_c   12.44046021
_cell_angle_alpha   80.95338440
_cell_angle_beta   80.95338440
_cell_angle_gamma   60.00000000
_symmetry_Int_Tables_number   1
_chemical_formula_structural   Y2Al3S3N4
_chemical_formula_sum   'Y2 Al3 S3 N4'
_cell_volume   162.15696288
_cell_formula_units_Z   1
loop_
 _symmetry_equiv_pos_site_id
 _symmetry_equiv_pos_as_xyz
  1  'x, y, z'
loop_
 _atom_site_type_symbol
 _atom_site_label
 _atom_site_symmetry_multiplicity
 _atom_site_fract_x
 _atom_site_fract_y
 _atom_site_fract_z
 _atom_site_occupancy
  Y  Y0  1  0.00000000  0.00000000  0.00000000  1
  Y  Y1  1  0.49999999  0.49999999  0.49999998  1
  Al  Al2  1  0.75198898  0.75198899  0.74403297  1
  Al  Al3  1  0.24801099  0.24801100  0.25596699  1
  Al  Al4  1  0.07150200  0.07150200  0.78549399  1
  S  S5  1  0.56724898  0.56724899  0.29825298  1
  S  S6  1  0.92849797  0.92849798  0.21450597  1
  S  S7  1  0.43275099  0.43275099  0.70174698  1
  N  N8  1  0.69779598  0.69779599  0.90661198  1
  N  N9  1  0.19376799  0.19376800  0.41869599  1
  N  N10  1  0.30220399  0.30220400  0.09338799  1
  N  N11  1  0.80623198  0.80623199  0.58130397  1
