# generated using pymatgen
data_Nd(BIr)4
_symmetry_space_group_name_H-M   'P 1'
_cell_length_a   3.98656011
_cell_length_b   7.68556309
_cell_length_c   7.68556309
_cell_angle_alpha   90.00000000
_cell_angle_beta   90.00000000
_cell_angle_gamma   90.00000000
_symmetry_Int_Tables_number   1
_chemical_formula_structural   Nd(BIr)4
_chemical_formula_sum   'Nd2 B8 Ir8'
_cell_volume   235.47765386
_cell_formula_units_Z   2
loop_
 _symmetry_equiv_pos_site_id
 _symmetry_equiv_pos_as_xyz
  1  'x, y, z'
loop_
 _atom_site_type_symbol
 _atom_site_label
 _atom_site_symmetry_multiplicity
 _atom_site_fract_x
 _atom_site_fract_y
 _atom_site_fract_z
 _atom_site_occupancy
  Nd  Nd0  1  0.00000000  0.00000000  0.00000000  1
  Nd  Nd1  1  0.49999999  0.49999999  0.49999999  1
  B  B2  1  0.11044900  0.65811099  0.77889099  1
  B  B3  1  0.11044900  0.34188900  0.22110900  1
  B  B4  1  0.61044898  0.27889100  0.84188899  1
  B  B5  1  0.61044898  0.72110899  0.15811100  1
  B  B6  1  0.38955099  0.84188899  0.72110899  1
  B  B7  1  0.38955099  0.15811100  0.27889100  1
  B  B8  1  0.88955098  0.22110900  0.65811099  1
  B  B9  1  0.88955098  0.77889099  0.34188900  1
  Ir  Ir10  1  0.88919498  0.15979500  0.39080800  1
  Ir  Ir11  1  0.88919498  0.84020499  0.60919199  1
  Ir  Ir12  1  0.38919499  0.89080799  0.34020500  1
  Ir  Ir13  1  0.38919499  0.10919200  0.65979499  1
  Ir  Ir14  1  0.61080498  0.34020500  0.10919200  1
  Ir  Ir15  1  0.61080498  0.65979499  0.89080799  1
  Ir  Ir16  1  0.11080500  0.60919199  0.15979500  1
  Ir  Ir17  1  0.11080500  0.39080800  0.84020499  1
