# generated using pymatgen
data_SrCu3SnO8
_symmetry_space_group_name_H-M   'P 1'
_cell_length_a   3.16423011
_cell_length_b   7.09430790
_cell_length_c   7.09430790
_cell_angle_alpha   87.14926147
_cell_angle_beta   77.11400604
_cell_angle_gamma   77.11400604
_symmetry_Int_Tables_number   1
_chemical_formula_structural   SrCu3SnO8
_chemical_formula_sum   'Sr1 Cu3 Sn1 O8'
_cell_volume   151.33284273
_cell_formula_units_Z   1
loop_
 _symmetry_equiv_pos_site_id
 _symmetry_equiv_pos_as_xyz
  1  'x, y, z'
loop_
 _atom_site_type_symbol
 _atom_site_label
 _atom_site_symmetry_multiplicity
 _atom_site_fract_x
 _atom_site_fract_y
 _atom_site_fract_z
 _atom_site_occupancy
  Sr  Sr0  1  0.49999998  0.00000000  1.00000002  1
  Cu  Cu1  1  0.65083399  0.18467000  0.51366303  1
  Cu  Cu2  1  0.34916608  0.81532999  0.48633705  1
  Cu  Cu3  1  0.16449605  0.48633699  0.18467103  1
  Sn  Sn4  1  0.83550402  0.51366299  0.81532905  1
  O  O5  1  0.45762502  0.37206300  0.71268703  1
  O  O6  1  0.54237505  0.62793699  0.28731304  1
  O  O7  1  0.82968805  0.71268699  0.62793706  1
  O  O8  1  0.17031203  0.28731300  0.37206302  1
  O  O9  1  0.84902807  0.95733599  0.34460807  1
  O  O10  1  0.19363607  0.65539199  0.95733604  1
  O  O11  1  0.15097200  0.04266400  0.65539201  1
  O  O12  1  0.80636400  0.34460800  0.04266404  1
