# generated using pymatgen
data_Mn7Si10Ge
_symmetry_space_group_name_H-M   'P 1'
_cell_length_a   4.71636200
_cell_length_b   4.73417902
_cell_length_c   13.12593460
_cell_angle_alpha   90.00000000
_cell_angle_beta   90.00000000
_cell_angle_gamma   119.71668243
_symmetry_Int_Tables_number   1
_chemical_formula_structural   Mn7Si10Ge
_chemical_formula_sum   'Mn7 Si10 Ge1'
_cell_volume   254.53380821
_cell_formula_units_Z   1
loop_
 _symmetry_equiv_pos_site_id
 _symmetry_equiv_pos_as_xyz
  1  'x, y, z'
loop_
 _atom_site_type_symbol
 _atom_site_label
 _atom_site_symmetry_multiplicity
 _atom_site_fract_x
 _atom_site_fract_y
 _atom_site_fract_z
 _atom_site_occupancy
  Mn  Mn0  1  0.00000003  0.50000000  0.75045402  1
  Mn  Mn1  1  0.50000003  0.50000000  0.41649601  1
  Mn  Mn2  1  0.50000003  0.50000000  0.91644703  1
  Mn  Mn3  1  0.15756002  0.32403900  0.08411900  1
  Si  Si4  1  0.16166902  0.32015600  0.58339602  1
  Mn  Mn5  1  0.67640905  0.84083001  0.24907101  1
  Mn  Mn6  1  0.67976405  0.84184201  0.74896802  1
  Mn  Mn7  1  0.16033905  0.83572501  0.41663001  1
  Si  Si8  1  0.16377905  0.84353001  0.91782103  1
  Si  Si9  1  0.84244004  0.67596100  0.08411900  1
  Si  Si10  1  0.83833104  0.67984400  0.58339602  1
  Si  Si11  1  0.32359101  0.15917000  0.24907101  1
  Si  Si12  1  0.32023601  0.15815800  0.74896802  1
  Si  Si13  1  0.83966101  0.16427500  0.41663001  1
  Si  Si14  1  0.83622101  0.15647000  0.91782103  1
  Si  Si15  1  0.50000006  1.00000001  0.08362600  1
  Ge  Ge16  1  0.50000006  1.00000001  0.58346202  1
  Si  Si17  1  0.00000003  0.50000000  0.24950701  1
