# generated using pymatgen
data_V6O11F
_symmetry_space_group_name_H-M   'P 1'
_cell_length_a   5.63058662
_cell_length_b   5.63058662
_cell_length_c   7.39009905
_cell_angle_alpha   71.93251038
_cell_angle_beta   71.93251038
_cell_angle_gamma   71.58549500
_symmetry_Int_Tables_number   1
_chemical_formula_structural   V6O11F
_chemical_formula_sum   'V6 O11 F1'
_cell_volume   205.40500431
_cell_formula_units_Z   1
loop_
 _symmetry_equiv_pos_site_id
 _symmetry_equiv_pos_as_xyz
  1  'x, y, z'
loop_
 _atom_site_type_symbol
 _atom_site_label
 _atom_site_symmetry_multiplicity
 _atom_site_fract_x
 _atom_site_fract_y
 _atom_site_fract_z
 _atom_site_occupancy
  V  V0  1  0.34167898  0.34167901  0.15880103  1
  V  V1  1  0.33114598  0.33114601  0.66537703  1
  V  V2  1  0.66885395  0.66885402  0.33462306  1
  V  V3  1  0.65832095  0.65832102  0.84119906  1
  V  V4  1  0.00000000  0.00000000  0.50000000  1
  V  V5  1  0.00000000  0.00000000  0.00000000  1
  O  O6  1  0.69941399  0.30058601  0.00000004  1
  O  O7  1  0.30058594  0.69941403  0.00000004  1
  O  O8  1  0.63550001  0.02472700  0.66929903  1
  O  O9  1  0.97527298  0.36450001  0.33070105  1
  O  O10  1  0.76594495  0.76594503  0.03803506  1
  O  O11  1  0.43728797  0.43728802  0.36859104  1
  O  O12  1  0.10036199  0.10036200  0.70033301  1
  O  O13  1  0.23405498  0.23405501  0.96196503  1
  O  O14  1  0.56271196  0.56271202  0.63140905  1
  O  O15  1  0.89963794  0.89963803  0.29966707  1
  O  O16  1  0.02472695  0.63550002  0.66929904  1
  F  F17  1  0.36449992  0.97527304  0.33070106  1
