# generated using pymatgen
data_Cu3SbS4
_symmetry_space_group_name_H-M   'P 1'
_cell_length_a   3.11820102
_cell_length_b   5.15599346
_cell_length_c   5.83878422
_cell_angle_alpha   90.24887085
_cell_angle_beta   90.00000000
_cell_angle_gamma   90.00000000
_symmetry_Int_Tables_number   1
_chemical_formula_structural   Cu3SbS4
_chemical_formula_sum   'Cu3 Sb1 S4'
_cell_volume   93.87172431
_cell_formula_units_Z   1
loop_
 _symmetry_equiv_pos_site_id
 _symmetry_equiv_pos_as_xyz
  1  'x, y, z'
loop_
 _atom_site_type_symbol
 _atom_site_label
 _atom_site_symmetry_multiplicity
 _atom_site_fract_x
 _atom_site_fract_y
 _atom_site_fract_z
 _atom_site_occupancy
  Cu  Cu0  1  0.75000000  0.99644403  0.80575196  1
  Cu  Cu1  1  0.25000000  0.50186802  0.29277398  1
  Cu  Cu2  1  0.25000000  0.00074400  0.20300800  1
  Sb  Sb3  1  0.75000000  0.49756102  0.69812398  1
  S  S4  1  0.75000000  0.31158201  0.06592799  1
  S  S5  1  0.75000000  0.81490702  0.43744797  1
  S  S6  1  0.25000000  0.68636302  0.92593297  1
  S  S7  1  0.25000000  0.19053001  0.57103300  1
