# generated using pymatgen
data_Fe2CuAg3(NO)4
_symmetry_space_group_name_H-M   'P 1'
_cell_length_a   6.10230494
_cell_length_b   6.10229540
_cell_length_c   6.10230541
_cell_angle_alpha   90.00000763
_cell_angle_beta   59.99987793
_cell_angle_gamma   119.99979401
_symmetry_Int_Tables_number   1
_chemical_formula_structural   Fe2CuAg3(NO)4
_chemical_formula_sum   'Fe2 Cu1 Ag3 N4 O4'
_cell_volume   160.68178755
_cell_formula_units_Z   1
loop_
 _symmetry_equiv_pos_site_id
 _symmetry_equiv_pos_as_xyz
  1  'x, y, z'
loop_
 _atom_site_type_symbol
 _atom_site_label
 _atom_site_symmetry_multiplicity
 _atom_site_fract_x
 _atom_site_fract_y
 _atom_site_fract_z
 _atom_site_occupancy
  Fe  Fe0  1  0.25000099  0.12500000  0.12500000  1
  Fe  Fe1  1  0.74999992  0.87500198  0.87500104  1
  Cu  Cu2  1  0.50001299  0.00002000  0.49999298  1
  Ag  Ag3  1  0.99998595  0.49999299  0.00002202  1
  Ag  Ag4  1  0.99998495  0.49999199  0.49999101  1
  Ag  Ag5  1  0.50001595  0.49999399  0.49999202  1
  N  N6  1  0.51969597  0.25984899  0.25984901  1
  N  N7  1  0.51969597  0.25984899  0.72045600  1
  N  N8  1  0.98030493  0.72045598  0.25984703  1
  O  O9  1  0.01974898  0.27962299  0.74012601  1
  O  O10  1  0.48024894  0.74012598  0.74012504  1
  N  N11  1  0.98030196  0.25984599  0.25984900  1
  O  O12  1  0.48024994  0.74012498  0.27962504  1
  O  O13  1  0.01974995  0.74012498  0.74012404  1
