# generated using pymatgen
data_Ta3Tc
_symmetry_space_group_name_H-M   'P 1'
_cell_length_a   3.91681004
_cell_length_b   3.91681004
_cell_length_c   5.19182014
_cell_angle_alpha   112.16094971
_cell_angle_beta   112.16094971
_cell_angle_gamma   90.00000000
_symmetry_Int_Tables_number   1
_chemical_formula_structural   Ta3Tc
_chemical_formula_sum   'Ta3 Tc1'
_cell_volume   67.37006033
_cell_formula_units_Z   1
loop_
 _symmetry_equiv_pos_site_id
 _symmetry_equiv_pos_as_xyz
  1  'x, y, z'
loop_
 _atom_site_type_symbol
 _atom_site_label
 _atom_site_symmetry_multiplicity
 _atom_site_fract_x
 _atom_site_fract_y
 _atom_site_fract_z
 _atom_site_occupancy
  Ta  Ta0  1  0.74999997  0.24999999  0.49999997  1
  Ta  Ta1  1  0.24999996  0.74999997  0.49999996  1
  Ta  Ta2  1  0.49999996  0.49999998  -0.00000004  1
  Tc  Tc3  1  0.00000000  0.00000000  0.00000000  1
