# generated using pymatgen
data_YO
_symmetry_space_group_name_H-M   'P 1'
_cell_length_a   7.58329201
_cell_length_b   7.58454990
_cell_length_c   7.58454990
_cell_angle_alpha   91.37716675
_cell_angle_beta   119.99451447
_cell_angle_gamma   60.00548553
_symmetry_Int_Tables_number   1
_chemical_formula_structural   YO
_chemical_formula_sum   'Y7 O7'
_cell_volume   312.02050899
_cell_formula_units_Z   7
loop_
 _symmetry_equiv_pos_site_id
 _symmetry_equiv_pos_as_xyz
  1  'x, y, z'
loop_
 _atom_site_type_symbol
 _atom_site_label
 _atom_site_symmetry_multiplicity
 _atom_site_fract_x
 _atom_site_fract_y
 _atom_site_fract_z
 _atom_site_occupancy
  Y  Y0  1  0.75000000  0.11318000  0.61317999  1
  Y  Y1  1  0.50000001  0.49999998  0.99999999  1
  Y  Y2  1  0.00000001  0.49999998  0.00000001  1
  Y  Y3  1  0.25000001  0.88681997  0.38682001  1
  Y  Y4  1  0.50000002  0.99999997  0.00000002  1
  Y  Y5  1  0.00000001  0.49999998  0.50000000  1
  O  O6  1  0.48342200  0.26259599  0.22944000  1
  Y  Y7  1  0.49530100  0.25616299  0.75616299  1
  O  O8  1  0.01657801  0.72943998  0.76259600  1
  O  O9  1  0.00469900  0.25616199  0.75616299  1
  O  O10  1  0.99530101  0.74383798  0.24383701  1
  O  O11  1  0.98342200  0.27055999  0.23740400  1
  O  O12  1  0.50469901  0.74383698  0.24383701  1
  O  O13  1  0.51657801  0.73740398  0.77056000  1
