# generated using pymatgen
data_TaIr
_symmetry_space_group_name_H-M   'P 1'
_cell_length_a   3.17696404
_cell_length_b   4.44737387
_cell_length_c   5.25553370
_cell_angle_alpha   115.03131104
_cell_angle_beta   107.59275818
_cell_angle_gamma   90.00000000
_symmetry_Int_Tables_number   1
_chemical_formula_structural   TaIr
_chemical_formula_sum   'Ta2 Ir2'
_cell_volume   63.42802843
_cell_formula_units_Z   2
loop_
 _symmetry_equiv_pos_site_id
 _symmetry_equiv_pos_as_xyz
  1  'x, y, z'
loop_
 _atom_site_type_symbol
 _atom_site_label
 _atom_site_symmetry_multiplicity
 _atom_site_fract_x
 _atom_site_fract_y
 _atom_site_fract_z
 _atom_site_occupancy
  Ta  Ta0  1  0.00000001  0.50000002  0.00000001  1
  Ta  Ta1  1  0.24403200  0.24403201  0.48806401  1
  Ir  Ir2  1  0.75596800  0.75596803  0.51193602  1
  Ir  Ir3  1  0.50000000  1.00000004  0.00000003  1
