# generated using pymatgen
data_Li4B3HN8
_symmetry_space_group_name_H-M   'P 1'
_cell_length_a   5.43437481
_cell_length_b   5.88720894
_cell_length_c   5.89341354
_cell_angle_alpha   108.49354553
_cell_angle_beta   90.00000000
_cell_angle_gamma   90.00000000
_symmetry_Int_Tables_number   1
_chemical_formula_structural   Li4B3HN8
_chemical_formula_sum   'Li4 B3 H1 N8'
_cell_volume   178.81292406
_cell_formula_units_Z   1
loop_
 _symmetry_equiv_pos_site_id
 _symmetry_equiv_pos_as_xyz
  1  'x, y, z'
loop_
 _atom_site_type_symbol
 _atom_site_label
 _atom_site_symmetry_multiplicity
 _atom_site_fract_x
 _atom_site_fract_y
 _atom_site_fract_z
 _atom_site_occupancy
  Li  Li0  1  0.51568602  0.76561300  0.25361699  1
  Li  Li1  1  0.98431403  0.76561300  0.75361698  1
  Li  Li2  1  0.01568600  0.23438700  0.24638299  1
  Li  Li3  1  0.48431402  0.23438700  0.74638299  1
  B  B4  1  0.02872900  0.72203100  0.26930799  1
  B  B5  1  0.52872902  0.27796900  0.23069199  1
  B  B6  1  0.47127102  0.72203100  0.76930798  1
  H  H7  1  0.97127103  0.27796900  0.73069199  1
  N  N8  1  0.86399303  0.86674901  0.12827099  1
  N  N9  1  0.63600702  0.86674901  0.62827098  1
  N  N10  1  0.13423100  0.63448100  0.35871399  1
  N  N11  1  0.63423102  0.36551900  0.14128599  1
  N  N12  1  0.36576901  0.63448100  0.85871398  1
  N  N13  1  0.86576903  0.36551900  0.64128599  1
  N  N14  1  0.36399301  0.13325100  0.37172899  1
  N  N15  1  0.13600700  0.13325100  0.87172899  1
