# generated using pymatgen
data_Ga5Co11P4
_symmetry_space_group_name_H-M   'P 1'
_cell_length_a   3.59980893
_cell_length_b   3.59980893
_cell_length_c   17.86257553
_cell_angle_alpha   90.00000000
_cell_angle_beta   90.00000000
_cell_angle_gamma   90.00000000
_symmetry_Int_Tables_number   1
_chemical_formula_structural   Ga5Co11P4
_chemical_formula_sum   'Ga5 Co11 P4'
_cell_volume   231.47440609
_cell_formula_units_Z   1
loop_
 _symmetry_equiv_pos_site_id
 _symmetry_equiv_pos_as_xyz
  1  'x, y, z'
loop_
 _atom_site_type_symbol
 _atom_site_label
 _atom_site_symmetry_multiplicity
 _atom_site_fract_x
 _atom_site_fract_y
 _atom_site_fract_z
 _atom_site_occupancy
  Ga  Ga0  1  0.00000000  0.00000000  0.20545101  1
  Ga  Ga1  1  0.00000000  0.00000000  0.40078901  1
  Ga  Ga2  1  0.00000000  0.00000000  0.59921102  1
  Ga  Ga3  1  0.00000000  0.00000000  0.79454902  1
  Ga  Ga4  1  0.50000001  0.50000001  0.00000000  1
  Co  Co5  1  0.50000001  0.50000001  0.20396401  1
  Co  Co6  1  0.50000001  0.50000001  0.40074101  1
  Co  Co7  1  0.50000001  0.50000001  0.59925902  1
  Co  Co8  1  0.50000001  0.50000001  0.79603602  1
  Co  Co9  1  0.50000001  0.00000000  0.10624400  1
  Co  Co10  1  0.50000001  0.00000000  0.30262001  1
  Co  Co11  1  0.50000001  0.00000000  0.50000001  1
  Co  Co12  1  0.50000001  0.00000000  0.69738002  1
  Co  Co13  1  0.50000001  0.00000000  0.89375602  1
  Co  Co14  1  -0.00000000  0.50000001  0.10624400  1
  Co  Co15  1  -0.00000000  0.50000001  0.30262001  1
  P  P16  1  -0.00000000  0.50000001  0.50000001  1
  P  P17  1  -0.00000000  0.50000001  0.69738002  1
  P  P18  1  -0.00000000  0.50000001  0.89375602  1
  P  P19  1  0.00000000  0.00000000  0.00000000  1
