# generated using pymatgen
data_SrTiO3
_symmetry_space_group_name_H-M   'P 1'
_cell_length_a   5.73112106
_cell_length_b   5.74288559
_cell_length_c   8.18980980
_cell_angle_alpha   89.94610596
_cell_angle_beta   90.01696014
_cell_angle_gamma   89.90628052
_symmetry_Int_Tables_number   1
_chemical_formula_structural   SrTiO3
_chemical_formula_sum   'Sr4 Ti4 O12'
_cell_volume   269.55213142
_cell_formula_units_Z   4
loop_
 _symmetry_equiv_pos_site_id
 _symmetry_equiv_pos_as_xyz
  1  'x, y, z'
loop_
 _atom_site_type_symbol
 _atom_site_label
 _atom_site_symmetry_multiplicity
 _atom_site_fract_x
 _atom_site_fract_y
 _atom_site_fract_z
 _atom_site_occupancy
  Sr  Sr0  1  0.99607999  0.00328500  0.75122304  1
  Sr  Sr1  1  0.48618402  0.50827801  0.75145305  1
  Sr  Sr2  1  0.51100902  0.50562601  0.27502604  1
  Sr  Sr3  1  0.02116900  0.00296500  0.27439501  1
  Ti  Ti4  1  0.50284399  0.00385300  0.00189101  1
  Ti  Ti5  1  0.50521100  0.01746000  0.51472302  1
  Ti  Ti6  1  0.00046703  0.50515401  0.02630602  1
  Ti  Ti7  1  0.00298402  0.48836801  0.50815903  1
  O  O8  1  0.99718402  0.53919801  0.26227405  1
  O  O9  1  0.26773301  0.26876800  0.49814903  1
  O  O10  1  0.76838600  0.22934800  0.49677004  1
  O  O11  1  0.50351600  0.03131800  0.76965403  1
  O  O12  1  0.48951704  0.94869901  0.26400205  1
  O  O13  1  0.22099504  0.77242401  0.53798905  1
  O  O14  1  0.22044104  0.77698701  0.99559506  1
  O  O15  1  0.72018103  0.71755401  0.99626307  1
  O  O16  1  0.72131403  0.72331601  0.53666406  1
  O  O17  1  0.00628502  0.46259801  0.77083104  1
  O  O18  1  0.27905201  0.27620000  0.03813002  1
  O  O19  1  0.77944900  0.21860200  0.03850103  1
