# generated using pymatgen
data_TbCdCu4
_symmetry_space_group_name_H-M   'P 1'
_cell_length_a   5.12106800
_cell_length_b   5.12106800
_cell_length_c   5.12106800
_cell_angle_alpha   60.00000000
_cell_angle_beta   60.00000000
_cell_angle_gamma   60.00000000
_symmetry_Int_Tables_number   1
_chemical_formula_structural   TbCdCu4
_chemical_formula_sum   'Tb1 Cd1 Cu4'
_cell_volume   94.96566862
_cell_formula_units_Z   1
loop_
 _symmetry_equiv_pos_site_id
 _symmetry_equiv_pos_as_xyz
  1  'x, y, z'
loop_
 _atom_site_type_symbol
 _atom_site_label
 _atom_site_symmetry_multiplicity
 _atom_site_fract_x
 _atom_site_fract_y
 _atom_site_fract_z
 _atom_site_occupancy
  Tb  Tb0  1  0.00000000  0.00000000  0.00000000  1
  Cd  Cd1  1  0.75000002  0.75000002  0.75000002  1
  Cu  Cu2  1  0.37529001  0.87412802  0.37529101  1
  Cu  Cu3  1  0.37529001  0.37529101  0.37529101  1
  Cu  Cu4  1  0.37529001  0.37529101  0.87412802  1
  Cu  Cu5  1  0.87412702  0.37529101  0.37529101  1
