# generated using pymatgen
data_Mn2O5
_symmetry_space_group_name_H-M   'P 1'
_cell_length_a   3.61437988
_cell_length_b   6.37498808
_cell_length_c   7.30307484
_cell_angle_alpha   89.79753113
_cell_angle_beta   90.00000000
_cell_angle_gamma   90.00000000
_symmetry_Int_Tables_number   1
_chemical_formula_structural   Mn2O5
_chemical_formula_sum   'Mn4 O10'
_cell_volume   168.27368786
_cell_formula_units_Z   2
loop_
 _symmetry_equiv_pos_site_id
 _symmetry_equiv_pos_as_xyz
  1  'x, y, z'
loop_
 _atom_site_type_symbol
 _atom_site_label
 _atom_site_symmetry_multiplicity
 _atom_site_fract_x
 _atom_site_fract_y
 _atom_site_fract_z
 _atom_site_occupancy
  Mn  Mn0  1  0.75000002  0.80809299  0.90247295  1
  Mn  Mn1  1  0.25000001  0.19190700  0.09752699  1
  Mn  Mn2  1  0.75000002  0.26178700  0.72229797  1
  Mn  Mn3  1  0.25000001  0.73821299  0.27770198  1
  O  O4  1  0.75000002  0.73871099  0.19333598  1
  O  O5  1  0.25000001  0.26128900  0.80666397  1
  O  O6  1  0.75000002  0.32051800  0.50941198  1
  O  O7  1  0.25000001  0.67948199  0.49058797  1
  O  O8  1  0.25000001  0.43787499  0.17681799  1
  O  O9  1  0.75000002  0.56212499  0.82318196  1
  O  O10  1  0.75000002  0.14451300  0.03091700  1
  O  O11  1  0.25000001  0.85548699  0.96908295  1
  O  O12  1  0.25000001  0.03522500  0.29578999  1
  O  O13  1  0.75000002  0.96477499  0.70420996  1
