# generated using pymatgen
data_Sm2Ge2Pt
_symmetry_space_group_name_H-M   'P 1'
_cell_length_a   5.61181211
_cell_length_b   5.78495455
_cell_length_c   8.24025631
_cell_angle_alpha   80.49345398
_cell_angle_beta   70.09192657
_cell_angle_gamma   60.98522949
_symmetry_Int_Tables_number   1
_chemical_formula_structural   Sm2Ge2Pt
_chemical_formula_sum   'Sm4 Ge4 Pt2'
_cell_volume   219.95800349
_cell_formula_units_Z   2
loop_
 _symmetry_equiv_pos_site_id
 _symmetry_equiv_pos_as_xyz
  1  'x, y, z'
loop_
 _atom_site_type_symbol
 _atom_site_label
 _atom_site_symmetry_multiplicity
 _atom_site_fract_x
 _atom_site_fract_y
 _atom_site_fract_z
 _atom_site_occupancy
  Sm  Sm0  1  0.72964502  0.33149700  0.90634795  1
  Sm  Sm1  1  0.96748903  0.66850399  0.09365294  1
  Sm  Sm2  1  0.81114301  0.16850300  0.40634696  1
  Sm  Sm3  1  0.38599404  0.83149599  0.59365196  1
  Ge  Ge4  1  0.10525802  0.49999999  0.49999998  1
  Ge  Ge5  1  0.35525804  0.99999999  -0.00000004  1
  Ge  Ge6  1  0.31116101  0.32204600  0.75237797  1
  Pt  Pt7  1  0.38558403  0.67795499  0.24762296  1
  Ge  Ge8  1  0.38320801  0.17795400  0.25237698  1
  Pt  Pt9  1  0.81354004  0.82204499  0.74762194  1
