# generated using pymatgen
data_SrCuTe2
_symmetry_space_group_name_H-M   'P 1'
_cell_length_a   6.59547186
_cell_length_b   6.65986300
_cell_length_c   12.60733509
_cell_angle_alpha   96.87911224
_cell_angle_beta   90.00000000
_cell_angle_gamma   90.00000000
_symmetry_Int_Tables_number   1
_chemical_formula_structural   SrCuTe2
_chemical_formula_sum   'Sr4 Cu4 Te8'
_cell_volume   549.78982840
_cell_formula_units_Z   4
loop_
 _symmetry_equiv_pos_site_id
 _symmetry_equiv_pos_as_xyz
  1  'x, y, z'
loop_
 _atom_site_type_symbol
 _atom_site_label
 _atom_site_symmetry_multiplicity
 _atom_site_fract_x
 _atom_site_fract_y
 _atom_site_fract_z
 _atom_site_occupancy
  Sr  Sr0  1  0.73791802  0.01563700  0.87972701  1
  Sr  Sr1  1  0.26208201  0.98436301  0.12027302  1
  Sr  Sr2  1  0.73791802  0.48436300  0.62027302  1
  Sr  Sr3  1  0.26208201  0.51563700  0.37972701  1
  Cu  Cu4  1  0.79804402  0.53969600  0.12112601  1
  Cu  Cu5  1  0.20195600  0.46030400  0.87887402  1
  Cu  Cu6  1  0.79804402  0.96030400  0.37887402  1
  Cu  Cu7  1  0.20195600  0.03969600  0.62112601  1
  Te  Te8  1  0.18959200  0.01458300  0.38578500  1
  Te  Te9  1  0.81040802  0.98541701  0.61421503  1
  Te  Te10  1  0.18959200  0.48541700  0.11421501  1
  Te  Te11  1  0.81040802  0.51458300  0.88578502  1
  Te  Te12  1  0.22917500  0.43237700  0.64494602  1
  Te  Te13  1  0.77082502  0.56762300  0.35505401  1
  Te  Te14  1  0.22917500  0.06762300  0.85505401  1
  Te  Te15  1  0.77082502  0.93237700  0.14494602  1
