# generated using pymatgen
data_Ce5Ni4
_symmetry_space_group_name_H-M   'P 1'
_cell_length_a   7.73904610
_cell_length_b   7.73904610
_cell_length_c   9.12021542
_cell_angle_alpha   115.10508728
_cell_angle_beta   115.10508728
_cell_angle_gamma   90.00000000
_symmetry_Int_Tables_number   1
_chemical_formula_structural   Ce5Ni4
_chemical_formula_sum   'Ce10 Ni8'
_cell_volume   436.97931216
_cell_formula_units_Z   2
loop_
 _symmetry_equiv_pos_site_id
 _symmetry_equiv_pos_as_xyz
  1  'x, y, z'
loop_
 _atom_site_type_symbol
 _atom_site_label
 _atom_site_symmetry_multiplicity
 _atom_site_fract_x
 _atom_site_fract_y
 _atom_site_fract_z
 _atom_site_occupancy
  Ce  Ce0  1  0.50000002  0.50000001  0.00000004  1
  Ce  Ce1  1  0.00000000  0.00000000  0.00000000  1
  Ce  Ce2  1  0.51823203  0.68352901  0.70176103  1
  Ce  Ce3  1  0.18353000  0.01823300  0.70176299  1
  Ce  Ce4  1  0.01823202  0.51823201  0.70176201  1
  Ce  Ce5  1  0.68353001  0.18353000  0.70176201  1
  Ce  Ce6  1  0.48176802  0.31647100  0.29823902  1
  Ce  Ce7  1  0.81647005  0.98176701  0.29823707  1
  Ce  Ce8  1  0.98176803  0.48176801  0.29823805  1
  Ce  Ce9  1  0.31647004  0.81647001  0.29823805  1
  Ni  Ni10  1  0.25000001  0.25000000  0.50000001  1
  Ni  Ni11  1  0.75000004  0.75000001  0.50000005  1
  Ni  Ni12  1  0.88269603  0.61730301  0.99999903  1
  Ni  Ni13  1  0.11730402  0.38269701  0.00000102  1
  Ni  Ni14  1  0.38269604  0.88269601  1.00000003  1
  Ni  Ni15  1  0.61730401  0.11730400  0.00000003  1
  Ni  Ni16  1  0.25000003  0.75000001  0.50000003  1
  Ni  Ni17  1  0.75000001  0.25000000  0.50000002  1
