# generated using pymatgen
data_DyNbO4
_symmetry_space_group_name_H-M   'P 1'
_cell_length_a   5.13885117
_cell_length_b   5.31909513
_cell_length_c   6.58774376
_cell_angle_alpha   112.14408112
_cell_angle_beta   111.24259186
_cell_angle_gamma   93.93628693
_symmetry_Int_Tables_number   1
_chemical_formula_structural   DyNbO4
_chemical_formula_sum   'Dy2 Nb2 O8'
_cell_volume   150.99906974
_cell_formula_units_Z   2
loop_
 _symmetry_equiv_pos_site_id
 _symmetry_equiv_pos_as_xyz
  1  'x, y, z'
loop_
 _atom_site_type_symbol
 _atom_site_label
 _atom_site_symmetry_multiplicity
 _atom_site_fract_x
 _atom_site_fract_y
 _atom_site_fract_z
 _atom_site_occupancy
  Dy  Dy0  1  0.37807201  0.62807203  0.25614400  1
  Dy  Dy1  1  0.62192799  0.37192802  0.74385597  1
  Nb  Nb2  1  0.85863996  0.10864001  0.21727996  1
  Nb  Nb3  1  0.14136003  0.89136005  0.78272001  1
  O  O4  1  0.21270901  0.37251802  0.42171099  1
  O  O5  1  0.70900197  0.04919300  0.42171096  1
  O  O6  1  0.78729099  0.62748203  0.57828897  1
  O  O7  1  0.29099803  0.95080705  0.57828901  1
  O  O8  1  0.01335601  0.21837401  0.93500498  1
  O  O9  1  0.42164901  0.71663104  0.93500498  1
  O  O10  1  0.98664399  0.78162604  0.06499498  1
  O  O11  1  0.57835099  0.28336902  0.06499498  1
