# generated using pymatgen
data_Ce4In4GaGe
_symmetry_space_group_name_H-M   'P 1'
_cell_length_a   4.48220015
_cell_length_b   7.68813705
_cell_length_c   8.83742619
_cell_angle_alpha   90.00000000
_cell_angle_beta   104.69017029
_cell_angle_gamma   90.00000000
_symmetry_Int_Tables_number   1
_chemical_formula_structural   Ce4In4GaGe
_chemical_formula_sum   'Ce4 In4 Ga1 Ge1'
_cell_volume   294.58078206
_cell_formula_units_Z   1
loop_
 _symmetry_equiv_pos_site_id
 _symmetry_equiv_pos_as_xyz
  1  'x, y, z'
loop_
 _atom_site_type_symbol
 _atom_site_label
 _atom_site_symmetry_multiplicity
 _atom_site_fract_x
 _atom_site_fract_y
 _atom_site_fract_z
 _atom_site_occupancy
  Ce  Ce0  1  0.53414799  0.23598800  0.06829602  1
  Ce  Ce1  1  0.70284799  0.89264999  0.40569602  1
  Ce  Ce2  1  0.29715200  0.39265000  0.59430400  1
  Ce  Ce3  1  0.46585199  0.73598799  0.93170400  1
  In  In4  1  0.09596800  0.57798800  0.19193600  1
  In  In5  1  0.90403198  0.07798800  0.80806402  1
  In  In6  1  0.06333000  0.94188399  0.12666000  1
  Ge  Ge7  1  0.67553099  0.48584800  0.35106202  1
  Ga  Ga8  1  0.32446899  0.98584799  0.64893800  1
  In  In9  1  0.93666998  0.44188400  0.87334002  1
