# generated using pymatgen
data_Ce5Ge2Pd
_symmetry_space_group_name_H-M   'P 1'
_cell_length_a   5.78037834
_cell_length_b   8.53577042
_cell_length_c   8.53577042
_cell_angle_alpha   119.28504944
_cell_angle_beta   89.96186829
_cell_angle_gamma   89.96187592
_symmetry_Int_Tables_number   1
_chemical_formula_structural   Ce5Ge2Pd
_chemical_formula_sum   'Ce10 Ge4 Pd2'
_cell_volume   367.32957689
_cell_formula_units_Z   2
loop_
 _symmetry_equiv_pos_site_id
 _symmetry_equiv_pos_as_xyz
  1  'x, y, z'
loop_
 _atom_site_type_symbol
 _atom_site_label
 _atom_site_symmetry_multiplicity
 _atom_site_fract_x
 _atom_site_fract_y
 _atom_site_fract_z
 _atom_site_occupancy
  Ce  Ce0  1  0.24980100  0.23847801  0.00165401  1
  Ce  Ce1  1  0.24980100  0.00165300  0.23847699  1
  Ce  Ce2  1  0.75014899  0.24263501  0.24263500  1
  Ce  Ce3  1  0.75020999  0.76614804  0.00084504  1
  Ce  Ce4  1  0.75020999  0.00084500  0.76614798  1
  Ce  Ce5  1  0.50007200  0.66654004  0.33082003  1
  Ce  Ce6  1  0.50007200  0.33082002  0.66654001  1
  Ce  Ce7  1  0.99986599  0.33071202  0.66647899  1
  Ce  Ce8  1  0.99986599  0.66647904  0.33071202  1
  Ce  Ce9  1  0.24978800  0.75022104  0.75022104  1
  Ge  Ge10  1  0.24994100  0.40500102  0.40500102  1
  Ge  Ge11  1  0.25003400  0.60411603  0.99303303  1
  Ge  Ge12  1  0.25003400  0.99303305  0.60411606  1
  Ge  Ge13  1  0.75013299  0.60243703  0.60243702  1
  Pd  Pd14  1  0.75001099  0.40122902  0.99965400  1
  Pd  Pd15  1  0.75001099  0.99965405  0.40122905  1
