# generated using pymatgen
data_Lu3Ga5Ni3
_symmetry_space_group_name_H-M   'P 1'
_cell_length_a   4.18369007
_cell_length_b   6.65291595
_cell_length_c   7.97773695
_cell_angle_alpha   114.64328766
_cell_angle_beta   105.20125580
_cell_angle_gamma   90.00000000
_symmetry_Int_Tables_number   1
_chemical_formula_structural   Lu3Ga5Ni3
_chemical_formula_sum   'Lu3 Ga5 Ni3'
_cell_volume   193.24543618
_cell_formula_units_Z   1
loop_
 _symmetry_equiv_pos_site_id
 _symmetry_equiv_pos_as_xyz
  1  'x, y, z'
loop_
 _atom_site_type_symbol
 _atom_site_label
 _atom_site_symmetry_multiplicity
 _atom_site_fract_x
 _atom_site_fract_y
 _atom_site_fract_z
 _atom_site_occupancy
  Lu  Lu0  1  0.12985800  0.12985800  0.25971601  1
  Lu  Lu1  1  0.87014200  0.87014201  0.74028403  1
  Lu  Lu2  1  0.00000001  0.50000000  0.00000000  1
  Ga  Ga3  1  0.33080100  0.14071400  0.66160202  1
  Ga  Ga4  1  0.66919900  0.85928601  0.33839802  1
  Ga  Ga5  1  0.33080100  0.52088800  0.66160202  1
  Ga  Ga6  1  0.66919900  0.47911200  0.33839802  1
  Ga  Ga7  1  0.21686400  0.71686401  0.43372802  1
  Ni  Ni8  1  0.50000000  0.19193500  0.00000000  1
  Ni  Ni9  1  0.50000000  0.80806501  1.00000004  1
  Ni  Ni10  1  0.78313599  0.28313600  0.56627202  1
