# generated using pymatgen
data_Ca2Cu2AsO11
_symmetry_space_group_name_H-M   'P 1'
_cell_length_a   5.40348673
_cell_length_b   5.40348673
_cell_length_c   7.03025484
_cell_angle_alpha   103.06986237
_cell_angle_beta   103.06986237
_cell_angle_gamma   106.97255707
_symmetry_Int_Tables_number   1
_chemical_formula_structural   Ca2Cu2AsO11
_chemical_formula_sum   'Ca2 Cu2 As1 O11'
_cell_volume   181.59493967
_cell_formula_units_Z   1
loop_
 _symmetry_equiv_pos_site_id
 _symmetry_equiv_pos_as_xyz
  1  'x, y, z'
loop_
 _atom_site_type_symbol
 _atom_site_label
 _atom_site_symmetry_multiplicity
 _atom_site_fract_x
 _atom_site_fract_y
 _atom_site_fract_z
 _atom_site_occupancy
  Ca  Ca0  1  0.32721799  0.67278199  0.75000004  1
  Ca  Ca1  1  0.67278199  0.32721800  0.25000005  1
  Cu  Cu2  1  0.00000000  0.00000000  0.50000000  1
  Cu  Cu3  1  0.00000000  0.00000000  0.00000000  1
  As  As4  1  0.68539899  0.31460100  0.75000004  1
  O  O5  1  0.31460099  0.68539899  0.25000004  1
  O  O6  1  0.06124199  0.93875799  0.75000004  1
  O  O7  1  0.93875799  0.06124200  0.25000005  1
  O  O8  1  0.69369099  0.11379900  0.89355004  1
  O  O9  1  0.30630899  0.88620099  0.10645005  1
  O  O10  1  0.88620099  0.30630900  0.60645005  1
  O  O11  1  0.11379899  0.69369099  0.39355003  1
  O  O12  1  0.37006199  0.24047200  0.60455003  1
  O  O13  1  0.62993799  0.75952799  0.39545006  1
  O  O14  1  0.75952799  0.62993799  0.89545006  1
  O  O15  1  0.24047199  0.37006200  0.10455003  1
