# generated using pymatgen
data_Ce3(Ge2Ir)5
_symmetry_space_group_name_H-M   'P 1'
_cell_length_a   4.15496778
_cell_length_b   8.65753269
_cell_length_c   10.08934402
_cell_angle_alpha   107.50624847
_cell_angle_beta   90.00000000
_cell_angle_gamma   103.88432312
_symmetry_Int_Tables_number   1
_chemical_formula_structural   Ce3(Ge2Ir)5
_chemical_formula_sum   'Ce3 Ge10 Ir5'
_cell_volume   334.98631685
_cell_formula_units_Z   1
loop_
 _symmetry_equiv_pos_site_id
 _symmetry_equiv_pos_as_xyz
  1  'x, y, z'
loop_
 _atom_site_type_symbol
 _atom_site_label
 _atom_site_symmetry_multiplicity
 _atom_site_fract_x
 _atom_site_fract_y
 _atom_site_fract_z
 _atom_site_occupancy
  Ce  Ce0  1  0.84518700  0.69037403  0.29897402  1
  Ce  Ce1  1  0.15481299  0.30962602  0.70102603  1
  Ce  Ce2  1  0.00000000  0.00000000  0.00000000  1
  Ge  Ge3  1  0.80081700  0.60163503  0.86833004  1
  Ge  Ge4  1  0.19918298  0.39836502  0.13167001  1
  Ge  Ge5  1  0.53917602  0.07835200  0.78608003  1
  Ge  Ge6  1  0.46082396  0.92164805  0.21392002  1
  Ge  Ge7  1  0.63600301  0.27200701  0.45389502  1
  Ge  Ge8  1  0.36399697  0.72799304  0.54610503  1
  Ge  Ge9  1  0.95709099  0.91418205  0.66867804  1
  Ge  Ge10  1  0.04290900  0.08581800  0.33132201  1
  Ge  Ge11  1  0.77890400  0.55780803  0.60922303  1
  Ge  Ge12  1  0.22109598  0.44219202  0.39077702  1
  Ir  Ir13  1  0.37784497  0.75569004  0.80094004  1
  Ir  Ir14  1  0.62215502  0.24431001  0.19906001  1
  Ir  Ir15  1  0.50000003  0.00000000  0.50000002  1
  Ir  Ir16  1  0.68027901  0.36055802  0.96718704  1
  Ir  Ir17  1  0.31972097  0.63944203  0.03281301  1
