# generated using pymatgen
data_TlIn5SbSe7
_symmetry_space_group_name_H-M   'P 1'
_cell_length_a   4.12184238
_cell_length_b   9.47637749
_cell_length_c   10.36956215
_cell_angle_alpha   104.06282043
_cell_angle_beta   101.27230072
_cell_angle_gamma   90.24114227
_symmetry_Int_Tables_number   1
_chemical_formula_structural   TlIn5SbSe7
_chemical_formula_sum   'Tl1 In5 Sb1 Se7'
_cell_volume   384.74867164
_cell_formula_units_Z   1
loop_
 _symmetry_equiv_pos_site_id
 _symmetry_equiv_pos_as_xyz
  1  'x, y, z'
loop_
 _atom_site_type_symbol
 _atom_site_label
 _atom_site_symmetry_multiplicity
 _atom_site_fract_x
 _atom_site_fract_y
 _atom_site_fract_z
 _atom_site_occupancy
  Tl  Tl0  1  0.97009105  0.98881800  0.96422099  1
  In  In1  1  0.15398001  0.48818400  0.31778100  1
  In  In2  1  0.20915101  0.82891800  0.40643200  1
  In  In3  1  0.50236703  0.49968900  0.00213102  1
  In  In4  1  0.79138204  0.17435800  0.59234499  1
  In  In5  1  0.84747605  0.51405100  0.68135399  1
  Sb  Sb6  1  0.07204100  0.66094500  0.13897200  1
  Se  Se7  1  0.26152801  0.34384800  0.52253499  1
  Se  Se8  1  0.32074002  0.01555200  0.65594598  1
  Se  Se9  1  0.41715802  0.66753100  0.81916798  1
  Se  Se10  1  0.58452103  0.33092500  0.18125701  1
  Se  Se11  1  0.68107703  0.98911300  0.34385901  1
  Se  Se12  1  0.73934604  0.65792200  0.47592300  1
  Se  Se13  1  0.93110205  0.34064300  0.86199499  1
