# generated using pymatgen
data_Zn4Ge
_symmetry_space_group_name_H-M   'P 1'
_cell_length_a   4.35606909
_cell_length_b   4.35606909
_cell_length_c   17.89518547
_cell_angle_alpha   83.00916290
_cell_angle_beta   83.00916290
_cell_angle_gamma   60.00000000
_symmetry_Int_Tables_number   1
_chemical_formula_structural   Zn4Ge
_chemical_formula_sum   'Zn8 Ge2'
_cell_volume   291.15516045
_cell_formula_units_Z   2
loop_
 _symmetry_equiv_pos_site_id
 _symmetry_equiv_pos_as_xyz
  1  'x, y, z'
loop_
 _atom_site_type_symbol
 _atom_site_label
 _atom_site_symmetry_multiplicity
 _atom_site_fract_x
 _atom_site_fract_y
 _atom_site_fract_z
 _atom_site_occupancy
  Zn  Zn0  1  0.99977399  0.99977400  0.00067802  1
  Zn  Zn1  1  0.39967500  0.39967500  0.80097502  1
  Zn  Zn2  1  0.79992500  0.79992500  0.60022503  1
  Zn  Zn3  1  0.20007800  0.20007800  0.39976601  1
  Zn  Zn4  1  0.60091100  0.60091100  0.19726701  1
  Ge  Ge5  1  0.04960600  0.04960700  0.85118102  1
  Zn  Zn6  1  0.45009100  0.45009100  0.64972702  1
  Zn  Zn7  1  0.85019199  0.85019200  0.44942402  1
  Zn  Zn8  1  0.25075500  0.25075500  0.24773501  1
  Ge  Ge9  1  0.64899300  0.64899300  0.05302101  1
