# generated using pymatgen
data_LaSiN2
_symmetry_space_group_name_H-M   'P 1'
_cell_length_a   4.37658596
_cell_length_b   5.14161158
_cell_length_c   5.25034904
_cell_angle_alpha   90.00000000
_cell_angle_beta   90.00000000
_cell_angle_gamma   115.18893433
_symmetry_Int_Tables_number   1
_chemical_formula_structural   LaSiN2
_chemical_formula_sum   'La2 Si2 N4'
_cell_volume   106.91236580
_cell_formula_units_Z   2
loop_
 _symmetry_equiv_pos_site_id
 _symmetry_equiv_pos_as_xyz
  1  'x, y, z'
loop_
 _atom_site_type_symbol
 _atom_site_label
 _atom_site_symmetry_multiplicity
 _atom_site_fract_x
 _atom_site_fract_y
 _atom_site_fract_z
 _atom_site_occupancy
  La  La0  1  0.81696804  0.63393601  0.74999999  1
  La  La1  1  0.18303202  0.36606400  0.25000000  1
  Si  Si2  1  0.50000000  0.00000000  -0.00000000  1
  Si  Si3  1  0.50000000  0.00000000  0.50000000  1
  N  N4  1  0.07261504  0.83075701  0.25000000  1
  N  N5  1  0.24185801  0.16924300  0.74999999  1
  N  N6  1  0.92738502  0.16924300  0.74999999  1
  N  N7  1  0.75814205  0.83075701  0.25000000  1
