# generated using pymatgen
data_LiBeCo3O8
_symmetry_space_group_name_H-M   'P 1'
_cell_length_a   5.30960703
_cell_length_b   5.30960703
_cell_length_c   5.30960703
_cell_angle_alpha   60.00000000
_cell_angle_beta   60.00000000
_cell_angle_gamma   60.00000000
_symmetry_Int_Tables_number   1
_chemical_formula_structural   LiBeCo3O8
_chemical_formula_sum   'Li1 Be1 Co3 O8'
_cell_volume   105.84543713
_cell_formula_units_Z   1
loop_
 _symmetry_equiv_pos_site_id
 _symmetry_equiv_pos_as_xyz
  1  'x, y, z'
loop_
 _atom_site_type_symbol
 _atom_site_label
 _atom_site_symmetry_multiplicity
 _atom_site_fract_x
 _atom_site_fract_y
 _atom_site_fract_z
 _atom_site_occupancy
  Li  Li0  1  0.00000000  0.00000000  0.00000000  1
  Be  Be1  1  0.83761097  0.16238899  0.49999998  1
  O  O2  1  0.49999998  0.16238899  0.83761097  1
  Co  Co3  1  0.49999998  0.16238899  0.49999998  1
  Co  Co4  1  0.49999998  0.49999998  0.83761097  1
  Co  Co5  1  0.83761097  0.49999998  0.49999998  1
  O  O6  1  0.49999998  0.83761097  0.49999998  1
  O  O7  1  0.49999998  0.49999998  0.16238899  1
  O  O8  1  0.49999998  0.83761097  0.16238899  1
  O  O9  1  0.83761097  0.49999998  0.16238899  1
  O  O10  1  0.16238899  0.83761097  0.49999998  1
  O  O11  1  0.16238899  0.49999998  0.49999998  1
  O  O12  1  0.16238899  0.49999998  0.83761097  1
