# generated using pymatgen
data_Mg5Sc
_symmetry_space_group_name_H-M   'P 1'
_cell_length_a   3.24133992
_cell_length_b   5.86589098
_cell_length_c   7.42581320
_cell_angle_alpha   103.41854858
_cell_angle_beta   90.00000000
_cell_angle_gamma   106.03873444
_symmetry_Int_Tables_number   1
_chemical_formula_structural   Mg5Sc
_chemical_formula_sum   'Mg5 Sc1'
_cell_volume   131.67864493
_cell_formula_units_Z   1
loop_
 _symmetry_equiv_pos_site_id
 _symmetry_equiv_pos_as_xyz
  1  'x, y, z'
loop_
 _atom_site_type_symbol
 _atom_site_label
 _atom_site_symmetry_multiplicity
 _atom_site_fract_x
 _atom_site_fract_y
 _atom_site_fract_z
 _atom_site_occupancy
  Mg  Mg0  1  0.99405512  0.98811002  0.99630902  1
  Mg  Mg1  1  0.61354504  0.22709000  0.72352000  1
  Mg  Mg2  1  0.66971705  0.33943401  0.33545501  1
  Mg  Mg3  1  0.33457807  0.66915601  0.66874501  1
  Mg  Mg4  1  0.94886511  0.89773001  0.38627102  1
  Sc  Sc5  1  0.27257306  0.54514601  0.05636802  1
