# generated using pymatgen
data_YScS3
_symmetry_space_group_name_H-M   'P 1'
_cell_length_a   6.36994886
_cell_length_b   6.99189806
_cell_length_c   9.53923035
_cell_angle_alpha   90.00000000
_cell_angle_beta   90.00000000
_cell_angle_gamma   90.00000000
_symmetry_Int_Tables_number   1
_chemical_formula_structural   YScS3
_chemical_formula_sum   'Y4 Sc4 S12'
_cell_volume   424.85855696
_cell_formula_units_Z   4
loop_
 _symmetry_equiv_pos_site_id
 _symmetry_equiv_pos_as_xyz
  1  'x, y, z'
loop_
 _atom_site_type_symbol
 _atom_site_label
 _atom_site_symmetry_multiplicity
 _atom_site_fract_x
 _atom_site_fract_y
 _atom_site_fract_z
 _atom_site_occupancy
  Y  Y0  1  0.45895801  0.60090399  0.50791398  1
  Y  Y1  1  0.54104201  0.39909600  0.00791400  1
  Y  Y2  1  0.95895802  0.89909599  0.00791400  1
  Y  Y3  1  0.04104200  0.10090400  0.50791398  1
  Sc  Sc4  1  0.99605902  0.50412400  0.26182599  1
  Sc  Sc5  1  0.00394100  0.49587600  0.76182597  1
  Sc  Sc6  1  0.49605901  0.99587599  0.76182597  1
  Sc  Sc7  1  0.50394101  0.00412400  0.26182599  1
  S  S8  1  0.17433300  0.81339399  0.68533298  1
  S  S9  1  0.82566702  0.18660600  0.18533299  1
  S  S10  1  0.67433301  0.68660599  0.18533299  1
  S  S11  1  0.32566701  0.31339400  0.68533298  1
  S  S12  1  0.17730000  0.81840499  0.32950599  1
  S  S13  1  0.82270002  0.18159500  0.82950597  1
  S  S14  1  0.67730001  0.68159499  0.82950597  1
  S  S15  1  0.32270001  0.31840500  0.32950599  1
  S  S16  1  0.14570700  0.54893900  0.01042100  1
  S  S17  1  0.85429302  0.45106100  0.51042098  1
  S  S18  1  0.64570701  0.95106099  0.51042098  1
  S  S19  1  0.35429301  0.04893900  0.01042100  1
