# generated using pymatgen
data_NdMg7
_symmetry_space_group_name_H-M   'P 1'
_cell_length_a   4.70732689
_cell_length_b   6.37211275
_cell_length_c   6.37211275
_cell_angle_alpha   96.63802338
_cell_angle_beta   90.00000000
_cell_angle_gamma   90.00000000
_symmetry_Int_Tables_number   1
_chemical_formula_structural   NdMg7
_chemical_formula_sum   'Nd1 Mg7'
_cell_volume   189.85413762
_cell_formula_units_Z   1
loop_
 _symmetry_equiv_pos_site_id
 _symmetry_equiv_pos_as_xyz
  1  'x, y, z'
loop_
 _atom_site_type_symbol
 _atom_site_label
 _atom_site_symmetry_multiplicity
 _atom_site_fract_x
 _atom_site_fract_y
 _atom_site_fract_z
 _atom_site_occupancy
  Nd  Nd0  1  0.50000001  0.50000001  0.50000001  1
  Mg  Mg1  1  0.50000001  0.00000000  0.50000001  1
  Mg  Mg2  1  0.50000001  0.50000001  0.00000001  1
  Mg  Mg3  1  1.00000002  0.75925801  0.75925802  1
  Mg  Mg4  1  -0.00000000  0.24074200  0.24074201  1
  Mg  Mg5  1  -0.00000000  0.24305900  0.75694101  1
  Mg  Mg6  1  -0.00000000  0.75694101  0.24305901  1
  Mg  Mg7  1  0.50000001  0.00000000  -0.00000000  1
