# generated using pymatgen
data_Hf5GaPb3
_symmetry_space_group_name_H-M   'P 1'
_cell_length_a   5.95635223
_cell_length_b   8.83727837
_cell_length_c   8.83727741
_cell_angle_alpha   120.00000000
_cell_angle_beta   90.00000000
_cell_angle_gamma   90.00000000
_symmetry_Int_Tables_number   1
_chemical_formula_structural   Hf5GaPb3
_chemical_formula_sum   'Hf10 Ga2 Pb6'
_cell_volume   402.85432190
_cell_formula_units_Z   2
loop_
 _symmetry_equiv_pos_site_id
 _symmetry_equiv_pos_as_xyz
  1  'x, y, z'
loop_
 _atom_site_type_symbol
 _atom_site_label
 _atom_site_symmetry_multiplicity
 _atom_site_fract_x
 _atom_site_fract_y
 _atom_site_fract_z
 _atom_site_occupancy
  Hf  Hf0  1  0.99999996  0.66666663  0.33333334  1
  Hf  Hf1  1  0.49999998  0.33333332  0.66666669  1
  Hf  Hf2  1  -0.00000000  0.33333332  0.66666669  1
  Hf  Hf3  1  0.49999998  0.66666663  0.33333334  1
  Hf  Hf4  1  0.74999997  0.73340096  0.73340102  1
  Hf  Hf5  1  0.24999999  0.73340096  -0.00000001  1
  Hf  Hf6  1  0.24999999  0.00000000  0.73340103  1
  Hf  Hf7  1  0.74999997  0.00000000  0.26659901  1
  Hf  Hf8  1  0.74999997  0.26659899  -0.00000000  1
  Hf  Hf9  1  0.24999999  0.26659899  0.26659901  1
  Ga  Ga10  1  0.00000000  0.00000000  0.00000000  1
  Ga  Ga11  1  0.49999998  0.00000000  -0.00000000  1
  Pb  Pb12  1  0.74999997  0.38405798  0.38405801  1
  Pb  Pb13  1  0.24999999  0.38405798  -0.00000001  1
  Pb  Pb14  1  0.24999999  0.00000000  0.38405802  1
  Pb  Pb15  1  0.74999997  0.00000000  0.61594203  1
  Pb  Pb16  1  0.74999997  0.61594197  1.00000003  1
  Pb  Pb17  1  0.24999999  0.61594197  0.61594202  1
