# generated using pymatgen
data_Mg2Ti3FeO8
_symmetry_space_group_name_H-M   'P 1'
_cell_length_a   6.04898262
_cell_length_b   6.04898262
_cell_length_c   6.04898214
_cell_angle_alpha   60.07892990
_cell_angle_beta   60.07892990
_cell_angle_gamma   60.07893372
_symmetry_Int_Tables_number   1
_chemical_formula_structural   Mg2Ti3FeO8
_chemical_formula_sum   'Mg2 Ti3 Fe1 O8'
_cell_volume   156.78629432
_cell_formula_units_Z   1
loop_
 _symmetry_equiv_pos_site_id
 _symmetry_equiv_pos_as_xyz
  1  'x, y, z'
loop_
 _atom_site_type_symbol
 _atom_site_label
 _atom_site_symmetry_multiplicity
 _atom_site_fract_x
 _atom_site_fract_y
 _atom_site_fract_z
 _atom_site_occupancy
  Mg  Mg0  1  0.87459704  0.87459699  0.87459695  1
  Mg  Mg1  1  0.12540301  0.12540300  0.12540299  1
  Ti  Ti2  1  0.00000002  0.50000000  0.49999998  1
  Ti  Ti3  1  0.50000000  0.00000000  0.49999999  1
  Ti  Ti4  1  0.50000002  0.50000000  -0.00000003  1
  Fe  Fe5  1  0.50000002  0.50000000  0.49999997  1
  O  O6  1  0.73621803  0.73621799  0.73621796  1
  O  O7  1  0.74352703  0.74352699  0.28253695  1
  O  O8  1  0.74352701  0.28253700  0.74352698  1
  O  O9  1  0.28253703  0.74352699  0.74352697  1
  O  O10  1  0.71746301  0.25647300  0.25647297  1
  O  O11  1  0.25647303  0.71746299  0.25647297  1
  O  O12  1  0.25647301  0.25647300  0.71746299  1
  O  O13  1  0.26378201  0.26378200  0.26378198  1
