# generated using pymatgen
data_Ba4BiSb15
_symmetry_space_group_name_H-M   'P 1'
_cell_length_a   5.03129292
_cell_length_b   10.94689178
_cell_length_c   10.94689178
_cell_angle_alpha   90.00000000
_cell_angle_beta   90.00000000
_cell_angle_gamma   90.00000000
_symmetry_Int_Tables_number   1
_chemical_formula_structural   Ba4BiSb15
_chemical_formula_sum   'Ba4 Bi1 Sb15'
_cell_volume   602.92216770
_cell_formula_units_Z   1
loop_
 _symmetry_equiv_pos_site_id
 _symmetry_equiv_pos_as_xyz
  1  'x, y, z'
loop_
 _atom_site_type_symbol
 _atom_site_label
 _atom_site_symmetry_multiplicity
 _atom_site_fract_x
 _atom_site_fract_y
 _atom_site_fract_z
 _atom_site_occupancy
  Ba  Ba0  1  0.00000000  0.35350701  0.35350701  1
  Ba  Ba1  1  0.00000000  0.64649301  0.64649301  1
  Ba  Ba2  1  0.50000001  0.85350702  0.14649300  1
  Ba  Ba3  1  0.50000001  0.14649300  0.85350702  1
  Sb  Sb4  1  0.00000000  0.64331401  0.02808400  1
  Sb  Sb5  1  0.00000000  0.35668601  0.97191602  1
  Sb  Sb6  1  0.50000001  0.52808401  0.85668602  1
  Sb  Sb7  1  0.50000001  0.14331400  0.47191601  1
  Sb  Sb8  1  0.50000001  0.47191601  0.14331400  1
  Sb  Sb9  1  0.50000001  0.85668602  0.52808401  1
  Sb  Sb10  1  0.00000000  0.02808400  0.64331401  1
  Sb  Sb11  1  0.00000000  0.97191602  0.35668601  1
  Sb  Sb12  1  0.00000000  0.68895001  0.31105001  1
  Sb  Sb13  1  -0.00000000  0.31105001  0.68895001  1
  Sb  Sb14  1  0.50000001  0.81105002  0.81105002  1
  Bi  Bi15  1  0.50000001  0.18895000  0.18895000  1
  Sb  Sb16  1  0.00000000  0.09431300  0.09431300  1
  Sb  Sb17  1  1.00000002  0.90568702  0.90568702  1
  Sb  Sb18  1  0.50000001  0.59431301  0.40568701  1
  Sb  Sb19  1  0.50000001  0.40568701  0.59431301  1
