# generated using pymatgen
data_Ti4Ge7Ir
_symmetry_space_group_name_H-M   'P 1'
_cell_length_a   3.85623908
_cell_length_b   6.45174599
_cell_length_c   7.42902803
_cell_angle_alpha   90.00000000
_cell_angle_beta   90.00000000
_cell_angle_gamma   90.00000000
_symmetry_Int_Tables_number   1
_chemical_formula_structural   Ti4Ge7Ir
_chemical_formula_sum   'Ti4 Ge7 Ir1'
_cell_volume   184.83031734
_cell_formula_units_Z   1
loop_
 _symmetry_equiv_pos_site_id
 _symmetry_equiv_pos_as_xyz
  1  'x, y, z'
loop_
 _atom_site_type_symbol
 _atom_site_label
 _atom_site_symmetry_multiplicity
 _atom_site_fract_x
 _atom_site_fract_y
 _atom_site_fract_z
 _atom_site_occupancy
  Ti  Ti0  1  0.24999999  0.52590500  0.16453100  1
  Ti  Ti1  1  0.74999998  0.47409500  0.83546900  1
  Ti  Ti2  1  0.74999998  0.97409500  0.66453100  1
  Ti  Ti3  1  0.24999999  0.02590500  0.33546900  1
  Ge  Ge4  1  0.24999999  0.76770200  0.87502600  1
  Ge  Ge5  1  0.74999998  0.23229800  0.12497400  1
  Ge  Ge6  1  0.74999998  0.73229800  0.37502600  1
  Ge  Ge7  1  0.24999999  0.26770200  0.62497400  1
  Ir  Ir8  1  0.24999999  0.65291200  0.56757200  1
  Ge  Ge9  1  0.74999998  0.34708800  0.43242800  1
  Ge  Ge10  1  0.74999998  0.84708800  0.06757200  1
  Ge  Ge11  1  0.24999999  0.15291200  0.93242800  1
