# generated using pymatgen
data_CeZnSe3
_symmetry_space_group_name_H-M   'P 1'
_cell_length_a   6.69049501
_cell_length_b   7.09714985
_cell_length_c   9.71806335
_cell_angle_alpha   90.00000000
_cell_angle_beta   90.00000000
_cell_angle_gamma   90.00000000
_symmetry_Int_Tables_number   1
_chemical_formula_structural   CeZnSe3
_chemical_formula_sum   'Ce4 Zn4 Se12'
_cell_volume   461.44713340
_cell_formula_units_Z   4
loop_
 _symmetry_equiv_pos_site_id
 _symmetry_equiv_pos_as_xyz
  1  'x, y, z'
loop_
 _atom_site_type_symbol
 _atom_site_label
 _atom_site_symmetry_multiplicity
 _atom_site_fract_x
 _atom_site_fract_y
 _atom_site_fract_z
 _atom_site_occupancy
  Ce  Ce0  1  0.47405100  0.58398901  0.24999999  1
  Ce  Ce1  1  0.02594900  0.08398900  0.24999999  1
  Ce  Ce2  1  0.52594900  0.41601101  0.74999997  1
  Ce  Ce3  1  0.97405100  0.91601102  0.74999997  1
  Zn  Zn4  1  0.00000000  0.50000001  0.00000000  1
  Zn  Zn5  1  0.50000000  0.00000000  0.49999998  1
  Zn  Zn6  1  0.00000000  0.50000001  0.49999998  1
  Zn  Zn7  1  0.50000000  0.00000000  -0.00000000  1
  Se  Se8  1  0.89790200  0.47832601  0.24999999  1
  Se  Se9  1  0.60209800  0.97832602  0.24999999  1
  Se  Se10  1  0.10209800  0.52167401  0.74999997  1
  Se  Se11  1  0.39790200  0.02167400  0.74999997  1
  Se  Se12  1  0.68902600  0.69435201  0.94796797  1
  Se  Se13  1  0.81097400  0.19435200  0.55203198  1
  Se  Se14  1  0.31097400  0.30564801  0.44796798  1
  Se  Se15  1  0.18902600  0.80564802  0.05203200  1
  Se  Se16  1  0.31097400  0.30564801  0.05203200  1
  Se  Se17  1  0.18902600  0.80564802  0.44796798  1
  Se  Se18  1  0.68902600  0.69435201  0.55203198  1
  Se  Se19  1  0.81097400  0.19435200  0.94796797  1
