# generated using pymatgen
data_Sm(Ga3Co)3
_symmetry_space_group_name_H-M   'P 1'
_cell_length_a   5.04853392
_cell_length_b   6.69460058
_cell_length_c   6.75586319
_cell_angle_alpha   82.13577271
_cell_angle_beta   68.05966187
_cell_angle_gamma   68.51873779
_symmetry_Int_Tables_number   1
_chemical_formula_structural   Sm(Ga3Co)3
_chemical_formula_sum   'Sm1 Ga9 Co3'
_cell_volume   197.08470284
_cell_formula_units_Z   1
loop_
 _symmetry_equiv_pos_site_id
 _symmetry_equiv_pos_as_xyz
  1  'x, y, z'
loop_
 _atom_site_type_symbol
 _atom_site_label
 _atom_site_symmetry_multiplicity
 _atom_site_fract_x
 _atom_site_fract_y
 _atom_site_fract_z
 _atom_site_occupancy
  Sm  Sm0  1  0.00000000  0.00000000  0.00000000  1
  Ga  Ga1  1  0.48375907  0.78625497  0.22477502  1
  Ga  Ga2  1  0.51624104  0.21374499  0.77522497  1
  Ga  Ga3  1  0.29146603  0.21374499  0.22477499  1
  Ga  Ga4  1  0.70853408  0.78625497  0.77522500  1
  Ga  Ga5  1  0.99931707  0.33739899  0.64650696  1
  Ga  Ga6  1  0.00068304  0.66260097  0.35349303  1
  Ga  Ga7  1  0.35417506  0.66260097  0.64650701  1
  Ga  Ga8  1  0.64582505  0.33739899  0.35349298  1
  Ga  Ga9  1  0.00000003  0.49999998  0.00000003  1
  Co  Co10  1  0.50000006  0.49999998  0.00000000  1
  Co  Co11  1  0.50000003  0.00000000  0.49999997  1
  Co  Co12  1  0.00000000  0.00000000  0.49999999  1
