# generated using pymatgen
data_ZrTc2
_symmetry_space_group_name_H-M   'P 1'
_cell_length_a   3.56408811
_cell_length_b   3.56408811
_cell_length_c   5.10119772
_cell_angle_alpha   110.44685364
_cell_angle_beta   110.44685364
_cell_angle_gamma   90.00000000
_symmetry_Int_Tables_number   1
_chemical_formula_structural   ZrTc2
_chemical_formula_sum   'Zr1 Tc2'
_cell_volume   56.33891535
_cell_formula_units_Z   1
loop_
 _symmetry_equiv_pos_site_id
 _symmetry_equiv_pos_as_xyz
  1  'x, y, z'
loop_
 _atom_site_type_symbol
 _atom_site_label
 _atom_site_symmetry_multiplicity
 _atom_site_fract_x
 _atom_site_fract_y
 _atom_site_fract_z
 _atom_site_occupancy
  Zr  Zr0  1  0.00000000  0.00000000  0.00000000  1
  Tc  Tc1  1  0.66302002  0.66302000  0.32604006  1
  Tc  Tc2  1  0.33698001  0.33698000  0.67396004  1
