# generated using pymatgen
data_K4ScPaF10
_symmetry_space_group_name_H-M   'P 1'
_cell_length_a   6.40087414
_cell_length_b   6.63466883
_cell_length_c   7.72548294
_cell_angle_alpha   90.00000000
_cell_angle_beta   114.47336578
_cell_angle_gamma   90.00000000
_symmetry_Int_Tables_number   1
_chemical_formula_structural   K4ScPaF10
_chemical_formula_sum   'K4 Sc1 Pa1 F10'
_cell_volume   298.60634446
_cell_formula_units_Z   1
loop_
 _symmetry_equiv_pos_site_id
 _symmetry_equiv_pos_as_xyz
  1  'x, y, z'
loop_
 _atom_site_type_symbol
 _atom_site_label
 _atom_site_symmetry_multiplicity
 _atom_site_fract_x
 _atom_site_fract_y
 _atom_site_fract_z
 _atom_site_occupancy
  K  K0  1  0.24815200  0.25000001  0.49630402  1
  K  K1  1  0.75184800  0.75000002  0.50369604  1
  K  K2  1  0.42782600  0.75000002  0.85565203  1
  K  K3  1  0.57217400  0.25000001  0.14434803  1
  Pa  Pa4  1  0.90682900  0.25000001  0.81365805  1
  Sc  Sc5  1  0.09317100  0.75000002  0.18634201  1
  F  F6  1  0.11395800  0.46871501  0.76047101  1
  F  F7  1  0.35348700  0.53128501  0.23952902  1
  F  F8  1  0.88604200  0.96871503  0.23952904  1
  F  F9  1  0.64651300  0.03128500  0.76047104  1
  F  F10  1  0.88604200  0.53128501  0.23952904  1
  F  F11  1  0.64651300  0.46871501  0.76047104  1
  F  F12  1  0.23453400  0.75000002  0.46906801  1
  F  F13  1  0.76546600  0.25000001  0.53093204  1
  F  F14  1  0.35348700  0.96871503  0.23952902  1
  F  F15  1  0.11395800  0.03128500  0.76047101  1
