# generated using pymatgen
data_V4Sb2O11
_symmetry_space_group_name_H-M   'P 1'
_cell_length_a   4.96850681
_cell_length_b   5.23559380
_cell_length_c   8.67605305
_cell_angle_alpha   90.00000000
_cell_angle_beta   90.00000000
_cell_angle_gamma   89.64483643
_symmetry_Int_Tables_number   1
_chemical_formula_structural   V4Sb2O11
_chemical_formula_sum   'V4 Sb2 O11'
_cell_volume   225.68655584
_cell_formula_units_Z   1
loop_
 _symmetry_equiv_pos_site_id
 _symmetry_equiv_pos_as_xyz
  1  'x, y, z'
loop_
 _atom_site_type_symbol
 _atom_site_label
 _atom_site_symmetry_multiplicity
 _atom_site_fract_x
 _atom_site_fract_y
 _atom_site_fract_z
 _atom_site_occupancy
  V  V0  1  0.00000000  0.00000000  0.72384500  1
  V  V1  1  -0.00000000  0.00000000  0.10975000  1
  V  V2  1  0.50000001  0.99999996  0.41681300  1
  V  V3  1  -0.00000001  0.49999998  0.91956199  1
  Sb  Sb4  1  0.50000001  0.49999998  0.60587300  1
  Sb  Sb5  1  0.25779401  0.12207700  0.26247100  1
  O  O6  1  0.28476201  0.18290699  0.58195500  1
  O  O7  1  0.19512501  0.18471199  0.91857600  1
  O  O8  1  0.70841902  0.31392799  0.44289000  1
  O  O9  1  0.78821103  0.31902499  0.07286900  1
  O  O10  1  0.75748802  0.35656199  0.75140700  1
  O  O11  1  0.24251200  0.64343797  0.75140700  1
  O  O12  1  0.21178900  0.68097497  0.07286900  1
  O  O13  1  0.29158100  0.68607197  0.44289000  1
  O  O14  1  0.80487502  0.81528797  0.91857600  1
  O  O15  1  0.71523802  0.81709297  0.58195500  1
  O  O16  1  0.74220602  0.87792297  0.26247100  1
