# generated using pymatgen
data_Mg5Pb
_symmetry_space_group_name_H-M   'P 1'
_cell_length_a   3.34046102
_cell_length_b   5.22556686
_cell_length_c   8.48425293
_cell_angle_alpha   90.00000000
_cell_angle_beta   101.35354614
_cell_angle_gamma   90.00000000
_symmetry_Int_Tables_number   1
_chemical_formula_structural   Mg5Pb
_chemical_formula_sum   'Mg5 Pb1'
_cell_volume   145.20130055
_cell_formula_units_Z   1
loop_
 _symmetry_equiv_pos_site_id
 _symmetry_equiv_pos_as_xyz
  1  'x, y, z'
loop_
 _atom_site_type_symbol
 _atom_site_label
 _atom_site_symmetry_multiplicity
 _atom_site_fract_x
 _atom_site_fract_y
 _atom_site_fract_z
 _atom_site_occupancy
  Mg  Mg0  1  0.99979200  1.00000003  0.99958407  1
  Mg  Mg1  1  0.33551500  1.00000003  0.67103004  1
  Mg  Mg2  1  0.66277300  1.00000003  0.32554603  1
  Mg  Mg3  1  0.44837300  0.50000001  0.89674605  1
  Mg  Mg4  1  0.10968900  0.50000001  0.21937801  1
  Pb  Pb5  1  0.77719700  0.50000001  0.55439404  1
