# generated using pymatgen
data_YAl7Fe5
_symmetry_space_group_name_H-M   'P 1'
_cell_length_a   5.04053116
_cell_length_b   6.65146875
_cell_length_c   6.65146828
_cell_angle_alpha   81.49472809
_cell_angle_beta   67.73421478
_cell_angle_gamma   67.73420715
_symmetry_Int_Tables_number   1
_chemical_formula_structural   YAl7Fe5
_chemical_formula_sum   'Y1 Al7 Fe5'
_cell_volume   190.98476409
_cell_formula_units_Z   1
loop_
 _symmetry_equiv_pos_site_id
 _symmetry_equiv_pos_as_xyz
  1  'x, y, z'
loop_
 _atom_site_type_symbol
 _atom_site_label
 _atom_site_symmetry_multiplicity
 _atom_site_fract_x
 _atom_site_fract_y
 _atom_site_fract_z
 _atom_site_occupancy
  Y  Y0  1  0.99999990  0.99434101  0.00565904  1
  Al  Al1  1  0.99999995  0.34273000  0.65727000  1
  Al  Al2  1  0.99999993  0.65976101  0.34023902  1
  Al  Al3  1  0.65638096  0.35334200  0.33389601  1
  Al  Al4  1  0.34361893  0.66610401  0.64665805  1
  Al  Al5  1  0.49999997  0.22750000  0.77250001  1
  Al  Al6  1  0.71041892  0.78352801  0.79563505  1
  Al  Al7  1  0.28958198  0.20436500  0.21647201  1
  Fe  Fe8  1  0.99684499  0.00106800  0.49927297  1
  Fe  Fe9  1  0.50281299  0.00106800  0.49927299  1
  Fe  Fe10  1  0.49718595  0.50072701  0.99893204  1
  Fe  Fe11  1  0.00315395  0.50072701  0.99893205  1
  Fe  Fe12  1  0.49999992  0.76473801  0.23526205  1
