# generated using pymatgen
data_TmNiGe
_symmetry_space_group_name_H-M   'P 1'
_cell_length_a   4.17461395
_cell_length_b   6.74009609
_cell_length_c   7.21571207
_cell_angle_alpha   90.00000000
_cell_angle_beta   90.00000000
_cell_angle_gamma   90.00000000
_symmetry_Int_Tables_number   1
_chemical_formula_structural   TmNiGe
_chemical_formula_sum   'Tm4 Ni4 Ge4'
_cell_volume   203.03064939
_cell_formula_units_Z   4
loop_
 _symmetry_equiv_pos_site_id
 _symmetry_equiv_pos_as_xyz
  1  'x, y, z'
loop_
 _atom_site_type_symbol
 _atom_site_label
 _atom_site_symmetry_multiplicity
 _atom_site_fract_x
 _atom_site_fract_y
 _atom_site_fract_z
 _atom_site_occupancy
  Tm  Tm0  1  0.25000000  0.50673699  0.70688799  1
  Tm  Tm1  1  0.75000001  0.49326299  0.29311200  1
  Tm  Tm2  1  0.25000000  0.00673700  0.79311199  1
  Tm  Tm3  1  0.75000001  0.99326299  0.20688800  1
  Ni  Ni4  1  0.25000000  0.80762199  0.41866300  1
  Ni  Ni5  1  0.75000001  0.69237799  0.91866299  1
  Ni  Ni6  1  0.25000000  0.30762200  0.08133700  1
  Ni  Ni7  1  0.75000001  0.19237800  0.58133699  1
  Ge  Ge8  1  0.25000000  0.19939100  0.41010700  1
  Ge  Ge9  1  0.75000001  0.30060900  0.91010699  1
  Ge  Ge10  1  0.25000000  0.69939099  0.08989300  1
  Ge  Ge11  1  0.75000001  0.80060899  0.58989299  1
