# generated using pymatgen
data_Li5TiVO7
_symmetry_space_group_name_H-M   'P 1'
_cell_length_a   2.95518899
_cell_length_b   5.11261988
_cell_length_c   9.76571465
_cell_angle_alpha   90.00000000
_cell_angle_beta   90.00000000
_cell_angle_gamma   90.00000000
_symmetry_Int_Tables_number   1
_chemical_formula_structural   Li5TiVO7
_chemical_formula_sum   'Li5 Ti1 V1 O7'
_cell_volume   147.54781896
_cell_formula_units_Z   1
loop_
 _symmetry_equiv_pos_site_id
 _symmetry_equiv_pos_as_xyz
  1  'x, y, z'
loop_
 _atom_site_type_symbol
 _atom_site_label
 _atom_site_symmetry_multiplicity
 _atom_site_fract_x
 _atom_site_fract_y
 _atom_site_fract_z
 _atom_site_occupancy
  Li  Li0  1  0.00000000  0.31259001  0.96695904  1
  Li  Li1  1  0.00000000  0.68741002  0.46695902  1
  Li  Li2  1  0.50000000  0.77310002  0.85660403  1
  Li  Li3  1  0.50000000  0.22690001  0.35660401  1
  Ti  Ti4  1  0.00000000  0.26580001  0.63828602  1
  Li  Li5  1  0.00000000  0.73420002  0.13828601  1
  V  V6  1  0.50000000  0.94539602  0.22277701  1
  O  O7  1  0.00000000  0.94716102  0.96529804  1
  O  O8  1  0.00000000  0.05283900  0.46529802  1
  O  O9  1  0.50000000  0.05460400  0.72277703  1
  O  O10  1  0.00000000  0.46059901  0.28471301  1
  O  O11  1  0.50000000  0.46120601  0.53408302  1
  O  O12  1  0.50000000  0.53879401  0.03408300  1
  O  O13  1  0.00000000  0.53940101  0.78471303  1
