# generated using pymatgen
data_Mg5Pb
_symmetry_space_group_name_H-M   'P 1'
_cell_length_a   3.19675803
_cell_length_b   6.18077040
_cell_length_c   7.57704163
_cell_angle_alpha   104.51865387
_cell_angle_beta   90.00000000
_cell_angle_gamma   104.98731232
_symmetry_Int_Tables_number   1
_chemical_formula_structural   Mg5Pb
_chemical_formula_sum   'Mg5 Pb1'
_cell_volume   139.66268208
_cell_formula_units_Z   1
loop_
 _symmetry_equiv_pos_site_id
 _symmetry_equiv_pos_as_xyz
  1  'x, y, z'
loop_
 _atom_site_type_symbol
 _atom_site_label
 _atom_site_symmetry_multiplicity
 _atom_site_fract_x
 _atom_site_fract_y
 _atom_site_fract_z
 _atom_site_occupancy
  Mg  Mg0  1  0.00087600  0.00175200  0.00212700  1
  Mg  Mg1  1  0.72195800  0.44391602  0.94435799  1
  Mg  Mg2  1  0.33383001  0.66766002  0.66487900  1
  Mg  Mg3  1  0.05671100  0.11342200  0.61353298  1
  Pb  Pb4  1  0.66557000  0.33114001  0.33352800  1
  Mg  Mg5  1  0.38772101  0.77544203  0.27490802  1
