# generated using pymatgen
data_MnCuGeAsI2
_symmetry_space_group_name_H-M   'P 1'
_cell_length_a   4.28036785
_cell_length_b   4.28036785
_cell_length_c   9.55225277
_cell_angle_alpha   102.94702911
_cell_angle_beta   102.94702911
_cell_angle_gamma   90.00000000
_symmetry_Int_Tables_number   1
_chemical_formula_structural   MnCuGeAsI2
_chemical_formula_sum   'Mn1 Cu1 Ge1 As1 I2'
_cell_volume   165.99440810
_cell_formula_units_Z   1
loop_
 _symmetry_equiv_pos_site_id
 _symmetry_equiv_pos_as_xyz
  1  'x, y, z'
loop_
 _atom_site_type_symbol
 _atom_site_label
 _atom_site_symmetry_multiplicity
 _atom_site_fract_x
 _atom_site_fract_y
 _atom_site_fract_z
 _atom_site_occupancy
  Mn  Mn0  1  0.33675600  0.33675601  0.67351199  1
  Cu  Cu1  1  0.66324400  0.66324401  0.32648797  1
  Ge  Ge2  1  0.00000000  0.00000000  0.00000000  1
  I  I3  1  0.24999999  0.75000002  0.49999998  1
  As  As4  1  0.57547501  0.07547500  0.15094999  1
  I  I5  1  0.92452501  0.42452501  0.84904998  1
