# generated using pymatgen
data_Pr2InGa3
_symmetry_space_group_name_H-M   'P 1'
_cell_length_a   4.58087397
_cell_length_b   4.64501190
_cell_length_c   7.38476467
_cell_angle_alpha   108.33061218
_cell_angle_beta   90.00000000
_cell_angle_gamma   90.00000000
_symmetry_Int_Tables_number   1
_chemical_formula_structural   Pr2InGa3
_chemical_formula_sum   'Pr2 In1 Ga3'
_cell_volume   149.16121384
_cell_formula_units_Z   1
loop_
 _symmetry_equiv_pos_site_id
 _symmetry_equiv_pos_as_xyz
  1  'x, y, z'
loop_
 _atom_site_type_symbol
 _atom_site_label
 _atom_site_symmetry_multiplicity
 _atom_site_fract_x
 _atom_site_fract_y
 _atom_site_fract_z
 _atom_site_occupancy
  Pr  Pr0  1  0.50000000  0.15558200  0.31116401  1
  Pr  Pr1  1  0.50000000  0.84441802  0.68883602  1
  In  In2  1  1.00000001  0.32514801  0.65029601  1
  Ga  Ga3  1  1.00000001  0.67485202  0.34970401  1
  Ga  Ga4  1  0.50000000  0.50000001  1.00000002  1
  Ga  Ga5  1  0.00000000  0.00000000  0.00000000  1
