# generated using pymatgen
data_Li4Cu2OF9
_symmetry_space_group_name_H-M   'P 1'
_cell_length_a   3.87336993
_cell_length_b   5.57130814
_cell_length_c   9.88937283
_cell_angle_alpha   90.00000000
_cell_angle_beta   90.00000000
_cell_angle_gamma   110.34166718
_symmetry_Int_Tables_number   1
_chemical_formula_structural   Li4Cu2OF9
_chemical_formula_sum   'Li4 Cu2 O1 F9'
_cell_volume   200.10104539
_cell_formula_units_Z   1
loop_
 _symmetry_equiv_pos_site_id
 _symmetry_equiv_pos_as_xyz
  1  'x, y, z'
loop_
 _atom_site_type_symbol
 _atom_site_label
 _atom_site_symmetry_multiplicity
 _atom_site_fract_x
 _atom_site_fract_y
 _atom_site_fract_z
 _atom_site_occupancy
  Li  Li0  1  0.80499998  0.60999997  0.75000001  1
  Li  Li1  1  0.19499998  0.38999998  0.25000000  1
  Li  Li2  1  0.86605198  0.73210397  0.06907300  1
  Li  Li3  1  0.86605198  0.73210397  0.43092701  1
  Cu  Cu4  1  0.13394799  0.26789599  0.93092702  1
  Cu  Cu5  1  0.13394799  0.26789599  0.56907301  1
  F  F6  1  0.93494997  0.86989996  0.88971602  1
  F  F7  1  0.93494997  0.86989996  0.61028401  1
  O  O8  1  0.67477899  0.34955799  0.93075302  1
  F  F9  1  0.67477899  0.34955799  0.56924701  1
  F  F10  1  0.78070398  0.56140798  0.25000000  1
  F  F11  1  0.21929598  0.43859198  0.75000001  1
  F  F12  1  0.32522097  0.65044197  0.43075301  1
  F  F13  1  0.32522097  0.65044197  0.06924700  1
  F  F14  1  0.06504999  0.13009999  0.11028400  1
  F  F15  1  0.06504999  0.13009999  0.38971601  1
