# generated using pymatgen
data_Sr2Co3Mo2O11
_symmetry_space_group_name_H-M   'P 1'
_cell_length_a   5.51868486
_cell_length_b   5.58303308
_cell_length_c   7.81652498
_cell_angle_alpha   89.79225159
_cell_angle_beta   89.97646332
_cell_angle_gamma   89.99250793
_symmetry_Int_Tables_number   1
_chemical_formula_structural   Sr2Co3Mo2O11
_chemical_formula_sum   'Sr2 Co3 Mo2 O11'
_cell_volume   240.83334718
_cell_formula_units_Z   1
loop_
 _symmetry_equiv_pos_site_id
 _symmetry_equiv_pos_as_xyz
  1  'x, y, z'
loop_
 _atom_site_type_symbol
 _atom_site_label
 _atom_site_symmetry_multiplicity
 _atom_site_fract_x
 _atom_site_fract_y
 _atom_site_fract_z
 _atom_site_occupancy
  Sr  Sr0  1  0.50850101  0.54032800  0.25085298  1
  Sr  Sr1  1  0.00855199  0.95589599  0.74940997  1
  Co  Co2  1  0.50149901  0.00315400  0.99875401  1
  Co  Co3  1  0.00024700  0.49375300  0.99967499  1
  Co  Co4  1  0.00108400  0.49777400  0.49873299  1
  Mo  Mo5  1  0.49930901  0.00719600  0.49897100  1
  O  O6  1  0.70335001  0.29731500  0.45802799  1
  Mo  Mo7  1  0.19795500  0.21316800  0.53973700  1
  O  O8  1  0.79587401  0.77046400  0.02923297  1
  O  O9  1  0.28051000  0.71137400  0.97526598  1
  O  O10  1  0.28311000  0.72010400  0.52978198  1
  O  O11  1  0.79107601  0.77567900  0.47285098  1
  O  O12  1  0.19032400  0.21307100  0.95873800  1
  O  O13  1  0.71047302  0.30036800  0.03987599  1
  O  O14  1  0.07981800  0.48469800  0.24487898  1
  O  O15  1  0.57444801  0.01501800  0.74384501  1
  O  O16  1  0.44958200  0.98354899  0.25559797  1
  O  O17  1  0.94646602  0.51714900  0.75566299  1
