# generated using pymatgen
data_TaCuO2F3
_symmetry_space_group_name_H-M   'P 1'
_cell_length_a   5.58966923
_cell_length_b   5.58966923
_cell_length_c   5.58966923
_cell_angle_alpha   109.47122192
_cell_angle_beta   109.47122192
_cell_angle_gamma   109.47122192
_symmetry_Int_Tables_number   1
_chemical_formula_structural   TaCuO2F3
_chemical_formula_sum   'Ta1 Cu1 O2 F3'
_cell_volume   134.44244915
_cell_formula_units_Z   1
loop_
 _symmetry_equiv_pos_site_id
 _symmetry_equiv_pos_as_xyz
  1  'x, y, z'
loop_
 _atom_site_type_symbol
 _atom_site_label
 _atom_site_symmetry_multiplicity
 _atom_site_fract_x
 _atom_site_fract_y
 _atom_site_fract_z
 _atom_site_occupancy
  Ta  Ta0  1  0.00000000  0.00000000  0.00000000  1
  O  O1  1  0.71012106  1.00000003  0.71012107  1
  Cu  Cu2  1  0.28987906  1.00000003  0.28987906  1
  F  F3  1  0.71012104  0.71012102  0.00000006  1
  F  F4  1  0.28987902  0.28987901  0.00000002  1
  O  O5  1  0.00000002  0.28987901  0.28987901  1
  F  F6  1  1.00000004  0.71012102  0.71012106  1
