# generated using pymatgen
data_CaCuS2
_symmetry_space_group_name_H-M   'P 1'
_cell_length_a   6.45408392
_cell_length_b   7.12722206
_cell_length_c   6.83519936
_cell_angle_alpha   90.00000000
_cell_angle_beta   82.54882050
_cell_angle_gamma   90.00000000
_symmetry_Int_Tables_number   1
_chemical_formula_structural   CaCuS2
_chemical_formula_sum   'Ca4 Cu4 S8'
_cell_volume   311.76202107
_cell_formula_units_Z   4
loop_
 _symmetry_equiv_pos_site_id
 _symmetry_equiv_pos_as_xyz
  1  'x, y, z'
loop_
 _atom_site_type_symbol
 _atom_site_label
 _atom_site_symmetry_multiplicity
 _atom_site_fract_x
 _atom_site_fract_y
 _atom_site_fract_z
 _atom_site_occupancy
  Ca  Ca0  1  0.19194200  0.04927100  0.19966100  1
  Ca  Ca1  1  0.80805801  0.54927100  0.30033901  1
  Ca  Ca2  1  0.80805801  0.95072899  0.80033901  1
  Ca  Ca3  1  0.19194200  0.45072900  0.69966100  1
  Cu  Cu4  1  0.57717401  0.33769300  0.94991601  1
  Cu  Cu5  1  0.42282600  0.66230699  0.05008400  1
  Cu  Cu6  1  0.42282600  0.83769299  0.55008400  1
  Cu  Cu7  1  0.57717401  0.16230700  0.44991601  1
  S  S8  1  0.91941501  0.27378300  0.99838601  1
  S  S9  1  0.08058500  0.77378299  0.50161400  1
  S  S10  1  0.08058500  0.72621699  0.00161400  1
  S  S11  1  0.91941501  0.22621700  0.49838601  1
  S  S12  1  0.59057101  0.88609299  0.22106001  1
  S  S13  1  0.59057101  0.61390699  0.72106001  1
  S  S14  1  0.40942900  0.11390700  0.77894000  1
  S  S15  1  0.40942900  0.38609300  0.27894000  1
