# generated using pymatgen
data_Ba2CrN5
_symmetry_space_group_name_H-M   'P 1'
_cell_length_a   4.54617786
_cell_length_b   6.75043392
_cell_length_c   9.95042706
_cell_angle_alpha   90.00000000
_cell_angle_beta   90.00000000
_cell_angle_gamma   90.00000000
_symmetry_Int_Tables_number   1
_chemical_formula_structural   Ba2CrN5
_chemical_formula_sum   'Ba4 Cr2 N10'
_cell_volume   305.36540478
_cell_formula_units_Z   2
loop_
 _symmetry_equiv_pos_site_id
 _symmetry_equiv_pos_as_xyz
  1  'x, y, z'
loop_
 _atom_site_type_symbol
 _atom_site_label
 _atom_site_symmetry_multiplicity
 _atom_site_fract_x
 _atom_site_fract_y
 _atom_site_fract_z
 _atom_site_occupancy
  Ba  Ba0  1  0.42311001  0.52875401  0.63282600  1
  Ba  Ba1  1  0.07689000  0.47124601  0.13282600  1
  Ba  Ba2  1  0.57689002  0.02875400  0.86717400  1
  Ba  Ba3  1  0.92311003  0.97124601  0.36717400  1
  Cr  Cr4  1  0.44588701  0.69724501  0.32081300  1
  N  N5  1  0.05411300  0.30275500  0.82081300  1
  Cr  Cr6  1  0.55411302  0.19724500  0.17918700  1
  N  N7  1  0.94588703  0.80275501  0.67918700  1
  N  N8  1  0.49944501  0.11469400  0.56126200  1
  N  N9  1  0.00055500  0.88530601  0.06126200  1
  N  N10  1  0.50055501  0.61469401  0.93873799  1
  N  N11  1  0.99944503  0.38530600  0.43873800  1
  N  N12  1  0.72464902  0.53928201  0.37938800  1
  N  N13  1  0.77535102  0.46071801  0.87938800  1
  N  N14  1  0.27535101  0.03928200  0.12061200  1
  N  N15  1  0.22464901  0.96071801  0.62061200  1
