# generated using pymatgen
data_YO
_symmetry_space_group_name_H-M   'P 1'
_cell_length_a   3.34692192
_cell_length_b   3.34692168
_cell_length_c   11.19200420
_cell_angle_alpha   90.00000000
_cell_angle_beta   90.00000000
_cell_angle_gamma   120.00000763
_symmetry_Int_Tables_number   1
_chemical_formula_structural   YO
_chemical_formula_sum   'Y4 O4'
_cell_volume   108.57493897
_cell_formula_units_Z   4
loop_
 _symmetry_equiv_pos_site_id
 _symmetry_equiv_pos_as_xyz
  1  'x, y, z'
loop_
 _atom_site_type_symbol
 _atom_site_label
 _atom_site_symmetry_multiplicity
 _atom_site_fract_x
 _atom_site_fract_y
 _atom_site_fract_z
 _atom_site_occupancy
  Y  Y0  1  0.00000000  0.00000000  0.00000000  1
  Y  Y1  1  0.00000000  0.00000000  0.49999999  1
  Y  Y2  1  0.00000000  0.00000000  0.25000000  1
  Y  Y3  1  0.00000000  0.00000000  0.74999999  1
  O  O4  1  0.66666671  0.33333334  0.61237399  1
  O  O5  1  0.33333339  0.66666667  0.11237400  1
  O  O6  1  0.66666671  0.33333334  0.88762598  1
  O  O7  1  0.33333339  0.66666667  0.38762599  1
