# generated using pymatgen
data_Nd4C3Br4Cl5
_symmetry_space_group_name_H-M   'P 1'
_cell_length_a   3.77272797
_cell_length_b   8.35332775
_cell_length_c   11.37175274
_cell_angle_alpha   100.83701324
_cell_angle_beta   90.00000000
_cell_angle_gamma   90.00000000
_symmetry_Int_Tables_number   1
_chemical_formula_structural   Nd4C3Br4Cl5
_chemical_formula_sum   'Nd4 C3 Br4 Cl5'
_cell_volume   351.98756071
_cell_formula_units_Z   1
loop_
 _symmetry_equiv_pos_site_id
 _symmetry_equiv_pos_as_xyz
  1  'x, y, z'
loop_
 _atom_site_type_symbol
 _atom_site_label
 _atom_site_symmetry_multiplicity
 _atom_site_fract_x
 _atom_site_fract_y
 _atom_site_fract_z
 _atom_site_occupancy
  Nd  Nd0  1  0.75000001  0.20825300  0.88826601  1
  Nd  Nd1  1  0.75000001  0.60708101  0.81323200  1
  Nd  Nd2  1  0.25000000  0.79174702  0.11173398  1
  Nd  Nd3  1  0.75000001  0.71379902  0.39747999  1
  Br  Br4  1  0.25000000  0.39291901  0.18676799  1
  Br  Br5  1  0.25000000  0.28620101  0.60252000  1
  Br  Br6  1  0.75000001  0.53475101  0.04142899  1
  Br  Br7  1  0.25000000  0.46524901  0.95857101  1
  C  C8  1  0.25000000  0.39331801  0.81892201  1
  C  C9  1  0.75000001  0.60668201  0.18107799  1
  Cl  Cl10  1  0.75000001  0.35609401  0.40490100  1
  Cl  Cl11  1  0.25000000  0.64390602  0.59509900  1
  Cl  Cl12  1  0.75000001  0.09412400  0.12405600  1
  C  C13  1  0.75000001  0.03217100  0.63604601  1
  Cl  Cl14  1  0.25000000  0.96782902  0.36395398  1
  Cl  Cl15  1  0.25000000  0.90587602  0.87594399  1
