# generated using pymatgen
data_ReBr3
_symmetry_space_group_name_H-M   'P 1'
_cell_length_a   6.04706717
_cell_length_b   7.52589989
_cell_length_c   7.52590036
_cell_angle_alpha   60.00000000
_cell_angle_beta   90.00000000
_cell_angle_gamma   90.00000000
_symmetry_Int_Tables_number   1
_chemical_formula_structural   ReBr3
_chemical_formula_sum   'Re2 Br6'
_cell_volume   296.61446420
_cell_formula_units_Z   2
loop_
 _symmetry_equiv_pos_site_id
 _symmetry_equiv_pos_as_xyz
  1  'x, y, z'
loop_
 _atom_site_type_symbol
 _atom_site_label
 _atom_site_symmetry_multiplicity
 _atom_site_fract_x
 _atom_site_fract_y
 _atom_site_fract_z
 _atom_site_occupancy
  Re  Re0  1  0.49999999  0.00000000  -0.00000000  1
  Re  Re1  1  0.00000000  0.00000000  0.00000000  1
  Br  Br2  1  0.74999998  0.71865902  0.28134098  1
  Br  Br3  1  0.74999998  0.28134101  -0.00000001  1
  Br  Br4  1  0.24999999  0.28134101  0.71865899  1
  Br  Br5  1  0.24999999  0.71865902  0.99999998  1
  Br  Br6  1  0.24999999  0.00000000  0.28134100  1
  Br  Br7  1  0.74999998  0.00000000  0.71865900  1
