# generated using pymatgen
data_SmGaPd
_symmetry_space_group_name_H-M   'P 1'
_cell_length_a   4.47013807
_cell_length_b   7.00684309
_cell_length_c   7.68122721
_cell_angle_alpha   90.00000000
_cell_angle_beta   90.00000000
_cell_angle_gamma   90.00000000
_symmetry_Int_Tables_number   1
_chemical_formula_structural   SmGaPd
_chemical_formula_sum   'Sm4 Ga4 Pd4'
_cell_volume   240.58798864
_cell_formula_units_Z   4
loop_
 _symmetry_equiv_pos_site_id
 _symmetry_equiv_pos_as_xyz
  1  'x, y, z'
loop_
 _atom_site_type_symbol
 _atom_site_label
 _atom_site_symmetry_multiplicity
 _atom_site_fract_x
 _atom_site_fract_y
 _atom_site_fract_z
 _atom_site_occupancy
  Sm  Sm0  1  0.25000000  0.98581799  0.30169599  1
  Sm  Sm1  1  0.25000000  0.48581799  0.19830399  1
  Sm  Sm2  1  0.74999999  0.01418200  0.69830398  1
  Sm  Sm3  1  0.74999999  0.51418199  0.80169598  1
  Ga  Ga4  1  0.25000000  0.32706700  0.57350798  1
  Ga  Ga5  1  0.25000000  0.82706699  0.92649198  1
  Ga  Ga6  1  0.74999999  0.67293299  0.42649199  1
  Ga  Ga7  1  0.74999999  0.17293300  0.07350800  1
  Pd  Pd8  1  0.25000000  0.22364900  0.90073698  1
  Pd  Pd9  1  0.25000000  0.72364899  0.59926298  1
  Pd  Pd10  1  0.74999999  0.77635099  0.09926300  1
  Pd  Pd11  1  0.74999999  0.27635100  0.40073699  1
