# generated using pymatgen
data_Pm
_symmetry_space_group_name_H-M   'P 1'
_cell_length_a   5.72264910
_cell_length_b   7.26881599
_cell_length_c   7.26881647
_cell_angle_alpha   60.00000381
_cell_angle_beta   90.00000000
_cell_angle_gamma   90.00000000
_symmetry_Int_Tables_number   1
_chemical_formula_structural   Pm
_chemical_formula_sum   Pm8
_cell_volume   261.85154676
_cell_formula_units_Z   8
loop_
 _symmetry_equiv_pos_site_id
 _symmetry_equiv_pos_as_xyz
  1  'x, y, z'
loop_
 _atom_site_type_symbol
 _atom_site_label
 _atom_site_symmetry_multiplicity
 _atom_site_fract_x
 _atom_site_fract_y
 _atom_site_fract_z
 _atom_site_occupancy
  Pm  Pm0  1  0.74999999  0.66666666  0.66666669  1
  Pm  Pm1  1  0.25000000  0.33333333  0.33333335  1
  Pm  Pm2  1  0.25000000  0.32951800  0.83524102  1
  Pm  Pm3  1  0.25000000  0.83524099  0.32951802  1
  Pm  Pm4  1  0.25000000  0.83524099  0.83524103  1
  Pm  Pm5  1  0.74999999  0.16475900  0.16475901  1
  Pm  Pm6  1  0.74999999  0.16475900  0.67048202  1
  Pm  Pm7  1  0.74999999  0.67048199  0.16475902  1
