# generated using pymatgen
data_GdPO4
_symmetry_space_group_name_H-M   'P 1'
_cell_length_a   5.82968760
_cell_length_b   5.82968760
_cell_length_c   5.82968760
_cell_angle_alpha   106.13227844
_cell_angle_beta   106.13227844
_cell_angle_gamma   116.37781525
_symmetry_Int_Tables_number   1
_chemical_formula_structural   GdPO4
_chemical_formula_sum   'Gd2 P2 O8'
_cell_volume   150.83408165
_cell_formula_units_Z   2
loop_
 _symmetry_equiv_pos_site_id
 _symmetry_equiv_pos_as_xyz
  1  'x, y, z'
loop_
 _atom_site_type_symbol
 _atom_site_label
 _atom_site_symmetry_multiplicity
 _atom_site_fract_x
 _atom_site_fract_y
 _atom_site_fract_z
 _atom_site_occupancy
  Gd  Gd0  1  0.00000000  0.00000000  0.00000000  1
  Gd  Gd1  1  0.75000005  0.25000002  0.50000005  1
  P  P2  1  0.25000008  0.75000007  0.50000007  1
  P  P3  1  0.50000006  0.50000004  0.00000005  1
  O  O4  1  0.09720607  0.77265207  0.67544608  1
  O  O5  1  0.52265205  0.34720603  0.17544604  1
  O  O6  1  0.17176004  0.34720603  0.82455405  1
  O  O7  1  0.09720604  0.42176004  0.32455404  1
  O  O8  1  0.22734809  0.90279408  0.32455408  1
  O  O9  1  0.65279407  0.47734804  0.82455407  1
  O  O10  1  0.65279410  0.82824007  0.17544608  1
  O  O11  1  0.57824110  0.90279508  0.67544710  1
