# generated using pymatgen
data_Li4Fe3(CoO4)2
_symmetry_space_group_name_H-M   'P 1'
_cell_length_a   5.04717493
_cell_length_b   5.16560030
_cell_length_c   7.71622944
_cell_angle_alpha   75.46590424
_cell_angle_beta   75.80920410
_cell_angle_gamma   81.24603271
_symmetry_Int_Tables_number   1
_chemical_formula_structural   Li4Fe3(CoO4)2
_chemical_formula_sum   'Li4 Fe3 Co2 O8'
_cell_volume   187.91154258
_cell_formula_units_Z   1
loop_
 _symmetry_equiv_pos_site_id
 _symmetry_equiv_pos_as_xyz
  1  'x, y, z'
loop_
 _atom_site_type_symbol
 _atom_site_label
 _atom_site_symmetry_multiplicity
 _atom_site_fract_x
 _atom_site_fract_y
 _atom_site_fract_z
 _atom_site_occupancy
  Li  Li0  1  0.51187200  0.76017998  0.40713598  1
  Li  Li1  1  0.48812801  0.23981999  0.59286398  1
  Li  Li2  1  0.01391099  0.87026398  0.68144199  1
  Fe  Fe3  1  0.98608902  0.12973600  0.31855796  1
  Li  Li4  1  0.50000001  0.00000000  -0.00000002  1
  Fe  Fe5  1  0.98707202  0.30983799  0.89268296  1
  Fe  Fe6  1  0.01292799  0.69016199  0.10731700  1
  Co  Co7  1  0.22012299  0.97714598  0.86059698  1
  Co  Co8  1  0.79413101  0.65344999  0.93747896  1
  O  O9  1  0.77005601  0.91408898  0.52189697  1
  O  O10  1  0.26114200  0.81331498  0.21534899  1
  O  O11  1  0.20300200  0.54306299  0.66917499  1
  O  O12  1  0.79699801  0.45693699  0.33082497  1
  O  O13  1  0.73885802  0.18668500  0.78465096  1
  O  O14  1  0.22994400  0.08591100  0.47810298  1
  O  O15  1  0.20586900  0.34654999  0.06252099  1
  O  O16  1  0.77987702  0.02285400  0.13940297  1
