# generated using pymatgen
data_Hf2Nb2C3
_symmetry_space_group_name_H-M   'P 1'
_cell_length_a   3.32855201
_cell_length_b   5.68890476
_cell_length_c   6.05543518
_cell_angle_alpha   110.95348358
_cell_angle_beta   105.95248413
_cell_angle_gamma   90.00000000
_symmetry_Int_Tables_number   1
_chemical_formula_structural   Hf2Nb2C3
_chemical_formula_sum   'Hf2 Nb2 C3'
_cell_volume   102.33956119
_cell_formula_units_Z   1
loop_
 _symmetry_equiv_pos_site_id
 _symmetry_equiv_pos_as_xyz
  1  'x, y, z'
loop_
 _atom_site_type_symbol
 _atom_site_label
 _atom_site_symmetry_multiplicity
 _atom_site_fract_x
 _atom_site_fract_y
 _atom_site_fract_z
 _atom_site_occupancy
  Hf  Hf0  1  0.38940900  0.17307099  0.77881798  1
  Hf  Hf1  1  0.61059100  0.82692897  0.22118195  1
  Nb  Nb2  1  0.15664100  0.32658599  0.31328197  1
  Nb  Nb3  1  0.84335900  0.67341397  0.68671796  1
  C  C4  1  0.75234501  0.26451999  0.50468999  1
  C  C5  1  0.24765500  0.73547997  0.49530994  1
  C  C6  1  0.00000000  0.00000000  0.00000000  1
