# generated using pymatgen
data_Tl3Ag2S4I
_symmetry_space_group_name_H-M   'P 1'
_cell_length_a   4.04388237
_cell_length_b   4.04388237
_cell_length_c   16.47339439
_cell_angle_alpha   82.94974518
_cell_angle_beta   82.94974518
_cell_angle_gamma   59.99999237
_symmetry_Int_Tables_number   1
_chemical_formula_structural   Tl3Ag2S4I
_chemical_formula_sum   'Tl3 Ag2 S4 I1'
_cell_volume   230.94285701
_cell_formula_units_Z   1
loop_
 _symmetry_equiv_pos_site_id
 _symmetry_equiv_pos_as_xyz
  1  'x, y, z'
loop_
 _atom_site_type_symbol
 _atom_site_label
 _atom_site_symmetry_multiplicity
 _atom_site_fract_x
 _atom_site_fract_y
 _atom_site_fract_z
 _atom_site_occupancy
  Ag  Ag0  1  0.59821701  0.59821701  0.20534902  1
  Tl  Tl1  1  0.20081800  0.20081800  0.39754601  1
  Tl  Tl2  1  0.79918202  0.79918202  0.60245403  1
  Tl  Tl3  1  0.40178301  0.40178301  0.79465103  1
  Ag  Ag4  1  0.00000000  0.00000000  0.00000000  1
  I  I5  1  0.70145902  0.70145902  0.89562304  1
  S  S6  1  0.50000001  0.50000001  0.50000002  1
  S  S7  1  0.10035800  0.10035800  0.69892602  1
  S  S8  1  0.29854101  0.29854101  0.10437701  1
  S  S9  1  0.89964202  0.89964202  0.30107403  1
