# generated using pymatgen
data_Gd3In
_symmetry_space_group_name_H-M   'P 1'
_cell_length_a   4.80695581
_cell_length_b   4.80695581
_cell_length_c   6.24035788
_cell_angle_alpha   112.65309143
_cell_angle_beta   112.65309143
_cell_angle_gamma   90.00000000
_symmetry_Int_Tables_number   1
_chemical_formula_structural   Gd3In
_chemical_formula_sum   'Gd3 In1'
_cell_volume   120.92765232
_cell_formula_units_Z   1
loop_
 _symmetry_equiv_pos_site_id
 _symmetry_equiv_pos_as_xyz
  1  'x, y, z'
loop_
 _atom_site_type_symbol
 _atom_site_label
 _atom_site_symmetry_multiplicity
 _atom_site_fract_x
 _atom_site_fract_y
 _atom_site_fract_z
 _atom_site_occupancy
  Gd  Gd0  1  0.00000000  0.00000000  0.00000000  1
  Gd  Gd1  1  0.75000000  0.25000000  0.49999996  1
  Gd  Gd2  1  0.24999997  0.75000001  0.49999995  1
  In  In3  1  0.49999999  0.50000001  -0.00000005  1
