# generated using pymatgen
data_U3NbSnGe5
_symmetry_space_group_name_H-M   'P 1'
_cell_length_a   8.52542114
_cell_length_b   8.52542114
_cell_length_c   8.52542114
_cell_angle_alpha   109.47122192
_cell_angle_beta   109.47122192
_cell_angle_gamma   109.47122192
_symmetry_Int_Tables_number   1
_chemical_formula_structural   U3NbSnGe5
_chemical_formula_sum   'U6 Nb2 Sn2 Ge10'
_cell_volume   477.00794594
_cell_formula_units_Z   2
loop_
 _symmetry_equiv_pos_site_id
 _symmetry_equiv_pos_as_xyz
  1  'x, y, z'
loop_
 _atom_site_type_symbol
 _atom_site_label
 _atom_site_symmetry_multiplicity
 _atom_site_fract_x
 _atom_site_fract_y
 _atom_site_fract_z
 _atom_site_occupancy
  U  U0  1  0.75000002  0.62500000  0.87500002  1
  U  U1  1  0.25000005  0.87500000  0.62500003  1
  U  U2  1  0.87499998  0.12500000  0.75000000  1
  U  U3  1  0.62500000  0.37500000  0.25000003  1
  U  U4  1  0.12500001  0.25000000  0.37500000  1
  U  U5  1  0.37500004  0.75000000  0.12500005  1
  Nb  Nb6  1  0.74999998  0.12500000  0.37500001  1
  Nb  Nb7  1  0.25000002  0.37500000  0.12500002  1
  Sn  Sn8  1  0.37500003  0.62500000  0.75000001  1
  Sn  Sn9  1  0.12500005  0.87500000  0.25000004  1
  Ge  Ge10  1  0.62500000  0.25000000  0.87499999  1
  Ge  Ge11  1  0.87500002  0.75000000  0.62500004  1
  Ge  Ge12  1  0.65409298  0.00000000  0.99999998  1
  Ge  Ge13  1  0.00000003  0.50000000  0.15409302  1
  Ge  Ge14  1  0.50000003  0.65409300  0.50000003  1
  Ge  Ge15  1  0.15409300  0.00000000  0.99999996  1
  Ge  Ge16  1  0.84590703  0.84590700  0.34590705  1
  Ge  Ge17  1  0.00000003  0.50000000  0.65409300  1
  Ge  Ge18  1  0.34590701  0.34590700  0.84590699  1
  Ge  Ge19  1  0.49999999  0.15409300  0.50000000  1
