# generated using pymatgen
data_U(CoGe)2
_symmetry_space_group_name_H-M   'P 1'
_cell_length_a   3.80628991
_cell_length_b   3.80628991
_cell_length_c   6.84972811
_cell_angle_alpha   106.13147736
_cell_angle_beta   106.13147736
_cell_angle_gamma   90.00000000
_symmetry_Int_Tables_number   1
_chemical_formula_structural   U(CoGe)2
_chemical_formula_sum   'U1 Co2 Ge2'
_cell_volume   91.25599055
_cell_formula_units_Z   1
loop_
 _symmetry_equiv_pos_site_id
 _symmetry_equiv_pos_as_xyz
  1  'x, y, z'
loop_
 _atom_site_type_symbol
 _atom_site_label
 _atom_site_symmetry_multiplicity
 _atom_site_fract_x
 _atom_site_fract_y
 _atom_site_fract_z
 _atom_site_occupancy
  U  U0  1  0.00000000  0.00000000  0.00000000  1
  Co  Co1  1  0.75000003  0.25000001  0.50000004  1
  Co  Co2  1  0.25000003  0.75000003  0.50000004  1
  Ge  Ge3  1  0.33572702  0.33572701  0.67145404  1
  Ge  Ge4  1  0.66427304  0.66427303  0.32854605  1
