# generated using pymatgen
data_Pr2NiGe5
_symmetry_space_group_name_H-M   'P 1'
_cell_length_a   4.02826405
_cell_length_b   4.24052000
_cell_length_c   9.42073727
_cell_angle_alpha   90.00000000
_cell_angle_beta   77.65499878
_cell_angle_gamma   90.00000000
_symmetry_Int_Tables_number   1
_chemical_formula_structural   Pr2NiGe5
_chemical_formula_sum   'Pr2 Ni1 Ge5'
_cell_volume   157.20351303
_cell_formula_units_Z   1
loop_
 _symmetry_equiv_pos_site_id
 _symmetry_equiv_pos_as_xyz
  1  'x, y, z'
loop_
 _atom_site_type_symbol
 _atom_site_label
 _atom_site_symmetry_multiplicity
 _atom_site_fract_x
 _atom_site_fract_y
 _atom_site_fract_z
 _atom_site_occupancy
  Pr  Pr0  1  0.39969700  0.75000000  0.20060701  1
  Pr  Pr1  1  0.60030300  0.25000000  0.79939303  1
  Ni  Ni2  1  0.03540100  0.75000000  0.92919804  1
  Ge  Ge3  1  0.96459899  0.25000000  0.07080200  1
  Ge  Ge4  1  0.75472599  0.75000000  0.49054802  1
  Ge  Ge5  1  0.24527400  0.25000000  0.50945202  1
  Ge  Ge6  1  0.16674400  0.75000000  0.66651203  1
  Ge  Ge7  1  0.83325599  0.25000000  0.33348801  1
