# generated using pymatgen
data_Li4Mn2CoNiO8
_symmetry_space_group_name_H-M   'P 1'
_cell_length_a   5.05874443
_cell_length_b   5.09601212
_cell_length_c   6.14449072
_cell_angle_alpha   92.22743988
_cell_angle_beta   93.64592743
_cell_angle_gamma   106.08795166
_symmetry_Int_Tables_number   1
_chemical_formula_structural   Li4Mn2CoNiO8
_chemical_formula_sum   'Li4 Mn2 Co1 Ni1 O8'
_cell_volume   151.62619836
_cell_formula_units_Z   1
loop_
 _symmetry_equiv_pos_site_id
 _symmetry_equiv_pos_as_xyz
  1  'x, y, z'
loop_
 _atom_site_type_symbol
 _atom_site_label
 _atom_site_symmetry_multiplicity
 _atom_site_fract_x
 _atom_site_fract_y
 _atom_site_fract_z
 _atom_site_occupancy
  Li  Li0  1  0.50001300  0.49991100  0.49998095  1
  Li  Li1  1  0.50000800  0.49988800  0.99996294  1
  Li  Li2  1  0.00860200  0.50196900  0.24855697  1
  Li  Li3  1  0.99151900  0.49802300  0.75142594  1
  Mn  Mn4  1  0.00003900  0.00030400  0.49998599  1
  Mn  Mn5  1  0.50234800  0.00799800  0.24928498  1
  Co  Co6  1  0.49763600  0.99191400  0.75072292  1
  Ni  Ni7  1  0.00003300  0.99986600  0.00001595  1
  O  O8  1  0.24693700  0.77385000  0.01459296  1
  O  O9  1  0.75313000  0.22594900  0.98537795  1
  O  O10  1  0.76011800  0.78182500  0.25054094  1
  O  O11  1  0.23988600  0.21826700  0.74957697  1
  O  O12  1  0.24832300  0.76793700  0.51205794  1
  O  O13  1  0.75141200  0.23241700  0.48795596  1
  O  O14  1  0.73657000  0.75735900  0.75441893  1
  O  O15  1  0.26342600  0.24252100  0.24554198  1
