# generated using pymatgen
data_BaMn3Te4
_symmetry_space_group_name_H-M   'P 1'
_cell_length_a   5.78328514
_cell_length_b   7.98111820
_cell_length_c   8.97613144
_cell_angle_alpha   105.59870911
_cell_angle_beta   98.53242493
_cell_angle_gamma   109.43186951
_symmetry_Int_Tables_number   1
_chemical_formula_structural   BaMn3Te4
_chemical_formula_sum   'Ba1 Mn3 Te4'
_cell_volume   363.19238063
_cell_formula_units_Z   1
loop_
 _symmetry_equiv_pos_site_id
 _symmetry_equiv_pos_as_xyz
  1  'x, y, z'
loop_
 _atom_site_type_symbol
 _atom_site_label
 _atom_site_symmetry_multiplicity
 _atom_site_fract_x
 _atom_site_fract_y
 _atom_site_fract_z
 _atom_site_occupancy
  Ba  Ba0  1  0.66172598  0.34421501  0.46419998  1
  Mn  Mn1  1  0.17028400  0.67364002  0.04450001  1
  Mn  Mn2  1  0.98146897  0.09741700  0.02208897  1
  Mn  Mn3  1  0.00244101  0.89541003  0.25748702  1
  Te  Te4  1  0.49325198  0.05943700  0.05427198  1
  Te  Te5  1  0.18168600  0.46682701  0.27235700  1
  Te  Te6  1  0.79903098  0.69969302  0.82563099  1
  Te  Te7  1  0.95390097  0.28962301  0.80325297  1
