# generated using pymatgen
data_SiS2
_symmetry_space_group_name_H-M   'P 1'
_cell_length_a   5.93587017
_cell_length_b   5.93587017
_cell_length_c   5.93587017
_cell_angle_alpha   90.00000000
_cell_angle_beta   90.00000000
_cell_angle_gamma   90.00000000
_symmetry_Int_Tables_number   1
_chemical_formula_structural   SiS2
_chemical_formula_sum   'Si4 S8'
_cell_volume   209.14774211
_cell_formula_units_Z   4
loop_
 _symmetry_equiv_pos_site_id
 _symmetry_equiv_pos_as_xyz
  1  'x, y, z'
loop_
 _atom_site_type_symbol
 _atom_site_label
 _atom_site_symmetry_multiplicity
 _atom_site_fract_x
 _atom_site_fract_y
 _atom_site_fract_z
 _atom_site_occupancy
  Si  Si0  1  0.00000000  0.00000000  0.00000000  1
  Si  Si1  1  0.49999999  0.00000000  0.49999999  1
  Si  Si2  1  0.49999999  0.49999999  0.00000000  1
  Si  Si3  1  0.00000000  0.49999999  0.49999999  1
  S  S4  1  0.37688199  0.37688199  0.37688199  1
  S  S5  1  0.12311800  0.62311798  0.87688197  1
  S  S6  1  0.87688197  0.12311800  0.62311798  1
  S  S7  1  0.62311798  0.87688197  0.12311800  1
  S  S8  1  0.62311798  0.62311798  0.62311798  1
  S  S9  1  0.87688197  0.37688199  0.12311800  1
  S  S10  1  0.12311800  0.87688197  0.37688199  1
  S  S11  1  0.37688199  0.12311800  0.87688197  1
