# generated using pymatgen
data_Eu3MgZn14
_symmetry_space_group_name_H-M   'P 1'
_cell_length_a   5.37619781
_cell_length_b   5.37619781
_cell_length_c   13.54660797
_cell_angle_alpha   78.55464172
_cell_angle_beta   78.55464172
_cell_angle_gamma   60.00000000
_symmetry_Int_Tables_number   1
_chemical_formula_structural   Eu3MgZn14
_chemical_formula_sum   'Eu3 Mg1 Zn14'
_cell_volume   330.06619437
_cell_formula_units_Z   1
loop_
 _symmetry_equiv_pos_site_id
 _symmetry_equiv_pos_as_xyz
  1  'x, y, z'
loop_
 _atom_site_type_symbol
 _atom_site_label
 _atom_site_symmetry_multiplicity
 _atom_site_fract_x
 _atom_site_fract_y
 _atom_site_fract_z
 _atom_site_occupancy
  Eu  Eu0  1  0.94943299  0.94943303  0.15170103  1
  Eu  Eu1  1  0.05056700  0.05056700  0.84829898  1
  Eu  Eu2  1  0.85200499  0.85200502  0.44398501  1
  Mg  Mg3  1  0.14799500  0.14799500  0.55601499  1
  Zn  Zn4  1  0.50000000  0.50000001  0.50000000  1
  Zn  Zn5  1  0.72238999  0.72239002  0.83283000  1
  Zn  Zn6  1  0.27761000  0.27761001  0.16717000  1
  Zn  Zn7  1  0.61149400  0.61149402  0.16551801  1
  Zn  Zn8  1  0.38850600  0.38850601  0.83448199  1
  Zn  Zn9  1  0.50000000  0.50000001  0.00000002  1
  Zn  Zn10  1  0.49999998  1.00000003  0.00000002  1
  Zn  Zn11  1  -0.00000001  0.50000001  0.00000001  1
  Zn  Zn12  1  0.88899301  0.39132201  0.32836301  1
  Zn  Zn13  1  0.39132200  0.39132201  0.32836300  1
  Zn  Zn14  1  0.39132199  0.88899303  0.32836301  1
  Zn  Zn15  1  0.11100699  0.60867802  0.67163699  1
  Zn  Zn16  1  0.60867800  0.60867802  0.67163700  1
  Zn  Zn17  1  0.60867801  0.11100700  0.67163699  1
