# generated using pymatgen
data_BaSrTlPb
_symmetry_space_group_name_H-M   'P 1'
_cell_length_a   6.20906067
_cell_length_b   6.20906067
_cell_length_c   6.20906067
_cell_angle_alpha   60.00000000
_cell_angle_beta   60.00000000
_cell_angle_gamma   60.00000000
_symmetry_Int_Tables_number   1
_chemical_formula_structural   BaSrTlPb
_chemical_formula_sum   'Ba1 Sr1 Tl1 Pb1'
_cell_volume   169.26326436
_cell_formula_units_Z   1
loop_
 _symmetry_equiv_pos_site_id
 _symmetry_equiv_pos_as_xyz
  1  'x, y, z'
loop_
 _atom_site_type_symbol
 _atom_site_label
 _atom_site_symmetry_multiplicity
 _atom_site_fract_x
 _atom_site_fract_y
 _atom_site_fract_z
 _atom_site_occupancy
  Ba  Ba0  1  0.00000000  0.00000000  0.00000000  1
  Sr  Sr1  1  0.75000002  0.75000002  0.75000002  1
  Tl  Tl2  1  0.25000001  0.25000001  0.25000001  1
  Pb  Pb3  1  0.50000001  0.50000001  0.50000001  1
