# generated using pymatgen
data_TaSn3
_symmetry_space_group_name_H-M   'P 1'
_cell_length_a   5.16322422
_cell_length_b   5.76019192
_cell_length_c   5.76019239
_cell_angle_alpha   60.00000381
_cell_angle_beta   90.00000000
_cell_angle_gamma   90.00000000
_symmetry_Int_Tables_number   1
_chemical_formula_structural   TaSn3
_chemical_formula_sum   'Ta2 Sn6'
_cell_volume   148.36298977
_cell_formula_units_Z   2
loop_
 _symmetry_equiv_pos_site_id
 _symmetry_equiv_pos_as_xyz
  1  'x, y, z'
loop_
 _atom_site_type_symbol
 _atom_site_label
 _atom_site_symmetry_multiplicity
 _atom_site_fract_x
 _atom_site_fract_y
 _atom_site_fract_z
 _atom_site_occupancy
  Ta  Ta0  1  0.24999999  0.33333333  0.33333334  1
  Ta  Ta1  1  0.74999997  0.66666666  0.66666669  1
  Sn  Sn2  1  0.74999997  0.66730300  0.16634902  1
  Sn  Sn3  1  0.74999997  0.16634800  0.16634900  1
  Sn  Sn4  1  0.74999997  0.16634800  0.66730400  1
  Sn  Sn5  1  0.24999999  0.33269700  0.83365100  1
  Sn  Sn6  1  0.24999999  0.83365200  0.83365102  1
  Sn  Sn7  1  0.24999999  0.83365200  0.33269603  1
