# generated using pymatgen
data_BiSeS
_symmetry_space_group_name_H-M   'P 1'
_cell_length_a   3.95850205
_cell_length_b   3.95850253
_cell_length_c   5.29542303
_cell_angle_alpha   90.00000000
_cell_angle_beta   90.00000000
_cell_angle_gamma   119.99999237
_symmetry_Int_Tables_number   1
_chemical_formula_structural   BiSeS
_chemical_formula_sum   'Bi1 Se1 S1'
_cell_volume   71.86097852
_cell_formula_units_Z   1
loop_
 _symmetry_equiv_pos_site_id
 _symmetry_equiv_pos_as_xyz
  1  'x, y, z'
loop_
 _atom_site_type_symbol
 _atom_site_label
 _atom_site_symmetry_multiplicity
 _atom_site_fract_x
 _atom_site_fract_y
 _atom_site_fract_z
 _atom_site_occupancy
  Bi  Bi0  1  0.00000000  0.00000000  0.74556300  1
  S  S1  1  0.66666664  0.33333333  0.00766800  1
  Se  Se2  1  0.33333329  0.66666666  0.24676900  1
