# generated using pymatgen
data_CeInPt4
_symmetry_space_group_name_H-M   'P 1'
_cell_length_a   5.45819807
_cell_length_b   5.45819807
_cell_length_c   5.45819807
_cell_angle_alpha   60.00000000
_cell_angle_beta   60.00000000
_cell_angle_gamma   60.00000000
_symmetry_Int_Tables_number   1
_chemical_formula_structural   CeInPt4
_chemical_formula_sum   'Ce1 In1 Pt4'
_cell_volume   114.98279914
_cell_formula_units_Z   1
loop_
 _symmetry_equiv_pos_site_id
 _symmetry_equiv_pos_as_xyz
  1  'x, y, z'
loop_
 _atom_site_type_symbol
 _atom_site_label
 _atom_site_symmetry_multiplicity
 _atom_site_fract_x
 _atom_site_fract_y
 _atom_site_fract_z
 _atom_site_occupancy
  Ce  Ce0  1  0.00000000  0.00000000  0.00000000  1
  In  In1  1  0.75000003  0.75000003  0.75000003  1
  Pt  Pt2  1  0.37560601  0.87318403  0.37560501  1
  Pt  Pt3  1  0.37560601  0.37560501  0.37560501  1
  Pt  Pt4  1  0.37560601  0.37560501  0.87318403  1
  Pt  Pt5  1  0.87318503  0.37560501  0.37560501  1
