# generated using pymatgen
data_CsThS2
_symmetry_space_group_name_H-M   'P 1'
_cell_length_a   4.13384151
_cell_length_b   4.13384151
_cell_length_c   8.04341316
_cell_angle_alpha   75.10962677
_cell_angle_beta   75.10962677
_cell_angle_gamma   60.00000763
_symmetry_Int_Tables_number   1
_chemical_formula_structural   CsThS2
_chemical_formula_sum   'Cs1 Th1 S2'
_cell_volume   113.67510794
_cell_formula_units_Z   1
loop_
 _symmetry_equiv_pos_site_id
 _symmetry_equiv_pos_as_xyz
  1  'x, y, z'
loop_
 _atom_site_type_symbol
 _atom_site_label
 _atom_site_symmetry_multiplicity
 _atom_site_fract_x
 _atom_site_fract_y
 _atom_site_fract_z
 _atom_site_occupancy
  Cs  Cs0  1  0.00000000  0.00000000  0.00000000  1
  Th  Th1  1  0.49999999  0.50000000  0.50000006  1
  S  S2  1  0.76909698  0.76909700  0.69270908  1
  S  S3  1  0.23090299  0.23090300  0.30729103  1
