# generated using pymatgen
data_Ta2V(CS)2
_symmetry_space_group_name_H-M   'P 1'
_cell_length_a   3.81951666
_cell_length_b   3.81951666
_cell_length_c   7.11497879
_cell_angle_alpha   105.52189636
_cell_angle_beta   105.52189636
_cell_angle_gamma   90.17230225
_symmetry_Int_Tables_number   1
_chemical_formula_structural   Ta2V(CS)2
_chemical_formula_sum   'Ta2 V1 C2 S2'
_cell_volume   96.05321984
_cell_formula_units_Z   1
loop_
 _symmetry_equiv_pos_site_id
 _symmetry_equiv_pos_as_xyz
  1  'x, y, z'
loop_
 _atom_site_type_symbol
 _atom_site_label
 _atom_site_symmetry_multiplicity
 _atom_site_fract_x
 _atom_site_fract_y
 _atom_site_fract_z
 _atom_site_occupancy
  Ta  Ta0  1  0.36196400  0.36037399  0.72233801  1
  Ta  Ta1  1  0.63962599  0.63803599  0.27766202  1
  V  V2  1  0.99844198  0.00155800  1.00000001  1
  S  S3  1  0.00131401  0.50244599  0.00000001  1
  S  S4  1  0.49755400  0.99868598  0.00000003  1
  C  C5  1  0.15945100  0.21235000  0.37180100  1
  C  C6  1  0.78764999  0.84054899  0.62819903  1
