# generated using pymatgen
data_Cs2Rb2BiO11
_symmetry_space_group_name_H-M   'P 1'
_cell_length_a   5.64957905
_cell_length_b   5.64957905
_cell_length_c   11.29253960
_cell_angle_alpha   90.00000000
_cell_angle_beta   90.00000000
_cell_angle_gamma   90.00000000
_symmetry_Int_Tables_number   1
_chemical_formula_structural   Cs2Rb2BiO11
_chemical_formula_sum   'Cs2 Rb2 Bi1 O11'
_cell_volume   360.43238142
_cell_formula_units_Z   1
loop_
 _symmetry_equiv_pos_site_id
 _symmetry_equiv_pos_as_xyz
  1  'x, y, z'
loop_
 _atom_site_type_symbol
 _atom_site_label
 _atom_site_symmetry_multiplicity
 _atom_site_fract_x
 _atom_site_fract_y
 _atom_site_fract_z
 _atom_site_occupancy
  Cs  Cs0  1  0.00000000  0.00000000  0.00000000  1
  Rb  Rb1  1  0.00000000  0.00000000  0.50000002  1
  Rb  Rb2  1  0.00000000  0.00000000  0.25184201  1
  Cs  Cs3  1  0.00000000  0.00000000  0.74815803  1
  O  O4  1  0.00000000  0.50000000  0.00000000  1
  Bi  Bi5  1  0.00000000  0.50000000  0.50000002  1
  O  O6  1  0.50000000  0.00000000  0.00000000  1
  O  O7  1  0.50000000  0.00000000  0.50000002  1
  O  O8  1  0.74824699  0.74824699  0.12618800  1
  O  O9  1  0.75827199  0.75827199  0.62054602  1
  O  O10  1  0.75827199  0.24172800  0.37945401  1
  O  O11  1  0.74824699  0.25175300  0.87381203  1
  O  O12  1  0.24172800  0.75827199  0.37945401  1
  O  O13  1  0.25175300  0.74824699  0.87381203  1
  O  O14  1  0.25175300  0.25175300  0.12618800  1
  O  O15  1  0.24172800  0.24172800  0.62054602  1
