# generated using pymatgen
data_Pr2Ni17
_symmetry_space_group_name_H-M   'P 1'
_cell_length_a   6.38763714
_cell_length_b   6.38763666
_cell_length_c   6.38763666
_cell_angle_alpha   83.14701080
_cell_angle_beta   83.14700317
_cell_angle_gamma   83.14700317
_symmetry_Int_Tables_number   1
_chemical_formula_structural   Pr2Ni17
_chemical_formula_sum   'Pr2 Ni17'
_cell_volume   255.45299462
_cell_formula_units_Z   1
loop_
 _symmetry_equiv_pos_site_id
 _symmetry_equiv_pos_as_xyz
  1  'x, y, z'
loop_
 _atom_site_type_symbol
 _atom_site_label
 _atom_site_symmetry_multiplicity
 _atom_site_fract_x
 _atom_site_fract_y
 _atom_site_fract_z
 _atom_site_occupancy
  Pr  Pr0  1  0.34535899  0.34535900  0.34535902  1
  Pr  Pr1  1  0.64865298  0.64865300  0.64865303  1
  Ni  Ni2  1  0.90699497  0.90699499  0.90699505  1
  Ni  Ni3  1  0.00179700  0.28822100  0.71258602  1
  Ni  Ni4  1  0.71258599  0.00179700  0.28822099  1
  Ni  Ni5  1  0.28822098  0.71258599  0.00179704  1
  Ni  Ni6  1  0.28822099  0.00179700  0.71258600  1
  Ni  Ni7  1  0.71258598  0.28822100  0.00179701  1
  Ni  Ni8  1  0.00179699  0.71258599  0.28822104  1
  Ni  Ni9  1  0.49483599  0.00179100  0.00179100  1
  Ni  Ni10  1  0.00179099  0.49483600  0.00179103  1
  Ni  Ni11  1  0.00179100  0.00179100  0.49483600  1
  Ni  Ni12  1  0.65668498  0.65668500  0.14761103  1
  Ni  Ni13  1  0.14761099  0.65668500  0.65668504  1
  Ni  Ni14  1  0.65668499  0.14761100  0.65668500  1
  Ni  Ni15  1  0.34114799  0.34114800  0.85414902  1
  Ni  Ni16  1  0.85414898  0.34114800  0.34114801  1
  Ni  Ni17  1  0.34114798  0.85414899  0.34114805  1
  Ni  Ni18  1  0.09794100  0.09794100  0.09794100  1
