# generated using pymatgen
data_NaNbO3
_symmetry_space_group_name_H-M   'P 1'
_cell_length_a   5.49831104
_cell_length_b   5.58790016
_cell_length_c   7.79632711
_cell_angle_alpha   90.00000000
_cell_angle_beta   90.00000000
_cell_angle_gamma   90.00000000
_symmetry_Int_Tables_number   1
_chemical_formula_structural   NaNbO3
_chemical_formula_sum   'Na4 Nb4 O12'
_cell_volume   239.53445689
_cell_formula_units_Z   4
loop_
 _symmetry_equiv_pos_site_id
 _symmetry_equiv_pos_as_xyz
  1  'x, y, z'
loop_
 _atom_site_type_symbol
 _atom_site_label
 _atom_site_symmetry_multiplicity
 _atom_site_fract_x
 _atom_site_fract_y
 _atom_site_fract_z
 _atom_site_occupancy
  Na  Na0  1  0.99218199  0.04345200  0.25000000  1
  Na  Na1  1  0.49218200  0.45654799  0.74999999  1
  Na  Na2  1  0.50781800  0.54345198  0.25000000  1
  Na  Na3  1  0.00781800  0.95654797  0.74999999  1
  Nb  Nb4  1  0.00000000  0.49999999  0.00000000  1
  Nb  Nb5  1  0.50000000  0.00000000  0.00000000  1
  Nb  Nb6  1  0.50000000  0.00000000  0.49999999  1
  Nb  Nb7  1  0.00000000  0.49999999  0.49999999  1
  O  O8  1  0.07940200  0.47851499  0.25000000  1
  O  O9  1  0.57940200  0.02148500  0.74999999  1
  O  O10  1  0.42059800  0.97851497  0.25000000  1
  O  O11  1  0.92059799  0.52148498  0.74999999  1
  O  O12  1  0.70516999  0.29499599  0.04132000  1
  O  O13  1  0.20517000  0.20500399  0.95867999  1
  O  O14  1  0.79482999  0.79499598  0.45867999  1
  O  O15  1  0.29483000  0.70500398  0.54131999  1
  O  O16  1  0.29483000  0.70500398  0.95867999  1
  O  O17  1  0.79482999  0.79499598  0.04132000  1
  O  O18  1  0.20517000  0.20500399  0.54131999  1
  O  O19  1  0.70516999  0.29499599  0.45867999  1
