# generated using pymatgen
data_CsI
_symmetry_space_group_name_H-M   'P 1'
_cell_length_a   6.70777798
_cell_length_b   6.84001493
_cell_length_c   6.70777798
_cell_angle_alpha   119.36251068
_cell_angle_beta   90.00000000
_cell_angle_gamma   119.36251068
_symmetry_Int_Tables_number   1
_chemical_formula_structural   CsI
_chemical_formula_sum   'Cs2 I2'
_cell_volume   221.74770279
_cell_formula_units_Z   2
loop_
 _symmetry_equiv_pos_site_id
 _symmetry_equiv_pos_as_xyz
  1  'x, y, z'
loop_
 _atom_site_type_symbol
 _atom_site_label
 _atom_site_symmetry_multiplicity
 _atom_site_fract_x
 _atom_site_fract_y
 _atom_site_fract_z
 _atom_site_occupancy
  Cs  Cs0  1  0.25000003  0.50000004  0.75000004  1
  Cs  Cs1  1  0.75000004  0.50000004  0.25000003  1
  I  I2  1  0.50000000  0.00000000  0.50000000  1
  I  I3  1  0.00000000  0.00000000  0.00000000  1
