# generated using pymatgen
data_Hf3AlSi2Rh3
_symmetry_space_group_name_H-M   'P 1'
_cell_length_a   3.48409200
_cell_length_b   7.00162220
_cell_length_c   7.00162220
_cell_angle_alpha   120.00000000
_cell_angle_beta   90.00000000
_cell_angle_gamma   90.00000000
_symmetry_Int_Tables_number   1
_chemical_formula_structural   Hf3AlSi2Rh3
_chemical_formula_sum   'Hf3 Al1 Si2 Rh3'
_cell_volume   147.91683027
_cell_formula_units_Z   1
loop_
 _symmetry_equiv_pos_site_id
 _symmetry_equiv_pos_as_xyz
  1  'x, y, z'
loop_
 _atom_site_type_symbol
 _atom_site_label
 _atom_site_symmetry_multiplicity
 _atom_site_fract_x
 _atom_site_fract_y
 _atom_site_fract_z
 _atom_site_occupancy
  Hf  Hf0  1  -0.00000000  0.59892800  1.00000006  1
  Hf  Hf1  1  -0.00000000  0.40107200  0.40107203  1
  Hf  Hf2  1  -0.00000000  0.00000000  0.59892802  1
  Si  Si3  1  0.50000000  0.33333333  0.66666670  1
  Al  Al4  1  0.00000000  0.00000000  0.00000000  1
  Si  Si5  1  0.50000000  0.66666666  0.33333337  1
  Rh  Rh6  1  0.50000000  0.00000000  0.25326301  1
  Rh  Rh7  1  0.50000000  0.25326300  1.00000004  1
  Rh  Rh8  1  0.50000000  0.74673699  0.74673705  1
