# generated using pymatgen
data_MnAsO4
_symmetry_space_group_name_H-M   'P 1'
_cell_length_a   4.88789082
_cell_length_b   4.88789082
_cell_length_c   6.92836189
_cell_angle_alpha   90.00000000
_cell_angle_beta   90.00000000
_cell_angle_gamma   113.18836975
_symmetry_Int_Tables_number   1
_chemical_formula_structural   MnAsO4
_chemical_formula_sum   'Mn2 As2 O8'
_cell_volume   152.15659960
_cell_formula_units_Z   2
loop_
 _symmetry_equiv_pos_site_id
 _symmetry_equiv_pos_as_xyz
  1  'x, y, z'
loop_
 _atom_site_type_symbol
 _atom_site_label
 _atom_site_symmetry_multiplicity
 _atom_site_fract_x
 _atom_site_fract_y
 _atom_site_fract_z
 _atom_site_occupancy
  Mn  Mn0  1  0.00000000  0.00000000  0.00000000  1
  Mn  Mn1  1  0.00000000  0.00000000  0.50000001  1
  As  As2  1  0.34992004  0.65008001  0.25000000  1
  As  As3  1  0.65008002  0.34992001  0.75000001  1
  O  O4  1  0.74814001  0.25186000  0.93761601  1
  O  O5  1  0.25186004  0.74814001  0.43761601  1
  O  O6  1  0.25186004  0.74814001  0.06238400  1
  O  O7  1  0.74814001  0.25186000  0.56238401  1
  O  O8  1  0.77504604  0.70204001  0.75000001  1
  O  O9  1  0.22495402  0.29796001  0.25000000  1
  O  O10  1  0.70204004  0.77504601  0.25000000  1
  O  O11  1  0.29796001  0.22495400  0.75000001  1
