# generated using pymatgen
data_MgGa2
_symmetry_space_group_name_H-M   'P 1'
_cell_length_a   4.87344885
_cell_length_b   5.25065994
_cell_length_c   5.25065899
_cell_angle_alpha   120.00000763
_cell_angle_beta   90.00000000
_cell_angle_gamma   90.00000000
_symmetry_Int_Tables_number   1
_chemical_formula_structural   MgGa2
_chemical_formula_sum   'Mg2 Ga4'
_cell_volume   116.35758959
_cell_formula_units_Z   2
loop_
 _symmetry_equiv_pos_site_id
 _symmetry_equiv_pos_as_xyz
  1  'x, y, z'
loop_
 _atom_site_type_symbol
 _atom_site_label
 _atom_site_symmetry_multiplicity
 _atom_site_fract_x
 _atom_site_fract_y
 _atom_site_fract_z
 _atom_site_occupancy
  Mg  Mg0  1  0.50000002  0.33333335  0.66666671  1
  Mg  Mg1  1  0.50000002  0.66666669  0.33333338  1
  Ga  Ga2  1  0.00000000  0.00000000  0.66666669  1
  Ga  Ga3  1  1.00000003  0.33333335  0.33333336  1
  Ga  Ga4  1  -0.00000000  0.66666669  0.00000003  1
  Ga  Ga5  1  0.50000002  0.00000000  -0.00000000  1
