# generated using pymatgen
data_Tb2Si4Mo3
_symmetry_space_group_name_H-M   'P 1'
_cell_length_a   6.78087425
_cell_length_b   6.87022924
_cell_length_c   6.88846779
_cell_angle_alpha   90.00000000
_cell_angle_beta   90.00000000
_cell_angle_gamma   109.74765015
_symmetry_Int_Tables_number   1
_chemical_formula_structural   Tb2Si4Mo3
_chemical_formula_sum   'Tb4 Si8 Mo6'
_cell_volume   302.03466962
_cell_formula_units_Z   2
loop_
 _symmetry_equiv_pos_site_id
 _symmetry_equiv_pos_as_xyz
  1  'x, y, z'
loop_
 _atom_site_type_symbol
 _atom_site_label
 _atom_site_symmetry_multiplicity
 _atom_site_fract_x
 _atom_site_fract_y
 _atom_site_fract_z
 _atom_site_occupancy
  Tb  Tb0  1  0.55564200  0.68242800  0.16063900  1
  Tb  Tb1  1  0.94435800  0.31757200  0.66063902  1
  Tb  Tb2  1  0.05564199  0.68242800  0.33936101  1
  Tb  Tb3  1  0.44435800  0.31757200  0.83936103  1
  Si  Si4  1  0.62770700  0.40947800  0.45613201  1
  Si  Si5  1  0.12770700  0.40947800  0.04386800  1
  Si  Si6  1  0.86702000  0.99944100  0.36678501  1
  Si  Si7  1  0.36701999  0.99944100  0.13321500  1
  Si  Si8  1  0.87229300  0.59052200  0.95613203  1
  Si  Si9  1  0.13298000  0.00055900  0.63321502  1
  Si  Si10  1  0.37229300  0.59052200  0.54386802  1
  Si  Si11  1  0.63298001  0.00055900  0.86678503  1
  Mo  Mo12  1  0.24753300  0.25102200  0.33577601  1
  Mo  Mo13  1  0.75246700  0.74897800  0.66422402  1
  Mo  Mo14  1  0.74753300  0.25102200  0.16422401  1
  Mo  Mo15  1  0.50000000  0.00000000  0.50000002  1
  Mo  Mo16  1  0.00000000  0.00000000  0.00000000  1
  Mo  Mo17  1  0.25246699  0.74897800  0.83577603  1
