# generated using pymatgen
data_CrSi3
_symmetry_space_group_name_H-M   'P 1'
_cell_length_a   3.25646806
_cell_length_b   6.54227209
_cell_length_c   8.53993988
_cell_angle_alpha   104.54905701
_cell_angle_beta   90.00000000
_cell_angle_gamma   104.41118622
_symmetry_Int_Tables_number   1
_chemical_formula_structural   CrSi3
_chemical_formula_sum   'Cr3 Si9'
_cell_volume   170.18555350
_cell_formula_units_Z   3
loop_
 _symmetry_equiv_pos_site_id
 _symmetry_equiv_pos_as_xyz
  1  'x, y, z'
loop_
 _atom_site_type_symbol
 _atom_site_label
 _atom_site_symmetry_multiplicity
 _atom_site_fract_x
 _atom_site_fract_y
 _atom_site_fract_z
 _atom_site_occupancy
  Cr  Cr0  1  0.00000000  0.00000000  0.49999999  1
  Cr  Cr1  1  0.49999999  0.00000000  0.99999999  1
  Si  Si2  1  0.62598299  0.25196600  0.56518098  1
  Si  Si3  1  0.37401701  0.74803401  0.43481896  1
  Cr  Cr4  1  0.31947301  0.63894601  0.84533196  1
  Si  Si5  1  0.98124500  0.96249001  0.19317695  1
  Si  Si6  1  0.01875500  0.03751000  0.80682299  1
  Si  Si7  1  0.68052699  0.36105400  0.15466798  1
  Si  Si8  1  0.17449400  0.34898800  0.37493598  1
  Si  Si9  1  0.82550600  0.65101201  0.62506396  1
  Si  Si10  1  0.32326801  0.64653601  0.13190297  1
  Si  Si11  1  0.67673199  0.35346400  0.86809697  1
