# generated using pymatgen
data_Ce2MgNi2
_symmetry_space_group_name_H-M   'P 1'
_cell_length_a   3.60755610
_cell_length_b   7.64674282
_cell_length_c   7.64674282
_cell_angle_alpha   90.00000000
_cell_angle_beta   90.00000000
_cell_angle_gamma   90.00000000
_symmetry_Int_Tables_number   1
_chemical_formula_structural   Ce2MgNi2
_chemical_formula_sum   'Ce4 Mg2 Ni4'
_cell_volume   210.94345842
_cell_formula_units_Z   2
loop_
 _symmetry_equiv_pos_site_id
 _symmetry_equiv_pos_as_xyz
  1  'x, y, z'
loop_
 _atom_site_type_symbol
 _atom_site_label
 _atom_site_symmetry_multiplicity
 _atom_site_fract_x
 _atom_site_fract_y
 _atom_site_fract_z
 _atom_site_occupancy
  Ce  Ce0  1  0.00000000  0.17046400  0.32953601  1
  Ce  Ce1  1  0.00000000  0.82953602  0.67046402  1
  Ce  Ce2  1  0.00000000  0.67046402  0.17046400  1
  Ce  Ce3  1  0.00000000  0.32953601  0.82953602  1
  Mg  Mg4  1  0.49999999  0.00000000  0.00000000  1
  Mg  Mg5  1  0.49999999  0.50000001  0.50000001  1
  Ni  Ni6  1  0.49999999  0.37115701  0.12884300  1
  Ni  Ni7  1  0.49999999  0.62884301  0.87115702  1
  Ni  Ni8  1  0.49999999  0.87115702  0.37115701  1
  Ni  Ni9  1  0.49999999  0.12884300  0.62884301  1
