# generated using pymatgen
data_Ba2Zr2N5
_symmetry_space_group_name_H-M   'P 1'
_cell_length_a   6.07585001
_cell_length_b   6.53552723
_cell_length_c   9.10392284
_cell_angle_alpha   81.07672119
_cell_angle_beta   70.50685883
_cell_angle_gamma   62.30062103
_symmetry_Int_Tables_number   1
_chemical_formula_structural   Ba2Zr2N5
_chemical_formula_sum   'Ba4 Zr4 N10'
_cell_volume   301.73109014
_cell_formula_units_Z   2
loop_
 _symmetry_equiv_pos_site_id
 _symmetry_equiv_pos_as_xyz
  1  'x, y, z'
loop_
 _atom_site_type_symbol
 _atom_site_label
 _atom_site_symmetry_multiplicity
 _atom_site_fract_x
 _atom_site_fract_y
 _atom_site_fract_z
 _atom_site_occupancy
  Ba  Ba0  1  0.60882199  0.00000000  0.78235602  1
  Ba  Ba1  1  0.74999997  0.49999999  0.50000005  1
  Ba  Ba2  1  0.14117798  0.49999999  0.71764403  1
  Ba  Ba3  1  0.35882198  0.49999999  0.28235603  1
  Zr  Zr4  1  0.00000000  0.00000000  0.00000000  1
  Zr  Zr5  1  0.39117796  0.99999999  0.21764406  1
  Zr  Zr6  1  0.55807597  0.49999999  0.88384804  1
  Zr  Zr7  1  0.80807598  0.00000000  0.38384803  1
  N  N8  1  0.19192400  0.00000000  0.61615201  1
  N  N9  1  0.94192396  0.49999999  0.11615205  1
  N  N10  1  0.87499996  0.74999999  0.25000006  1
  N  N11  1  0.68196996  0.63605999  0.00000005  1
  N  N12  1  0.43196999  0.13606000  0.50000002  1
  N  N13  1  0.06802997  0.86393999  0.50000004  1
  N  N14  1  0.31802998  0.36393999  0.00000003  1
  N  N15  1  0.87499997  0.25000000  0.25000004  1
  N  N16  1  0.87499997  0.25000000  0.75000004  1
  N  N17  1  0.37499997  0.74999999  0.75000005  1
