# generated using pymatgen
data_Pr5Bi3
_symmetry_space_group_name_H-M   'P 1'
_cell_length_a   6.10403204
_cell_length_b   9.30291939
_cell_length_c   9.30291939
_cell_angle_alpha   83.82125854
_cell_angle_beta   70.84828186
_cell_angle_gamma   70.84828186
_symmetry_Int_Tables_number   1
_chemical_formula_structural   Pr5Bi3
_chemical_formula_sum   'Pr10 Bi6'
_cell_volume   471.41140620
_cell_formula_units_Z   2
loop_
 _symmetry_equiv_pos_site_id
 _symmetry_equiv_pos_as_xyz
  1  'x, y, z'
loop_
 _atom_site_type_symbol
 _atom_site_label
 _atom_site_symmetry_multiplicity
 _atom_site_fract_x
 _atom_site_fract_y
 _atom_site_fract_z
 _atom_site_occupancy
  Pr  Pr0  1  0.58316508  0.69534398  0.13832597  1
  Pr  Pr1  1  0.91683509  0.86167397  0.30465597  1
  Pr  Pr2  1  0.22149109  0.69534398  0.86167395  1
  Pr  Pr3  1  0.77850902  0.30465599  0.13832601  1
  Pr  Pr4  1  0.08316502  0.13832600  0.69534399  1
  Pr  Pr5  1  0.25000006  0.49999999  0.49999997  1
  Pr  Pr6  1  0.72149109  0.86167397  0.69534396  1
  Pr  Pr7  1  0.27850901  0.13832600  0.30465600  1
  Pr  Pr8  1  0.41683503  0.30465599  0.86167399  1
  Pr  Pr9  1  0.75000005  0.49999999  0.49999999  1
  Bi  Bi10  1  0.33954310  0.82091398  0.49999995  1
  Bi  Bi11  1  0.16045706  0.49999999  0.17908597  1
  Bi  Bi12  1  0.75000011  0.99999997  -0.00000005  1
  Bi  Bi13  1  0.83954304  0.49999999  0.82091399  1
  Bi  Bi14  1  0.66045701  0.17908599  0.50000001  1
  Bi  Bi15  1  0.25000013  0.99999997  0.99999992  1
