# generated using pymatgen
data_Ta2Br7N
_symmetry_space_group_name_H-M   'P 1'
_cell_length_a   6.53046989
_cell_length_b   6.53796196
_cell_length_c   6.72596645
_cell_angle_alpha   80.57496643
_cell_angle_beta   70.85925293
_cell_angle_gamma   60.03789902
_symmetry_Int_Tables_number   1
_chemical_formula_structural   Ta2Br7N
_chemical_formula_sum   'Ta2 Br7 N1'
_cell_volume   235.03856833
_cell_formula_units_Z   1
loop_
 _symmetry_equiv_pos_site_id
 _symmetry_equiv_pos_as_xyz
  1  'x, y, z'
loop_
 _atom_site_type_symbol
 _atom_site_label
 _atom_site_symmetry_multiplicity
 _atom_site_fract_x
 _atom_site_fract_y
 _atom_site_fract_z
 _atom_site_occupancy
  Ta  Ta0  1  0.17077700  0.65844597  0.50000004  1
  Ta  Ta1  1  0.50000001  0.00000000  0.50000000  1
  N  N2  1  0.82922301  0.34155399  0.50000002  1
  Br  Br3  1  0.00000000  0.00000000  0.00000000  1
  Br  Br4  1  0.73955101  0.99999996  0.75678006  1
  Br  Br5  1  0.07847900  0.34177499  0.76409703  1
  Br  Br6  1  0.42025400  0.65822497  0.76409704  1
  Br  Br7  1  0.57974601  0.34177499  0.23590302  1
  Br  Br8  1  0.92152101  0.65822497  0.23590303  1
  Br  Br9  1  0.26044900  0.99999996  0.24322005  1
