# generated using pymatgen
data_Li2Mn3CuO8
_symmetry_space_group_name_H-M   'P 1'
_cell_length_a   5.91521788
_cell_length_b   5.91521788
_cell_length_c   5.91521740
_cell_angle_alpha   60.20130539
_cell_angle_beta   60.20130539
_cell_angle_gamma   60.20131683
_symmetry_Int_Tables_number   1
_chemical_formula_structural   Li2Mn3CuO8
_chemical_formula_sum   'Li2 Mn3 Cu1 O8'
_cell_volume   147.01863105
_cell_formula_units_Z   1
loop_
 _symmetry_equiv_pos_site_id
 _symmetry_equiv_pos_as_xyz
  1  'x, y, z'
loop_
 _atom_site_type_symbol
 _atom_site_label
 _atom_site_symmetry_multiplicity
 _atom_site_fract_x
 _atom_site_fract_y
 _atom_site_fract_z
 _atom_site_occupancy
  Li  Li0  1  0.11591800  0.11591800  0.11591799  1
  Li  Li1  1  0.49791002  0.49790999  0.49790996  1
  Mn  Mn2  1  0.49752800  0.01055000  0.49752798  1
  Mn  Mn3  1  0.01055002  0.49752799  0.49752798  1
  Mn  Mn4  1  0.49752802  0.49752799  0.01054997  1
  Cu  Cu5  1  0.88324203  0.88324198  0.88324194  1
  O  O6  1  0.25871901  0.25871900  0.25871898  1
  O  O7  1  0.25297101  0.25297100  0.70899597  1
  O  O8  1  0.70899601  0.25297100  0.25297097  1
  O  O9  1  0.25297102  0.70899599  0.25297097  1
  O  O10  1  0.74995001  0.27896600  0.74994996  1
  O  O11  1  0.27896603  0.74994999  0.74994996  1
  O  O12  1  0.74995002  0.74994999  0.27896595  1
  O  O13  1  0.74480002  0.74479999  0.74479995  1
