# generated using pymatgen
data_Ce5Sb3
_symmetry_space_group_name_H-M   'P 1'
_cell_length_a   6.68266296
_cell_length_b   8.83934212
_cell_length_c   8.83934212
_cell_angle_alpha   60.00000000
_cell_angle_beta   90.00000000
_cell_angle_gamma   90.00000000
_symmetry_Int_Tables_number   1
_chemical_formula_structural   Ce5Sb3
_chemical_formula_sum   'Ce10 Sb6'
_cell_volume   452.18908622
_cell_formula_units_Z   2
loop_
 _symmetry_equiv_pos_site_id
 _symmetry_equiv_pos_as_xyz
  1  'x, y, z'
loop_
 _atom_site_type_symbol
 _atom_site_label
 _atom_site_symmetry_multiplicity
 _atom_site_fract_x
 _atom_site_fract_y
 _atom_site_fract_z
 _atom_site_occupancy
  Ce  Ce0  1  0.24708600  0.66666666  0.66666666  1
  Ce  Ce1  1  0.24708600  0.33333333  0.33333333  1
  Ce  Ce2  1  0.75291400  0.33333333  0.33333333  1
  Ce  Ce3  1  0.75291400  0.66666666  0.66666666  1
  Ce  Ce4  1  0.50000000  0.24489100  1.00000001  1
  Ce  Ce5  1  0.50000000  0.00000000  0.75510901  1
  Ce  Ce6  1  0.50000000  0.75510900  0.24489099  1
  Ce  Ce7  1  1.00000001  0.75497500  -0.00000001  1
  Ce  Ce8  1  0.00000000  0.00000000  0.24502500  1
  Ce  Ce9  1  1.00000001  0.24502500  0.75497501  1
  Sb  Sb10  1  1.00000001  0.39361300  1.00000001  1
  Sb  Sb11  1  0.00000000  0.00000000  0.60638701  1
  Sb  Sb12  1  1.00000001  0.60638700  0.39361299  1
  Sb  Sb13  1  0.50000000  0.60610000  1.00000000  1
  Sb  Sb14  1  0.50000000  0.00000000  0.39390001  1
  Sb  Sb15  1  0.50000000  0.39390000  0.60610000  1
