# generated using pymatgen
data_Nd3In
_symmetry_space_group_name_H-M   'P 1'
_cell_length_a   4.70203400
_cell_length_b   4.70203400
_cell_length_c   6.48446798
_cell_angle_alpha   111.25757599
_cell_angle_beta   111.25757599
_cell_angle_gamma   90.00000000
_symmetry_Int_Tables_number   1
_chemical_formula_structural   Nd3In
_chemical_formula_sum   'Nd3 In1'
_cell_volume   123.08600834
_cell_formula_units_Z   1
loop_
 _symmetry_equiv_pos_site_id
 _symmetry_equiv_pos_as_xyz
  1  'x, y, z'
loop_
 _atom_site_type_symbol
 _atom_site_label
 _atom_site_symmetry_multiplicity
 _atom_site_fract_x
 _atom_site_fract_y
 _atom_site_fract_z
 _atom_site_occupancy
  Nd  Nd0  1  0.00000000  0.00000000  0.00000000  1
  Nd  Nd1  1  0.74999999  0.25000000  0.49999997  1
  Nd  Nd2  1  0.24999998  0.74999999  0.49999996  1
  In  In3  1  0.49999999  0.49999999  -0.00000002  1
