# generated using pymatgen
data_Fe4Ni3SeS8
_symmetry_space_group_name_H-M   'P 1'
_cell_length_a   5.68353558
_cell_length_b   5.68874550
_cell_length_c   6.56278086
_cell_angle_alpha   89.99999237
_cell_angle_beta   90.00000000
_cell_angle_gamma   109.45266724
_symmetry_Int_Tables_number   1
_chemical_formula_structural   Fe4Ni3SeS8
_chemical_formula_sum   'Fe4 Ni3 Se1 S8'
_cell_volume   200.07665799
_cell_formula_units_Z   1
loop_
 _symmetry_equiv_pos_site_id
 _symmetry_equiv_pos_as_xyz
  1  'x, y, z'
loop_
 _atom_site_type_symbol
 _atom_site_label
 _atom_site_symmetry_multiplicity
 _atom_site_fract_x
 _atom_site_fract_y
 _atom_site_fract_z
 _atom_site_occupancy
  Fe  Fe0  1  -0.00000003  0.49999999  0.25000000  1
  Fe  Fe1  1  0.49999996  0.49999999  0.50000001  1
  Fe  Fe2  1  -0.00000003  0.49999999  0.75000002  1
  Fe  Fe3  1  0.49999996  0.49999999  1.00000003  1
  Ni  Ni4  1  0.50000000  0.00000000  0.75000002  1
  Ni  Ni5  1  0.50000000  0.00000000  0.25000001  1
  Se  Se6  1  0.00000000  0.00000000  0.00000000  1
  Ni  Ni7  1  0.00000000  0.00000000  0.50000002  1
  S  S8  1  0.75687398  0.27062199  0.50000001  1
  S  S9  1  0.75687398  0.27062199  1.00000003  1
  S  S10  1  0.25687398  0.27062199  0.75000002  1
  S  S11  1  0.25687398  0.27062199  0.25000001  1
  S  S12  1  0.24312595  0.72937798  0.50000001  1
  S  S13  1  0.24312595  0.72937798  -0.00000001  1
  S  S14  1  0.74312594  0.72937798  0.75000002  1
  S  S15  1  0.74312594  0.72937798  0.25000000  1
