# generated using pymatgen
data_NaMn2CuS3
_symmetry_space_group_name_H-M   'P 1'
_cell_length_a   4.00711393
_cell_length_b   4.00711346
_cell_length_c   19.83927536
_cell_angle_alpha   90.00000000
_cell_angle_beta   90.00000000
_cell_angle_gamma   120.00000000
_symmetry_Int_Tables_number   1
_chemical_formula_structural   NaMn2CuS3
_chemical_formula_sum   'Na2 Mn4 Cu2 S6'
_cell_volume   275.87971391
_cell_formula_units_Z   2
loop_
 _symmetry_equiv_pos_site_id
 _symmetry_equiv_pos_as_xyz
  1  'x, y, z'
loop_
 _atom_site_type_symbol
 _atom_site_label
 _atom_site_symmetry_multiplicity
 _atom_site_fract_x
 _atom_site_fract_y
 _atom_site_fract_z
 _atom_site_occupancy
  Na  Na0  1  0.00000000  0.00000000  0.00000000  1
  Na  Na1  1  0.00000000  0.00000000  0.50000002  1
  Mn  Mn2  1  0.66666665  0.33333333  0.25000001  1
  Mn  Mn3  1  0.33333329  0.66666666  0.75000002  1
  Mn  Mn4  1  0.66666665  0.33333333  0.87166103  1
  Mn  Mn5  1  0.33333329  0.66666666  0.12833900  1
  Cu  Cu6  1  0.33333329  0.66666666  0.37166101  1
  Cu  Cu7  1  0.66666665  0.33333333  0.62833902  1
  S  S8  1  0.66666665  0.33333333  0.41634401  1
  S  S9  1  0.33333329  0.66666666  0.58365602  1
  S  S10  1  0.33333329  0.66666666  0.91634403  1
  S  S11  1  0.66666665  0.33333333  0.08365600  1
  S  S12  1  0.66666665  0.33333333  0.75000002  1
  S  S13  1  0.33333329  0.66666666  0.25000001  1
