# generated using pymatgen
data_MgCdPd2Rh
_symmetry_space_group_name_H-M   'P 1'
_cell_length_a   4.54409552
_cell_length_b   4.54409552
_cell_length_c   18.71274376
_cell_angle_alpha   83.02609253
_cell_angle_beta   83.02609253
_cell_angle_gamma   60.00000763
_symmetry_Int_Tables_number   1
_chemical_formula_structural   MgCdPd2Rh
_chemical_formula_sum   'Mg4 Cd4 Pd8 Rh4'
_cell_volume   331.32349733
_cell_formula_units_Z   4
loop_
 _symmetry_equiv_pos_site_id
 _symmetry_equiv_pos_as_xyz
  1  'x, y, z'
loop_
 _atom_site_type_symbol
 _atom_site_label
 _atom_site_symmetry_multiplicity
 _atom_site_fract_x
 _atom_site_fract_y
 _atom_site_fract_z
 _atom_site_occupancy
  Mg  Mg0  1  0.70037302  0.70037300  0.89888102  1
  Mg  Mg1  1  0.50000001  0.50000000  0.50000001  1
  Mg  Mg2  1  0.10000000  0.10000000  0.70000003  1
  Mg  Mg3  1  0.29962701  0.29962700  0.10111900  1
  Cd  Cd4  1  0.90000002  0.90000000  0.29999999  1
  Cd  Cd5  1  0.59988701  0.59988700  0.20033899  1
  Cd  Cd6  1  0.20002000  0.20002000  0.39994001  1
  Cd  Cd7  1  0.79998002  0.79998000  0.60006001  1
  Pd  Pd8  1  0.40011301  0.40011300  0.79966102  1
  Pd  Pd9  1  0.00000000  0.00000000  0.00000000  1
  Rh  Rh10  1  0.04990800  0.04990800  0.85027604  1
  Pd  Pd11  1  0.84998902  0.84998900  0.45003300  1
  Pd  Pd12  1  0.44999301  0.44999300  0.65002102  1
  Rh  Rh13  1  0.65002402  0.65002400  0.04992799  1
  Pd  Pd14  1  0.25000801  0.25000800  0.24997600  1
  Rh  Rh15  1  0.34997601  0.34997600  0.95007203  1
  Pd  Pd16  1  0.15001100  0.15001100  0.54996702  1
  Rh  Rh17  1  0.74999202  0.74999200  0.75002401  1
  Pd  Pd18  1  0.95009202  0.95009200  0.14972398  1
  Pd  Pd19  1  0.55000701  0.55000700  0.34997900  1
