# generated using pymatgen
data_TaO3
_symmetry_space_group_name_H-M   'P 1'
_cell_length_a   4.82323408
_cell_length_b   4.82323408
_cell_length_c   4.82323408
_cell_angle_alpha   90.00000000
_cell_angle_beta   90.00000000
_cell_angle_gamma   90.00000000
_symmetry_Int_Tables_number   1
_chemical_formula_structural   TaO3
_chemical_formula_sum   'Ta3 O9'
_cell_volume   112.20572568
_cell_formula_units_Z   3
loop_
 _symmetry_equiv_pos_site_id
 _symmetry_equiv_pos_as_xyz
  1  'x, y, z'
loop_
 _atom_site_type_symbol
 _atom_site_label
 _atom_site_symmetry_multiplicity
 _atom_site_fract_x
 _atom_site_fract_y
 _atom_site_fract_z
 _atom_site_occupancy
  Ta  Ta0  1  0.49999999  0.49999999  -0.00000000  1
  Ta  Ta1  1  0.49999999  0.00000000  0.49999999  1
  Ta  Ta2  1  -0.00000000  0.49999999  0.49999999  1
  O  O3  1  0.00000000  0.00000000  0.00000000  1
  O  O4  1  0.15191500  0.84808499  0.34808499  1
  O  O5  1  0.84808499  0.34808499  0.15191500  1
  O  O6  1  0.34808499  0.15191500  0.84808499  1
  O  O7  1  0.65191499  0.65191499  0.65191499  1
  O  O8  1  0.84808499  0.15191500  0.65191499  1
  O  O9  1  0.15191500  0.65191499  0.84808499  1
  O  O10  1  0.65191499  0.84808499  0.15191500  1
  O  O11  1  0.34808499  0.34808499  0.34808499  1
