# generated using pymatgen
data_SrBrCl
_symmetry_space_group_name_H-M   'P 1'
_cell_length_a   4.48385715
_cell_length_b   7.92849493
_cell_length_c   9.43356705
_cell_angle_alpha   90.00000000
_cell_angle_beta   90.00000000
_cell_angle_gamma   90.00000000
_symmetry_Int_Tables_number   1
_chemical_formula_structural   SrBrCl
_chemical_formula_sum   'Sr4 Br4 Cl4'
_cell_volume   335.36556051
_cell_formula_units_Z   4
loop_
 _symmetry_equiv_pos_site_id
 _symmetry_equiv_pos_as_xyz
  1  'x, y, z'
loop_
 _atom_site_type_symbol
 _atom_site_label
 _atom_site_symmetry_multiplicity
 _atom_site_fract_x
 _atom_site_fract_y
 _atom_site_fract_z
 _atom_site_occupancy
  Sr  Sr0  1  0.24999999  0.23828100  0.63307100  1
  Sr  Sr1  1  0.24999999  0.73828101  0.86692900  1
  Sr  Sr2  1  0.74999997  0.76171901  0.36692900  1
  Sr  Sr3  1  0.74999997  0.26171900  0.13307100  1
  Br  Br4  1  0.24999999  0.46176600  0.33217400  1
  Br  Br5  1  0.24999999  0.96176601  0.16782600  1
  Br  Br6  1  0.74999997  0.53823400  0.66782600  1
  Br  Br7  1  0.74999997  0.03823400  0.83217400  1
  Cl  Cl8  1  0.24999999  0.86456001  0.56053900  1
  Cl  Cl9  1  0.24999999  0.36456000  0.93946100  1
  Cl  Cl10  1  0.74999997  0.13544000  0.43946100  1
  Cl  Cl11  1  0.74999997  0.63544001  0.06053900  1
