# generated using pymatgen
data_Ti3CuS6
_symmetry_space_group_name_H-M   'P 1'
_cell_length_a   6.02587986
_cell_length_b   6.02587986
_cell_length_c   11.26503372
_cell_angle_alpha   90.00000000
_cell_angle_beta   90.00000000
_cell_angle_gamma   120.00000000
_symmetry_Int_Tables_number   1
_chemical_formula_structural   Ti3CuS6
_chemical_formula_sum   'Ti6 Cu2 S12'
_cell_volume   354.24527423
_cell_formula_units_Z   2
loop_
 _symmetry_equiv_pos_site_id
 _symmetry_equiv_pos_as_xyz
  1  'x, y, z'
loop_
 _atom_site_type_symbol
 _atom_site_label
 _atom_site_symmetry_multiplicity
 _atom_site_fract_x
 _atom_site_fract_y
 _atom_site_fract_z
 _atom_site_occupancy
  Ti  Ti0  1  0.33333333  0.66666666  0.51748601  1
  Ti  Ti1  1  0.33333333  0.66666666  0.98251402  1
  Ti  Ti2  1  0.66666668  0.33333333  0.48251401  1
  Ti  Ti3  1  0.66666668  0.33333333  0.01748600  1
  Ti  Ti4  1  0.00000000  0.00000000  0.50000001  1
  Ti  Ti5  1  0.00000000  0.00000000  0.00000000  1
  Cu  Cu6  1  0.33333333  0.66666666  0.25000001  1
  Cu  Cu7  1  0.66666668  0.33333333  0.75000002  1
  S  S8  1  0.32456399  0.97834899  0.11650500  1
  S  S9  1  0.65378500  0.67543699  0.11650500  1
  S  S10  1  0.02165200  0.34621600  0.11650500  1
  S  S11  1  0.65378500  0.97834899  0.38349501  1
  S  S12  1  0.02165199  0.67543699  0.38349501  1
  S  S13  1  0.32456400  0.34621600  0.38349501  1
  S  S14  1  0.67543602  0.02165100  0.88349502  1
  S  S15  1  0.34621500  0.32456300  0.88349502  1
  S  S16  1  0.67543601  0.65378400  0.61650502  1
  S  S17  1  0.97834802  0.32456300  0.61650502  1
  S  S18  1  0.34621501  0.02165100  0.61650502  1
  S  S19  1  0.97834801  0.65378400  0.88349502  1
