# generated using pymatgen
data_KSnPdF7
_symmetry_space_group_name_H-M   'P 1'
_cell_length_a   5.59541178
_cell_length_b   5.59541178
_cell_length_c   5.59541178
_cell_angle_alpha   60.54307556
_cell_angle_beta   60.54307556
_cell_angle_gamma   60.54308701
_symmetry_Int_Tables_number   1
_chemical_formula_structural   KSnPdF7
_chemical_formula_sum   'K1 Sn1 Pd1 F7'
_cell_volume   125.39423175
_cell_formula_units_Z   1
loop_
 _symmetry_equiv_pos_site_id
 _symmetry_equiv_pos_as_xyz
  1  'x, y, z'
loop_
 _atom_site_type_symbol
 _atom_site_label
 _atom_site_symmetry_multiplicity
 _atom_site_fract_x
 _atom_site_fract_y
 _atom_site_fract_z
 _atom_site_occupancy
  K  K0  1  0.74955397  0.74955398  0.74955401  1
  Sn  Sn1  1  0.25044599  0.25044599  0.25044600  1
  Pd  Pd2  1  0.49999998  0.49999999  0.50000000  1
  F  F3  1  0.00000000  0.00000000  0.00000000  1
  F  F4  1  0.75799698  0.28183899  0.20416601  1
  F  F5  1  0.24200299  0.71816098  0.79583400  1
  F  F6  1  0.79583397  0.24200299  0.71816100  1
  F  F7  1  0.28183899  0.20416599  0.75799700  1
  F  F8  1  0.20416599  0.75799698  0.28183901  1
  F  F9  1  0.71816097  0.79583398  0.24200301  1
