# generated using pymatgen
data_Ca4TaTi3O12
_symmetry_space_group_name_H-M   'P 1'
_cell_length_a   5.60191011
_cell_length_b   5.60449886
_cell_length_c   7.91237926
_cell_angle_alpha   89.98888397
_cell_angle_beta   90.00016022
_cell_angle_gamma   89.99996185
_symmetry_Int_Tables_number   1
_chemical_formula_structural   Ca4TaTi3O12
_chemical_formula_sum   'Ca4 Ta1 Ti3 O12'
_cell_volume   248.41625452
_cell_formula_units_Z   1
loop_
 _symmetry_equiv_pos_site_id
 _symmetry_equiv_pos_as_xyz
  1  'x, y, z'
loop_
 _atom_site_type_symbol
 _atom_site_label
 _atom_site_symmetry_multiplicity
 _atom_site_fract_x
 _atom_site_fract_y
 _atom_site_fract_z
 _atom_site_occupancy
  Ca  Ca0  1  0.47144101  0.49218401  0.75003299  1
  Ca  Ca1  1  0.97142498  0.00781400  0.74995896  1
  Ca  Ca2  1  0.52857401  0.50782901  0.24998401  1
  Ca  Ca3  1  0.02857505  0.99219403  0.25004603  1
  Ti  Ti4  1  0.50001004  0.99998903  0.50001202  1
  Ti  Ti5  1  0.99996700  0.49999601  0.99999198  1
  Ta  Ta6  1  0.49999904  0.99999303  0.99999800  1
  Ti  Ti7  1  0.00000402  0.50000801  0.50000201  1
  O  O8  1  0.01569403  0.58176202  0.75038800  1
  O  O9  1  0.51569003  0.91823703  0.74960601  1
  O  O10  1  0.98431000  0.41824001  0.24960999  1
  O  O11  1  0.48431099  0.08176600  0.25038699  1
  O  O12  1  0.21852601  0.21941401  0.95579498  1
  O  O13  1  0.71852100  0.28058701  0.54419598  1
  O  O14  1  0.78086602  0.78101202  0.45591201  1
  O  O15  1  0.28086503  0.71898502  0.04409002  1
  O  O16  1  0.78147602  0.78057702  0.04420302  1
  O  O17  1  0.28148003  0.71941402  0.45579201  1
  O  O18  1  0.21913101  0.21898201  0.54408099  1
  O  O19  1  0.71913300  0.28101801  0.95591097  1
