# generated using pymatgen
data_Nd2Co5PC2
_symmetry_space_group_name_H-M   'P 1'
_cell_length_a   3.75801611
_cell_length_b   5.85220766
_cell_length_c   7.03189182
_cell_angle_alpha   90.00000000
_cell_angle_beta   90.00000000
_cell_angle_gamma   108.72805786
_symmetry_Int_Tables_number   1
_chemical_formula_structural   Nd2Co5PC2
_chemical_formula_sum   'Nd2 Co5 P1 C2'
_cell_volume   146.46198100
_cell_formula_units_Z   1
loop_
 _symmetry_equiv_pos_site_id
 _symmetry_equiv_pos_as_xyz
  1  'x, y, z'
loop_
 _atom_site_type_symbol
 _atom_site_label
 _atom_site_symmetry_multiplicity
 _atom_site_fract_x
 _atom_site_fract_y
 _atom_site_fract_z
 _atom_site_occupancy
  Nd  Nd0  1  0.45597604  0.91195204  0.75000002  1
  Nd  Nd1  1  0.54402399  0.08804800  0.25000001  1
  P  P2  1  0.73258700  0.46517402  0.75000002  1
  Co  Co3  1  0.26741302  0.53482602  0.25000001  1
  Co  Co4  1  0.16475401  0.32950801  0.94717102  1
  Co  Co5  1  0.83524601  0.67049203  0.05282900  1
  Co  Co6  1  0.83524601  0.67049203  0.44717101  1
  Co  Co7  1  0.16475401  0.32950801  0.55282901  1
  C  C8  1  0.00000000  0.00000000  0.00000000  1
  C  C9  1  0.00000000  0.00000000  0.50000001  1
