# generated using pymatgen
data_CsTaAsCl3
_symmetry_space_group_name_H-M   'P 1'
_cell_length_a   4.82239485
_cell_length_b   7.31061411
_cell_length_c   8.51666737
_cell_angle_alpha   90.52941895
_cell_angle_beta   90.00000000
_cell_angle_gamma   90.00000000
_symmetry_Int_Tables_number   1
_chemical_formula_structural   CsTaAsCl3
_chemical_formula_sum   'Cs1 Ta1 As1 Cl3'
_cell_volume   300.23946127
_cell_formula_units_Z   1
loop_
 _symmetry_equiv_pos_site_id
 _symmetry_equiv_pos_as_xyz
  1  'x, y, z'
loop_
 _atom_site_type_symbol
 _atom_site_label
 _atom_site_symmetry_multiplicity
 _atom_site_fract_x
 _atom_site_fract_y
 _atom_site_fract_z
 _atom_site_occupancy
  Cs  Cs0  1  0.50000002  0.00000000  0.50000001  1
  Ta  Ta1  1  0.00000000  0.00000000  0.00000000  1
  As  As2  1  1.00000003  0.74713899  0.69297400  1
  Cl  Cl3  1  0.50000002  0.76308199  0.14271199  1
  Cl  Cl4  1  0.50000002  0.23691800  0.85728802  1
  Cl  Cl5  1  1.00000003  0.25286100  0.30702600  1
