# generated using pymatgen
data_ThSb
_symmetry_space_group_name_H-M   'P 1'
_cell_length_a   6.36910295
_cell_length_b   9.50843620
_cell_length_c   9.50843620
_cell_angle_alpha   120.00000000
_cell_angle_beta   90.00000000
_cell_angle_gamma   90.00000000
_symmetry_Int_Tables_number   1
_chemical_formula_structural   ThSb
_chemical_formula_sum   'Th9 Sb9'
_cell_volume   498.68590659
_cell_formula_units_Z   9
loop_
 _symmetry_equiv_pos_site_id
 _symmetry_equiv_pos_as_xyz
  1  'x, y, z'
loop_
 _atom_site_type_symbol
 _atom_site_label
 _atom_site_symmetry_multiplicity
 _atom_site_fract_x
 _atom_site_fract_y
 _atom_site_fract_z
 _atom_site_occupancy
  Th  Th0  1  0.75000001  0.38249299  0.38249298  1
  Th  Th1  1  0.25000000  0.61750698  0.61750697  1
  Th  Th2  1  0.75000001  0.00000000  0.61750698  1
  Th  Th3  1  0.25000000  0.00000000  0.38249299  1
  Th  Th4  1  0.75000001  0.61750698  0.99999996  1
  Th  Th5  1  0.25000000  0.38249299  0.99999996  1
  Th  Th6  1  0.00000000  0.00000000  0.00000000  1
  Th  Th7  1  0.50000000  0.00000000  -0.00000000  1
  Th  Th8  1  0.75000001  0.73567798  0.73567797  1
  Sb  Sb9  1  0.25000000  0.26432199  0.26432199  1
  Sb  Sb10  1  0.75000001  0.00000000  0.26432199  1
  Sb  Sb11  1  0.25000000  0.00000000  0.73567798  1
  Sb  Sb12  1  0.75000001  0.26432199  -0.00000000  1
  Sb  Sb13  1  0.25000000  0.73567798  0.99999996  1
  Sb  Sb14  1  -0.00000000  0.66666665  0.33333332  1
  Sb  Sb15  1  1.00000001  0.33333332  0.66666664  1
  Sb  Sb16  1  0.50000000  0.33333332  0.66666664  1
  Sb  Sb17  1  0.50000000  0.66666665  0.33333332  1
