# generated using pymatgen
data_Cr5BC7
_symmetry_space_group_name_H-M   'P 1'
_cell_length_a   4.21396017
_cell_length_b   5.57444525
_cell_length_c   5.57444525
_cell_angle_alpha   81.78649139
_cell_angle_beta   67.79192352
_cell_angle_gamma   67.79192352
_symmetry_Int_Tables_number   1
_chemical_formula_structural   Cr5BC7
_chemical_formula_sum   'Cr5 B1 C7'
_cell_volume   112.23914049
_cell_formula_units_Z   1
loop_
 _symmetry_equiv_pos_site_id
 _symmetry_equiv_pos_as_xyz
  1  'x, y, z'
loop_
 _atom_site_type_symbol
 _atom_site_label
 _atom_site_symmetry_multiplicity
 _atom_site_fract_x
 _atom_site_fract_y
 _atom_site_fract_z
 _atom_site_occupancy
  Cr  Cr0  1  0.00000000  0.00000000  0.00000000  1
  Cr  Cr1  1  0.35272095  0.64727899  0.64727896  1
  Cr  Cr2  1  0.49999999  0.00000000  0.49999997  1
  Cr  Cr3  1  -0.00000004  0.64727899  0.35272098  1
  Cr  Cr4  1  0.28429298  0.21570700  0.21570698  1
  C  C5  1  0.64727896  0.35272099  0.35272096  1
  B  B6  1  0.49999996  0.49999999  -0.00000002  1
  C  C7  1  -0.00000002  0.35272099  0.64727898  1
  C  C8  1  0.49999994  0.78429299  0.21570697  1
  C  C9  1  0.71570694  0.78429299  0.78429294  1
  C  C10  1  -0.00000003  0.49999999  0.99999996  1
  C  C11  1  0.49999998  0.21570700  0.78429295  1
  C  C12  1  0.00000000  0.00000000  0.49999998  1
