# generated using pymatgen
data_CeIn2Ir
_symmetry_space_group_name_H-M   'P 1'
_cell_length_a   4.35886383
_cell_length_b   5.51564169
_cell_length_c   7.71294212
_cell_angle_alpha   90.00000000
_cell_angle_beta   90.00000000
_cell_angle_gamma   113.27449036
_symmetry_Int_Tables_number   1
_chemical_formula_structural   CeIn2Ir
_chemical_formula_sum   'Ce2 In4 Ir2'
_cell_volume   170.34384670
_cell_formula_units_Z   2
loop_
 _symmetry_equiv_pos_site_id
 _symmetry_equiv_pos_as_xyz
  1  'x, y, z'
loop_
 _atom_site_type_symbol
 _atom_site_label
 _atom_site_symmetry_multiplicity
 _atom_site_fract_x
 _atom_site_fract_y
 _atom_site_fract_z
 _atom_site_occupancy
  Ce  Ce0  1  0.93817496  0.87635000  0.74999999  1
  Ce  Ce1  1  0.06182499  0.12365000  0.25000000  1
  In  In2  1  0.35133295  0.70266600  0.44755999  1
  In  In3  1  0.64866700  0.29733400  0.55243999  1
  In  In4  1  0.35133295  0.70266600  0.05244000  1
  In  In5  1  0.64866700  0.29733400  0.94755998  1
  Ir  Ir6  1  0.78162398  0.56324800  0.25000000  1
  Ir  Ir7  1  0.21837597  0.43675200  0.74999999  1
