# generated using pymatgen
data_PO2
_symmetry_space_group_name_H-M   'P 1'
_cell_length_a   4.54783821
_cell_length_b   4.54783773
_cell_length_c   10.05601692
_cell_angle_alpha   90.00000000
_cell_angle_beta   90.00000000
_cell_angle_gamma   120.00000000
_symmetry_Int_Tables_number   1
_chemical_formula_structural   PO2
_chemical_formula_sum   'P6 O12'
_cell_volume   180.12193104
_cell_formula_units_Z   6
loop_
 _symmetry_equiv_pos_site_id
 _symmetry_equiv_pos_as_xyz
  1  'x, y, z'
loop_
 _atom_site_type_symbol
 _atom_site_label
 _atom_site_symmetry_multiplicity
 _atom_site_fract_x
 _atom_site_fract_y
 _atom_site_fract_z
 _atom_site_occupancy
  P  P0  1  0.52982996  0.52983000  0.66666667  1
  P  P1  1  0.99999994  0.47017000  0.33333334  1
  P  P2  1  0.47016998  0.00000000  1.00000001  1
  P  P3  1  0.53081696  0.53081700  0.16666700  1
  P  P4  1  0.46918298  0.00000000  0.50000000  1
  P  P5  1  -0.00000001  0.46918300  0.83333301  1
  O  O6  1  0.26390998  0.40785300  0.27866100  1
  O  O7  1  0.72522896  0.13124900  0.89268301  1
  O  O8  1  0.40601997  0.27477100  0.55934900  1
  O  O9  1  0.59214695  0.85605700  0.61199500  1
  O  O10  1  0.85605694  0.59214700  0.72133901  1
  O  O11  1  0.14394297  0.73609000  0.94532801  1
  O  O12  1  0.73608996  0.14394300  0.38800500  1
  O  O13  1  0.40785297  0.26391000  0.05467200  1
  O  O14  1  0.13124897  0.72522900  0.44065100  1
  O  O15  1  0.59397995  0.86875100  0.10731700  1
  O  O16  1  0.27477097  0.40602000  0.77398401  1
  O  O17  1  0.86875094  0.59398000  0.22601600  1
