# generated using pymatgen
data_TiN2
_symmetry_space_group_name_H-M   'P 1'
_cell_length_a   2.93086004
_cell_length_b   2.93085980
_cell_length_c   3.91914201
_cell_angle_alpha   90.00000000
_cell_angle_beta   90.00000000
_cell_angle_gamma   120.00000000
_symmetry_Int_Tables_number   1
_chemical_formula_structural   TiN2
_chemical_formula_sum   'Ti1 N2'
_cell_volume   29.15491346
_cell_formula_units_Z   1
loop_
 _symmetry_equiv_pos_site_id
 _symmetry_equiv_pos_as_xyz
  1  'x, y, z'
loop_
 _atom_site_type_symbol
 _atom_site_label
 _atom_site_symmetry_multiplicity
 _atom_site_fract_x
 _atom_site_fract_y
 _atom_site_fract_z
 _atom_site_occupancy
  Ti  Ti0  1  0.33333330  0.66666665  0.50000000  1
  N  N1  1  0.00000000  0.00000000  0.18125100  1
  N  N2  1  0.00000000  0.00000000  0.81874900  1
