# generated using pymatgen
data_LiFe2MoO6
_symmetry_space_group_name_H-M   'P 1'
_cell_length_a   6.47531652
_cell_length_b   6.47590876
_cell_length_c   6.47828913
_cell_angle_alpha   70.61266327
_cell_angle_beta   70.64393616
_cell_angle_gamma   109.66941071
_symmetry_Int_Tables_number   1
_chemical_formula_structural   LiFe2MoO6
_chemical_formula_sum   'Li2 Fe4 Mo2 O12'
_cell_volume   209.12298073
_cell_formula_units_Z   2
loop_
 _symmetry_equiv_pos_site_id
 _symmetry_equiv_pos_as_xyz
  1  'x, y, z'
loop_
 _atom_site_type_symbol
 _atom_site_label
 _atom_site_symmetry_multiplicity
 _atom_site_fract_x
 _atom_site_fract_y
 _atom_site_fract_z
 _atom_site_occupancy
  Li  Li0  1  0.50000400  0.00000200  0.00000199  1
  Li  Li1  1  0.00000101  0.50000198  1.00000004  1
  Fe  Fe2  1  0.00000401  0.99999996  0.49999107  1
  Fe  Fe3  1  0.50000201  0.49999898  0.49999802  1
  Fe  Fe4  1  0.99999901  0.49999398  0.50000001  1
  Fe  Fe5  1  0.49997501  0.99999796  0.50002605  1
  Mo  Mo6  1  0.50000001  0.50000198  0.00000102  1
  Mo  Mo7  1  0.00000100  0.00000100  0.99999901  1
  O  O8  1  0.47958700  0.30909199  0.82973702  1
  O  O9  1  0.52041501  0.69090797  0.17026003  1
  O  O10  1  0.13883000  0.30923399  0.17036702  1
  O  O11  1  0.86117201  0.69076597  0.82963003  1
  O  O12  1  0.16994901  0.86019897  0.30978505  1
  O  O13  1  0.83005300  0.13980099  0.69021299  1
  O  O14  1  0.82991301  0.52027498  0.30982801  1
  O  O15  1  0.17009001  0.47972598  0.69016903  1
  O  O16  1  0.30885801  0.82947097  0.86166405  1
  O  O17  1  0.69114500  0.17052999  0.13833199  1
  O  O18  1  0.69112401  0.82945897  0.47942504  1
  O  O19  1  0.30887900  0.17054099  0.52057101  1
