# generated using pymatgen
data_LuMgGe2
_symmetry_space_group_name_H-M   'P 1'
_cell_length_a   4.28072023
_cell_length_b   6.37602186
_cell_length_c   6.41747379
_cell_angle_alpha   90.00000000
_cell_angle_beta   109.48260498
_cell_angle_gamma   90.00000000
_symmetry_Int_Tables_number   1
_chemical_formula_structural   LuMgGe2
_chemical_formula_sum   'Lu2 Mg2 Ge4'
_cell_volume   165.12923433
_cell_formula_units_Z   2
loop_
 _symmetry_equiv_pos_site_id
 _symmetry_equiv_pos_as_xyz
  1  'x, y, z'
loop_
 _atom_site_type_symbol
 _atom_site_label
 _atom_site_symmetry_multiplicity
 _atom_site_fract_x
 _atom_site_fract_y
 _atom_site_fract_z
 _atom_site_occupancy
  Lu  Lu0  1  0.27237699  0.25000001  0.54475399  1
  Lu  Lu1  1  0.72762296  0.75000002  0.45524599  1
  Mg  Mg2  1  0.44392698  0.75000002  0.88785398  1
  Mg  Mg3  1  0.55607297  0.25000001  0.11214600  1
  Ge  Ge4  1  0.09616499  0.55933701  0.19233000  1
  Ge  Ge5  1  0.90383495  0.44066301  0.80766998  1
  Ge  Ge6  1  0.09616499  0.94066302  0.19233000  1
  Ge  Ge7  1  0.90383495  0.05933700  0.80766998  1
