# generated using pymatgen
data_K2Cu3S7
_symmetry_space_group_name_H-M   'P 1'
_cell_length_a   6.56320381
_cell_length_b   6.56320381
_cell_length_c   8.66220665
_cell_angle_alpha   112.26193237
_cell_angle_beta   112.26193237
_cell_angle_gamma   90.00000000
_symmetry_Int_Tables_number   1
_chemical_formula_structural   K2Cu3S7
_chemical_formula_sum   'K2 Cu3 S7'
_cell_volume   315.05939237
_cell_formula_units_Z   1
loop_
 _symmetry_equiv_pos_site_id
 _symmetry_equiv_pos_as_xyz
  1  'x, y, z'
loop_
 _atom_site_type_symbol
 _atom_site_label
 _atom_site_symmetry_multiplicity
 _atom_site_fract_x
 _atom_site_fract_y
 _atom_site_fract_z
 _atom_site_occupancy
  K  K0  1  0.00000000  0.00000000  0.00000000  1
  K  K1  1  0.75000003  0.25000001  0.50000002  1
  Cu  Cu2  1  0.25000002  0.75000003  0.50000002  1
  Cu  Cu3  1  0.50000003  0.50000002  0.00000002  1
  S  S4  1  0.67865403  0.26295701  0.83814301  1
  Cu  Cu5  1  0.32518603  0.92865404  0.33814302  1
  S  S6  1  0.07134602  0.98704304  0.66185702  1
  S  S7  1  0.73704304  0.84051103  0.16185703  1
  S  S8  1  0.01295701  0.40948902  0.33814301  1
  S  S9  1  0.59051103  0.67481403  0.66185702  1
  S  S10  1  0.42481402  0.32134601  0.16185701  1
  S  S11  1  0.15948902  0.57518602  0.83814301  1
