# generated using pymatgen
data_NdFe4(CuO4)3
_symmetry_space_group_name_H-M   'P 1'
_cell_length_a   6.52413464
_cell_length_b   6.52413464
_cell_length_c   6.52413464
_cell_angle_alpha   109.47122192
_cell_angle_beta   109.47122192
_cell_angle_gamma   109.47122192
_symmetry_Int_Tables_number   1
_chemical_formula_structural   NdFe4(CuO4)3
_chemical_formula_sum   'Nd1 Fe4 Cu3 O12'
_cell_volume   213.77003728
_cell_formula_units_Z   1
loop_
 _symmetry_equiv_pos_site_id
 _symmetry_equiv_pos_as_xyz
  1  'x, y, z'
loop_
 _atom_site_type_symbol
 _atom_site_label
 _atom_site_symmetry_multiplicity
 _atom_site_fract_x
 _atom_site_fract_y
 _atom_site_fract_z
 _atom_site_occupancy
  Nd  Nd0  1  0.00000000  0.00000000  0.00000000  1
  Fe  Fe1  1  0.50000002  0.00000000  0.50000003  1
  Fe  Fe2  1  0.00000003  0.50000003  0.50000004  1
  Fe  Fe3  1  0.50000005  0.50000003  0.00000004  1
  Fe  Fe4  1  0.50000005  0.50000003  0.50000005  1
  Cu  Cu5  1  0.00000003  0.50000003  0.00000003  1
  Cu  Cu6  1  0.00000000  0.00000000  0.50000001  1
  Cu  Cu7  1  0.50000002  0.00000000  0.00000001  1
  O  O8  1  0.30461702  0.17007001  0.47468803  1
  O  O9  1  0.69538308  0.82993006  0.52531208  1
  O  O10  1  0.30461706  0.82992906  0.13454606  1
  O  O11  1  0.82992904  0.13454601  0.30461704  1
  O  O12  1  0.52531206  0.69538305  0.82992908  1
  O  O13  1  0.13454702  0.30461802  0.82993004  1
  O  O14  1  0.17007104  0.47468803  0.30461804  1
  O  O15  1  0.47468804  0.30461702  0.17007103  1
  O  O16  1  0.69538304  0.17007101  0.86545405  1
  O  O17  1  0.17007106  0.86545406  0.69538307  1
  O  O18  1  0.86545308  0.69538205  0.17007006  1
  O  O19  1  0.82992906  0.52531204  0.69538207  1
