# generated using pymatgen
data_U3NbSb5
_symmetry_space_group_name_H-M   'P 1'
_cell_length_a   6.08218288
_cell_length_b   9.11311817
_cell_length_c   9.11311817
_cell_angle_alpha   120.00000000
_cell_angle_beta   90.00000000
_cell_angle_gamma   90.00000000
_symmetry_Int_Tables_number   1
_chemical_formula_structural   U3NbSb5
_chemical_formula_sum   'U6 Nb2 Sb10'
_cell_volume   437.44565806
_cell_formula_units_Z   2
loop_
 _symmetry_equiv_pos_site_id
 _symmetry_equiv_pos_as_xyz
  1  'x, y, z'
loop_
 _atom_site_type_symbol
 _atom_site_label
 _atom_site_symmetry_multiplicity
 _atom_site_fract_x
 _atom_site_fract_y
 _atom_site_fract_z
 _atom_site_occupancy
  U  U0  1  0.25000000  0.61127899  0.00000001  1
  U  U1  1  0.25000000  0.38872100  0.38872101  1
  U  U2  1  0.25000000  0.00000000  0.61127901  1
  U  U3  1  0.75000001  0.38872100  0.00000001  1
  U  U4  1  0.75000001  0.61127899  0.61127902  1
  U  U5  1  0.75000001  0.00000000  0.38872100  1
  Nb  Nb6  1  0.00000000  0.00000000  0.00000000  1
  Nb  Nb7  1  0.50000001  0.00000000  -0.00000000  1
  Sb  Sb8  1  0.25000000  0.25646400  0.00000000  1
  Sb  Sb9  1  0.25000000  0.74353599  0.74353602  1
  Sb  Sb10  1  0.25000000  0.00000000  0.25646400  1
  Sb  Sb11  1  0.75000001  0.74353599  1.00000002  1
  Sb  Sb12  1  0.75000001  0.25646400  0.25646401  1
  Sb  Sb13  1  0.75000001  0.99999999  0.74353603  1
  Sb  Sb14  1  -0.00000000  0.33333333  0.66666668  1
  Sb  Sb15  1  -0.00000000  0.66666666  0.33333335  1
  Sb  Sb16  1  0.50000001  0.66666666  0.33333335  1
  Sb  Sb17  1  0.50000001  0.33333333  0.66666668  1
