# generated using pymatgen
data_KLiCaGdO5
_symmetry_space_group_name_H-M   'P 1'
_cell_length_a   3.87899947
_cell_length_b   6.02595425
_cell_length_c   6.94150877
_cell_angle_alpha   115.72808075
_cell_angle_beta   106.22674561
_cell_angle_gamma   89.99224854
_symmetry_Int_Tables_number   1
_chemical_formula_structural   KLiCaGdO5
_chemical_formula_sum   'K1 Li1 Ca1 Gd1 O5'
_cell_volume   138.96338963
_cell_formula_units_Z   1
loop_
 _symmetry_equiv_pos_site_id
 _symmetry_equiv_pos_as_xyz
  1  'x, y, z'
loop_
 _atom_site_type_symbol
 _atom_site_label
 _atom_site_symmetry_multiplicity
 _atom_site_fract_x
 _atom_site_fract_y
 _atom_site_fract_z
 _atom_site_occupancy
  K  K0  1  0.00000000  0.00000000  0.00000000  1
  Ca  Ca1  1  0.79734801  0.29739998  0.59478398  1
  Gd  Gd2  1  0.20265200  0.70259996  0.40521597  1
  Li  Li3  1  0.50000001  0.49999997  -0.00000003  1
  O  O4  1  0.00000100  0.49999997  -0.00000003  1
  O  O5  1  0.64398001  0.88579894  0.28801095  1
  O  O6  1  0.35602001  0.11420099  0.71198900  1
  O  O7  1  0.35599900  0.59778396  0.71198097  1
  O  O8  1  0.64400101  0.40221597  0.28801898  1
