# generated using pymatgen
data_LuAg
_symmetry_space_group_name_H-M   'P 1'
_cell_length_a   3.54413891
_cell_length_b   3.54413891
_cell_length_c   7.05066776
_cell_angle_alpha   90.00000000
_cell_angle_beta   90.00000000
_cell_angle_gamma   90.00000000
_symmetry_Int_Tables_number   1
_chemical_formula_structural   LuAg
_chemical_formula_sum   'Lu2 Ag2'
_cell_volume   88.56287796
_cell_formula_units_Z   2
loop_
 _symmetry_equiv_pos_site_id
 _symmetry_equiv_pos_as_xyz
  1  'x, y, z'
loop_
 _atom_site_type_symbol
 _atom_site_label
 _atom_site_symmetry_multiplicity
 _atom_site_fract_x
 _atom_site_fract_y
 _atom_site_fract_z
 _atom_site_occupancy
  Lu  Lu0  1  0.50000001  0.50000001  0.24538001  1
  Lu  Lu1  1  0.50000001  0.50000001  0.75462003  1
  Ag  Ag2  1  0.00000000  0.00000000  0.50000002  1
  Ag  Ag3  1  0.00000000  0.00000000  0.00000000  1
