# generated using pymatgen
data_Gd2O3
_symmetry_space_group_name_H-M   'P 1'
_cell_length_a   3.51599789
_cell_length_b   7.27694702
_cell_length_c   8.69533730
_cell_angle_alpha   100.10066986
_cell_angle_beta   90.00000000
_cell_angle_gamma   103.98008728
_symmetry_Int_Tables_number   1
_chemical_formula_structural   Gd2O3
_chemical_formula_sum   'Gd6 O9'
_cell_volume   212.33162038
_cell_formula_units_Z   3
loop_
 _symmetry_equiv_pos_site_id
 _symmetry_equiv_pos_as_xyz
  1  'x, y, z'
loop_
 _atom_site_type_symbol
 _atom_site_label
 _atom_site_symmetry_multiplicity
 _atom_site_fract_x
 _atom_site_fract_y
 _atom_site_fract_z
 _atom_site_occupancy
  Gd  Gd0  1  0.63517500  0.27035000  0.48803897  1
  Gd  Gd1  1  0.36482496  0.72965000  0.51196095  1
  Gd  Gd2  1  0.03201400  0.06402800  0.81404795  1
  Gd  Gd3  1  0.69136400  0.38272800  0.13732798  1
  Gd  Gd4  1  0.30863597  0.61727200  0.86267194  1
  Gd  Gd5  1  0.96798597  0.93597199  0.18595196  1
  O  O6  1  0.12799599  0.25599200  0.28177198  1
  O  O7  1  0.82553198  0.65106400  0.03051698  1
  O  O8  1  0.79330799  0.58661600  0.37736996  1
  O  O9  1  0.47096295  0.94192599  0.34285596  1
  O  O10  1  0.52903701  0.05807400  0.65714396  1
  O  O11  1  0.50000002  0.00000000  0.00000000  1
  O  O12  1  0.17446798  0.34893600  0.96948294  1
  O  O13  1  0.20669198  0.41338400  0.62262996  1
  O  O14  1  0.87200398  0.74400800  0.71822794  1
