# generated using pymatgen
data_Ho9Ni9Sn2
_symmetry_space_group_name_H-M   'P 1'
_cell_length_a   6.87119913
_cell_length_b   7.52802420
_cell_length_c   7.52802420
_cell_angle_alpha   90.00000000
_cell_angle_beta   90.00000000
_cell_angle_gamma   90.00000000
_symmetry_Int_Tables_number   1
_chemical_formula_structural   Ho9Ni9Sn2
_chemical_formula_sum   'Ho9 Ni9 Sn2'
_cell_volume   389.39874499
_cell_formula_units_Z   1
loop_
 _symmetry_equiv_pos_site_id
 _symmetry_equiv_pos_as_xyz
  1  'x, y, z'
loop_
 _atom_site_type_symbol
 _atom_site_label
 _atom_site_symmetry_multiplicity
 _atom_site_fract_x
 _atom_site_fract_y
 _atom_site_fract_z
 _atom_site_occupancy
  Ho  Ho0  1  0.99999998  0.15865200  0.15865200  1
  Ho  Ho1  1  0.99999998  0.84134798  0.84134798  1
  Ho  Ho2  1  0.49999999  0.65865198  0.34134799  1
  Ho  Ho3  1  0.49999999  0.34134799  0.65865198  1
  Ho  Ho4  1  -0.00000000  0.68598698  0.31401299  1
  Ho  Ho5  1  0.99999998  0.31401299  0.68598698  1
  Ho  Ho6  1  0.49999999  0.81401298  0.81401298  1
  Ho  Ho7  1  0.49999999  0.18598700  0.18598700  1
  Ni  Ni8  1  0.25000000  0.49999999  -0.00000000  1
  Ho  Ho9  1  0.74999999  0.49999999  -0.00000000  1
  Ni  Ni10  1  0.25000000  0.00000000  0.49999999  1
  Ni  Ni11  1  0.74999999  0.00000000  0.49999999  1
  Ni  Ni12  1  0.22280500  0.37162399  0.37162399  1
  Ni  Ni13  1  0.77719499  0.62837598  0.62837598  1
  Ni  Ni14  1  0.22280500  0.62837598  0.62837598  1
  Ni  Ni15  1  0.72280499  0.87162398  0.12837600  1
  Sn  Sn16  1  0.27719499  0.87162398  0.12837600  1
  Ni  Ni17  1  0.77719499  0.37162399  0.37162399  1
  Sn  Sn18  1  0.27719499  0.12837600  0.87162398  1
  Ni  Ni19  1  0.72280499  0.12837600  0.87162398  1
