# generated using pymatgen
data_Ho3Fe2Si3
_symmetry_space_group_name_H-M   'P 1'
_cell_length_a   4.10670185
_cell_length_b   5.64785671
_cell_length_c   13.69407845
_cell_angle_alpha   90.00000000
_cell_angle_beta   90.00000000
_cell_angle_gamma   111.31916809
_symmetry_Int_Tables_number   1
_chemical_formula_structural   Ho3Fe2Si3
_chemical_formula_sum   'Ho6 Fe4 Si6'
_cell_volume   295.88638840
_cell_formula_units_Z   2
loop_
 _symmetry_equiv_pos_site_id
 _symmetry_equiv_pos_as_xyz
  1  'x, y, z'
loop_
 _atom_site_type_symbol
 _atom_site_label
 _atom_site_symmetry_multiplicity
 _atom_site_fract_x
 _atom_site_fract_y
 _atom_site_fract_z
 _atom_site_occupancy
  Ho  Ho0  1  0.36266005  0.72532001  0.74999998  1
  Ho  Ho1  1  0.63734004  0.27468000  0.24999999  1
  Ho  Ho2  1  0.08062001  0.16124000  0.88839597  1
  Ho  Ho3  1  0.91938008  0.83876001  0.11160400  1
  Ho  Ho4  1  0.91938008  0.83876001  0.38839599  1
  Ho  Ho5  1  0.08062001  0.16124000  0.61160398  1
  Fe  Fe6  1  0.21443803  0.42887601  0.41995999  1
  Fe  Fe7  1  0.78556206  0.57112401  0.58003998  1
  Fe  Fe8  1  0.78556206  0.57112401  0.91995997  1
  Fe  Fe9  1  0.21443803  0.42887601  0.08004000  1
  Si  Si10  1  0.67015704  0.34031401  0.74999998  1
  Si  Si11  1  0.32984305  0.65968601  0.24999999  1
  Si  Si12  1  0.37728105  0.75456201  0.95968397  1
  Si  Si13  1  0.62271904  0.24543800  0.04031600  1
  Si  Si14  1  0.62271904  0.24543800  0.45968399  1
  Si  Si15  1  0.37728105  0.75456201  0.54031598  1
