# generated using pymatgen
data_Y7Pt3
_symmetry_space_group_name_H-M   'P 1'
_cell_length_a   6.30899191
_cell_length_b   9.94466686
_cell_length_c   9.94466686
_cell_angle_alpha   119.89147186
_cell_angle_beta   90.00000000
_cell_angle_gamma   90.00000000
_symmetry_Int_Tables_number   1
_chemical_formula_structural   Y7Pt3
_chemical_formula_sum   'Y14 Pt6'
_cell_volume   540.93488195
_cell_formula_units_Z   2
loop_
 _symmetry_equiv_pos_site_id
 _symmetry_equiv_pos_as_xyz
  1  'x, y, z'
loop_
 _atom_site_type_symbol
 _atom_site_label
 _atom_site_symmetry_multiplicity
 _atom_site_fract_x
 _atom_site_fract_y
 _atom_site_fract_z
 _atom_site_occupancy
  Y  Y0  1  0.44993401  0.33339701  0.66666668  1
  Y  Y1  1  0.94993401  0.66666668  0.33339703  1
  Y  Y2  1  0.25456400  0.12790100  0.87209901  1
  Y  Y3  1  0.25484200  0.74444502  0.87223803  1
  Y  Y4  1  0.25484200  0.12776200  0.25555501  1
  Y  Y5  1  0.75456401  0.87209902  0.12790104  1
  Y  Y6  1  0.75484201  0.25555501  0.12776201  1
  Y  Y7  1  0.75484201  0.87223802  0.74444504  1
  Y  Y8  1  0.44206801  0.53922501  0.46077502  1
  Y  Y9  1  0.44185601  0.92208402  0.46104804  1
  Y  Y10  1  0.44185601  0.53895201  0.07791602  1
  Y  Y11  1  0.94206801  0.46077501  0.53922502  1
  Y  Y12  1  0.94185601  0.07791600  0.53895201  1
  Y  Y13  1  0.94185601  0.46104801  0.92208402  1
  Pt  Pt14  1  0.18430700  0.81058802  0.18941203  1
  Pt  Pt15  1  0.18436600  0.37881301  0.18931402  1
  Pt  Pt16  1  0.18436600  0.81068602  0.62118704  1
  Pt  Pt17  1  0.68430701  0.18941200  0.81058801  1
  Pt  Pt18  1  0.68436601  0.62118702  0.81068603  1
  Pt  Pt19  1  0.68436601  0.18931400  0.37881301  1
