# generated using pymatgen
data_YGe2Ir
_symmetry_space_group_name_H-M   'P 1'
_cell_length_a   5.54028702
_cell_length_b   6.92625904
_cell_length_c   7.31337690
_cell_angle_alpha   90.00000000
_cell_angle_beta   90.00000000
_cell_angle_gamma   90.00000000
_symmetry_Int_Tables_number   1
_chemical_formula_structural   YGe2Ir
_chemical_formula_sum   'Y4 Ge8 Ir4'
_cell_volume   280.63959835
_cell_formula_units_Z   4
loop_
 _symmetry_equiv_pos_site_id
 _symmetry_equiv_pos_as_xyz
  1  'x, y, z'
loop_
 _atom_site_type_symbol
 _atom_site_label
 _atom_site_symmetry_multiplicity
 _atom_site_fract_x
 _atom_site_fract_y
 _atom_site_fract_z
 _atom_site_occupancy
  Y  Y0  1  0.12938700  0.75000000  0.47957501  1
  Y  Y1  1  0.37061300  0.75000000  0.97957501  1
  Y  Y2  1  0.62938700  0.25000000  0.02042500  1
  Y  Y3  1  0.87061300  0.25000000  0.52042501  1
  Ge  Ge4  1  0.12769400  0.25000000  0.87636301  1
  Ge  Ge5  1  0.37230600  0.25000000  0.37636300  1
  Ge  Ge6  1  0.62769400  0.75000000  0.62363701  1
  Ge  Ge7  1  0.87230600  0.75000000  0.12363700  1
  Ge  Ge8  1  0.10220100  0.05181300  0.17338500  1
  Ge  Ge9  1  0.10220100  0.44818700  0.17338500  1
  Ge  Ge10  1  0.39779900  0.05181300  0.67338501  1
  Ge  Ge11  1  0.39779900  0.44818700  0.67338501  1
  Ir  Ir12  1  0.60220100  0.55181300  0.32661500  1
  Ir  Ir13  1  0.60220100  0.94818699  0.32661500  1
  Ir  Ir14  1  0.89779900  0.55181300  0.82661501  1
  Ir  Ir15  1  0.89779900  0.94818699  0.82661501  1
