# generated using pymatgen
data_MnCu2SnS4
_symmetry_space_group_name_H-M   'P 1'
_cell_length_a   5.50625610
_cell_length_b   5.50625610
_cell_length_c   6.67157936
_cell_angle_alpha   114.37236023
_cell_angle_beta   114.37236023
_cell_angle_gamma   90.00000000
_symmetry_Int_Tables_number   1
_chemical_formula_structural   MnCu2SnS4
_chemical_formula_sum   'Mn1 Cu2 Sn1 S4'
_cell_volume   164.25587487
_cell_formula_units_Z   1
loop_
 _symmetry_equiv_pos_site_id
 _symmetry_equiv_pos_as_xyz
  1  'x, y, z'
loop_
 _atom_site_type_symbol
 _atom_site_label
 _atom_site_symmetry_multiplicity
 _atom_site_fract_x
 _atom_site_fract_y
 _atom_site_fract_z
 _atom_site_occupancy
  Mn  Mn0  1  0.00000000  0.00000000  0.00000000  1
  Cu  Cu1  1  0.74999995  0.24999999  0.49999993  1
  Cu  Cu2  1  0.24999994  0.74999996  0.49999992  1
  Sn  Sn3  1  0.49999995  0.49999997  -0.00000006  1
  S  S4  1  0.37919796  0.37919798  0.26917794  1
  S  S5  1  0.88997990  0.88997995  0.26917788  1
  S  S6  1  0.62080197  0.11001999  0.73082194  1
  S  S7  1  0.11001995  0.62080196  0.73082193  1
