# generated using pymatgen
data_Cs2Ce5Sb4Se5
_symmetry_space_group_name_H-M   'P 1'
_cell_length_a   6.19136381
_cell_length_b   8.56208515
_cell_length_c   10.34225368
_cell_angle_alpha   90.00000000
_cell_angle_beta   90.00000000
_cell_angle_gamma   90.00000000
_symmetry_Int_Tables_number   1
_chemical_formula_structural   Cs2Ce5Sb4Se5
_chemical_formula_sum   'Cs2 Ce5 Sb4 Se5'
_cell_volume   548.25304626
_cell_formula_units_Z   1
loop_
 _symmetry_equiv_pos_site_id
 _symmetry_equiv_pos_as_xyz
  1  'x, y, z'
loop_
 _atom_site_type_symbol
 _atom_site_label
 _atom_site_symmetry_multiplicity
 _atom_site_fract_x
 _atom_site_fract_y
 _atom_site_fract_z
 _atom_site_occupancy
  Cs  Cs0  1  0.75000002  0.49999999  0.21393701  1
  Cs  Cs1  1  0.25000001  0.49999999  0.78606302  1
  Ce  Ce2  1  0.75000002  0.00000000  0.66991102  1
  Ce  Ce3  1  0.25000001  0.00000000  0.33008901  1
  Ce  Ce4  1  0.00000000  0.00000000  0.00000000  1
  Ce  Ce5  1  0.50000002  0.00000000  -0.00000000  1
  Ce  Ce6  1  0.00000000  0.75676599  0.50000002  1
  Sb  Sb7  1  0.75000002  0.23955000  0.88966703  1
  Se  Se8  1  0.75000002  0.76044999  0.88966703  1
  Sb  Sb9  1  0.00000000  0.24323400  0.50000002  1
  Sb  Sb10  1  0.25000001  0.00000000  0.77384002  1
  Sb  Sb11  1  0.75000002  0.00000000  0.22616001  1
  Se  Se12  1  0.50000002  0.75676599  0.50000002  1
  Se  Se13  1  0.25000001  0.76044999  0.11033300  1
  Se  Se14  1  0.25000001  0.23955000  0.11033300  1
  Se  Se15  1  0.50000002  0.24323400  0.50000002  1
