# generated using pymatgen
data_Mn(CrSe2)2
_symmetry_space_group_name_H-M   'P 1'
_cell_length_a   3.56432295
_cell_length_b   9.94010830
_cell_length_c   9.94010925
_cell_angle_alpha   120.00000000
_cell_angle_beta   90.00000000
_cell_angle_gamma   90.00000000
_symmetry_Int_Tables_number   1
_chemical_formula_structural   Mn(CrSe2)2
_chemical_formula_sum   'Mn2 Cr4 Se8'
_cell_volume   304.99305659
_cell_formula_units_Z   2
loop_
 _symmetry_equiv_pos_site_id
 _symmetry_equiv_pos_as_xyz
  1  'x, y, z'
loop_
 _atom_site_type_symbol
 _atom_site_label
 _atom_site_symmetry_multiplicity
 _atom_site_fract_x
 _atom_site_fract_y
 _atom_site_fract_z
 _atom_site_occupancy
  Mn  Mn0  1  0.25000000  0.48925000  0.12974902  1
  Mn  Mn1  1  0.75000001  0.12974800  0.64049798  1
  Cr  Cr2  1  0.75000001  0.35950100  0.48924900  1
  Cr  Cr3  1  0.25000000  0.64049900  0.51075101  1
  Cr  Cr4  1  0.25000000  0.87025200  0.35950203  1
  Cr  Cr5  1  0.75000001  0.51075000  0.87025099  1
  Se  Se6  1  0.25000000  0.35143100  0.30083401  1
  Se  Se7  1  0.75000001  0.30083500  0.94940398  1
  Se  Se8  1  0.75000001  0.05059700  0.35143199  1
  Se  Se9  1  0.25000000  0.94940300  0.64856803  1
  Se  Se10  1  0.25000000  0.69916500  0.05059604  1
  Se  Se11  1  0.75000001  0.64856900  0.69916601  1
  Se  Se12  1  0.75000001  0.66666667  0.33333336  1
  Se  Se13  1  0.25000000  0.33333333  0.66666666  1
