# generated using pymatgen
data_Ho(FeGe)2
_symmetry_space_group_name_H-M   'P 1'
_cell_length_a   4.04751015
_cell_length_b   4.04751015
_cell_length_c   5.74074078
_cell_angle_alpha   110.64183807
_cell_angle_beta   110.64183807
_cell_angle_gamma   90.00000000
_symmetry_Int_Tables_number   1
_chemical_formula_structural   Ho(FeGe)2
_chemical_formula_sum   'Ho1 Fe2 Ge2'
_cell_volume   81.52569167
_cell_formula_units_Z   1
loop_
 _symmetry_equiv_pos_site_id
 _symmetry_equiv_pos_as_xyz
  1  'x, y, z'
loop_
 _atom_site_type_symbol
 _atom_site_label
 _atom_site_symmetry_multiplicity
 _atom_site_fract_x
 _atom_site_fract_y
 _atom_site_fract_z
 _atom_site_occupancy
  Ho  Ho0  1  0.00000000  0.00000000  0.00000000  1
  Fe  Fe1  1  0.74999998  0.24999999  0.50000000  1
  Fe  Fe2  1  0.25000000  0.74999998  0.50000000  1
  Ge  Ge3  1  0.61884399  0.61884398  0.23768801  1
  Ge  Ge4  1  0.38115599  0.38115599  0.76231200  1
