# generated using pymatgen
data_EuSn2
_symmetry_space_group_name_H-M   'P 1'
_cell_length_a   4.92762995
_cell_length_b   4.92762947
_cell_length_c   7.89405012
_cell_angle_alpha   90.00000000
_cell_angle_beta   90.00000000
_cell_angle_gamma   120.00000763
_symmetry_Int_Tables_number   1
_chemical_formula_structural   EuSn2
_chemical_formula_sum   'Eu2 Sn4'
_cell_volume   165.99943419
_cell_formula_units_Z   2
loop_
 _symmetry_equiv_pos_site_id
 _symmetry_equiv_pos_as_xyz
  1  'x, y, z'
loop_
 _atom_site_type_symbol
 _atom_site_label
 _atom_site_symmetry_multiplicity
 _atom_site_fract_x
 _atom_site_fract_y
 _atom_site_fract_z
 _atom_site_occupancy
  Eu  Eu0  1  0.00000000  0.00000000  0.49999999  1
  Eu  Eu1  1  0.00000000  0.00000000  0.00000000  1
  Sn  Sn2  1  0.66666670  0.33333334  0.25000000  1
  Sn  Sn3  1  0.33333338  0.66666667  0.74999999  1
  Sn  Sn4  1  0.66666670  0.33333334  0.74999999  1
  Sn  Sn5  1  0.33333338  0.66666667  0.25000000  1
