# generated using pymatgen
data_Ba2CuAs2
_symmetry_space_group_name_H-M   'P 1'
_cell_length_a   6.64529419
_cell_length_b   6.97272396
_cell_length_c   8.32472229
_cell_angle_alpha   114.75860596
_cell_angle_beta   113.52380371
_cell_angle_gamma   90.00000000
_symmetry_Int_Tables_number   1
_chemical_formula_structural   Ba2CuAs2
_chemical_formula_sum   'Ba4 Cu2 As4'
_cell_volume   314.62761438
_cell_formula_units_Z   2
loop_
 _symmetry_equiv_pos_site_id
 _symmetry_equiv_pos_as_xyz
  1  'x, y, z'
loop_
 _atom_site_type_symbol
 _atom_site_label
 _atom_site_symmetry_multiplicity
 _atom_site_fract_x
 _atom_site_fract_y
 _atom_site_fract_z
 _atom_site_occupancy
  Ba  Ba0  1  0.13905098  0.33443599  0.27810198  1
  Ba  Ba1  1  0.86094892  0.66556398  0.72189793  1
  Ba  Ba2  1  0.36094998  0.05633500  0.72189899  1
  Ba  Ba3  1  0.63904992  0.94366497  0.27810092  1
  Cu  Cu4  1  0.24999996  0.49999999  -0.00000004  1
  Cu  Cu5  1  0.74999994  0.49999999  -0.00000006  1
  As  As6  1  0.39185895  0.59419698  0.78371896  1
  As  As7  1  0.60814095  0.40580299  0.21628095  1
  As  As8  1  0.10813995  0.81047798  0.21627994  1
  As  As9  1  0.89185995  0.18952199  0.78371997  1
