# generated using pymatgen
data_Ce4(Ge3Ir)3
_symmetry_space_group_name_H-M   'P 1'
_cell_length_a   5.75923204
_cell_length_b   7.09334993
_cell_length_c   7.65134096
_cell_angle_alpha   90.00000000
_cell_angle_beta   90.00000000
_cell_angle_gamma   90.00000000
_symmetry_Int_Tables_number   1
_chemical_formula_structural   Ce4(Ge3Ir)3
_chemical_formula_sum   'Ce4 Ge9 Ir3'
_cell_volume   312.57448032
_cell_formula_units_Z   1
loop_
 _symmetry_equiv_pos_site_id
 _symmetry_equiv_pos_as_xyz
  1  'x, y, z'
loop_
 _atom_site_type_symbol
 _atom_site_label
 _atom_site_symmetry_multiplicity
 _atom_site_fract_x
 _atom_site_fract_y
 _atom_site_fract_z
 _atom_site_occupancy
  Ce  Ce0  1  0.84454899  0.25000000  0.46569800  1
  Ce  Ce1  1  0.15545100  0.75000001  0.53430200  1
  Ce  Ce2  1  0.34454900  0.75000001  0.03430200  1
  Ce  Ce3  1  0.65545099  0.25000000  0.96569800  1
  Ge  Ge4  1  0.65292499  0.75000001  0.38190900  1
  Ge  Ge5  1  0.34707500  0.25000000  0.61809100  1
  Ge  Ge6  1  0.84707499  0.75000001  0.88190900  1
  Ge  Ge7  1  0.15292500  0.25000000  0.11809100  1
  Ge  Ge8  1  0.91346099  0.55046501  0.17924700  1
  Ge  Ge9  1  0.58653900  0.94953501  0.67924700  1
  Ge  Ge10  1  0.58653900  0.55046501  0.67924700  1
  Ge  Ge11  1  0.41346100  0.44953500  0.32075300  1
  Ir  Ir12  1  0.41346100  0.05046500  0.32075300  1
  Ge  Ge13  1  0.91346099  0.94953501  0.17924700  1
  Ir  Ir14  1  0.08653900  0.05046500  0.82075300  1
  Ir  Ir15  1  0.08653900  0.44953500  0.82075300  1
