# generated using pymatgen
data_Ca2TiWO6
_symmetry_space_group_name_H-M   'P 1'
_cell_length_a   5.51600599
_cell_length_b   5.80501509
_cell_length_c   7.88733196
_cell_angle_alpha   90.00000000
_cell_angle_beta   90.06301880
_cell_angle_gamma   90.00000000
_symmetry_Int_Tables_number   1
_chemical_formula_structural   Ca2TiWO6
_chemical_formula_sum   'Ca4 Ti2 W2 O12'
_cell_volume   252.55614464
_cell_formula_units_Z   2
loop_
 _symmetry_equiv_pos_site_id
 _symmetry_equiv_pos_as_xyz
  1  'x, y, z'
loop_
 _atom_site_type_symbol
 _atom_site_label
 _atom_site_symmetry_multiplicity
 _atom_site_fract_x
 _atom_site_fract_y
 _atom_site_fract_z
 _atom_site_occupancy
  Ca  Ca0  1  0.98228100  0.43521099  0.25062101  1
  Ca  Ca1  1  0.01771900  0.56478899  0.74937898  1
  Ca  Ca2  1  0.51771900  0.93521099  0.24937900  1
  Ca  Ca3  1  0.48228100  0.06478900  0.75062099  1
  Ti  Ti4  1  1.00000000  0.00000000  0.50000000  1
  Ti  Ti5  1  0.50000000  0.49999999  0.00000001  1
  W  W6  1  0.00000000  0.00000000  0.00000000  1
  W  W7  1  0.50000000  0.49999999  0.49999999  1
  O  O8  1  0.09920800  0.03046600  0.24925000  1
  O  O9  1  0.90079200  0.96953399  0.75074999  1
  O  O10  1  0.40079200  0.53046599  0.25075000  1
  O  O11  1  0.59920800  0.46953399  0.74924999  1
  O  O12  1  0.80589200  0.70480999  0.05219901  1
  O  O13  1  0.19410800  0.29519000  0.94780098  1
  O  O14  1  0.69410800  0.20481000  0.44780100  1
  O  O15  1  0.30589200  0.79518999  0.55219899  1
  O  O16  1  0.69928000  0.19938200  0.05042901  1
  O  O17  1  0.30072000  0.80061799  0.94957098  1
  O  O18  1  0.80072000  0.69938199  0.44957100  1
  O  O19  1  0.19928000  0.30061800  0.55042899  1
