# generated using pymatgen
data_Ca2FeWO6
_symmetry_space_group_name_H-M   'P 1'
_cell_length_a   5.60131598
_cell_length_b   5.73412800
_cell_length_c   7.91683340
_cell_angle_alpha   90.00000000
_cell_angle_beta   89.96778870
_cell_angle_gamma   90.00000000
_symmetry_Int_Tables_number   1
_chemical_formula_structural   Ca2FeWO6
_chemical_formula_sum   'Ca4 Fe2 W2 O12'
_cell_volume   254.27806195
_cell_formula_units_Z   2
loop_
 _symmetry_equiv_pos_site_id
 _symmetry_equiv_pos_as_xyz
  1  'x, y, z'
loop_
 _atom_site_type_symbol
 _atom_site_label
 _atom_site_symmetry_multiplicity
 _atom_site_fract_x
 _atom_site_fract_y
 _atom_site_fract_z
 _atom_site_occupancy
  Ca  Ca0  1  0.49319600  0.21023700  0.74928999  1
  Ca  Ca1  1  0.99319600  0.78976300  0.24929001  1
  Ca  Ca2  1  0.51549400  0.30855400  0.24831200  1
  Ca  Ca3  1  0.01549400  0.69144600  0.74831199  1
  Fe  Fe4  1  0.50134400  0.76045100  0.99812799  1
  Fe  Fe5  1  0.00134400  0.23954900  0.49812799  1
  W  W6  1  0.50075200  0.75247400  0.50069600  1
  W  W7  1  0.00075200  0.24752600  0.00069600  1
  O  O8  1  0.68718200  0.04111500  0.45187000  1
  O  O9  1  0.18718200  0.95888500  0.95186999  1
  O  O10  1  0.29109200  0.47716000  0.54396600  1
  O  O11  1  0.79109200  0.52284000  0.04396601  1
  O  O12  1  0.20927400  0.94292400  0.54790399  1
  O  O13  1  0.70927400  0.05707600  0.04790401  1
  O  O14  1  0.77473600  0.53982000  0.46018201  1
  O  O15  1  0.27473600  0.46018000  0.96018199  1
  O  O16  1  0.59747600  0.76714200  0.74212300  1
  O  O17  1  0.09747600  0.23285800  0.24212300  1
  O  O18  1  0.42945400  0.72197400  0.25752900  1
  O  O19  1  0.92945400  0.27802600  0.75752900  1
