# generated using pymatgen
data_NbFe2
_symmetry_space_group_name_H-M   'P 1'
_cell_length_a   4.85319376
_cell_length_b   4.86378813
_cell_length_c   7.89180613
_cell_angle_alpha   90.00000000
_cell_angle_beta   90.00000000
_cell_angle_gamma   119.92797089
_symmetry_Int_Tables_number   1
_chemical_formula_structural   NbFe2
_chemical_formula_sum   'Nb4 Fe8'
_cell_volume   161.44480598
_cell_formula_units_Z   4
loop_
 _symmetry_equiv_pos_site_id
 _symmetry_equiv_pos_as_xyz
  1  'x, y, z'
loop_
 _atom_site_type_symbol
 _atom_site_label
 _atom_site_symmetry_multiplicity
 _atom_site_fract_x
 _atom_site_fract_y
 _atom_site_fract_z
 _atom_site_occupancy
  Nb  Nb0  1  0.66629202  0.33258400  0.68934699  1
  Nb  Nb1  1  0.33391000  0.66782000  0.81609799  1
  Nb  Nb2  1  0.33391000  0.66782000  0.18390200  1
  Nb  Nb3  1  0.66629202  0.33258400  0.31065300  1
  Fe  Fe4  1  0.65913401  0.83292800  0.49999999  1
  Fe  Fe5  1  0.17379398  0.83292800  0.49999999  1
  Fe  Fe6  1  0.82791102  0.65582200  -0.00000000  1
  Fe  Fe7  1  0.34746101  0.17412800  0.99999998  1
  Fe  Fe8  1  0.82666703  0.17412800  0.99999998  1
  Fe  Fe9  1  0.99634002  0.99268000  0.75622199  1
  Fe  Fe10  1  0.99634002  0.99268000  0.24377800  1
  Fe  Fe11  1  0.17205300  0.34410600  0.49999999  1
