# generated using pymatgen
data_HfNbC2
_symmetry_space_group_name_H-M   'P 1'
_cell_length_a   3.15698910
_cell_length_b   5.44671392
_cell_length_c   10.68841743
_cell_angle_alpha   90.00000000
_cell_angle_beta   90.00000000
_cell_angle_gamma   90.00000000
_symmetry_Int_Tables_number   1
_chemical_formula_structural   HfNbC2
_chemical_formula_sum   'Hf4 Nb4 C8'
_cell_volume   183.78965159
_cell_formula_units_Z   4
loop_
 _symmetry_equiv_pos_site_id
 _symmetry_equiv_pos_as_xyz
  1  'x, y, z'
loop_
 _atom_site_type_symbol
 _atom_site_label
 _atom_site_symmetry_multiplicity
 _atom_site_fract_x
 _atom_site_fract_y
 _atom_site_fract_z
 _atom_site_occupancy
  Hf  Hf0  1  0.74999998  0.07857200  0.85674597  1
  Hf  Hf1  1  0.74999998  0.57857201  0.64325397  1
  Hf  Hf2  1  0.24999999  0.92142801  0.14325399  1
  Hf  Hf3  1  0.24999999  0.42142801  0.35674599  1
  Nb  Nb4  1  0.24999999  0.07577800  0.59818098  1
  Nb  Nb5  1  0.74999998  0.42422201  0.09818100  1
  Nb  Nb6  1  0.24999999  0.57577801  0.90181896  1
  Nb  Nb7  1  0.74999998  0.92422201  0.40181898  1
  C  C8  1  0.24999999  0.33633300  0.74564497  1
  C  C9  1  0.74999998  0.16366700  0.24564499  1
  C  C10  1  0.24999999  0.25898400  0.00698800  1
  C  C11  1  0.74999998  0.66366701  0.25435499  1
  C  C12  1  0.24999999  0.83633301  0.75435497  1
  C  C13  1  0.74999998  0.74101601  0.99301196  1
  C  C14  1  0.74999998  0.24101600  0.50698798  1
  C  C15  1  0.24999999  0.75898401  0.49301198  1
