# generated using pymatgen
data_HoIr2
_symmetry_space_group_name_H-M   'P 1'
_cell_length_a   5.33923483
_cell_length_b   5.33950138
_cell_length_c   8.75613594
_cell_angle_alpha   90.00000000
_cell_angle_beta   90.00000000
_cell_angle_gamma   118.99902344
_symmetry_Int_Tables_number   1
_chemical_formula_structural   HoIr2
_chemical_formula_sum   'Ho4 Ir8'
_cell_volume   218.33108987
_cell_formula_units_Z   4
loop_
 _symmetry_equiv_pos_site_id
 _symmetry_equiv_pos_as_xyz
  1  'x, y, z'
loop_
 _atom_site_type_symbol
 _atom_site_label
 _atom_site_symmetry_multiplicity
 _atom_site_fract_x
 _atom_site_fract_y
 _atom_site_fract_z
 _atom_site_occupancy
  Ho  Ho0  1  0.33395497  0.66618599  0.55415200  1
  Ho  Ho1  1  0.66896001  0.33102300  0.42560600  1
  Ho  Ho2  1  0.66896001  0.33102300  0.07439400  1
  Ho  Ho3  1  0.33395497  0.66618599  0.94584801  1
  Ir  Ir4  1  0.99487904  0.00485000  0.48605800  1
  Ir  Ir5  1  0.99487904  0.00485000  0.01394200  1
  Ir  Ir6  1  0.33941400  0.16622800  0.75000001  1
  Ir  Ir7  1  0.83379199  0.66051799  0.75000001  1
  Ir  Ir8  1  0.83273502  0.16721700  0.75000001  1
  Ir  Ir9  1  0.64843497  0.82262299  0.25000000  1
  Ir  Ir10  1  0.17753298  0.35177200  0.25000000  1
  Ir  Ir11  1  0.17250395  0.82752299  0.25000000  1
