# generated using pymatgen
data_Ho4MgAlNi5
_symmetry_space_group_name_H-M   'P 1'
_cell_length_a   4.29400682
_cell_length_b   6.87382507
_cell_length_c   7.32170105
_cell_angle_alpha   89.59138489
_cell_angle_beta   90.00000000
_cell_angle_gamma   90.00000000
_symmetry_Int_Tables_number   1
_chemical_formula_structural   Ho4MgAlNi5
_chemical_formula_sum   'Ho4 Mg1 Al1 Ni5'
_cell_volume   216.10367588
_cell_formula_units_Z   1
loop_
 _symmetry_equiv_pos_site_id
 _symmetry_equiv_pos_as_xyz
  1  'x, y, z'
loop_
 _atom_site_type_symbol
 _atom_site_label
 _atom_site_symmetry_multiplicity
 _atom_site_fract_x
 _atom_site_fract_y
 _atom_site_fract_z
 _atom_site_occupancy
  Ho  Ho0  1  0.50000002  0.49901699  0.72311604  1
  Ho  Ho1  1  0.50000002  0.99600699  0.78222407  1
  Ho  Ho2  1  0.00000000  0.50009599  0.27882303  1
  Ho  Ho3  1  0.00000000  0.01040900  0.21566500  1
  Mg  Mg4  1  0.50000002  0.14735000  0.43055102  1
  Ni  Ni5  1  0.00000000  0.34832300  0.92976204  1
  Al  Al6  1  0.00000000  0.85386099  0.56821506  1
  Ni  Ni7  1  0.50000002  0.76707899  0.39858905  1
  Ni  Ni8  1  0.50000002  0.27111600  0.09351602  1
  Ni  Ni9  1  0.00000000  0.23046800  0.59895602  1
  Ni  Ni10  1  0.00000000  0.72357399  0.91088306  1
