# generated using pymatgen
data_Pr2GeAu3
_symmetry_space_group_name_H-M   'P 1'
_cell_length_a   4.58772612
_cell_length_b   4.58772659
_cell_length_c   7.98164988
_cell_angle_alpha   90.00000000
_cell_angle_beta   90.00000000
_cell_angle_gamma   119.99999237
_symmetry_Int_Tables_number   1
_chemical_formula_structural   Pr2GeAu3
_chemical_formula_sum   'Pr2 Ge1 Au3'
_cell_volume   145.48504380
_cell_formula_units_Z   1
loop_
 _symmetry_equiv_pos_site_id
 _symmetry_equiv_pos_as_xyz
  1  'x, y, z'
loop_
 _atom_site_type_symbol
 _atom_site_label
 _atom_site_symmetry_multiplicity
 _atom_site_fract_x
 _atom_site_fract_y
 _atom_site_fract_z
 _atom_site_occupancy
  Pr  Pr0  1  0.00000000  0.00000000  0.50000001  1
  Pr  Pr1  1  0.00000000  0.00000000  0.00000000  1
  Ge  Ge2  1  0.66666663  0.33333333  0.75000001  1
  Au  Au3  1  0.33333328  0.66666665  0.25000000  1
  Au  Au4  1  0.66666663  0.33333333  0.25000000  1
  Au  Au5  1  0.33333328  0.66666665  0.75000001  1
