# generated using pymatgen
data_Rb2InSbSe4
_symmetry_space_group_name_H-M   'P 1'
_cell_length_a   4.43858385
_cell_length_b   4.43858385
_cell_length_c   11.37016869
_cell_angle_alpha   90.00000000
_cell_angle_beta   90.00000000
_cell_angle_gamma   90.00000000
_symmetry_Int_Tables_number   1
_chemical_formula_structural   Rb2InSbSe4
_chemical_formula_sum   'Rb2 In1 Sb1 Se4'
_cell_volume   224.00399574
_cell_formula_units_Z   1
loop_
 _symmetry_equiv_pos_site_id
 _symmetry_equiv_pos_as_xyz
  1  'x, y, z'
loop_
 _atom_site_type_symbol
 _atom_site_label
 _atom_site_symmetry_multiplicity
 _atom_site_fract_x
 _atom_site_fract_y
 _atom_site_fract_z
 _atom_site_occupancy
  Rb  Rb0  1  0.50000002  0.50000002  0.50693801  1
  Rb  Rb1  1  0.00000000  0.00000000  0.99585703  1
  In  In2  1  0.00000000  0.50000002  0.23815501  1
  Sb  Sb3  1  0.50000002  0.00000000  0.23815501  1
  Se  Se4  1  0.00000000  0.00000000  0.36566201  1
  Se  Se5  1  0.00000000  0.50000002  0.76999902  1
  Se  Se6  1  0.50000002  0.50000002  0.09243500  1
  Se  Se7  1  0.50000002  0.00000000  0.76999902  1
