# generated using pymatgen
data_Sm(NiGe)4
_symmetry_space_group_name_H-M   'P 1'
_cell_length_a   3.63261795
_cell_length_b   6.12340736
_cell_length_c   11.50333500
_cell_angle_alpha   90.00000000
_cell_angle_beta   90.00000000
_cell_angle_gamma   107.25454712
_symmetry_Int_Tables_number   1
_chemical_formula_structural   Sm(NiGe)4
_chemical_formula_sum   'Sm2 Ni8 Ge8'
_cell_volume   244.36465073
_cell_formula_units_Z   2
loop_
 _symmetry_equiv_pos_site_id
 _symmetry_equiv_pos_as_xyz
  1  'x, y, z'
loop_
 _atom_site_type_symbol
 _atom_site_label
 _atom_site_symmetry_multiplicity
 _atom_site_fract_x
 _atom_site_fract_y
 _atom_site_fract_z
 _atom_site_occupancy
  Sm  Sm0  1  0.66188700  0.32377400  0.75000000  1
  Sm  Sm1  1  0.33811300  0.67622600  0.25000000  1
  Ni  Ni2  1  0.94870800  0.89741599  0.85461100  1
  Ni  Ni3  1  0.94870800  0.89741599  0.64538900  1
  Ni  Ni4  1  0.30121900  0.60243800  0.56853000  1
  Ni  Ni5  1  0.69878100  0.39756200  0.43147000  1
  Ni  Ni6  1  0.69878100  0.39756200  0.06853000  1
  Ni  Ni7  1  0.30121900  0.60243800  0.93147000  1
  Ni  Ni8  1  0.50000001  0.00000000  0.50000000  1
  Ni  Ni9  1  0.50000001  0.00000000  0.00000000  1
  Ge  Ge10  1  0.05129200  0.10258400  0.35461100  1
  Ge  Ge11  1  0.05129200  0.10258400  0.14538900  1
  Ge  Ge12  1  0.38322500  0.76645000  0.75000000  1
  Ge  Ge13  1  0.61677501  0.23355000  0.25000000  1
  Ge  Ge14  1  0.88217300  0.76434600  0.46110000  1
  Ge  Ge15  1  0.11782700  0.23565400  0.53890000  1
  Ge  Ge16  1  0.11782700  0.23565400  0.96110000  1
  Ge  Ge17  1  0.88217300  0.76434600  0.03890000  1
