# generated using pymatgen
data_Cu(PO4)2
_symmetry_space_group_name_H-M   'P 1'
_cell_length_a   4.59639120
_cell_length_b   5.40712595
_cell_length_c   5.40712595
_cell_angle_alpha   103.24838257
_cell_angle_beta   98.10948944
_cell_angle_gamma   98.10948944
_symmetry_Int_Tables_number   1
_chemical_formula_structural   Cu(PO4)2
_chemical_formula_sum   'Cu1 P2 O8'
_cell_volume   127.38654057
_cell_formula_units_Z   1
loop_
 _symmetry_equiv_pos_site_id
 _symmetry_equiv_pos_as_xyz
  1  'x, y, z'
loop_
 _atom_site_type_symbol
 _atom_site_label
 _atom_site_symmetry_multiplicity
 _atom_site_fract_x
 _atom_site_fract_y
 _atom_site_fract_z
 _atom_site_occupancy
  Cu  Cu0  1  -0.00000001  0.25070401  0.74929603  1
  O  O1  1  -0.00000005  0.87670903  0.12329103  1
  P  P2  1  0.58823399  0.33432601  0.25434500  1
  P  P3  1  0.41176597  0.74565502  0.66567403  1
  O  O4  1  0.28998899  0.19377501  0.07615900  1
  O  O5  1  0.71001096  0.92384103  0.80622502  1
  O  O6  1  0.21093897  0.64845002  0.84257204  1
  O  O7  1  0.25440696  0.87254803  0.47648603  1
  O  O8  1  0.49999998  0.47820001  0.52180001  1
  O  O9  1  0.74559298  0.52351402  0.12745199  1
  O  O10  1  0.78906101  0.15742800  0.35154999  1
