# generated using pymatgen
data_NaCu(GeSe2)2
_symmetry_space_group_name_H-M   'P 1'
_cell_length_a   6.09129047
_cell_length_b   6.09129047
_cell_length_c   10.50652313
_cell_angle_alpha   90.00000000
_cell_angle_beta   90.00000000
_cell_angle_gamma   116.07323456
_symmetry_Int_Tables_number   1
_chemical_formula_structural   NaCu(GeSe2)2
_chemical_formula_sum   'Na2 Cu2 Ge4 Se8'
_cell_volume   350.16008935
_cell_formula_units_Z   2
loop_
 _symmetry_equiv_pos_site_id
 _symmetry_equiv_pos_as_xyz
  1  'x, y, z'
loop_
 _atom_site_type_symbol
 _atom_site_label
 _atom_site_symmetry_multiplicity
 _atom_site_fract_x
 _atom_site_fract_y
 _atom_site_fract_z
 _atom_site_occupancy
  Na  Na0  1  0.47791698  0.47791698  0.49999999  1
  Na  Na1  1  0.47791698  0.47791698  -0.00000000  1
  Cu  Cu2  1  0.28116198  0.85278597  0.12604300  1
  Cu  Cu3  1  0.85278597  0.28116199  0.62604299  1
  Ge  Ge4  1  0.85278597  0.28116199  0.87395699  1
  Ge  Ge5  1  0.28116198  0.85278597  0.37395700  1
  Ge  Ge6  1  0.20878698  0.90513996  0.74999999  1
  Ge  Ge7  1  0.90513997  0.20878699  0.25000000  1
  Se  Se8  1  0.96633596  0.48416398  0.06794500  1
  Se  Se9  1  0.48416397  0.96633596  0.93205499  1
  Se  Se10  1  0.58633597  0.78701897  0.25000000  1
  Se  Se11  1  0.48416397  0.96633596  0.56794499  1
  Se  Se12  1  0.29428599  0.17684099  0.25000000  1
  Se  Se13  1  0.96633596  0.48416398  0.43205499  1
  Se  Se14  1  0.78701896  0.58633598  0.74999999  1
  Se  Se15  1  0.17684099  0.29428599  0.74999999  1
