# generated using pymatgen
data_Sr4Fe3CoO12
_symmetry_space_group_name_H-M   'P 1'
_cell_length_a   5.52376223
_cell_length_b   5.52375698
_cell_length_c   9.24944401
_cell_angle_alpha   90.00000000
_cell_angle_beta   90.00000000
_cell_angle_gamma   120.00005341
_symmetry_Int_Tables_number   1
_chemical_formula_structural   Sr4Fe3CoO12
_chemical_formula_sum   'Sr4 Fe3 Co1 O12'
_cell_volume   244.40808314
_cell_formula_units_Z   1
loop_
 _symmetry_equiv_pos_site_id
 _symmetry_equiv_pos_as_xyz
  1  'x, y, z'
loop_
 _atom_site_type_symbol
 _atom_site_label
 _atom_site_symmetry_multiplicity
 _atom_site_fract_x
 _atom_site_fract_y
 _atom_site_fract_z
 _atom_site_occupancy
  Sr  Sr0  1  0.33333330  0.66666666  0.24999800  1
  Sr  Sr1  1  0.66666665  0.33333333  0.74999800  1
  Sr  Sr2  1  0.99999995  1.00000000  0.49999800  1
  Sr  Sr3  1  0.99999995  1.00000000  0.99999800  1
  Fe  Fe4  1  0.33333330  0.66666666  0.88692000  1
  Fe  Fe5  1  0.66666665  0.33333333  0.38691500  1
  Fe  Fe6  1  0.66666665  0.33333333  0.11309500  1
  Co  Co7  1  0.33333330  0.66666666  0.61309600  1
  O  O8  1  0.18107898  0.36215800  0.74999800  1
  O  O9  1  0.36215899  0.18108000  0.24999800  1
  O  O10  1  0.81892099  0.18108000  0.24999800  1
  O  O11  1  0.18107896  0.81892100  0.74999800  1
  O  O12  1  0.63784196  0.81892100  0.74999800  1
  O  O13  1  0.81892097  0.63784200  0.24999800  1
  O  O14  1  0.49999898  0.50000200  0.49999900  1
  O  O15  1  0.50000200  0.00000400  0.99999900  1
  O  O16  1  0.50000198  0.49999900  0.99999900  1
  O  O17  1  0.49999895  0.99999700  0.49999900  1
  O  O18  1  0.00000298  0.50000200  0.49999900  1
  O  O19  1  0.99999697  0.49999900  0.99999900  1
