# generated using pymatgen
data_Br
_symmetry_space_group_name_H-M   'P 1'
_cell_length_a   6.41959095
_cell_length_b   7.74450779
_cell_length_c   7.74450827
_cell_angle_alpha   60.00000000
_cell_angle_beta   90.00000000
_cell_angle_gamma   90.00000000
_symmetry_Int_Tables_number   1
_chemical_formula_structural   Br
_chemical_formula_sum   Br8
_cell_volume   333.44611088
_cell_formula_units_Z   8
loop_
 _symmetry_equiv_pos_site_id
 _symmetry_equiv_pos_as_xyz
  1  'x, y, z'
loop_
 _atom_site_type_symbol
 _atom_site_label
 _atom_site_symmetry_multiplicity
 _atom_site_fract_x
 _atom_site_fract_y
 _atom_site_fract_z
 _atom_site_occupancy
  Br  Br0  1  0.00000000  0.00000000  0.00000000  1
  Br  Br1  1  0.50000000  0.00000000  0.00000000  1
  Br  Br2  1  0.75000001  0.00000000  0.70411700  1
  Br  Br3  1  0.25000000  0.70411703  -0.00000002  1
  Br  Br4  1  0.25000000  0.29588301  0.70411699  1
  Br  Br5  1  0.75000001  0.70411703  0.29588298  1
  Br  Br6  1  0.75000001  0.29588301  1.00000000  1
  Br  Br7  1  0.25000000  0.00000000  0.29588300  1
