# generated using pymatgen
data_Er2O3
_symmetry_space_group_name_H-M   'P 1'
_cell_length_a   5.22798920
_cell_length_b   6.22903442
_cell_length_c   6.22903442
_cell_angle_alpha   81.99217224
_cell_angle_beta   84.55252075
_cell_angle_gamma   84.55252075
_symmetry_Int_Tables_number   1
_chemical_formula_structural   Er2O3
_chemical_formula_sum   'Er4 O6'
_cell_volume   199.27723553
_cell_formula_units_Z   2
loop_
 _symmetry_equiv_pos_site_id
 _symmetry_equiv_pos_as_xyz
  1  'x, y, z'
loop_
 _atom_site_type_symbol
 _atom_site_label
 _atom_site_symmetry_multiplicity
 _atom_site_fract_x
 _atom_site_fract_y
 _atom_site_fract_z
 _atom_site_occupancy
  Er  Er0  1  0.49999997  0.29727199  0.70272797  1
  Er  Er1  1  0.49999996  0.70272798  0.29727198  1
  Er  Er2  1  0.01217396  0.78121898  0.78121899  1
  Er  Er3  1  0.98782597  0.21878099  0.21878096  1
  O  O4  1  0.30554396  0.60795999  0.60795998  1
  O  O5  1  0.69445597  0.39203999  0.39203997  1
  O  O6  1  0.20110697  0.50867599  0.14233100  1
  O  O7  1  0.79889296  0.49132399  0.85766896  1
  O  O8  1  0.20110699  0.14233100  0.50867598  1
  O  O9  1  0.79889294  0.85766898  0.49132397  1
