# generated using pymatgen
data_GdSeO
_symmetry_space_group_name_H-M   'P 1'
_cell_length_a   3.83533597
_cell_length_b   3.83533597
_cell_length_c   8.77040195
_cell_angle_alpha   90.00000000
_cell_angle_beta   90.00000000
_cell_angle_gamma   90.00000000
_symmetry_Int_Tables_number   1
_chemical_formula_structural   GdSeO
_chemical_formula_sum   'Gd2 Se2 O2'
_cell_volume   129.01087623
_cell_formula_units_Z   2
loop_
 _symmetry_equiv_pos_site_id
 _symmetry_equiv_pos_as_xyz
  1  'x, y, z'
loop_
 _atom_site_type_symbol
 _atom_site_label
 _atom_site_symmetry_multiplicity
 _atom_site_fract_x
 _atom_site_fract_y
 _atom_site_fract_z
 _atom_site_occupancy
  Gd  Gd0  1  0.00000000  0.50000000  0.85976800  1
  Gd  Gd1  1  0.50000000  0.00000000  0.14023200  1
  Se  Se2  1  0.50000000  0.00000000  0.67876800  1
  Se  Se3  1  0.00000000  0.50000000  0.32123200  1
  O  O4  1  0.00000000  0.00000000  0.00000000  1
  O  O5  1  0.50000000  0.50000000  0.00000000  1
