# generated using pymatgen
data_ScPt3
_symmetry_space_group_name_H-M   'P 1'
_cell_length_a   4.01242018
_cell_length_b   4.04601097
_cell_length_c   7.92622519
_cell_angle_alpha   90.00000000
_cell_angle_beta   90.00000000
_cell_angle_gamma   90.00000000
_symmetry_Int_Tables_number   1
_chemical_formula_structural   ScPt3
_chemical_formula_sum   'Sc2 Pt6'
_cell_volume   128.67668629
_cell_formula_units_Z   2
loop_
 _symmetry_equiv_pos_site_id
 _symmetry_equiv_pos_as_xyz
  1  'x, y, z'
loop_
 _atom_site_type_symbol
 _atom_site_label
 _atom_site_symmetry_multiplicity
 _atom_site_fract_x
 _atom_site_fract_y
 _atom_site_fract_z
 _atom_site_occupancy
  Sc  Sc0  1  0.00000000  0.00000000  0.24658699  1
  Sc  Sc1  1  0.00000000  0.00000000  0.75341298  1
  Pt  Pt2  1  0.49999998  0.50000000  0.24940899  1
  Pt  Pt3  1  0.49999998  0.50000000  0.75059098  1
  Pt  Pt4  1  0.00000000  0.50000000  0.49999999  1
  Pt  Pt5  1  0.00000000  0.50000000  0.00000000  1
  Pt  Pt6  1  0.49999998  0.00000000  0.49999999  1
  Pt  Pt7  1  0.49999998  0.00000000  -0.00000000  1
