# generated using pymatgen
data_Ca2Tb2V3O13
_symmetry_space_group_name_H-M   'P 1'
_cell_length_a   5.44065523
_cell_length_b   5.59591103
_cell_length_c   7.77075577
_cell_angle_alpha   89.88745880
_cell_angle_beta   89.95951080
_cell_angle_gamma   89.24320221
_symmetry_Int_Tables_number   1
_chemical_formula_structural   Ca2Tb2V3O13
_chemical_formula_sum   'Ca2 Tb2 V3 O13'
_cell_volume   236.56279429
_cell_formula_units_Z   1
loop_
 _symmetry_equiv_pos_site_id
 _symmetry_equiv_pos_as_xyz
  1  'x, y, z'
loop_
 _atom_site_type_symbol
 _atom_site_label
 _atom_site_symmetry_multiplicity
 _atom_site_fract_x
 _atom_site_fract_y
 _atom_site_fract_z
 _atom_site_occupancy
  Ca  Ca0  1  0.49107897  0.53067501  0.74835998  1
  Ca  Ca1  1  0.00268400  0.02069600  0.74991900  1
  Tb  Tb2  1  0.50856797  0.46168501  0.25024697  1
  Tb  Tb3  1  0.99007494  0.93364302  0.25021995  1
  V  V4  1  0.48868397  0.98299002  0.00733696  1
  V  V5  1  0.00382299  0.47660701  0.49329099  1
  V  V6  1  0.49376897  0.99286402  0.51132897  1
  O  O7  1  0.00271799  0.47771301  0.98906099  1
  O  O8  1  0.56893696  0.98367202  0.75320996  1
  O  O9  1  0.91933095  0.48823001  0.74705396  1
  O  O10  1  0.39947698  0.02843100  0.24655299  1
  O  O11  1  0.07752699  0.53300801  0.25308599  1
  O  O12  1  0.20489798  0.80432202  0.97557798  1
  O  O13  1  0.29321598  0.30345501  0.53718699  1
  O  O14  1  0.80674496  0.20905100  0.44594397  1
  O  O15  1  0.71885296  0.73385102  0.05316496  1
  O  O16  1  0.80460696  0.20627900  0.05489097  1
  O  O17  1  0.72294196  0.73099402  0.44724396  1
  O  O18  1  0.20239898  0.80265202  0.52576598  1
  O  O19  1  0.29966598  0.29918001  0.96055599  1
