# generated using pymatgen
data_ScPt3
_symmetry_space_group_name_H-M   'P 1'
_cell_length_a   3.90293908
_cell_length_b   3.90293908
_cell_length_c   16.61379623
_cell_angle_alpha   90.00000000
_cell_angle_beta   90.00000000
_cell_angle_gamma   90.00000000
_symmetry_Int_Tables_number   1
_chemical_formula_structural   ScPt3
_chemical_formula_sum   'Sc4 Pt12'
_cell_volume   253.07685274
_cell_formula_units_Z   4
loop_
 _symmetry_equiv_pos_site_id
 _symmetry_equiv_pos_as_xyz
  1  'x, y, z'
loop_
 _atom_site_type_symbol
 _atom_site_label
 _atom_site_symmetry_multiplicity
 _atom_site_fract_x
 _atom_site_fract_y
 _atom_site_fract_z
 _atom_site_occupancy
  Sc  Sc0  1  0.49999999  0.49999999  0.38276102  1
  Sc  Sc1  1  0.00000000  0.00000000  0.88215704  1
  Sc  Sc2  1  0.00000000  0.00000000  0.11880801  1
  Sc  Sc3  1  0.49999999  0.49999999  0.61866503  1
  Pt  Pt4  1  0.49999999  0.00000000  0.00207400  1
  Pt  Pt5  1  -0.00000000  0.49999999  0.50031402  1
  Pt  Pt6  1  0.49999999  0.00000000  0.50031402  1
  Pt  Pt7  1  -0.00000000  0.49999999  0.00207400  1
  Pt  Pt8  1  -0.00000000  0.49999999  0.24789201  1
  Pt  Pt9  1  0.49999999  0.00000000  0.75001203  1
  Pt  Pt10  1  0.49999999  0.00000000  0.24789201  1
  Pt  Pt11  1  -0.00000000  0.49999999  0.75001203  1
  Pt  Pt12  1  0.00000000  0.00000000  0.62490603  1
  Pt  Pt13  1  0.00000000  0.00000000  0.37304902  1
  Pt  Pt14  1  0.49999999  0.49999999  0.87578304  1
  Pt  Pt15  1  0.49999999  0.49999999  0.12328801  1
