# generated using pymatgen
data_La2Pd2Pb
_symmetry_space_group_name_H-M   'P 1'
_cell_length_a   3.78154206
_cell_length_b   7.96147108
_cell_length_c   7.96147108
_cell_angle_alpha   90.00000000
_cell_angle_beta   90.00000000
_cell_angle_gamma   90.00000000
_symmetry_Int_Tables_number   1
_chemical_formula_structural   La2Pd2Pb
_chemical_formula_sum   'La4 Pd4 Pb2'
_cell_volume   239.69312597
_cell_formula_units_Z   2
loop_
 _symmetry_equiv_pos_site_id
 _symmetry_equiv_pos_as_xyz
  1  'x, y, z'
loop_
 _atom_site_type_symbol
 _atom_site_label
 _atom_site_symmetry_multiplicity
 _atom_site_fract_x
 _atom_site_fract_y
 _atom_site_fract_z
 _atom_site_occupancy
  La  La0  1  0.49999999  0.32476000  0.82475999  1
  La  La1  1  0.49999999  0.67523999  0.17524000  1
  La  La2  1  0.49999999  0.82475999  0.67523999  1
  La  La3  1  0.49999999  0.17524000  0.32476000  1
  Pd  Pd4  1  0.00000000  0.12435500  0.62435499  1
  Pd  Pd5  1  -0.00000000  0.37564500  0.12435500  1
  Pd  Pd6  1  -0.00000000  0.87564499  0.37564500  1
  Pd  Pd7  1  -0.00000000  0.62435499  0.87564499  1
  Pb  Pb8  1  0.00000000  0.00000000  0.00000000  1
  Pb  Pb9  1  0.00000000  0.49999999  0.49999999  1
