# generated using pymatgen
data_Zr3Nb3Ir2
_symmetry_space_group_name_H-M   'P 1'
_cell_length_a   5.20066690
_cell_length_b   5.20066690
_cell_length_c   5.20066690
_cell_angle_alpha   90.00000000
_cell_angle_beta   90.00000000
_cell_angle_gamma   90.00000000
_symmetry_Int_Tables_number   1
_chemical_formula_structural   Zr3Nb3Ir2
_chemical_formula_sum   'Zr3 Nb3 Ir2'
_cell_volume   140.66210623
_cell_formula_units_Z   1
loop_
 _symmetry_equiv_pos_site_id
 _symmetry_equiv_pos_as_xyz
  1  'x, y, z'
loop_
 _atom_site_type_symbol
 _atom_site_label
 _atom_site_symmetry_multiplicity
 _atom_site_fract_x
 _atom_site_fract_y
 _atom_site_fract_z
 _atom_site_occupancy
  Zr  Zr0  1  0.00000000  0.50000001  0.75168301  1
  Zr  Zr1  1  0.50000001  0.24831700  0.00000000  1
  Zr  Zr2  1  0.75168301  0.00000000  0.50000001  1
  Nb  Nb3  1  0.00000000  0.50000001  0.24831700  1
  Nb  Nb4  1  0.50000001  0.75168301  0.00000000  1
  Nb  Nb5  1  0.24831700  0.00000000  0.50000001  1
  Ir  Ir6  1  0.50000001  0.50000001  0.50000001  1
  Ir  Ir7  1  0.00000000  0.00000000  0.00000000  1
