# generated using pymatgen
data_Ce2Ge2Ir
_symmetry_space_group_name_H-M   'P 1'
_cell_length_a   4.33954811
_cell_length_b   5.94855785
_cell_length_c   9.41365623
_cell_angle_alpha   82.74671936
_cell_angle_beta   76.67395020
_cell_angle_gamma   68.60741425
_symmetry_Int_Tables_number   1
_chemical_formula_structural   Ce2Ge2Ir
_chemical_formula_sum   'Ce4 Ge4 Ir2'
_cell_volume   219.93129185
_cell_formula_units_Z   2
loop_
 _symmetry_equiv_pos_site_id
 _symmetry_equiv_pos_as_xyz
  1  'x, y, z'
loop_
 _atom_site_type_symbol
 _atom_site_label
 _atom_site_symmetry_multiplicity
 _atom_site_fract_x
 _atom_site_fract_y
 _atom_site_fract_z
 _atom_site_occupancy
  Ce  Ce0  1  0.31512400  0.25954699  0.11020499  1
  Ce  Ce1  1  0.68487602  0.74045297  0.88979500  1
  Ce  Ce2  1  0.49810400  0.32991399  0.67387800  1
  Ce  Ce3  1  0.50189602  0.67008598  0.32612199  1
  Ge  Ge4  1  0.00611304  0.86117797  0.12659598  1
  Ge  Ge5  1  0.99388698  0.13882200  0.87340401  1
  Ge  Ge6  1  0.84982901  0.73374697  0.56659499  1
  Ge  Ge7  1  0.15017101  0.26625299  0.43340500  1
  Ir  Ir8  1  0.22656803  0.92207297  0.62479099  1
  Ir  Ir9  1  0.77343199  0.07792700  0.37520900  1
