# generated using pymatgen
data_Nd6CoSb
_symmetry_space_group_name_H-M   'P 1'
_cell_length_a   6.09889507
_cell_length_b   6.96746302
_cell_length_c   9.76127911
_cell_angle_alpha   90.00000000
_cell_angle_beta   90.00000000
_cell_angle_gamma   90.00000000
_symmetry_Int_Tables_number   1
_chemical_formula_structural   Nd6CoSb
_chemical_formula_sum   'Nd12 Co2 Sb2'
_cell_volume   414.79409453
_cell_formula_units_Z   2
loop_
 _symmetry_equiv_pos_site_id
 _symmetry_equiv_pos_as_xyz
  1  'x, y, z'
loop_
 _atom_site_type_symbol
 _atom_site_label
 _atom_site_symmetry_multiplicity
 _atom_site_fract_x
 _atom_site_fract_y
 _atom_site_fract_z
 _atom_site_occupancy
  Nd  Nd0  1  0.65617299  0.16535800  0.05871100  1
  Nd  Nd1  1  0.34739900  0.54171800  0.25000000  1
  Nd  Nd2  1  0.84382699  0.66535800  0.05871100  1
  Nd  Nd3  1  0.15617300  0.33464200  0.94128899  1
  Nd  Nd4  1  0.34382700  0.83464200  0.94128899  1
  Nd  Nd5  1  0.65260099  0.45828200  0.74999999  1
  Nd  Nd6  1  0.84739899  0.95828200  0.74999999  1
  Nd  Nd7  1  0.34382700  0.83464200  0.55871099  1
  Nd  Nd8  1  0.15617300  0.33464200  0.55871099  1
  Nd  Nd9  1  0.84382699  0.66535800  0.44128900  1
  Nd  Nd10  1  0.15260100  0.04171800  0.25000000  1
  Nd  Nd11  1  0.65617299  0.16535800  0.44128900  1
  Co  Co12  1  0.93343799  0.36260400  0.25000000  1
  Sb  Sb13  1  0.43343799  0.13739600  0.74999999  1
  Co  Co14  1  0.56656199  0.86260400  0.25000000  1
  Sb  Sb15  1  0.06656200  0.63739600  0.74999999  1
