# generated using pymatgen
data_CeCo
_symmetry_space_group_name_H-M   'P 1'
_cell_length_a   4.42332220
_cell_length_b   7.64971113
_cell_length_c   11.96897602
_cell_angle_alpha   90.00000000
_cell_angle_beta   90.00000000
_cell_angle_gamma   90.00000000
_symmetry_Int_Tables_number   1
_chemical_formula_structural   CeCo
_chemical_formula_sum   'Ce10 Co10'
_cell_volume   404.99588232
_cell_formula_units_Z   10
loop_
 _symmetry_equiv_pos_site_id
 _symmetry_equiv_pos_as_xyz
  1  'x, y, z'
loop_
 _atom_site_type_symbol
 _atom_site_label
 _atom_site_symmetry_multiplicity
 _atom_site_fract_x
 _atom_site_fract_y
 _atom_site_fract_z
 _atom_site_occupancy
  Ce  Ce0  1  0.49999998  0.49999999  0.67727700  1
  Ce  Ce1  1  0.00000000  0.00000000  0.32272300  1
  Ce  Ce2  1  0.00000000  0.70696699  0.83754400  1
  Ce  Ce3  1  0.00000000  0.80161499  0.58397800  1
  Ce  Ce4  1  0.00000000  0.49999999  0.25163900  1
  Ce  Ce5  1  0.49999998  0.20696700  0.16245600  1
  Ce  Ce6  1  0.00000000  0.00000000  0.01166600  1
  Co  Co7  1  0.00000000  0.29303299  0.83754400  1
  Ce  Ce8  1  0.49999998  0.49999999  0.98833400  1
  Ce  Ce9  1  0.49999998  0.79303299  0.16245600  1
  Ce  Ce10  1  0.49999998  0.30161499  0.41602200  1
  Co  Co11  1  0.00000000  0.19838500  0.58397800  1
  Co  Co12  1  0.49999998  0.69838499  0.41602200  1
  Co  Co13  1  0.49999998  0.00000000  0.74836100  1
  Co  Co14  1  0.49999998  0.00000000  0.53300000  1
  Co  Co15  1  0.00000000  0.49999999  0.46700000  1
  Co  Co16  1  0.00000000  0.32784399  0.06431900  1
  Co  Co17  1  0.00000000  0.67215599  0.06431900  1
  Co  Co18  1  0.49999998  0.17215600  0.93568100  1
  Co  Co19  1  0.49999998  0.82784399  0.93568100  1
