# generated using pymatgen
data_Er3Ga9Pt2
_symmetry_space_group_name_H-M   'P 1'
_cell_length_a   4.29953384
_cell_length_b   8.15825462
_cell_length_c   8.15825462
_cell_angle_alpha   73.08110046
_cell_angle_beta   74.72167206
_cell_angle_gamma   74.72167206
_symmetry_Int_Tables_number   1
_chemical_formula_structural   Er3Ga9Pt2
_chemical_formula_sum   'Er3 Ga9 Pt2'
_cell_volume   258.63485817
_cell_formula_units_Z   1
loop_
 _symmetry_equiv_pos_site_id
 _symmetry_equiv_pos_as_xyz
  1  'x, y, z'
loop_
 _atom_site_type_symbol
 _atom_site_label
 _atom_site_symmetry_multiplicity
 _atom_site_fract_x
 _atom_site_fract_y
 _atom_site_fract_z
 _atom_site_occupancy
  Er  Er0  1  0.50000001  0.50000002  0.50000004  1
  Er  Er1  1  0.20173300  0.79826703  0.79826706  1
  Er  Er2  1  0.79826703  0.20173301  0.20173302  1
  Ga  Ga3  1  0.36359200  0.91650403  0.35631205  1
  Ga  Ga4  1  0.63640802  0.08349600  0.64368803  1
  Ga  Ga5  1  0.36359101  0.35631201  0.91650505  1
  Ga  Ga6  1  0.63640902  0.64368802  0.08349503  1
  Ga  Ga7  1  0.15673200  0.21020801  0.47632803  1
  Ga  Ga8  1  0.84326802  0.78979203  0.52367205  1
  Ga  Ga9  1  0.15673200  0.47632802  0.21020803  1
  Ga  Ga10  1  0.84326802  0.52367202  0.78979205  1
  Ga  Ga11  1  0.50000002  0.00000000  1.00000004  1
  Pt  Pt12  1  -0.00000000  0.18182901  0.81817104  1
  Pt  Pt13  1  -0.00000001  0.81817103  0.18182904  1
