# generated using pymatgen
data_Li2FeO4
_symmetry_space_group_name_H-M   'P 1'
_cell_length_a   5.89893961
_cell_length_b   5.89893913
_cell_length_c   5.97512913
_cell_angle_alpha   90.65123749
_cell_angle_beta   118.94597626
_cell_angle_gamma   119.88438416
_symmetry_Int_Tables_number   1
_chemical_formula_structural   Li2FeO4
_chemical_formula_sum   'Li4 Fe2 O8'
_cell_volume   148.75956721
_cell_formula_units_Z   2
loop_
 _symmetry_equiv_pos_site_id
 _symmetry_equiv_pos_as_xyz
  1  'x, y, z'
loop_
 _atom_site_type_symbol
 _atom_site_label
 _atom_site_symmetry_multiplicity
 _atom_site_fract_x
 _atom_site_fract_y
 _atom_site_fract_z
 _atom_site_occupancy
  Li  Li0  1  0.00000000  0.00000000  0.50000001  1
  Li  Li1  1  0.50000001  0.49999999  0.50000001  1
  Li  Li2  1  0.50000001  0.49999999  -0.00000000  1
  Li  Li3  1  0.50000001  0.00000000  0.00000002  1
  Fe  Fe4  1  -0.00000000  0.49999999  -0.00000003  1
  Fe  Fe5  1  0.00000000  0.00000000  0.00000000  1
  O  O6  1  0.45067401  0.23253100  0.20596201  1
  O  O7  1  0.97343202  0.75528899  0.20596201  1
  O  O8  1  0.48252201  0.73065799  0.21317899  1
  O  O9  1  0.98368502  0.22854700  0.21223104  1
  O  O10  1  0.01631500  0.77145299  0.78776897  1
  O  O11  1  0.51747801  0.26934300  0.78682102  1
  O  O12  1  0.02656800  0.24471100  0.79403800  1
  O  O13  1  0.54932601  0.76746899  0.79403800  1
