# generated using pymatgen
data_HoLu3
_symmetry_space_group_name_H-M   'P 1'
_cell_length_a   5.47053003
_cell_length_b   6.78943777
_cell_length_c   6.78943729
_cell_angle_alpha   120.00000000
_cell_angle_beta   90.00000000
_cell_angle_gamma   90.00000000
_symmetry_Int_Tables_number   1
_chemical_formula_structural   HoLu3
_chemical_formula_sum   'Ho2 Lu6'
_cell_volume   218.38742726
_cell_formula_units_Z   2
loop_
 _symmetry_equiv_pos_site_id
 _symmetry_equiv_pos_as_xyz
  1  'x, y, z'
loop_
 _atom_site_type_symbol
 _atom_site_label
 _atom_site_symmetry_multiplicity
 _atom_site_fract_x
 _atom_site_fract_y
 _atom_site_fract_z
 _atom_site_occupancy
  Ho  Ho0  1  0.25000000  0.66666667  0.33333329  1
  Ho  Ho1  1  0.75000000  0.33333333  0.66666665  1
  Lu  Lu2  1  0.75000000  0.83331200  0.16668794  1
  Lu  Lu3  1  0.75000000  0.33333333  0.16664531  1
  Lu  Lu4  1  0.75000000  0.83331200  0.66662395  1
  Lu  Lu5  1  0.25000000  0.16668800  0.83335466  1
  Lu  Lu6  1  0.25000000  0.66662400  0.83331196  1
  Lu  Lu7  1  0.25000000  0.16668800  0.33337599  1
