# generated using pymatgen
data_CeSi2
_symmetry_space_group_name_H-M   'P 1'
_cell_length_a   4.24489021
_cell_length_b   4.24488974
_cell_length_c   16.61801720
_cell_angle_alpha   90.00000000
_cell_angle_beta   90.00000000
_cell_angle_gamma   120.00000763
_symmetry_Int_Tables_number   1
_chemical_formula_structural   CeSi2
_chemical_formula_sum   'Ce4 Si8'
_cell_volume   259.32398004
_cell_formula_units_Z   4
loop_
 _symmetry_equiv_pos_site_id
 _symmetry_equiv_pos_as_xyz
  1  'x, y, z'
loop_
 _atom_site_type_symbol
 _atom_site_label
 _atom_site_symmetry_multiplicity
 _atom_site_fract_x
 _atom_site_fract_y
 _atom_site_fract_z
 _atom_site_occupancy
  Ce  Ce0  1  0.00000000  0.00000000  0.25000000  1
  Ce  Ce1  1  0.00000000  0.00000000  0.74999999  1
  Ce  Ce2  1  0.00000000  0.00000000  0.49999999  1
  Ce  Ce3  1  0.00000000  0.00000000  0.00000000  1
  Si  Si4  1  0.33333337  0.66666665  0.15793600  1
  Si  Si5  1  0.33333337  0.66666665  0.34206400  1
  Si  Si6  1  0.66666666  0.33333333  0.84206399  1
  Si  Si7  1  0.66666666  0.33333333  0.65793599  1
  Si  Si8  1  0.33333337  0.66666665  0.88939299  1
  Si  Si9  1  0.33333337  0.66666665  0.61060699  1
  Si  Si10  1  0.66666666  0.33333333  0.11060700  1
  Si  Si11  1  0.66666666  0.33333333  0.38939300  1
