# generated using pymatgen
data_Y2S3
_symmetry_space_group_name_H-M   'P 1'
_cell_length_a   4.00969219
_cell_length_b   9.67063522
_cell_length_c   12.79138947
_cell_angle_alpha   90.00000000
_cell_angle_beta   90.00000000
_cell_angle_gamma   90.00000000
_symmetry_Int_Tables_number   1
_chemical_formula_structural   Y2S3
_chemical_formula_sum   'Y8 S12'
_cell_volume   496.00237859
_cell_formula_units_Z   4
loop_
 _symmetry_equiv_pos_site_id
 _symmetry_equiv_pos_as_xyz
  1  'x, y, z'
loop_
 _atom_site_type_symbol
 _atom_site_label
 _atom_site_symmetry_multiplicity
 _atom_site_fract_x
 _atom_site_fract_y
 _atom_site_fract_z
 _atom_site_occupancy
  Y  Y0  1  0.74999996  0.99608998  0.76365897  1
  Y  Y1  1  0.24999999  0.00391000  0.23634099  1
  Y  Y2  1  0.74999996  0.49608999  0.73634097  1
  Y  Y3  1  0.24999999  0.50390999  0.26365899  1
  Y  Y4  1  0.24999999  0.80644698  0.52729998  1
  Y  Y5  1  0.24999999  0.30644699  0.97269996  1
  Y  Y6  1  0.74999996  0.69355298  0.02730000  1
  Y  Y7  1  0.74999996  0.19355300  0.47269998  1
  S  S8  1  0.74999996  0.75280298  0.66762798  1
  S  S9  1  0.24999999  0.74719698  0.16762799  1
  S  S10  1  0.74999996  0.44729899  0.11190100  1
  S  S11  1  0.24999999  0.55270099  0.88809897  1
  S  S12  1  0.74999996  0.25280299  0.83237197  1
  S  S13  1  0.74999996  0.94729898  0.38809899  1
  S  S14  1  0.24999999  0.05270100  0.61190098  1
  S  S15  1  0.24999999  0.24719699  0.33237199  1
  S  S16  1  0.74999996  0.07376100  0.10622600  1
  S  S17  1  0.74999996  0.57376099  0.39377399  1
  S  S18  1  0.24999999  0.92623898  0.89377397  1
  S  S19  1  0.24999999  0.42623899  0.60622598  1
