# generated using pymatgen
data_Pr2Co17
_symmetry_space_group_name_H-M   'P 1'
_cell_length_a   6.28574800
_cell_length_b   6.28574800
_cell_length_c   6.28574800
_cell_angle_alpha   82.69301605
_cell_angle_beta   82.69301605
_cell_angle_gamma   82.69301605
_symmetry_Int_Tables_number   1
_chemical_formula_structural   Pr2Co17
_chemical_formula_sum   'Pr2 Co17'
_cell_volume   242.77605593
_cell_formula_units_Z   1
loop_
 _symmetry_equiv_pos_site_id
 _symmetry_equiv_pos_as_xyz
  1  'x, y, z'
loop_
 _atom_site_type_symbol
 _atom_site_label
 _atom_site_symmetry_multiplicity
 _atom_site_fract_x
 _atom_site_fract_y
 _atom_site_fract_z
 _atom_site_occupancy
  Pr  Pr0  1  0.34472902  0.34472901  0.34472904  1
  Pr  Pr1  1  0.65527103  0.65527102  0.65527107  1
  Co  Co2  1  0.00000000  0.00000000  0.50000001  1
  Co  Co3  1  0.50000001  0.00000000  0.00000002  1
  Co  Co4  1  0.00000001  0.50000001  0.00000002  1
  Co  Co5  1  0.28923502  0.71076502  0.00000004  1
  Co  Co6  1  0.00000001  0.28923501  0.71076503  1
  Co  Co7  1  0.71076502  0.00000000  0.28923504  1
  Co  Co8  1  0.00000001  0.71076502  0.28923504  1
  Co  Co9  1  0.28923501  0.00000000  0.71076503  1
  Co  Co10  1  0.71076502  0.28923501  0.00000005  1
  Co  Co11  1  0.65498703  0.65498702  0.15019906  1
  Co  Co12  1  0.15019902  0.65498702  0.65498705  1
  Co  Co13  1  0.65498702  0.15019900  0.65498705  1
  Co  Co14  1  0.34501302  0.34501301  0.84980105  1
  Co  Co15  1  0.84980103  0.34501301  0.34501306  1
  Co  Co16  1  0.34501303  0.84980102  0.34501306  1
  Co  Co17  1  0.09644200  0.09644200  0.09644201  1
  Co  Co18  1  0.90355804  0.90355802  0.90355810  1
