# generated using pymatgen
data_Lu2Si3
_symmetry_space_group_name_H-M   'P 1'
_cell_length_a   4.10006380
_cell_length_b   5.13977003
_cell_length_c   5.13977003
_cell_angle_alpha   80.84610748
_cell_angle_beta   66.49327087
_cell_angle_gamma   66.49327087
_symmetry_Int_Tables_number   1
_chemical_formula_structural   Lu2Si3
_chemical_formula_sum   'Lu2 Si3'
_cell_volume   91.08129558
_cell_formula_units_Z   1
loop_
 _symmetry_equiv_pos_site_id
 _symmetry_equiv_pos_as_xyz
  1  'x, y, z'
loop_
 _atom_site_type_symbol
 _atom_site_label
 _atom_site_symmetry_multiplicity
 _atom_site_fract_x
 _atom_site_fract_y
 _atom_site_fract_z
 _atom_site_occupancy
  Lu  Lu0  1  0.00000000  0.00000000  0.00000000  1
  Lu  Lu1  1  0.39875502  0.39846401  0.80402698  1
  Si  Si2  1  0.60124503  0.60153601  0.19597296  1
  Si  Si3  1  0.79721904  0.80402701  0.60153495  1
  Si  Si4  1  0.20278101  0.19597300  0.39846499  1
