# generated using pymatgen
data_BaNa2Si2AgO8
_symmetry_space_group_name_H-M   'P 1'
_cell_length_a   5.56375217
_cell_length_b   5.56375217
_cell_length_c   7.08880520
_cell_angle_alpha   90.00000000
_cell_angle_beta   90.00000000
_cell_angle_gamma   120.00000000
_symmetry_Int_Tables_number   1
_chemical_formula_structural   BaNa2Si2AgO8
_chemical_formula_sum   'Ba1 Na2 Si2 Ag1 O8'
_cell_volume   190.03746467
_cell_formula_units_Z   1
loop_
 _symmetry_equiv_pos_site_id
 _symmetry_equiv_pos_as_xyz
  1  'x, y, z'
loop_
 _atom_site_type_symbol
 _atom_site_label
 _atom_site_symmetry_multiplicity
 _atom_site_fract_x
 _atom_site_fract_y
 _atom_site_fract_z
 _atom_site_occupancy
  Ba  Ba0  1  0.00000000  0.00000000  0.49999999  1
  Na  Na1  1  0.33333335  0.66666670  0.83539398  1
  Na  Na2  1  0.66666666  0.33333335  0.16460600  1
  Ag  Ag3  1  0.00000000  0.00000000  0.00000000  1
  Si  Si4  1  0.33333335  0.66666670  0.27001499  1
  Si  Si5  1  0.66666666  0.33333335  0.72998498  1
  O  O6  1  0.33333335  0.66666670  0.49830399  1
  O  O7  1  0.66666666  0.33333335  0.50169599  1
  O  O8  1  0.64967102  0.82483505  0.17735700  1
  O  O9  1  0.17516403  0.82483505  0.17735700  1
  O  O10  1  0.17516401  0.35032802  0.17735700  1
  O  O11  1  0.35032900  0.17516501  0.82264298  1
  O  O12  1  0.82483598  0.17516501  0.82264298  1
  O  O13  1  0.82483600  0.64967204  0.82264298  1
