# generated using pymatgen
data_MgTl2Zn
_symmetry_space_group_name_H-M   'P 1'
_cell_length_a   4.90342093
_cell_length_b   6.55082512
_cell_length_c   6.55082512
_cell_angle_alpha   113.71629333
_cell_angle_beta   90.00000000
_cell_angle_gamma   90.00000000
_symmetry_Int_Tables_number   1
_chemical_formula_structural   MgTl2Zn
_chemical_formula_sum   'Mg2 Tl4 Zn2'
_cell_volume   192.65151377
_cell_formula_units_Z   2
loop_
 _symmetry_equiv_pos_site_id
 _symmetry_equiv_pos_as_xyz
  1  'x, y, z'
loop_
 _atom_site_type_symbol
 _atom_site_label
 _atom_site_symmetry_multiplicity
 _atom_site_fract_x
 _atom_site_fract_y
 _atom_site_fract_z
 _atom_site_occupancy
  Mg  Mg0  1  0.25000000  0.63621297  0.36378697  1
  Mg  Mg1  1  0.75000001  0.36378699  0.63621297  1
  Tl  Tl2  1  0.75000001  0.30974399  0.12148199  1
  Tl  Tl3  1  0.25000000  0.69025597  0.87851796  1
  Tl  Tl4  1  0.25000000  0.12148200  0.30974399  1
  Tl  Tl5  1  0.75000001  0.87851796  0.69025596  1
  Zn  Zn6  1  0.25000000  0.17537699  0.82462297  1
  Zn  Zn7  1  0.75000001  0.82462297  0.17537697  1
