# generated using pymatgen
data_ZnCu2Pt3S8
_symmetry_space_group_name_H-M   'P 1'
_cell_length_a   5.86549330
_cell_length_b   5.90831280
_cell_length_c   6.86404705
_cell_angle_alpha   89.99967957
_cell_angle_beta   89.99928284
_cell_angle_gamma   87.88887787
_symmetry_Int_Tables_number   1
_chemical_formula_structural   ZnCu2Pt3S8
_chemical_formula_sum   'Zn1 Cu2 Pt3 S8'
_cell_volume   237.71325665
_cell_formula_units_Z   1
loop_
 _symmetry_equiv_pos_site_id
 _symmetry_equiv_pos_as_xyz
  1  'x, y, z'
loop_
 _atom_site_type_symbol
 _atom_site_label
 _atom_site_symmetry_multiplicity
 _atom_site_fract_x
 _atom_site_fract_y
 _atom_site_fract_z
 _atom_site_occupancy
  Zn  Zn0  1  0.49999297  0.49999500  0.75751800  1
  Cu  Cu1  1  0.49999495  0.99999299  0.49135099  1
  Cu  Cu2  1  0.50003197  0.50000700  0.25421399  1
  Pt  Pt3  1  0.49999895  0.99998699  0.99380400  1
  Pt  Pt4  1  0.00000396  0.99999099  0.00180700  1
  Pt  Pt5  1  0.99999194  0.99999699  0.49701999  1
  S  S6  1  0.26782497  0.67746000  0.00520100  1
  S  S7  1  0.26189197  0.67313900  0.50023900  1
  S  S8  1  0.26001599  0.17723900  0.24529200  1
  S  S9  1  0.25370299  0.17345200  0.75141700  1
  S  S10  1  0.73999195  0.82277900  0.24528499  1
  S  S11  1  0.74627395  0.82655200  0.75141399  1
  S  S12  1  0.73810497  0.32686400  0.50024699  1
  S  S13  1  0.73217897  0.32254500  0.00519199  1
