# generated using pymatgen
data_Na2TiO4
_symmetry_space_group_name_H-M   'P 1'
_cell_length_a   5.37614775
_cell_length_b   5.37627506
_cell_length_c   6.70519781
_cell_angle_alpha   66.36444855
_cell_angle_beta   90.00008392
_cell_angle_gamma   90.00022888
_symmetry_Int_Tables_number   1
_chemical_formula_structural   Na2TiO4
_chemical_formula_sum   'Na4 Ti2 O8'
_cell_volume   177.54721194
_cell_formula_units_Z   2
loop_
 _symmetry_equiv_pos_site_id
 _symmetry_equiv_pos_as_xyz
  1  'x, y, z'
loop_
 _atom_site_type_symbol
 _atom_site_label
 _atom_site_symmetry_multiplicity
 _atom_site_fract_x
 _atom_site_fract_y
 _atom_site_fract_z
 _atom_site_occupancy
  Na  Na0  1  0.49999906  0.85311999  0.29379596  1
  Na  Na1  1  0.00000203  0.35313100  0.29378099  1
  Na  Na2  1  0.00000205  0.64203100  0.71597498  1
  Na  Na3  1  0.49999901  0.14203500  0.71596196  1
  Ti  Ti4  1  0.49999403  0.50089300  0.99825496  1
  Ti  Ti5  1  0.00000300  0.00086300  0.99825599  1
  O  O6  1  0.99999906  0.83758999  0.32481093  1
  O  O7  1  0.50000102  0.33759100  0.32480497  1
  O  O8  1  0.50000105  0.65769100  0.68458896  1
  O  O9  1  0.99999900  0.15770200  0.68457194  1
  O  O10  1  0.25000602  0.25434300  0.99129997  1
  O  O11  1  0.74999605  0.75433499  0.99129894  1
  O  O12  1  0.25000505  0.75433299  0.99129897  1
  O  O13  1  0.74999401  0.25434200  0.99129895  1
