# generated using pymatgen
data_Li2SiGeO6
_symmetry_space_group_name_H-M   'P 1'
_cell_length_a   5.19232225
_cell_length_b   6.68997526
_cell_length_c   6.69275904
_cell_angle_alpha   85.64142609
_cell_angle_beta   81.38299561
_cell_angle_gamma   81.64778900
_symmetry_Int_Tables_number   1
_chemical_formula_structural   Li2SiGeO6
_chemical_formula_sum   'Li4 Si2 Ge2 O12'
_cell_volume   227.07108672
_cell_formula_units_Z   2
loop_
 _symmetry_equiv_pos_site_id
 _symmetry_equiv_pos_as_xyz
  1  'x, y, z'
loop_
 _atom_site_type_symbol
 _atom_site_label
 _atom_site_symmetry_multiplicity
 _atom_site_fract_x
 _atom_site_fract_y
 _atom_site_fract_z
 _atom_site_occupancy
  Li  Li0  1  0.75072803  0.10019300  0.90147300  1
  Li  Li1  1  0.24899700  0.26277501  0.73769000  1
  Li  Li2  1  0.24875597  0.90493503  0.09050698  1
  Li  Li3  1  0.74965599  0.73258202  0.26705099  1
  Ge  Ge4  1  0.28432699  0.39547601  0.20763199  1
  Si  Si5  1  0.78492602  0.20530501  0.39338800  1
  Ge  Ge6  1  0.21714297  0.79276302  0.60433298  1
  Si  Si7  1  0.71444800  0.60668502  0.79431099  1
  O  O8  1  0.59206200  0.42951301  0.29173399  1
  O  O9  1  0.90902000  0.70868402  0.57069799  1
  O  O10  1  0.11282897  0.63020702  0.13833299  1
  O  O11  1  0.36428700  0.20655801  0.02719900  1
  O  O12  1  0.86697103  0.02588100  0.20371500  1
  O  O13  1  0.40903599  0.56990202  0.70890999  1
  O  O14  1  0.09041499  0.29131601  0.43040599  1
  O  O15  1  0.38886597  0.86174703  0.37002798  1
  O  O16  1  0.61395202  0.13559000  0.62806000  1
  O  O17  1  0.63229299  0.79555802  0.97462499  1
  O  O18  1  0.13638596  0.97200603  0.79531598  1
  O  O19  1  0.88490402  0.37232301  0.86458900  1
