# generated using pymatgen
data_Ce12Ni6Pb
_symmetry_space_group_name_H-M   'P 1'
_cell_length_a   8.64079571
_cell_length_b   8.64079571
_cell_length_c   8.64079571
_cell_angle_alpha   109.47122192
_cell_angle_beta   109.47122192
_cell_angle_gamma   109.47122192
_symmetry_Int_Tables_number   1
_chemical_formula_structural   Ce12Ni6Pb
_chemical_formula_sum   'Ce12 Ni6 Pb1'
_cell_volume   496.63726151
_cell_formula_units_Z   1
loop_
 _symmetry_equiv_pos_site_id
 _symmetry_equiv_pos_as_xyz
  1  'x, y, z'
loop_
 _atom_site_type_symbol
 _atom_site_label
 _atom_site_symmetry_multiplicity
 _atom_site_fract_x
 _atom_site_fract_y
 _atom_site_fract_z
 _atom_site_occupancy
  Ce  Ce0  1  0.49825004  0.19311502  0.30513404  1
  Ce  Ce1  1  0.50175008  0.80688508  0.69486609  1
  Ce  Ce2  1  0.11201906  0.80688408  0.30513506  1
  Ce  Ce3  1  0.88798107  0.19311602  0.69486507  1
  Ce  Ce4  1  0.19311606  0.69486607  0.88798109  1
  Ce  Ce5  1  0.80688407  0.30513403  0.11201904  1
  Ce  Ce6  1  0.80688409  0.69486507  0.50174909  1
  Ce  Ce7  1  0.19311603  0.30513503  0.49825105  1
  Ce  Ce8  1  0.30513503  0.11201901  0.80688506  1
  Ce  Ce9  1  0.69486510  0.88798108  0.19311508  1
  Ce  Ce10  1  0.69486508  0.50174905  0.80688409  1
  Ce  Ce11  1  0.30513505  0.49825105  0.19311605  1
  Ni  Ni12  1  0.50000009  0.88834708  0.38834708  1
  Ni  Ni13  1  0.50000004  0.11165301  0.61165305  1
  Ni  Ni14  1  0.11165305  0.61165306  0.50000006  1
  Ni  Ni15  1  0.88834708  0.38834704  0.50000007  1
  Ni  Ni16  1  0.61165307  0.50000005  0.11165305  1
  Ni  Ni17  1  0.38834706  0.50000005  0.88834709  1
  Pb  Pb18  1  0.00000000  0.00000000  0.00000000  1
