# generated using pymatgen
data_Mn2Si
_symmetry_space_group_name_H-M   'P 1'
_cell_length_a   6.43372917
_cell_length_b   7.29637098
_cell_length_c   7.37125158
_cell_angle_alpha   119.66452026
_cell_angle_beta   115.87484741
_cell_angle_gamma   90.00000000
_symmetry_Int_Tables_number   1
_chemical_formula_structural   Mn2Si
_chemical_formula_sum   'Mn12 Si6'
_cell_volume   260.00538765
_cell_formula_units_Z   6
loop_
 _symmetry_equiv_pos_site_id
 _symmetry_equiv_pos_as_xyz
  1  'x, y, z'
loop_
 _atom_site_type_symbol
 _atom_site_label
 _atom_site_symmetry_multiplicity
 _atom_site_fract_x
 _atom_site_fract_y
 _atom_site_fract_z
 _atom_site_occupancy
  Mn  Mn0  1  0.10639495  0.55235798  0.60471494  1
  Mn  Mn1  1  0.50168094  0.44764198  0.39528493  1
  Mn  Mn2  1  0.49110190  0.97865997  0.45731989  1
  Mn  Mn3  1  0.03378300  0.02134000  0.54267998  1
  Mn  Mn4  1  0.91515489  0.75088797  0.00177489  1
  Mn  Mn5  1  0.91337993  0.24911199  0.99822490  1
  Mn  Mn6  1  0.73742194  0.16123999  0.24213694  1
  Mn  Mn7  1  0.49528491  0.83875997  0.75786289  1
  Mn  Mn8  1  0.73742191  0.58089698  0.24213691  1
  Mn  Mn9  1  0.49528494  0.41910299  0.75786292  1
  Mn  Mn10  1  0.25965795  0.49999998  -0.00000005  1
  Mn  Mn11  1  0.25965799  0.00000000  -0.00000002  1
  Si  Si12  1  0.82815393  0.33858099  0.66682291  1
  Si  Si13  1  0.16133094  0.66141898  0.33317693  1
  Si  Si14  1  0.82815389  0.82824297  0.66682287  1
  Si  Si15  1  0.16133098  0.17175699  0.33317697  1
  Si  Si16  1  0.54375491  0.78635097  0.07270291  1
  Si  Si17  1  0.47105196  0.21364899  0.92729693  1
