# generated using pymatgen
data_Ce3(ZnGe5)2
_symmetry_space_group_name_H-M   'P 1'
_cell_length_a   6.43949080
_cell_length_b   6.43949080
_cell_length_c   6.43949080
_cell_angle_alpha   90.00000000
_cell_angle_beta   90.00000000
_cell_angle_gamma   90.00000000
_symmetry_Int_Tables_number   1
_chemical_formula_structural   Ce3(ZnGe5)2
_chemical_formula_sum   'Ce3 Zn2 Ge10'
_cell_volume   267.02663333
_cell_formula_units_Z   1
loop_
 _symmetry_equiv_pos_site_id
 _symmetry_equiv_pos_as_xyz
  1  'x, y, z'
loop_
 _atom_site_type_symbol
 _atom_site_label
 _atom_site_symmetry_multiplicity
 _atom_site_fract_x
 _atom_site_fract_y
 _atom_site_fract_z
 _atom_site_occupancy
  Ce  Ce0  1  0.50000002  0.50000002  0.00000000  1
  Ce  Ce1  1  0.50000002  0.00000000  0.50000002  1
  Ce  Ce2  1  0.00000000  0.50000002  0.50000002  1
  Zn  Zn3  1  0.50000002  0.50000002  0.50000002  1
  Zn  Zn4  1  0.21073601  0.21073601  0.78926403  1
  Ge  Ge5  1  0.21073601  0.78926403  0.21073601  1
  Ge  Ge6  1  0.78926403  0.21073601  0.21073601  1
  Ge  Ge7  1  0.78926403  0.78926403  0.78926403  1
  Ge  Ge8  1  0.78926403  0.78926403  0.21073601  1
  Ge  Ge9  1  0.78926403  0.21073601  0.78926403  1
  Ge  Ge10  1  0.21073601  0.78926403  0.78926403  1
  Ge  Ge11  1  0.21073601  0.21073601  0.21073601  1
  Ge  Ge12  1  0.00000000  0.00000000  0.50000002  1
  Ge  Ge13  1  0.00000000  0.50000002  0.00000000  1
  Ge  Ge14  1  0.50000002  0.00000000  -0.00000000  1
