# generated using pymatgen
data_AgAs2S5
_symmetry_space_group_name_H-M   'P 1'
_cell_length_a   6.01729107
_cell_length_b   6.23876667
_cell_length_c   8.83965492
_cell_angle_alpha   71.26673889
_cell_angle_beta   84.61224365
_cell_angle_gamma   85.56688690
_symmetry_Int_Tables_number   1
_chemical_formula_structural   AgAs2S5
_chemical_formula_sum   'Ag1 As2 S5'
_cell_volume   312.48532581
_cell_formula_units_Z   1
loop_
 _symmetry_equiv_pos_site_id
 _symmetry_equiv_pos_as_xyz
  1  'x, y, z'
loop_
 _atom_site_type_symbol
 _atom_site_label
 _atom_site_symmetry_multiplicity
 _atom_site_fract_x
 _atom_site_fract_y
 _atom_site_fract_z
 _atom_site_occupancy
  As  As0  1  0.82041599  0.00057200  0.81643606  1
  Ag  Ag1  1  0.17958398  0.99942805  0.18356397  1
  As  As2  1  0.44253499  0.25796501  0.20431201  1
  S  S3  1  0.55746498  0.74203504  0.79568801  1
  S  S4  1  0.87865297  0.73616004  0.12497901  1
  S  S5  1  0.12134699  0.26384001  0.87502102  1
  S  S6  1  0.20898398  0.74345304  0.44964999  1
  S  S7  1  0.79101598  0.25654701  0.55035004  1
