# generated using pymatgen
data_LiV5O11
_symmetry_space_group_name_H-M   'P 1'
_cell_length_a   5.19726992
_cell_length_b   5.38150930
_cell_length_c   7.49491596
_cell_angle_alpha   92.97707367
_cell_angle_beta   89.75590515
_cell_angle_gamma   89.97757721
_symmetry_Int_Tables_number   1
_chemical_formula_structural   LiV5O11
_chemical_formula_sum   'Li1 V5 O11'
_cell_volume   209.34162506
_cell_formula_units_Z   1
loop_
 _symmetry_equiv_pos_site_id
 _symmetry_equiv_pos_as_xyz
  1  'x, y, z'
loop_
 _atom_site_type_symbol
 _atom_site_label
 _atom_site_symmetry_multiplicity
 _atom_site_fract_x
 _atom_site_fract_y
 _atom_site_fract_z
 _atom_site_occupancy
  Li  Li0  1  0.00095999  0.52303201  0.24143501  1
  V  V1  1  0.49618500  0.49473501  0.51389800  1
  V  V2  1  0.50219300  0.48995001  0.00529300  1
  V  V3  1  0.99614600  0.99524002  0.50315800  1
  V  V4  1  0.00476099  0.98933302  0.99843501  1
  V  V5  1  0.29773499  0.80479902  0.55360101  1
  O  O6  1  0.09779499  0.99321902  0.24894101  1
  O  O7  1  0.30092800  0.19088700  0.94884599  1
  O  O8  1  0.18719400  0.29694701  0.54932300  1
  O  O9  1  0.80679501  0.29923401  0.06476499  1
  O  O10  1  0.38001500  0.49308601  0.24464200  1
  O  O11  1  0.60734600  0.49280501  0.76178299  1
  O  O12  1  0.20120399  0.69021101  0.95212800  1
  O  O13  1  0.81639800  0.68951301  0.44426899  1
  O  O14  1  0.70760100  0.78754102  0.05791100  1
  O  O15  1  0.89316100  0.99172202  0.75546900  1
  O  O16  1  0.70358201  0.19214300  0.44890599  1
