# generated using pymatgen
data_LaSnPd
_symmetry_space_group_name_H-M   'P 1'
_cell_length_a   4.85905218
_cell_length_b   7.49778891
_cell_length_c   7.91988420
_cell_angle_alpha   90.00000000
_cell_angle_beta   90.00000000
_cell_angle_gamma   90.00000000
_symmetry_Int_Tables_number   1
_chemical_formula_structural   LaSnPd
_chemical_formula_sum   'La4 Sn4 Pd4'
_cell_volume   288.53838984
_cell_formula_units_Z   4
loop_
 _symmetry_equiv_pos_site_id
 _symmetry_equiv_pos_as_xyz
  1  'x, y, z'
loop_
 _atom_site_type_symbol
 _atom_site_label
 _atom_site_symmetry_multiplicity
 _atom_site_fract_x
 _atom_site_fract_y
 _atom_site_fract_z
 _atom_site_occupancy
  La  La0  1  0.74999997  0.01604000  0.29711799  1
  La  La1  1  0.24999999  0.98396001  0.70288198  1
  La  La2  1  0.24999999  0.48396001  0.79711798  1
  La  La3  1  0.74999997  0.51604001  0.20288199  1
  Sn  Sn4  1  0.74999997  0.68990401  0.59230998  1
  Sn  Sn5  1  0.24999999  0.31009600  0.40768999  1
  Sn  Sn6  1  0.24999999  0.81009601  0.09231000  1
  Sn  Sn7  1  0.74999997  0.18990400  0.90768998  1
  Pd  Pd8  1  0.74999997  0.79985301  0.92827498  1
  Pd  Pd9  1  0.24999999  0.20014700  0.07172500  1
  Pd  Pd10  1  0.24999999  0.70014701  0.42827499  1
  Pd  Pd11  1  0.74999997  0.29985300  0.57172499  1
