# generated using pymatgen
data_PrPb3
_symmetry_space_group_name_H-M   'P 1'
_cell_length_a   5.50597620
_cell_length_b   7.07462788
_cell_length_c   7.07462835
_cell_angle_alpha   60.00000000
_cell_angle_beta   90.00000000
_cell_angle_gamma   90.00000000
_symmetry_Int_Tables_number   1
_chemical_formula_structural   PrPb3
_chemical_formula_sum   'Pr2 Pb6'
_cell_volume   238.65590957
_cell_formula_units_Z   2
loop_
 _symmetry_equiv_pos_site_id
 _symmetry_equiv_pos_as_xyz
  1  'x, y, z'
loop_
 _atom_site_type_symbol
 _atom_site_label
 _atom_site_symmetry_multiplicity
 _atom_site_fract_x
 _atom_site_fract_y
 _atom_site_fract_z
 _atom_site_occupancy
  Pr  Pr0  1  0.24999999  0.33333334  0.33333332  1
  Pr  Pr1  1  0.74999997  0.66666669  0.66666664  1
  Pb  Pb2  1  0.74999997  0.66739602  0.16630198  1
  Pb  Pb3  1  0.74999997  0.16630201  0.16630199  1
  Pb  Pb4  1  0.74999997  0.16630201  0.66739600  1
  Pb  Pb5  1  0.24999999  0.33260401  0.83369799  1
  Pb  Pb6  1  0.24999999  0.83369803  0.83369797  1
  Pb  Pb7  1  0.24999999  0.83369803  0.33260397  1
