# generated using pymatgen
data_CuP2O7
_symmetry_space_group_name_H-M   'P 1'
_cell_length_a   4.66629028
_cell_length_b   5.24946451
_cell_length_c   5.24946451
_cell_angle_alpha   79.25620270
_cell_angle_beta   82.39644623
_cell_angle_gamma   97.60355377
_symmetry_Int_Tables_number   1
_chemical_formula_structural   CuP2O7
_chemical_formula_sum   'Cu1 P2 O7'
_cell_volume   123.58573972
_cell_formula_units_Z   1
loop_
 _symmetry_equiv_pos_site_id
 _symmetry_equiv_pos_as_xyz
  1  'x, y, z'
loop_
 _atom_site_type_symbol
 _atom_site_label
 _atom_site_symmetry_multiplicity
 _atom_site_fract_x
 _atom_site_fract_y
 _atom_site_fract_z
 _atom_site_occupancy
  Cu  Cu0  1  1.00000002  0.11566400  0.11566399  1
  P  P1  1  0.58496901  0.26466399  0.66314896  1
  P  P2  1  0.41503101  0.66314898  0.26466395  1
  O  O3  1  0.50000001  0.54598098  0.54598094  1
  O  O4  1  0.72468401  0.15451400  0.43727098  1
  O  O5  1  0.29796501  0.08756800  0.80320696  1
  O  O6  1  0.79954302  0.32666099  0.85028395  1
  O  O7  1  0.70203501  0.80320697  0.08756795  1
  O  O8  1  0.27531601  0.43727099  0.15451397  1
  O  O9  1  0.20045700  0.85028397  0.32666093  1
