# generated using pymatgen
data_Ce4UNbS5O3
_symmetry_space_group_name_H-M   'P 1'
_cell_length_a   3.99287009
_cell_length_b   3.99287009
_cell_length_c   18.86023331
_cell_angle_alpha   90.00000000
_cell_angle_beta   90.00000000
_cell_angle_gamma   90.00000000
_symmetry_Int_Tables_number   1
_chemical_formula_structural   Ce4UNbS5O3
_chemical_formula_sum   'Ce4 U1 Nb1 S5 O3'
_cell_volume   300.68891791
_cell_formula_units_Z   1
loop_
 _symmetry_equiv_pos_site_id
 _symmetry_equiv_pos_as_xyz
  1  'x, y, z'
loop_
 _atom_site_type_symbol
 _atom_site_label
 _atom_site_symmetry_multiplicity
 _atom_site_fract_x
 _atom_site_fract_y
 _atom_site_fract_z
 _atom_site_occupancy
  Ce  Ce0  1  0.49999999  0.00000000  0.68449599  1
  Ce  Ce1  1  -0.00000000  0.49999999  0.81550399  1
  Ce  Ce2  1  -0.00000000  0.49999999  0.31550399  1
  Ce  Ce3  1  0.49999999  0.00000000  0.18449600  1
  U  U4  1  0.49999999  0.49999999  0.49999999  1
  Nb  Nb5  1  0.00000000  0.00000000  0.00000000  1
  S  S6  1  -0.00000000  0.49999999  0.09712800  1
  S  S7  1  0.49999999  0.00000000  0.40287199  1
  S  S8  1  0.49999999  0.00000000  0.90287199  1
  S  S9  1  -0.00000000  0.49999999  0.59712799  1
  O  O10  1  0.49999999  0.49999999  0.74934599  1
  S  S11  1  0.00000000  0.00000000  0.75065399  1
  O  O12  1  0.49999999  0.49999999  0.25065400  1
  O  O13  1  0.00000000  0.00000000  0.24934600  1
