# generated using pymatgen
data_Ti2N3
_symmetry_space_group_name_H-M   'P 1'
_cell_length_a   4.84612417
_cell_length_b   8.30690765
_cell_length_c   9.69090748
_cell_angle_alpha   106.60264587
_cell_angle_beta   90.00000000
_cell_angle_gamma   90.00000000
_symmetry_Int_Tables_number   1
_chemical_formula_structural   Ti2N3
_chemical_formula_sum   'Ti8 N12'
_cell_volume   373.85578650
_cell_formula_units_Z   4
loop_
 _symmetry_equiv_pos_site_id
 _symmetry_equiv_pos_as_xyz
  1  'x, y, z'
loop_
 _atom_site_type_symbol
 _atom_site_label
 _atom_site_symmetry_multiplicity
 _atom_site_fract_x
 _atom_site_fract_y
 _atom_site_fract_z
 _atom_site_occupancy
  Ti  Ti0  1  0.35631799  0.09154001  0.19693101  1
  Ti  Ti1  1  0.85631797  0.40846002  0.30306903  1
  Ti  Ti2  1  0.64368198  0.90846005  0.80306907  1
  Ti  Ti3  1  0.14368199  0.59154003  0.69693105  1
  Ti  Ti4  1  0.82849597  0.69105204  0.10133404  1
  Ti  Ti5  1  0.32849599  0.80894805  0.39866605  1
  Ti  Ti6  1  0.17150399  0.30894802  0.89866604  1
  Ti  Ti7  1  0.67150398  0.19105201  0.60133403  1
  N  N8  1  0.96060997  0.16228901  0.21430501  1
  N  N9  1  0.46060998  0.33771102  0.28569503  1
  N  N10  1  0.03939000  0.83771105  0.78569507  1
  N  N11  1  0.53938998  0.66228904  0.71430506  1
  N  N12  1  0.67680098  0.70470504  0.30744304  1
  N  N13  1  0.17680099  0.79529505  0.19255704  1
  N  N14  1  0.32319899  0.29529502  0.69255704  1
  N  N15  1  0.82319897  0.20470501  0.80744304  1
  N  N16  1  0.89945697  0.45064003  0.10545802  1
  N  N17  1  0.39945699  0.04936000  0.39454202  1
  N  N18  1  0.10054300  0.54936003  0.89454206  1
  N  N19  1  0.60054298  0.95064005  0.60545807  1
