# generated using pymatgen
data_BaBi3TeAsPbS
_symmetry_space_group_name_H-M   'P 1'
_cell_length_a   4.48315477
_cell_length_b   4.48315477
_cell_length_c   9.65335464
_cell_angle_alpha   90.00000000
_cell_angle_beta   90.00000000
_cell_angle_gamma   90.00000000
_symmetry_Int_Tables_number   1
_chemical_formula_structural   BaBi3TeAsPbS
_chemical_formula_sum   'Ba1 Bi3 Te1 As1 Pb1 S1'
_cell_volume   194.01965432
_cell_formula_units_Z   1
loop_
 _symmetry_equiv_pos_site_id
 _symmetry_equiv_pos_as_xyz
  1  'x, y, z'
loop_
 _atom_site_type_symbol
 _atom_site_label
 _atom_site_symmetry_multiplicity
 _atom_site_fract_x
 _atom_site_fract_y
 _atom_site_fract_z
 _atom_site_occupancy
  Ba  Ba0  1  0.00000000  0.50000003  0.84507903  1
  Bi  Bi1  1  0.50000003  0.00000000  0.15492101  1
  Bi  Bi2  1  0.50000003  0.50000003  0.50000002  1
  Bi  Bi3  1  0.00000000  0.00000000  0.50000002  1
  Te  Te4  1  0.00000000  0.50000003  0.32194401  1
  S  S5  1  0.50000003  0.00000000  0.67805602  1
  As  As6  1  0.50000003  0.50000003  0.00000000  1
  Pb  Pb7  1  0.00000000  0.00000000  0.00000000  1
