# generated using pymatgen
data_Mg3As2
_symmetry_space_group_name_H-M   'P 1'
_cell_length_a   3.81992865
_cell_length_b   3.81992865
_cell_length_c   15.76422882
_cell_angle_alpha   83.04105377
_cell_angle_beta   83.04105377
_cell_angle_gamma   59.99998856
_symmetry_Int_Tables_number   1
_chemical_formula_structural   Mg3As2
_chemical_formula_sum   'Mg6 As4'
_cell_volume   197.25207480
_cell_formula_units_Z   2
loop_
 _symmetry_equiv_pos_site_id
 _symmetry_equiv_pos_as_xyz
  1  'x, y, z'
loop_
 _atom_site_type_symbol
 _atom_site_label
 _atom_site_symmetry_multiplicity
 _atom_site_fract_x
 _atom_site_fract_y
 _atom_site_fract_z
 _atom_site_occupancy
  Mg  Mg0  1  0.60001297  0.60001300  0.19996101  1
  Mg  Mg1  1  0.20009899  0.20009900  0.39970300  1
  Mg  Mg2  1  0.79990096  0.79990100  0.60029701  1
  Mg  Mg3  1  0.39998698  0.39998700  0.80003900  1
  Mg  Mg4  1  0.00000000  0.00000000  0.00000000  1
  Mg  Mg5  1  0.69851196  0.69851200  0.90446400  1
  As  As6  1  0.09907899  0.09907900  0.70276300  1
  As  As7  1  0.49999997  0.50000000  0.50000000  1
  As  As8  1  0.30148798  0.30148800  0.09553600  1
  As  As9  1  0.90092095  0.90092100  0.29723701  1
