# generated using pymatgen
data_CsPaBr3
_symmetry_space_group_name_H-M   'P 1'
_cell_length_a   6.99566889
_cell_length_b   8.34314632
_cell_length_c   8.34314632
_cell_angle_alpha   60.00000381
_cell_angle_beta   90.00000000
_cell_angle_gamma   90.00000000
_symmetry_Int_Tables_number   1
_chemical_formula_structural   CsPaBr3
_chemical_formula_sum   'Cs2 Pa2 Br6'
_cell_volume   421.71554980
_cell_formula_units_Z   2
loop_
 _symmetry_equiv_pos_site_id
 _symmetry_equiv_pos_as_xyz
  1  'x, y, z'
loop_
 _atom_site_type_symbol
 _atom_site_label
 _atom_site_symmetry_multiplicity
 _atom_site_fract_x
 _atom_site_fract_y
 _atom_site_fract_z
 _atom_site_occupancy
  Cs  Cs0  1  0.75000001  0.66666663  0.66666671  1
  Cs  Cs1  1  0.25000000  0.33333331  0.33333335  1
  Pa  Pa2  1  0.00000000  0.00000000  0.00000000  1
  Pa  Pa3  1  0.50000001  0.00000000  -0.00000000  1
  Br  Br4  1  0.25000000  0.84145195  0.31709604  1
  Br  Br5  1  0.75000001  0.15854799  0.15854801  1
  Br  Br6  1  0.75000001  0.15854799  0.68290402  1
  Br  Br7  1  0.25000000  0.84145195  0.84145205  1
  Br  Br8  1  0.25000000  0.31709598  0.84145203  1
  Br  Br9  1  0.75000001  0.68290396  0.15854803  1
