# generated using pymatgen
data_PrAl2Ni3
_symmetry_space_group_name_H-M   'P 1'
_cell_length_a   4.08261824
_cell_length_b   9.14573574
_cell_length_c   9.14573669
_cell_angle_alpha   120.00000000
_cell_angle_beta   90.00000000
_cell_angle_gamma   90.00000000
_symmetry_Int_Tables_number   1
_chemical_formula_structural   PrAl2Ni3
_chemical_formula_sum   'Pr3 Al6 Ni9'
_cell_volume   295.73773704
_cell_formula_units_Z   3
loop_
 _symmetry_equiv_pos_site_id
 _symmetry_equiv_pos_as_xyz
  1  'x, y, z'
loop_
 _atom_site_type_symbol
 _atom_site_label
 _atom_site_symmetry_multiplicity
 _atom_site_fract_x
 _atom_site_fract_y
 _atom_site_fract_z
 _atom_site_occupancy
  Pr  Pr0  1  0.49999997  0.66666669  0.33333333  1
  Pr  Pr1  1  0.49999997  0.33333335  0.66666664  1
  Pr  Pr2  1  0.00000000  0.00000000  0.00000000  1
  Al  Al3  1  -0.00000000  0.50000002  0.49999998  1
  Al  Al4  1  0.00000000  0.00000000  0.49999998  1
  Al  Al5  1  -0.00000000  0.50000002  0.00000001  1
  Al  Al6  1  0.49999997  0.70338903  0.70338898  1
  Al  Al7  1  0.49999997  0.29661101  0.29661099  1
  Al  Al8  1  0.49999997  0.00000000  0.29661099  1
  Ni  Ni9  1  0.49999997  0.00000000  0.70338897  1
  Ni  Ni10  1  0.49999997  0.29661101  0.00000001  1
  Ni  Ni11  1  0.49999997  0.70338903  0.00000001  1
  Ni  Ni12  1  0.99999994  0.81859603  0.18140501  1
  Ni  Ni13  1  -0.00000000  0.18140401  0.81859496  1
  Ni  Ni14  1  -0.00000000  0.36280901  0.18140500  1
  Ni  Ni15  1  -0.00000000  0.63719102  0.81859497  1
  Ni  Ni16  1  0.99999994  0.81859603  0.63719198  1
  Ni  Ni17  1  -0.00000000  0.18140401  0.36280799  1
