# generated using pymatgen
data_Cr2Sn
_symmetry_space_group_name_H-M   'P 1'
_cell_length_a   4.45066595
_cell_length_b   4.45066595
_cell_length_c   7.30156708
_cell_angle_alpha   90.00000000
_cell_angle_beta   90.00000000
_cell_angle_gamma   120.00000000
_symmetry_Int_Tables_number   1
_chemical_formula_structural   Cr2Sn
_chemical_formula_sum   'Cr8 Sn4'
_cell_volume   125.25547239
_cell_formula_units_Z   4
loop_
 _symmetry_equiv_pos_site_id
 _symmetry_equiv_pos_as_xyz
  1  'x, y, z'
loop_
 _atom_site_type_symbol
 _atom_site_label
 _atom_site_symmetry_multiplicity
 _atom_site_fract_x
 _atom_site_fract_y
 _atom_site_fract_z
 _atom_site_occupancy
  Cr  Cr0  1  0.00000000  0.00000000  0.49999999  1
  Cr  Cr1  1  0.00000000  0.00000000  0.00000000  1
  Cr  Cr2  1  0.16936701  0.33873402  0.74999999  1
  Cr  Cr3  1  0.16936702  0.83063205  0.74999999  1
  Cr  Cr4  1  0.66126503  0.83063205  0.74999999  1
  Cr  Cr5  1  0.83063303  0.66126604  0.25000000  1
  Cr  Cr6  1  0.83063301  0.16936801  0.25000000  1
  Cr  Cr7  1  0.33873501  0.16936801  0.25000000  1
  Sn  Sn8  1  0.66666668  0.33333335  0.56335799  1
  Sn  Sn9  1  0.33333335  0.66666671  0.43664200  1
  Sn  Sn10  1  0.33333335  0.66666671  0.06335800  1
  Sn  Sn11  1  0.66666668  0.33333335  0.93664199  1
