# generated using pymatgen
data_TiMoO4
_symmetry_space_group_name_H-M   'P 1'
_cell_length_a   5.59911537
_cell_length_b   5.63831329
_cell_length_c   5.64867306
_cell_angle_alpha   119.60003662
_cell_angle_beta   119.70738220
_cell_angle_gamma   90.00476837
_symmetry_Int_Tables_number   1
_chemical_formula_structural   TiMoO4
_chemical_formula_sum   'Ti2 Mo2 O8'
_cell_volume   127.39902607
_cell_formula_units_Z   2
loop_
 _symmetry_equiv_pos_site_id
 _symmetry_equiv_pos_as_xyz
  1  'x, y, z'
loop_
 _atom_site_type_symbol
 _atom_site_label
 _atom_site_symmetry_multiplicity
 _atom_site_fract_x
 _atom_site_fract_y
 _atom_site_fract_z
 _atom_site_occupancy
  Ti  Ti0  1  -0.00000005  0.50000096  0.49999994  1
  Ti  Ti1  1  0.49999994  0.49999996  0.49999892  1
  Mo  Mo2  1  0.49999999  0.00000000  0.99999894  1
  Mo  Mo3  1  0.49999894  0.49999996  -0.00000007  1
  O  O4  1  0.26218792  0.73690994  0.96927389  1
  O  O5  1  0.73780996  0.26309098  0.03072494  1
  O  O6  1  0.29279297  0.26301998  0.03065496  1
  O  O7  1  0.70720591  0.73697894  0.96934287  1
  O  O8  1  0.26658492  0.73906794  0.53312491  1
  O  O9  1  0.73415991  0.71022294  0.46825089  1
  O  O10  1  0.73341496  0.26093198  0.46687293  1
  O  O11  1  0.26583997  0.28977798  0.53174894  1
