# generated using pymatgen
data_Mn5Ga7
_symmetry_space_group_name_H-M   'P 1'
_cell_length_a   5.16099977
_cell_length_b   5.16099977
_cell_length_c   6.99672174
_cell_angle_alpha   68.35739899
_cell_angle_beta   68.35739899
_cell_angle_gamma   60.00000000
_symmetry_Int_Tables_number   1
_chemical_formula_structural   Mn5Ga7
_chemical_formula_sum   'Mn5 Ga7'
_cell_volume   146.02849267
_cell_formula_units_Z   1
loop_
 _symmetry_equiv_pos_site_id
 _symmetry_equiv_pos_as_xyz
  1  'x, y, z'
loop_
 _atom_site_type_symbol
 _atom_site_label
 _atom_site_symmetry_multiplicity
 _atom_site_fract_x
 _atom_site_fract_y
 _atom_site_fract_z
 _atom_site_occupancy
  Mn  Mn0  1  0.00000000  0.00000000  0.00000000  1
  Mn  Mn1  1  0.78087605  0.78087604  0.65737197  1
  Mn  Mn2  1  0.21912401  0.21912401  0.34262799  1
  Mn  Mn3  1  0.50000003  0.50000002  -0.00000002  1
  Ga  Ga4  1  0.50000003  0.00000000  -0.00000001  1
  Ga  Ga5  1  0.00000001  0.50000002  -0.00000001  1
  Ga  Ga6  1  0.23591902  0.71349203  0.33709698  1
  Ga  Ga7  1  0.71349204  0.71349203  0.33709697  1
  Ga  Ga8  1  0.71349204  0.23591901  0.33709698  1
  Ga  Ga9  1  0.76408104  0.28650801  0.66290297  1
  Mn  Mn10  1  0.28650802  0.28650801  0.66290298  1
  Ga  Ga11  1  0.28650802  0.76408104  0.66290297  1
