# generated using pymatgen
data_VCr2Si
_symmetry_space_group_name_H-M   'P 1'
_cell_length_a   2.46076059
_cell_length_b   2.46076059
_cell_length_c   8.09451485
_cell_angle_alpha   90.00000000
_cell_angle_beta   90.00000000
_cell_angle_gamma   110.21226501
_symmetry_Int_Tables_number   1
_chemical_formula_structural   VCr2Si
_chemical_formula_sum   'V1 Cr2 Si1'
_cell_volume   45.99666905
_cell_formula_units_Z   1
loop_
 _symmetry_equiv_pos_site_id
 _symmetry_equiv_pos_as_xyz
  1  'x, y, z'
loop_
 _atom_site_type_symbol
 _atom_site_label
 _atom_site_symmetry_multiplicity
 _atom_site_fract_x
 _atom_site_fract_y
 _atom_site_fract_z
 _atom_site_occupancy
  V  V0  1  0.50000001  0.49999999  0.24491500  1
  Cr  Cr1  1  0.00000000  0.00000000  0.50000001  1
  Cr  Cr2  1  0.50000001  0.49999999  0.75508501  1
  Si  Si3  1  0.00000000  0.00000000  0.00000000  1
