# generated using pymatgen
data_SrGe3Rh
_symmetry_space_group_name_H-M   'P 1'
_cell_length_a   4.45405006
_cell_length_b   4.45405006
_cell_length_c   5.99341726
_cell_angle_alpha   111.81300354
_cell_angle_beta   111.81300354
_cell_angle_gamma   90.00000000
_symmetry_Int_Tables_number   1
_chemical_formula_structural   SrGe3Rh
_chemical_formula_sum   'Sr1 Ge3 Rh1'
_cell_volume   101.16065225
_cell_formula_units_Z   1
loop_
 _symmetry_equiv_pos_site_id
 _symmetry_equiv_pos_as_xyz
  1  'x, y, z'
loop_
 _atom_site_type_symbol
 _atom_site_label
 _atom_site_symmetry_multiplicity
 _atom_site_fract_x
 _atom_site_fract_y
 _atom_site_fract_z
 _atom_site_occupancy
  Sr  Sr0  1  0.99992705  0.99992701  0.99985409  1
  Ge  Ge1  1  0.42356702  0.42356701  0.84713403  1
  Ge  Ge2  1  0.25973704  0.75973701  0.51947405  1
  Ge  Ge3  1  0.75973702  0.25973700  0.51947404  1
  Rh  Rh4  1  0.65803204  0.65803201  0.31606406  1
