# generated using pymatgen
data_Cs3Bi2Br9
_symmetry_space_group_name_H-M   'P 1'
_cell_length_a   8.05060768
_cell_length_b   8.05060863
_cell_length_c   9.77617931
_cell_angle_alpha   90.00000000
_cell_angle_beta   90.00000000
_cell_angle_gamma   120.00000000
_symmetry_Int_Tables_number   1
_chemical_formula_structural   Cs3Bi2Br9
_chemical_formula_sum   'Cs3 Bi2 Br9'
_cell_volume   548.72805934
_cell_formula_units_Z   1
loop_
 _symmetry_equiv_pos_site_id
 _symmetry_equiv_pos_as_xyz
  1  'x, y, z'
loop_
 _atom_site_type_symbol
 _atom_site_label
 _atom_site_symmetry_multiplicity
 _atom_site_fract_x
 _atom_site_fract_y
 _atom_site_fract_z
 _atom_site_occupancy
  Cs  Cs0  1  0.00000000  0.00000000  0.00000000  1
  Cs  Cs1  1  0.33333339  0.66666671  0.33023599  1
  Cs  Cs2  1  0.66666672  0.33333335  0.66976398  1
  Bi  Bi3  1  0.33333339  0.66666671  0.81200797  1
  Bi  Bi4  1  0.66666672  0.33333335  0.18799199  1
  Br  Br5  1  0.17215603  0.34431202  0.66120298  1
  Br  Br6  1  0.17215606  0.82784405  0.66120298  1
  Br  Br7  1  0.65568808  0.82784405  0.66120298  1
  Br  Br8  1  0.34431203  0.17215601  0.33879699  1
  Br  Br9  1  0.82784404  0.17215601  0.33879699  1
  Br  Br10  1  0.50000002  0.00000000  0.00000000  1
  Br  Br11  1  0.50000005  0.50000003  -0.00000000  1
  Br  Br12  1  0.00000003  0.50000003  -0.00000000  1
  Br  Br13  1  0.82784408  0.65568804  0.33879699  1
