# generated using pymatgen
data_Mn4Ge3
_symmetry_space_group_name_H-M   'P 1'
_cell_length_a   4.98271942
_cell_length_b   4.98271942
_cell_length_c   9.03906155
_cell_angle_alpha   90.00000000
_cell_angle_beta   90.00000000
_cell_angle_gamma   97.66529846
_symmetry_Int_Tables_number   1
_chemical_formula_structural   Mn4Ge3
_chemical_formula_sum   'Mn8 Ge6'
_cell_volume   222.41188092
_cell_formula_units_Z   2
loop_
 _symmetry_equiv_pos_site_id
 _symmetry_equiv_pos_as_xyz
  1  'x, y, z'
loop_
 _atom_site_type_symbol
 _atom_site_label
 _atom_site_symmetry_multiplicity
 _atom_site_fract_x
 _atom_site_fract_y
 _atom_site_fract_z
 _atom_site_occupancy
  Mn  Mn0  1  0.31918003  0.68082001  -0.00000000  1
  Mn  Mn1  1  0.68082002  0.31918001  0.50000003  1
  Mn  Mn2  1  0.68082002  0.31918001  -0.00000000  1
  Mn  Mn3  1  0.31918003  0.68082001  0.50000003  1
  Ge  Ge4  1  0.14054501  0.14054500  0.90043705  1
  Mn  Mn5  1  0.85945505  0.85945502  0.40043702  1
  Mn  Mn6  1  0.14054501  0.14054500  0.59956303  1
  Ge  Ge7  1  0.85945505  0.85945502  0.09956300  1
  Mn  Mn8  1  0.61815005  0.97812702  0.75000004  1
  Mn  Mn9  1  0.38185001  0.02187300  0.25000001  1
  Ge  Ge10  1  0.97812704  0.61815001  0.75000004  1
  Ge  Ge11  1  0.02187302  0.38185001  0.25000001  1
  Ge  Ge12  1  0.46356803  0.46356801  0.75000004  1
  Ge  Ge13  1  0.53643203  0.53643201  0.25000001  1
