# generated using pymatgen
data_TaNO
_symmetry_space_group_name_H-M   'P 1'
_cell_length_a   5.66462708
_cell_length_b   6.05167007
_cell_length_c   8.22987843
_cell_angle_alpha   102.21995544
_cell_angle_beta   90.00000000
_cell_angle_gamma   90.00000000
_symmetry_Int_Tables_number   1
_chemical_formula_structural   TaNO
_chemical_formula_sum   'Ta6 N6 O6'
_cell_volume   275.73167090
_cell_formula_units_Z   6
loop_
 _symmetry_equiv_pos_site_id
 _symmetry_equiv_pos_as_xyz
  1  'x, y, z'
loop_
 _atom_site_type_symbol
 _atom_site_label
 _atom_site_symmetry_multiplicity
 _atom_site_fract_x
 _atom_site_fract_y
 _atom_site_fract_z
 _atom_site_occupancy
  Ta  Ta0  1  0.69750299  0.65395002  0.68257195  1
  Ta  Ta1  1  0.19750300  0.34605001  0.31742798  1
  Ta  Ta2  1  0.70727199  0.81163102  0.22334697  1
  Ta  Ta3  1  0.20727200  0.18836900  0.77665296  1
  O  O4  1  0.89096199  0.45542001  0.47839996  1
  Ta  Ta5  1  0.39096199  0.54458001  0.52159996  1
  N  N6  1  0.42906299  0.91976102  0.76639194  1
  Ta  Ta7  1  0.92906299  0.08023900  0.23360799  1
  N  N8  1  0.94154099  0.95458502  0.75948194  1
  N  N9  1  0.44154099  0.04541500  0.24051799  1
  N  N10  1  0.99161399  0.46034301  0.78622595  1
  N  N11  1  0.49161399  0.53965701  0.21377398  1
  N  N12  1  0.70251899  0.75424402  0.97247693  1
  O  O13  1  0.20251900  0.24575601  0.02752299  1
  O  O14  1  0.70950699  0.86024402  0.47652995  1
  O  O15  1  0.20950700  0.13975600  0.52346997  1
  O  O16  1  0.50637699  0.38134301  0.78000995  1
  O  O17  1  0.00637700  0.61865702  0.21998997  1
