# generated using pymatgen
data_Er3Ni5
_symmetry_space_group_name_H-M   'P 1'
_cell_length_a   4.03020382
_cell_length_b   5.51782036
_cell_length_c   13.32083797
_cell_angle_alpha   90.00000000
_cell_angle_beta   90.00000000
_cell_angle_gamma   111.41982269
_symmetry_Int_Tables_number   1
_chemical_formula_structural   Er3Ni5
_chemical_formula_sum   'Er6 Ni10'
_cell_volume   275.76739520
_cell_formula_units_Z   2
loop_
 _symmetry_equiv_pos_site_id
 _symmetry_equiv_pos_as_xyz
  1  'x, y, z'
loop_
 _atom_site_type_symbol
 _atom_site_label
 _atom_site_symmetry_multiplicity
 _atom_site_fract_x
 _atom_site_fract_y
 _atom_site_fract_z
 _atom_site_occupancy
  Er  Er0  1  0.36149199  0.72298402  0.75000000  1
  Er  Er1  1  0.63850802  0.27701601  0.25000000  1
  Er  Er2  1  0.07793500  0.15587000  0.88677900  1
  Er  Er3  1  0.92206501  0.84413002  0.11322100  1
  Er  Er4  1  0.92206501  0.84413002  0.38677900  1
  Er  Er5  1  0.07793500  0.15587000  0.61322100  1
  Ni  Ni6  1  0.21407200  0.42814401  0.41857700  1
  Ni  Ni7  1  0.78592802  0.57185601  0.58142300  1
  Ni  Ni8  1  0.78592802  0.57185601  0.91857700  1
  Ni  Ni9  1  0.21407200  0.42814401  0.08142300  1
  Ni  Ni10  1  0.67079302  0.34158601  0.75000000  1
  Ni  Ni11  1  0.32920699  0.65841402  0.25000000  1
  Ni  Ni12  1  0.37886999  0.75774002  0.96108300  1
  Ni  Ni13  1  0.62113002  0.24226001  0.03891700  1
  Ni  Ni14  1  0.62113002  0.24226001  0.46108300  1
  Ni  Ni15  1  0.37886999  0.75774002  0.53891700  1
