# generated using pymatgen
data_TaRh3
_symmetry_space_group_name_H-M   'P 1'
_cell_length_a   2.70059800
_cell_length_b   4.69972420
_cell_length_c   5.16436291
_cell_angle_alpha   117.06589508
_cell_angle_beta   105.15699768
_cell_angle_gamma   90.00000000
_symmetry_Int_Tables_number   1
_chemical_formula_structural   TaRh3
_chemical_formula_sum   'Ta1 Rh3'
_cell_volume   55.79528483
_cell_formula_units_Z   1
loop_
 _symmetry_equiv_pos_site_id
 _symmetry_equiv_pos_as_xyz
  1  'x, y, z'
loop_
 _atom_site_type_symbol
 _atom_site_label
 _atom_site_symmetry_multiplicity
 _atom_site_fract_x
 _atom_site_fract_y
 _atom_site_fract_z
 _atom_site_occupancy
  Ta  Ta0  1  0.50000004  0.51718099  0.00000004  1
  Rh  Rh1  1  0.25960107  0.95214099  0.51920205  1
  Rh  Rh2  1  0.74039904  0.43293899  0.48079803  1
  Rh  Rh3  1  1.00000001  0.00174000  1.00000000  1
