# generated using pymatgen
data_Pr5Sb4
_symmetry_space_group_name_H-M   'P 1'
_cell_length_a   6.93621397
_cell_length_b   9.82996178
_cell_length_c   9.82996178
_cell_angle_alpha   120.00000000
_cell_angle_beta   90.00000000
_cell_angle_gamma   90.00000000
_symmetry_Int_Tables_number   1
_chemical_formula_structural   Pr5Sb4
_chemical_formula_sum   'Pr10 Sb8'
_cell_volume   580.43924938
_cell_formula_units_Z   2
loop_
 _symmetry_equiv_pos_site_id
 _symmetry_equiv_pos_as_xyz
  1  'x, y, z'
loop_
 _atom_site_type_symbol
 _atom_site_label
 _atom_site_symmetry_multiplicity
 _atom_site_fract_x
 _atom_site_fract_y
 _atom_site_fract_z
 _atom_site_occupancy
  Pr  Pr0  1  0.75000000  0.26934201  0.00000000  1
  Pr  Pr1  1  0.75000000  0.73065802  0.73065804  1
  Pr  Pr2  1  0.75000000  0.00000000  0.26934201  1
  Pr  Pr3  1  0.25000000  0.73065802  0.00000001  1
  Pr  Pr4  1  0.25000000  0.26934201  0.26934201  1
  Pr  Pr5  1  0.25000000  0.00000000  0.73065803  1
  Pr  Pr6  1  0.50000000  0.33333334  0.66666670  1
  Pr  Pr7  1  0.50000000  0.66666669  0.33333335  1
  Pr  Pr8  1  -0.00000000  0.66666669  0.33333335  1
  Pr  Pr9  1  -0.00000000  0.33333334  0.66666670  1
  Sb  Sb10  1  0.50000000  0.00000000  -0.00000000  1
  Sb  Sb11  1  0.00000000  0.00000000  0.00000000  1
  Sb  Sb12  1  0.75000000  0.62145102  0.00000001  1
  Sb  Sb13  1  0.75000000  0.37854901  0.37854902  1
  Sb  Sb14  1  0.75000000  0.00000000  0.62145102  1
  Sb  Sb15  1  0.25000000  0.37854901  0.00000000  1
  Sb  Sb16  1  0.25000000  0.62145102  0.62145103  1
  Sb  Sb17  1  0.25000000  0.00000000  0.37854901  1
