# generated using pymatgen
data_CeAgSb
_symmetry_space_group_name_H-M   'P 1'
_cell_length_a   4.59633398
_cell_length_b   4.59633493
_cell_length_c   7.32036304
_cell_angle_alpha   90.00000000
_cell_angle_beta   90.00000000
_cell_angle_gamma   119.99999237
_symmetry_Int_Tables_number   1
_chemical_formula_structural   CeAgSb
_chemical_formula_sum   'Ce2 Ag2 Sb2'
_cell_volume   133.93267136
_cell_formula_units_Z   2
loop_
 _symmetry_equiv_pos_site_id
 _symmetry_equiv_pos_as_xyz
  1  'x, y, z'
loop_
 _atom_site_type_symbol
 _atom_site_label
 _atom_site_symmetry_multiplicity
 _atom_site_fract_x
 _atom_site_fract_y
 _atom_site_fract_z
 _atom_site_occupancy
  Ce  Ce0  1  0.00000000  0.00000000  0.99669099  1
  Ce  Ce1  1  0.00000000  0.00000000  0.49669100  1
  Ag  Ag2  1  0.33333332  0.66666665  0.66597800  1
  Ag  Ag3  1  0.66666666  0.33333332  0.16597800  1
  Sb  Sb4  1  0.66666666  0.33333332  0.76533100  1
  Sb  Sb5  1  0.33333332  0.66666665  0.26533100  1
