# generated using pymatgen
data_CeLu3Ge2
_symmetry_space_group_name_H-M   'P 1'
_cell_length_a   4.25903606
_cell_length_b   4.25903606
_cell_length_c   8.75117016
_cell_angle_alpha   104.08380890
_cell_angle_beta   104.08380890
_cell_angle_gamma   90.00000000
_symmetry_Int_Tables_number   1
_chemical_formula_structural   CeLu3Ge2
_chemical_formula_sum   'Ce1 Lu3 Ge2'
_cell_volume   149.04494798
_cell_formula_units_Z   1
loop_
 _symmetry_equiv_pos_site_id
 _symmetry_equiv_pos_as_xyz
  1  'x, y, z'
loop_
 _atom_site_type_symbol
 _atom_site_label
 _atom_site_symmetry_multiplicity
 _atom_site_fract_x
 _atom_site_fract_y
 _atom_site_fract_z
 _atom_site_occupancy
  Ce  Ce0  1  0.32433599  0.32433599  0.64867201  1
  Lu  Lu1  1  0.67566398  0.67566399  0.35132800  1
  Lu  Lu2  1  -0.00000000  0.49999999  -0.00000000  1
  Lu  Lu3  1  0.49999999  0.00000000  -0.00000000  1
  Ge  Ge4  1  0.13530700  0.13530700  0.27061400  1
  Ge  Ge5  1  0.86469298  0.86469298  0.72938600  1
