# generated using pymatgen
data_TbNi5
_symmetry_space_group_name_H-M   'P 1'
_cell_length_a   3.87132597
_cell_length_b   5.04585791
_cell_length_c   5.04585886
_cell_angle_alpha   60.00000381
_cell_angle_beta   90.00000000
_cell_angle_gamma   90.00000000
_symmetry_Int_Tables_number   1
_chemical_formula_structural   TbNi5
_chemical_formula_sum   'Tb1 Ni5'
_cell_volume   85.36119852
_cell_formula_units_Z   1
loop_
 _symmetry_equiv_pos_site_id
 _symmetry_equiv_pos_as_xyz
  1  'x, y, z'
loop_
 _atom_site_type_symbol
 _atom_site_label
 _atom_site_symmetry_multiplicity
 _atom_site_fract_x
 _atom_site_fract_y
 _atom_site_fract_z
 _atom_site_occupancy
  Tb  Tb0  1  -0.00000000  0.66666668  0.66666663  1
  Ni  Ni1  1  0.00000000  0.00000000  0.00000000  1
  Ni  Ni2  1  1.00000001  0.33333334  0.33333332  1
  Ni  Ni3  1  0.50000000  0.17006400  0.17006499  1
  Ni  Ni4  1  0.50000000  0.17006400  0.65987197  1
  Ni  Ni5  1  0.50000000  0.65987102  0.17006499  1
