# generated using pymatgen
data_PdF2
_symmetry_space_group_name_H-M   'P 1'
_cell_length_a   5.52178717
_cell_length_b   5.53127480
_cell_length_c   5.55946970
_cell_angle_alpha   90.00000000
_cell_angle_beta   87.76431274
_cell_angle_gamma   90.00000000
_symmetry_Int_Tables_number   1
_chemical_formula_structural   PdF2
_chemical_formula_sum   'Pd4 F8'
_cell_volume   169.67097679
_cell_formula_units_Z   4
loop_
 _symmetry_equiv_pos_site_id
 _symmetry_equiv_pos_as_xyz
  1  'x, y, z'
loop_
 _atom_site_type_symbol
 _atom_site_label
 _atom_site_symmetry_multiplicity
 _atom_site_fract_x
 _atom_site_fract_y
 _atom_site_fract_z
 _atom_site_occupancy
  Pd  Pd0  1  0.49999999  0.50000002  -0.00000000  1
  Pd  Pd1  1  0.49999999  0.00000000  0.50000001  1
  Pd  Pd2  1  -0.00000000  0.50000002  0.50000001  1
  Pd  Pd3  1  0.00000000  0.00000000  0.00000000  1
  F  F4  1  0.83347698  0.17564101  0.68426501  1
  F  F5  1  0.16652300  0.67564102  0.81573501  1
  F  F6  1  0.66300898  0.84121403  0.14991400  1
  F  F7  1  0.33699099  0.34121401  0.35008600  1
  F  F8  1  0.16652300  0.82435903  0.31573500  1
  F  F9  1  0.83347698  0.32435901  0.18426500  1
  F  F10  1  0.33699099  0.15878601  0.85008601  1
  F  F11  1  0.66300898  0.65878602  0.64991401  1
