# generated using pymatgen
data_Pr5Sn4
_symmetry_space_group_name_H-M   'P 1'
_cell_length_a   7.13407707
_cell_length_b   9.75468636
_cell_length_c   9.75468636
_cell_angle_alpha   120.00000000
_cell_angle_beta   90.00000000
_cell_angle_gamma   90.00000000
_symmetry_Int_Tables_number   1
_chemical_formula_structural   Pr5Sn4
_chemical_formula_sum   'Pr10 Sn8'
_cell_volume   587.88861338
_cell_formula_units_Z   2
loop_
 _symmetry_equiv_pos_site_id
 _symmetry_equiv_pos_as_xyz
  1  'x, y, z'
loop_
 _atom_site_type_symbol
 _atom_site_label
 _atom_site_symmetry_multiplicity
 _atom_site_fract_x
 _atom_site_fract_y
 _atom_site_fract_z
 _atom_site_occupancy
  Pr  Pr0  1  0.25000000  0.25243999  0.99999998  1
  Pr  Pr1  1  0.25000000  0.74755998  0.74755999  1
  Pr  Pr2  1  0.25000000  0.00000000  0.25243999  1
  Pr  Pr3  1  0.74999999  0.74755998  0.00000001  1
  Pr  Pr4  1  0.74999999  0.25243999  0.25244000  1
  Pr  Pr5  1  0.74999999  0.00000000  0.74755998  1
  Pr  Pr6  1  -0.00000000  0.33333332  0.66666665  1
  Pr  Pr7  1  -0.00000000  0.66666664  0.33333333  1
  Pr  Pr8  1  0.49999999  0.66666664  0.33333333  1
  Pr  Pr9  1  0.49999999  0.33333332  0.66666665  1
  Sn  Sn10  1  0.00000000  0.00000000  0.00000000  1
  Sn  Sn11  1  0.49999999  0.00000000  -0.00000000  1
  Sn  Sn12  1  0.25000000  0.60565498  0.00000000  1
  Sn  Sn13  1  0.25000000  0.39434499  0.39434499  1
  Sn  Sn14  1  0.25000000  0.00000000  0.60565498  1
  Sn  Sn15  1  0.74999999  0.39434499  0.99999998  1
  Sn  Sn16  1  0.74999999  0.60565498  0.60565499  1
  Sn  Sn17  1  0.74999999  0.00000000  0.39434499  1
