# generated using pymatgen
data_TaIr3
_symmetry_space_group_name_H-M   'P 1'
_cell_length_a   4.39832497
_cell_length_b   5.53935385
_cell_length_c   5.53935480
_cell_angle_alpha   60.00000381
_cell_angle_beta   90.00000000
_cell_angle_gamma   90.00000000
_symmetry_Int_Tables_number   1
_chemical_formula_structural   TaIr3
_chemical_formula_sum   'Ta2 Ir6'
_cell_volume   116.87893707
_cell_formula_units_Z   2
loop_
 _symmetry_equiv_pos_site_id
 _symmetry_equiv_pos_as_xyz
  1  'x, y, z'
loop_
 _atom_site_type_symbol
 _atom_site_label
 _atom_site_symmetry_multiplicity
 _atom_site_fract_x
 _atom_site_fract_y
 _atom_site_fract_z
 _atom_site_occupancy
  Ta  Ta0  1  0.25000000  0.33333334  0.33333332  1
  Ta  Ta1  1  0.75000001  0.66666668  0.66666665  1
  Ir  Ir2  1  0.75000001  0.66514802  0.16742600  1
  Ir  Ir3  1  0.75000001  0.16742600  0.16742599  1
  Ir  Ir4  1  0.75000001  0.16742600  0.66514798  1
  Ir  Ir5  1  0.25000000  0.33485201  0.83257397  1
  Ir  Ir6  1  0.25000000  0.83257402  0.83257397  1
  Ir  Ir7  1  0.25000000  0.83257402  0.33485199  1
