# generated using pymatgen
data_Eu3Ni2Sn7
_symmetry_space_group_name_H-M   'P 1'
_cell_length_a   4.65422583
_cell_length_b   4.65598202
_cell_length_c   14.09251785
_cell_angle_alpha   99.50846863
_cell_angle_beta   90.00000000
_cell_angle_gamma   90.00000000
_symmetry_Int_Tables_number   1
_chemical_formula_structural   Eu3Ni2Sn7
_chemical_formula_sum   'Eu3 Ni2 Sn7'
_cell_volume   301.18912443
_cell_formula_units_Z   1
loop_
 _symmetry_equiv_pos_site_id
 _symmetry_equiv_pos_as_xyz
  1  'x, y, z'
loop_
 _atom_site_type_symbol
 _atom_site_label
 _atom_site_symmetry_multiplicity
 _atom_site_fract_x
 _atom_site_fract_y
 _atom_site_fract_z
 _atom_site_occupancy
  Eu  Eu0  1  0.00000000  0.81565099  0.63130197  1
  Eu  Eu1  1  0.00000000  0.18434900  0.36869799  1
  Eu  Eu2  1  0.50000002  0.50000000  -0.00000000  1
  Ni  Ni3  1  0.50000002  0.62799099  0.25598199  1
  Ni  Ni4  1  0.50000002  0.37200900  0.74401797  1
  Sn  Sn5  1  0.50000002  0.91064999  0.82129997  1
  Sn  Sn6  1  0.50000002  0.08935000  0.17869999  1
  Sn  Sn7  1  0.50000002  0.71848999  0.43697998  1
  Sn  Sn8  1  0.50000002  0.28151000  0.56301998  1
  Sn  Sn9  1  0.00000000  0.00000000  0.00000000  1
  Sn  Sn10  1  0.00000000  0.41079200  0.82158397  1
  Sn  Sn11  1  0.00000000  0.58920800  0.17841599  1
