# generated using pymatgen
data_Li7Ni3O10
_symmetry_space_group_name_H-M   'P 1'
_cell_length_a   2.87458801
_cell_length_b   5.16084909
_cell_length_c   12.18838501
_cell_angle_alpha   92.23608398
_cell_angle_beta   96.77226257
_cell_angle_gamma   90.00000000
_symmetry_Int_Tables_number   1
_chemical_formula_structural   Li7Ni3O10
_chemical_formula_sum   'Li7 Ni3 O10'
_cell_volume   179.41825349
_cell_formula_units_Z   1
loop_
 _symmetry_equiv_pos_site_id
 _symmetry_equiv_pos_as_xyz
  1  'x, y, z'
loop_
 _atom_site_type_symbol
 _atom_site_label
 _atom_site_symmetry_multiplicity
 _atom_site_fract_x
 _atom_site_fract_y
 _atom_site_fract_z
 _atom_site_occupancy
  Li  Li0  1  0.49585000  0.50260201  0.99170000  1
  Li  Li1  1  0.89999400  0.30062101  0.79998800  1
  Li  Li2  1  0.30328000  0.09350400  0.60656000  1
  Li  Li3  1  0.70125901  0.90662502  0.40251802  1
  Li  Li4  1  0.10023701  0.69849502  0.20047402  1
  Li  Li5  1  0.39892101  0.79881502  0.79784201  1
  Li  Li6  1  0.99592701  0.97744402  0.99185401  1
  Ni  Ni7  1  0.80307800  0.61561601  0.60615601  1
  Ni  Ni8  1  0.60049600  0.19597500  0.20099200  1
  Ni  Ni9  1  0.20108600  0.41419001  0.40217201  1
  O  O10  1  0.54401601  0.85186102  0.08803202  1
  O  O11  1  0.95397300  0.67830902  0.90794601  1
  O  O12  1  0.34411200  0.45725801  0.68822400  1
  O  O13  1  0.74647800  0.29096801  0.49295600  1
  O  O14  1  0.14728300  0.06268200  0.29456600  1
  O  O15  1  0.45527900  0.13567000  0.91055799  1
  O  O16  1  0.84467501  0.91706002  0.68935001  1
  O  O17  1  0.25527501  0.74053002  0.51055001  1
  O  O18  1  0.65663000  0.54689701  0.31326001  1
  O  O19  1  0.05215100  0.31487801  0.10430201  1
