# generated using pymatgen
data_Rb2LiH(SO4)2
_symmetry_space_group_name_H-M   'P 1'
_cell_length_a   5.68398333
_cell_length_b   5.68398333
_cell_length_c   7.80398560
_cell_angle_alpha   72.84069824
_cell_angle_beta   72.84069824
_cell_angle_gamma   61.79208755
_symmetry_Int_Tables_number   1
_chemical_formula_structural   Rb2LiH(SO4)2
_chemical_formula_sum   'Rb2 Li1 H1 S2 O8'
_cell_volume   208.64016785
_cell_formula_units_Z   1
loop_
 _symmetry_equiv_pos_site_id
 _symmetry_equiv_pos_as_xyz
  1  'x, y, z'
loop_
 _atom_site_type_symbol
 _atom_site_label
 _atom_site_symmetry_multiplicity
 _atom_site_fract_x
 _atom_site_fract_y
 _atom_site_fract_z
 _atom_site_occupancy
  Rb  Rb0  1  0.79718500  0.79718497  0.61193596  1
  Rb  Rb1  1  0.20281500  0.20281499  0.38806399  1
  Li  Li2  1  0.00000000  0.00000000  0.00000000  1
  H  H3  1  0.50000000  0.49999998  -0.00000003  1
  S  S4  1  0.57974500  0.57974498  0.23255097  1
  S  S5  1  0.42025500  0.42025498  0.76744898  1
  O  O6  1  0.29683601  0.71719897  0.70024897  1
  O  O7  1  0.71719899  0.29683599  0.70024897  1
  O  O8  1  0.28231000  0.28230999  0.72859999  1
  O  O9  1  0.70316399  0.28280099  0.29975097  1
  O  O10  1  0.28280101  0.70316397  0.29975097  1
  O  O11  1  0.71769000  0.71768997  0.27139996  1
  O  O12  1  0.61873600  0.61873598  0.02119697  1
  O  O13  1  0.38126400  0.38126399  0.97880298  1
