# generated using pymatgen
data_Pr2Al3Ni14
_symmetry_space_group_name_H-M   'P 1'
_cell_length_a   6.44534969
_cell_length_b   6.44534969
_cell_length_c   6.44534922
_cell_angle_alpha   82.37573242
_cell_angle_beta   82.37573242
_cell_angle_gamma   82.37574005
_symmetry_Int_Tables_number   1
_chemical_formula_structural   Pr2Al3Ni14
_chemical_formula_sum   'Pr2 Al3 Ni14'
_cell_volume   261.23203843
_cell_formula_units_Z   1
loop_
 _symmetry_equiv_pos_site_id
 _symmetry_equiv_pos_as_xyz
  1  'x, y, z'
loop_
 _atom_site_type_symbol
 _atom_site_label
 _atom_site_symmetry_multiplicity
 _atom_site_fract_x
 _atom_site_fract_y
 _atom_site_fract_z
 _atom_site_occupancy
  Pr  Pr0  1  0.34676803  0.34676800  0.34676795  1
  Pr  Pr1  1  0.65323205  0.65323200  0.65323190  1
  Al  Al2  1  0.10178401  0.10178400  0.10178398  1
  Al  Al3  1  0.89821607  0.89821600  0.89821586  1
  Al  Al4  1  0.00000000  0.00000000  0.49999999  1
  Ni  Ni5  1  0.00000003  0.50000000  -0.00000004  1
  Ni  Ni6  1  0.50000000  0.00000000  -0.00000003  1
  Ni  Ni7  1  0.70936002  0.29064000  0.99999992  1
  Ni  Ni8  1  0.29064000  0.00000000  0.70935997  1
  Ni  Ni9  1  0.00000005  0.70936000  0.29063994  1
  Ni  Ni10  1  0.70936001  0.00000000  0.29063995  1
  Ni  Ni11  1  0.00000002  0.29064000  0.70935997  1
  Ni  Ni12  1  0.29064005  0.70936000  0.99999991  1
  Ni  Ni13  1  0.65885505  0.65885500  0.15805391  1
  Ni  Ni14  1  0.65885502  0.15805400  0.65885493  1
  Ni  Ni15  1  0.15805404  0.65885500  0.65885493  1
  Ni  Ni16  1  0.34114502  0.34114500  0.84194594  1
  Ni  Ni17  1  0.34114506  0.84194600  0.34114491  1
  Ni  Ni18  1  0.84194603  0.34114500  0.34114492  1
