# generated using pymatgen
data_HoNbO4
_symmetry_space_group_name_H-M   'P 1'
_cell_length_a   5.16156292
_cell_length_b   5.54298496
_cell_length_c   5.35070038
_cell_angle_alpha   90.00000000
_cell_angle_beta   83.47711182
_cell_angle_gamma   90.00000000
_symmetry_Int_Tables_number   1
_chemical_formula_structural   HoNbO4
_chemical_formula_sum   'Ho2 Nb2 O8'
_cell_volume   152.09503531
_cell_formula_units_Z   2
loop_
 _symmetry_equiv_pos_site_id
 _symmetry_equiv_pos_as_xyz
  1  'x, y, z'
loop_
 _atom_site_type_symbol
 _atom_site_label
 _atom_site_symmetry_multiplicity
 _atom_site_fract_x
 _atom_site_fract_y
 _atom_site_fract_z
 _atom_site_occupancy
  Ho  Ho0  1  0.00000000  0.76794801  0.25000000  1
  Ho  Ho1  1  0.00000000  0.23205200  0.75000001  1
  Nb  Nb2  1  0.50000001  0.30802000  0.24999999  1
  Nb  Nb3  1  0.50000001  0.69198000  0.75000000  1
  O  O4  1  0.25002700  0.08759000  0.39867900  1
  O  O5  1  0.74997301  0.08759000  0.10132098  1
  O  O6  1  0.74997301  0.91241001  0.60132099  1
  O  O7  1  0.25002700  0.91241001  0.89867900  1
  O  O8  1  0.26983701  0.56576600  0.50296300  1
  O  O9  1  0.73016301  0.56576600  0.99703699  1
  O  O10  1  0.73016301  0.43423400  0.49703698  1
  O  O11  1  0.26983701  0.43423400  0.00296299  1
