# generated using pymatgen
data_BaNb2Pb3(O4F3)2
_symmetry_space_group_name_H-M   'P 1'
_cell_length_a   4.05481815
_cell_length_b   4.05481815
_cell_length_c   16.76517487
_cell_angle_alpha   89.82618713
_cell_angle_beta   89.82618713
_cell_angle_gamma   89.52117920
_symmetry_Int_Tables_number   1
_chemical_formula_structural   BaNb2Pb3(O4F3)2
_chemical_formula_sum   'Ba1 Nb2 Pb3 O8 F6'
_cell_volume   275.63332412
_cell_formula_units_Z   1
loop_
 _symmetry_equiv_pos_site_id
 _symmetry_equiv_pos_as_xyz
  1  'x, y, z'
loop_
 _atom_site_type_symbol
 _atom_site_label
 _atom_site_symmetry_multiplicity
 _atom_site_fract_x
 _atom_site_fract_y
 _atom_site_fract_z
 _atom_site_occupancy
  Ba  Ba0  1  0.47427801  0.47427802  0.87073601  1
  Nb  Nb1  1  0.51038502  0.51038502  0.11763900  1
  Nb  Nb2  1  0.52378102  0.52378102  0.62319001  1
  Pb  Pb3  1  0.50674802  0.50674802  0.37249801  1
  Pb  Pb4  1  0.05573300  0.05573300  0.26832700  1
  Pb  Pb5  1  0.03728200  0.03728200  0.75230501  1
  O  O6  1  0.00575200  0.00575200  0.46690700  1
  F  F7  1  0.95165803  0.95165804  0.98315302  1
  O  O8  1  0.50846502  0.50846502  0.98895101  1
  O  O9  1  0.49993201  0.49993202  0.51223801  1
  O  O10  1  0.47707201  0.47707202  0.23116601  1
  O  O11  1  0.48690701  0.48690702  0.75436201  1
  O  O12  1  0.99163104  0.49198802  0.10935201  1
  F  F13  1  0.99974904  0.47889202  0.37321101  1
  O  O14  1  0.00445999  0.50139402  0.87212601  1
  F  F15  1  0.00019699  0.49369602  0.63560001  1
  F  F16  1  0.49198801  0.99163104  0.10935201  1
  F  F17  1  0.47889201  0.99974904  0.37321101  1
  F  F18  1  0.49369602  0.00019700  0.63560001  1
  O  O19  1  0.50139402  0.00446000  0.87212601  1
