# generated using pymatgen
data_Ce4SnO4
_symmetry_space_group_name_H-M   'P 1'
_cell_length_a   6.15583420
_cell_length_b   6.15671635
_cell_length_c   9.34454632
_cell_angle_alpha   84.43260956
_cell_angle_beta   70.79376984
_cell_angle_gamma   68.53100586
_symmetry_Int_Tables_number   1
_chemical_formula_structural   Ce4SnO4
_chemical_formula_sum   'Ce8 Sn2 O8'
_cell_volume   311.12831166
_cell_formula_units_Z   2
loop_
 _symmetry_equiv_pos_site_id
 _symmetry_equiv_pos_as_xyz
  1  'x, y, z'
loop_
 _atom_site_type_symbol
 _atom_site_label
 _atom_site_symmetry_multiplicity
 _atom_site_fract_x
 _atom_site_fract_y
 _atom_site_fract_z
 _atom_site_occupancy
  Ce  Ce0  1  0.81549301  0.72819396  0.80443701  1
  Ce  Ce1  1  0.18450701  0.27180599  0.19556300  1
  Ce  Ce2  1  0.23793502  0.75664796  0.00593700  1
  Ce  Ce3  1  0.76206499  0.24335199  0.99406301  1
  Ce  Ce4  1  0.05011603  0.73754396  0.42544402  1
  Ce  Ce5  1  0.94988399  0.26245599  0.57455600  1
  Ce  Ce6  1  0.53716000  0.24846899  0.40533400  1
  Ce  Ce7  1  0.46284002  0.75153096  0.59466601  1
  Sn  Sn8  1  0.60744501  0.72046296  0.23450100  1
  Sn  Sn9  1  0.39255500  0.27953699  0.76549902  1
  O  O10  1  0.31408203  0.98670495  0.38467301  1
  O  O11  1  0.68591799  0.01329500  0.61532700  1
  O  O12  1  0.81216401  0.84333596  0.04191199  1
  O  O13  1  0.18783600  0.15666399  0.95808802  1
  O  O14  1  0.42336901  0.51105597  0.19828200  1
  O  O15  1  0.57663100  0.48894397  0.80171802  1
  O  O16  1  0.19704001  0.48616398  0.62012102  1
  O  O17  1  0.80296000  0.51383597  0.37987900  1
