# generated using pymatgen
data_YbCdPb
_symmetry_space_group_name_H-M   'P 1'
_cell_length_a   4.96313381
_cell_length_b   4.96313477
_cell_length_c   7.78400517
_cell_angle_alpha   90.00000000
_cell_angle_beta   90.00000000
_cell_angle_gamma   119.99999237
_symmetry_Int_Tables_number   1
_chemical_formula_structural   YbCdPb
_chemical_formula_sum   'Yb2 Cd2 Pb2'
_cell_volume   166.05265844
_cell_formula_units_Z   2
loop_
 _symmetry_equiv_pos_site_id
 _symmetry_equiv_pos_as_xyz
  1  'x, y, z'
loop_
 _atom_site_type_symbol
 _atom_site_label
 _atom_site_symmetry_multiplicity
 _atom_site_fract_x
 _atom_site_fract_y
 _atom_site_fract_z
 _atom_site_occupancy
  Yb  Yb0  1  0.00000000  0.00000000  0.24999999  1
  Yb  Yb1  1  0.00000000  0.00000000  0.74999998  1
  Cd  Cd2  1  0.66666667  0.33333332  0.04780400  1
  Cd  Cd3  1  0.33333331  0.66666665  0.54780399  1
  Pb  Pb4  1  0.66666667  0.33333332  0.45219599  1
  Pb  Pb5  1  0.33333331  0.66666665  0.95219598  1
