# generated using pymatgen
data_Lu6UO12
_symmetry_space_group_name_H-M   'P 1'
_cell_length_a   6.43849373
_cell_length_b   6.43849373
_cell_length_c   6.43849325
_cell_angle_alpha   99.19852448
_cell_angle_beta   99.19852448
_cell_angle_gamma   99.19852448
_symmetry_Int_Tables_number   1
_chemical_formula_structural   Lu6UO12
_chemical_formula_sum   'Lu6 U1 O12'
_cell_volume   255.33087832
_cell_formula_units_Z   1
loop_
 _symmetry_equiv_pos_site_id
 _symmetry_equiv_pos_as_xyz
  1  'x, y, z'
loop_
 _atom_site_type_symbol
 _atom_site_label
 _atom_site_symmetry_multiplicity
 _atom_site_fract_x
 _atom_site_fract_y
 _atom_site_fract_z
 _atom_site_occupancy
  Lu  Lu0  1  0.32718996  0.60915499  0.14568794  1
  Lu  Lu1  1  0.60915499  0.14568800  0.32718995  1
  Lu  Lu2  1  0.14568798  0.32719000  0.60915495  1
  Lu  Lu3  1  0.67280998  0.39084500  0.85431191  1
  Lu  Lu4  1  0.39084495  0.85431199  0.67280990  1
  Lu  Lu5  1  0.85431196  0.67280999  0.39084489  1
  U  U6  1  0.00000000  0.00000000  0.00000000  1
  O  O7  1  0.57704995  0.82183599  0.41421590  1
  O  O8  1  0.82183597  0.41421599  0.57704991  1
  O  O9  1  0.41421596  0.57704999  0.82183691  1
  O  O10  1  0.42294999  0.17816300  0.58578395  1
  O  O11  1  0.17816296  0.58578399  0.42294994  1
  O  O12  1  0.58578397  0.42294999  0.17816293  1
  O  O13  1  0.94998599  0.08826900  0.31275293  1
  O  O14  1  0.68724700  0.05001400  0.91173093  1
  O  O15  1  0.91173096  0.68724699  0.05001390  1
  O  O16  1  0.05001395  0.91173099  0.68724692  1
  O  O17  1  0.31275294  0.94998599  0.08826891  1
  O  O18  1  0.08826898  0.31275300  0.94998595  1
