# generated using pymatgen
data_Nb2Co6Ni2P5
_symmetry_space_group_name_H-M   'P 1'
_cell_length_a   5.61164188
_cell_length_b   6.87108088
_cell_length_c   6.87108088
_cell_angle_alpha   80.40100098
_cell_angle_beta   65.89863586
_cell_angle_gamma   65.89863586
_symmetry_Int_Tables_number   1
_chemical_formula_structural   Nb2Co6Ni2P5
_chemical_formula_sum   'Nb2 Co6 Ni2 P5'
_cell_volume   220.75706022
_cell_formula_units_Z   1
loop_
 _symmetry_equiv_pos_site_id
 _symmetry_equiv_pos_as_xyz
  1  'x, y, z'
loop_
 _atom_site_type_symbol
 _atom_site_label
 _atom_site_symmetry_multiplicity
 _atom_site_fract_x
 _atom_site_fract_y
 _atom_site_fract_z
 _atom_site_occupancy
  Nb  Nb0  1  0.50000001  0.00000000  -0.00000000  1
  Nb  Nb1  1  0.89920202  0.39943501  0.80216102  1
  Co  Co2  1  0.10079800  0.60056502  0.19783900  1
  Co  Co3  1  0.70136402  0.19783801  0.39943501  1
  Co  Co4  1  0.29863600  0.80216203  0.60056501  1
  Ni  Ni5  1  0.95417702  0.69778803  0.89863302  1
  Co  Co6  1  0.44940201  0.69778803  0.89863302  1
  Co  Co7  1  0.65196401  0.89863403  0.30221200  1
  P  P8  1  0.14718900  0.89863403  0.30221200  1
  Co  Co9  1  0.75000002  0.50000002  0.50000001  1
  Ni  Ni10  1  0.25000000  0.50000002  0.50000001  1
  P  P11  1  0.04582300  0.30221201  0.10136700  1
  P  P12  1  0.55059801  0.30221201  0.10136700  1
  P  P13  1  0.85281102  0.10136600  0.69778802  1
  P  P14  1  0.34803601  0.10136600  0.69778802  1
