# generated using pymatgen
data_MnSO4
_symmetry_space_group_name_H-M   'P 1'
_cell_length_a   4.76065731
_cell_length_b   4.76065683
_cell_length_c   6.45011282
_cell_angle_alpha   90.00000000
_cell_angle_beta   90.00000000
_cell_angle_gamma   112.72064972
_symmetry_Int_Tables_number   1
_chemical_formula_structural   MnSO4
_chemical_formula_sum   'Mn2 S2 O8'
_cell_volume   134.84036111
_cell_formula_units_Z   2
loop_
 _symmetry_equiv_pos_site_id
 _symmetry_equiv_pos_as_xyz
  1  'x, y, z'
loop_
 _atom_site_type_symbol
 _atom_site_label
 _atom_site_symmetry_multiplicity
 _atom_site_fract_x
 _atom_site_fract_y
 _atom_site_fract_z
 _atom_site_occupancy
  Mn  Mn0  1  0.00000000  0.00000000  0.00000000  1
  Mn  Mn1  1  0.00000000  0.00000000  0.50000001  1
  S  S2  1  0.65345299  0.34654699  0.25000001  1
  S  S3  1  0.34654700  0.65345298  0.75000002  1
  O  O4  1  0.75997299  0.24002699  0.05270700  1
  O  O5  1  0.29421000  0.22048599  0.25000001  1
  O  O6  1  0.77951400  0.70578998  0.25000001  1
  O  O7  1  0.75997299  0.24002699  0.44729301  1
  O  O8  1  0.24002701  0.75997298  0.55270702  1
  O  O9  1  0.70579000  0.77951398  0.75000002  1
  O  O10  1  0.22048600  0.29420999  0.75000002  1
  O  O11  1  0.24002701  0.75997298  0.94729303  1
