# generated using pymatgen
data_MnV3O6
_symmetry_space_group_name_H-M   'P 1'
_cell_length_a   4.92590094
_cell_length_b   4.92590094
_cell_length_c   5.35634422
_cell_angle_alpha   62.62454224
_cell_angle_beta   62.62454224
_cell_angle_gamma   59.99998856
_symmetry_Int_Tables_number   1
_chemical_formula_structural   MnV3O6
_chemical_formula_sum   'Mn1 V3 O6'
_cell_volume   95.38043101
_cell_formula_units_Z   1
loop_
 _symmetry_equiv_pos_site_id
 _symmetry_equiv_pos_as_xyz
  1  'x, y, z'
loop_
 _atom_site_type_symbol
 _atom_site_label
 _atom_site_symmetry_multiplicity
 _atom_site_fract_x
 _atom_site_fract_y
 _atom_site_fract_z
 _atom_site_occupancy
  V  V0  1  0.63960795  0.63960798  0.08117602  1
  V  V1  1  0.36039197  0.36039199  0.91882403  1
  V  V2  1  0.83957693  0.83957697  0.48126903  1
  Mn  Mn3  1  0.16042299  0.16042300  0.51873102  1
  O  O4  1  0.95748994  0.56027398  0.26942603  1
  O  O5  1  0.56027397  0.21280999  0.26942602  1
  O  O6  1  0.21280995  0.95748997  0.26942603  1
  O  O7  1  0.78718996  0.04251000  0.73057402  1
  O  O8  1  0.43972595  0.78718998  0.73057404  1
  O  O9  1  0.04250998  0.43972599  0.73057403  1
