# generated using pymatgen
data_Tb(GeIr)2
_symmetry_space_group_name_H-M   'P 1'
_cell_length_a   4.17911196
_cell_length_b   4.17911196
_cell_length_c   5.74665022
_cell_angle_alpha   111.32224274
_cell_angle_beta   111.32224274
_cell_angle_gamma   90.00000000
_symmetry_Int_Tables_number   1
_chemical_formula_structural   Tb(GeIr)2
_chemical_formula_sum   'Tb1 Ge2 Ir2'
_cell_volume   86.07859536
_cell_formula_units_Z   1
loop_
 _symmetry_equiv_pos_site_id
 _symmetry_equiv_pos_as_xyz
  1  'x, y, z'
loop_
 _atom_site_type_symbol
 _atom_site_label
 _atom_site_symmetry_multiplicity
 _atom_site_fract_x
 _atom_site_fract_y
 _atom_site_fract_z
 _atom_site_occupancy
  Tb  Tb0  1  0.00000000  0.00000000  0.00000000  1
  Ge  Ge1  1  0.61716003  0.61716002  0.23432004  1
  Ge  Ge2  1  0.38284002  0.38284001  0.76568005  1
  Ir  Ir3  1  0.75000003  0.25000001  0.50000004  1
  Ir  Ir4  1  0.25000003  0.75000002  0.50000005  1
