# generated using pymatgen
data_KSb6Pt7
_symmetry_space_group_name_H-M   'P 1'
_cell_length_a   7.57643223
_cell_length_b   7.57643223
_cell_length_c   7.57643223
_cell_angle_alpha   108.77211761
_cell_angle_beta   108.77211761
_cell_angle_gamma   110.87865448
_symmetry_Int_Tables_number   1
_chemical_formula_structural   KSb6Pt7
_chemical_formula_sum   'K1 Sb6 Pt7'
_cell_volume   334.63798408
_cell_formula_units_Z   1
loop_
 _symmetry_equiv_pos_site_id
 _symmetry_equiv_pos_as_xyz
  1  'x, y, z'
loop_
 _atom_site_type_symbol
 _atom_site_label
 _atom_site_symmetry_multiplicity
 _atom_site_fract_x
 _atom_site_fract_y
 _atom_site_fract_z
 _atom_site_occupancy
  K  K0  1  0.24999998  0.24999999  0.99999998  1
  Sb  Sb1  1  0.74999993  0.74999997  -0.00000010  1
  Sb  Sb2  1  0.14665697  0.35334198  0.49999997  1
  Sb  Sb3  1  0.64665699  0.14665699  0.79331397  1
  Sb  Sb4  1  0.35334292  0.85334296  0.20668591  1
  Sb  Sb5  1  0.85334294  0.64665797  0.49999991  1
  Pt  Pt6  1  0.31512492  0.81512496  0.80006993  1
  Sb  Sb7  1  0.51505497  0.31512599  0.49999996  1
  Pt  Pt8  1  0.01505495  0.51505498  0.19992996  1
  Pt  Pt9  1  0.81512500  0.01505400  0.49999997  1
  Pt  Pt10  1  0.48494494  0.68487397  0.49999993  1
  Pt  Pt11  1  0.98494496  0.48494498  0.80006993  1
  Pt  Pt12  1  0.68487498  0.18487499  0.19992996  1
  Pt  Pt13  1  0.18487491  0.98494596  0.49999991  1
