# generated using pymatgen
data_K2Ti5VS10
_symmetry_space_group_name_H-M   'P 1'
_cell_length_a   3.51075411
_cell_length_b   9.91342545
_cell_length_c   10.89887810
_cell_angle_alpha   70.84973907
_cell_angle_beta   80.73155212
_cell_angle_gamma   79.80081940
_symmetry_Int_Tables_number   1
_chemical_formula_structural   K2Ti5VS10
_chemical_formula_sum   'K2 Ti5 V1 S10'
_cell_volume   350.49720237
_cell_formula_units_Z   1
loop_
 _symmetry_equiv_pos_site_id
 _symmetry_equiv_pos_as_xyz
  1  'x, y, z'
loop_
 _atom_site_type_symbol
 _atom_site_label
 _atom_site_symmetry_multiplicity
 _atom_site_fract_x
 _atom_site_fract_y
 _atom_site_fract_z
 _atom_site_occupancy
  K  K0  1  0.26132802  0.65160800  0.82573600  1
  K  K1  1  0.73867199  0.34839200  0.17426400  1
  Ti  Ti2  1  0.49999998  0.00000000  -0.00000000  1
  Ti  Ti3  1  0.50000000  0.50000000  0.50000000  1
  Ti  Ti4  1  0.16443600  0.05924600  0.61188199  1
  Ti  Ti5  1  0.83556401  0.94075400  0.38811801  1
  Ti  Ti6  1  0.98351398  0.26038900  0.77258299  1
  V  V7  1  0.01648603  0.73961100  0.22741701  1
  S  S8  1  0.07594904  0.99932600  0.84877600  1
  S  S9  1  0.92405097  0.00067400  0.15122400  1
  S  S10  1  0.41028400  0.26209800  0.91733399  1
  S  S11  1  0.58971601  0.73790200  0.08266601  1
  S  S12  1  0.57591699  0.24071500  0.60745099  1
  S  S13  1  0.42408302  0.75928500  0.39254901  1
  S  S14  1  0.74434601  0.89352500  0.61778300  1
  S  S15  1  0.25565400  0.10647500  0.38221700  1
  S  S16  1  0.92000899  0.50807500  0.65190700  1
  S  S17  1  0.07999102  0.49192500  0.34809300  1
