# generated using pymatgen
data_Dy3Ir2
_symmetry_space_group_name_H-M   'P 1'
_cell_length_a   4.74746609
_cell_length_b   7.63970900
_cell_length_c   7.63970852
_cell_angle_alpha   120.00000000
_cell_angle_beta   90.00000000
_cell_angle_gamma   90.00000000
_symmetry_Int_Tables_number   1
_chemical_formula_structural   Dy3Ir2
_chemical_formula_sum   'Dy6 Ir4'
_cell_volume   239.96400851
_cell_formula_units_Z   2
loop_
 _symmetry_equiv_pos_site_id
 _symmetry_equiv_pos_as_xyz
  1  'x, y, z'
loop_
 _atom_site_type_symbol
 _atom_site_label
 _atom_site_symmetry_multiplicity
 _atom_site_fract_x
 _atom_site_fract_y
 _atom_site_fract_z
 _atom_site_occupancy
  Dy  Dy0  1  0.74999999  0.69514902  0.07817004  1
  Dy  Dy1  1  0.25000000  0.30485101  0.92183004  1
  Dy  Dy2  1  0.74999999  0.38302101  0.30485003  1
  Dy  Dy3  1  0.25000000  0.61697902  0.69515005  1
  Dy  Dy4  1  0.74999999  0.92182903  0.61697807  1
  Dy  Dy5  1  0.25000000  0.07817100  0.38302201  1
  Ir  Ir6  1  0.74999999  0.33333334  0.66666670  1
  Ir  Ir7  1  0.25000000  0.66666669  0.33333338  1
  Ir  Ir8  1  0.00000000  0.00000000  0.00000000  1
  Ir  Ir9  1  0.49999999  0.00000000  -0.00000000  1
