# generated using pymatgen
data_BaSr
_symmetry_space_group_name_H-M   'P 1'
_cell_length_a   7.09724092
_cell_length_b   9.04368401
_cell_length_c   9.04368401
_cell_angle_alpha   120.00000000
_cell_angle_beta   90.00000000
_cell_angle_gamma   90.00000000
_symmetry_Int_Tables_number   1
_chemical_formula_structural   BaSr
_chemical_formula_sum   'Ba4 Sr4'
_cell_volume   502.70237665
_cell_formula_units_Z   4
loop_
 _symmetry_equiv_pos_site_id
 _symmetry_equiv_pos_as_xyz
  1  'x, y, z'
loop_
 _atom_site_type_symbol
 _atom_site_label
 _atom_site_symmetry_multiplicity
 _atom_site_fract_x
 _atom_site_fract_y
 _atom_site_fract_z
 _atom_site_occupancy
  Ba  Ba0  1  0.25000000  0.17169100  0.34338200  1
  Ba  Ba1  1  0.25000000  0.65661800  0.82830899  1
  Ba  Ba2  1  0.25000000  0.17169100  0.82830899  1
  Ba  Ba3  1  0.75000001  0.82830900  0.65661799  1
  Sr  Sr4  1  0.75000001  0.34338200  0.17169100  1
  Sr  Sr5  1  0.75000001  0.82830900  0.17169099  1
  Sr  Sr6  1  0.75000001  0.33333333  0.66666666  1
  Sr  Sr7  1  0.25000000  0.66666666  0.33333333  1
