# generated using pymatgen
data_Ce5(BiO4)2
_symmetry_space_group_name_H-M   'P 1'
_cell_length_a   6.60475969
_cell_length_b   6.60475969
_cell_length_c   6.60475969
_cell_angle_alpha   89.12772369
_cell_angle_beta   89.12772369
_cell_angle_gamma   89.12772369
_symmetry_Int_Tables_number   1
_chemical_formula_structural   Ce5(BiO4)2
_chemical_formula_sum   'Ce5 Bi2 O8'
_cell_volume   288.01928544
_cell_formula_units_Z   1
loop_
 _symmetry_equiv_pos_site_id
 _symmetry_equiv_pos_as_xyz
  1  'x, y, z'
loop_
 _atom_site_type_symbol
 _atom_site_label
 _atom_site_symmetry_multiplicity
 _atom_site_fract_x
 _atom_site_fract_y
 _atom_site_fract_z
 _atom_site_occupancy
  Bi  Bi0  1  0.22748600  0.56315199  0.41506805  1
  Ce  Ce1  1  0.58493200  0.77251399  0.43684807  1
  Ce  Ce2  1  0.56315200  0.41506799  0.22748605  1
  Ce  Ce3  1  0.77251399  0.43684799  0.58493207  1
  Ce  Ce4  1  0.43684800  0.58493199  0.77251407  1
  Ce  Ce5  1  0.41506800  0.22748600  0.56315204  1
  Bi  Bi6  1  0.00000000  0.00000000  0.00000000  1
  O  O7  1  0.87405099  0.61526499  0.25926107  1
  O  O8  1  0.24473900  0.24473900  0.24473903  1
  O  O9  1  0.38473500  0.74073899  0.12594905  1
  O  O10  1  0.12594900  0.38473499  0.74073905  1
  O  O11  1  0.74073899  0.12594900  0.38473505  1
  O  O12  1  0.61526499  0.25926100  0.87405106  1
  O  O13  1  0.75526100  0.75526099  0.75526109  1
  O  O14  1  0.25926101  0.87405099  0.61526507  1
