# generated using pymatgen
data_Ce2CuGe6
_symmetry_space_group_name_H-M   'P 1'
_cell_length_a   4.07297993
_cell_length_b   4.09045792
_cell_length_c   10.87380219
_cell_angle_alpha   90.00000000
_cell_angle_beta   100.79432678
_cell_angle_gamma   90.00000000
_symmetry_Int_Tables_number   1
_chemical_formula_structural   Ce2CuGe6
_chemical_formula_sum   'Ce2 Cu1 Ge6'
_cell_volume   177.95587691
_cell_formula_units_Z   1
loop_
 _symmetry_equiv_pos_site_id
 _symmetry_equiv_pos_as_xyz
  1  'x, y, z'
loop_
 _atom_site_type_symbol
 _atom_site_label
 _atom_site_symmetry_multiplicity
 _atom_site_fract_x
 _atom_site_fract_y
 _atom_site_fract_z
 _atom_site_occupancy
  Ce  Ce0  1  0.99715001  0.00000000  0.99430000  1
  Ce  Ce1  1  0.33112800  0.00000000  0.66225600  1
  Cu  Cu2  1  0.77669901  0.50000001  0.55339800  1
  Ge  Ge3  1  0.71643001  0.00000000  0.43286000  1
  Ge  Ge4  1  0.60053601  0.00000000  0.20107200  1
  Ge  Ge5  1  0.45584801  0.50000001  0.91169600  1
  Ge  Ge6  1  0.88540401  0.50000001  0.77080800  1
  Ge  Ge7  1  0.09978800  0.50000001  0.19957600  1
  Ge  Ge8  1  0.21601600  0.50000001  0.43203200  1
