# generated using pymatgen
data_Li4NiO5
_symmetry_space_group_name_H-M   'P 1'
_cell_length_a   5.08347988
_cell_length_b   5.11219168
_cell_length_c   7.78530264
_cell_angle_alpha   83.72914886
_cell_angle_beta   70.94477844
_cell_angle_gamma   70.45389557
_symmetry_Int_Tables_number   1
_chemical_formula_structural   Li4NiO5
_chemical_formula_sum   'Li8 Ni2 O10'
_cell_volume   180.21547986
_cell_formula_units_Z   2
loop_
 _symmetry_equiv_pos_site_id
 _symmetry_equiv_pos_as_xyz
  1  'x, y, z'
loop_
 _atom_site_type_symbol
 _atom_site_label
 _atom_site_symmetry_multiplicity
 _atom_site_fract_x
 _atom_site_fract_y
 _atom_site_fract_z
 _atom_site_occupancy
  Li  Li0  1  0.79958505  0.49999997  0.40082999  1
  Li  Li1  1  0.69933508  0.99999995  0.60133000  1
  Li  Li2  1  0.20014703  0.49999997  0.59970600  1
  Li  Li3  1  0.50384201  0.00000000  0.99231600  1
  Li  Li4  1  0.60750805  0.49999997  0.78498400  1
  Li  Li5  1  0.30375001  0.00000000  0.39250000  1
  Li  Li6  1  0.89986508  0.99999995  0.20026999  1
  Li  Li7  1  0.99914606  0.49999997  0.00170799  1
  Ni  Ni8  1  0.39830004  0.49999997  0.20340000  1
  Ni  Ni9  1  0.10018900  0.00000000  0.79962200  1
  O  O10  1  0.94498104  0.25051299  0.60427599  1
  O  O11  1  0.63592306  0.75879296  0.21322100  1
  O  O12  1  0.53343103  0.23078999  0.39699000  1
  O  O13  1  0.83388807  0.73076196  0.80339300  1
  O  O14  1  0.75130604  0.25955299  0.99356300  1
  O  O15  1  0.15085602  0.24120699  0.21322100  1
  O  O16  1  0.36271903  0.26923799  0.80339300  1
  O  O17  1  0.45074306  0.74948696  0.60427600  1
  O  O18  1  0.06957905  0.76920996  0.39699000  1
  O  O19  1  0.25513105  0.74044696  0.99356300  1
