# generated using pymatgen
data_NaPb2
_symmetry_space_group_name_H-M   'P 1'
_cell_length_a   4.74822521
_cell_length_b   7.75559807
_cell_length_c   7.75559807
_cell_angle_alpha   120.00000000
_cell_angle_beta   90.00000000
_cell_angle_gamma   90.00000000
_symmetry_Int_Tables_number   1
_chemical_formula_structural   NaPb2
_chemical_formula_sum   'Na3 Pb6'
_cell_volume   247.33895922
_cell_formula_units_Z   3
loop_
 _symmetry_equiv_pos_site_id
 _symmetry_equiv_pos_as_xyz
  1  'x, y, z'
loop_
 _atom_site_type_symbol
 _atom_site_label
 _atom_site_symmetry_multiplicity
 _atom_site_fract_x
 _atom_site_fract_y
 _atom_site_fract_z
 _atom_site_occupancy
  Na  Na0  1  -0.00000000  0.42741500  0.42741501  1
  Na  Na1  1  -0.00000000  1.00000000  0.57258501  1
  Na  Na2  1  -0.00000000  0.57258500  1.00000001  1
  Pb  Pb3  1  0.49999998  0.75803000  0.75803001  1
  Pb  Pb4  1  0.49999998  1.00000000  0.24197001  1
  Pb  Pb5  1  0.49999998  0.24197000  0.00000000  1
  Pb  Pb6  1  0.49999998  0.66666666  0.33333334  1
  Pb  Pb7  1  0.49999998  0.33333333  0.66666667  1
  Pb  Pb8  1  0.00000000  0.00000000  0.00000000  1
