# generated using pymatgen
data_SrTiO3
_symmetry_space_group_name_H-M   'P 1'
_cell_length_a   4.02989388
_cell_length_b   8.11272049
_cell_length_c   8.97409916
_cell_angle_alpha   116.84471893
_cell_angle_beta   90.00044250
_cell_angle_gamma   90.00048828
_symmetry_Int_Tables_number   1
_chemical_formula_structural   SrTiO3
_chemical_formula_sum   'Sr4 Ti4 O12'
_cell_volume   261.77585101
_cell_formula_units_Z   4
loop_
 _symmetry_equiv_pos_site_id
 _symmetry_equiv_pos_as_xyz
  1  'x, y, z'
loop_
 _atom_site_type_symbol
 _atom_site_label
 _atom_site_symmetry_multiplicity
 _atom_site_fract_x
 _atom_site_fract_y
 _atom_site_fract_z
 _atom_site_occupancy
  Sr  Sr0  1  0.99998403  0.00883300  0.01578099  1
  Sr  Sr1  1  0.99996501  0.50688097  0.01577296  1
  Sr  Sr2  1  0.99998402  0.24306199  0.48422297  1
  Sr  Sr3  1  0.99996499  0.74115796  0.48419894  1
  Ti  Ti4  1  0.49998300  0.37496798  0.24988497  1
  Ti  Ti5  1  0.50040597  0.87528695  0.25016594  1
  Ti  Ti6  1  0.49997698  0.62516596  0.75035395  1
  Ti  Ti7  1  0.49997101  0.12481699  0.74965697  1
  O  O8  1  0.49997700  0.25448799  0.00916798  1
  O  O9  1  0.49997398  0.75464096  0.00918095  1
  O  O10  1  0.49998599  0.49551597  0.49088796  1
  O  O11  1  0.49999697  0.99532594  0.49078493  1
  O  O12  1  0.49998300  0.37499498  0.74999096  1
  O  O13  1  0.49998097  0.87497895  0.74998893  1
  O  O14  1  0.99998500  0.62466096  0.74935994  1
  O  O15  1  0.99998302  0.12530699  0.75061797  1
  O  O16  1  0.49995501  0.13139699  0.25012898  1
  O  O17  1  0.50000299  0.61854796  0.24985796  1
  O  O18  1  0.99997301  0.37498598  0.25000196  1
  O  O19  1  0.99996899  0.87498195  0.24998993  1
