# generated using pymatgen
data_Na2Ag4ClO9
_symmetry_space_group_name_H-M   'P 1'
_cell_length_a   6.57084513
_cell_length_b   6.57084513
_cell_length_c   6.57084513
_cell_angle_alpha   60.00000000
_cell_angle_beta   60.00000000
_cell_angle_gamma   60.00000000
_symmetry_Int_Tables_number   1
_chemical_formula_structural   Na2Ag4ClO9
_chemical_formula_sum   'Na2 Ag4 Cl1 O9'
_cell_volume   200.60820664
_cell_formula_units_Z   1
loop_
 _symmetry_equiv_pos_site_id
 _symmetry_equiv_pos_as_xyz
  1  'x, y, z'
loop_
 _atom_site_type_symbol
 _atom_site_label
 _atom_site_symmetry_multiplicity
 _atom_site_fract_x
 _atom_site_fract_y
 _atom_site_fract_z
 _atom_site_occupancy
  Na  Na0  1  0.00000000  0.00000000  0.00000000  1
  Na  Na1  1  0.49999998  0.49999998  -0.00000000  1
  Ag  Ag2  1  -0.00000000  0.49999998  0.49999998  1
  Ag  Ag3  1  -0.00000000  0.49999998  -0.00000000  1
  Ag  Ag4  1  -0.00000000  0.00000000  0.49999998  1
  Ag  Ag5  1  0.49999998  0.00000000  -0.00000000  1
  Cl  Cl6  1  0.49999998  0.00000000  0.49999998  1
  O  O7  1  0.49999998  0.49999998  0.49999998  1
  O  O8  1  0.14449700  0.56650898  0.14449700  1
  O  O9  1  0.14449700  0.14449700  0.14449700  1
  O  O10  1  0.14449700  0.14449700  0.56650898  1
  O  O11  1  0.56650898  0.14449700  0.14449700  1
  O  O12  1  0.85550297  0.43349099  0.85550297  1
  O  O13  1  0.85550297  0.85550297  0.85550297  1
  O  O14  1  0.85550297  0.85550297  0.43349099  1
  O  O15  1  0.43349099  0.85550297  0.85550297  1
