# generated using pymatgen
data_Mn3Al2Ge3
_symmetry_space_group_name_H-M   'P 1'
_cell_length_a   5.03021717
_cell_length_b   6.73405218
_cell_length_c   7.99228811
_cell_angle_alpha   100.93680573
_cell_angle_beta   104.73406219
_cell_angle_gamma   101.40113068
_symmetry_Int_Tables_number   1
_chemical_formula_structural   Mn3Al2Ge3
_chemical_formula_sum   'Mn6 Al4 Ge6'
_cell_volume   248.29904569
_cell_formula_units_Z   2
loop_
 _symmetry_equiv_pos_site_id
 _symmetry_equiv_pos_as_xyz
  1  'x, y, z'
loop_
 _atom_site_type_symbol
 _atom_site_label
 _atom_site_symmetry_multiplicity
 _atom_site_fract_x
 _atom_site_fract_y
 _atom_site_fract_z
 _atom_site_occupancy
  Mn  Mn0  1  0.77696299  0.54699500  0.53960001  1
  Mn  Mn1  1  0.22303700  0.45300500  0.46040000  1
  Mn  Mn2  1  0.91357098  0.17800600  0.04556901  1
  Mn  Mn3  1  0.08642901  0.82199400  0.95443100  1
  Mn  Mn4  1  0.55134699  0.14285600  0.27413601  1
  Mn  Mn5  1  0.44865300  0.85714400  0.72586400  1
  Al  Al6  1  0.68061799  0.47359900  0.87212201  1
  Al  Al7  1  0.31938200  0.52640100  0.12787799  1
  Al  Al8  1  0.04114702  0.90623400  0.34644598  1
  Al  Al9  1  0.95885297  0.09376600  0.65355402  1
  Ge  Ge10  1  0.84786498  0.51377500  0.22438400  1
  Ge  Ge11  1  0.15213500  0.48622500  0.77561600  1
  Ge  Ge12  1  0.63519500  0.82698400  0.04978299  1
  Ge  Ge13  1  0.36480499  0.17301600  0.95021702  1
  Ge  Ge14  1  0.54434700  0.80480600  0.42178899  1
  Ge  Ge15  1  0.45565299  0.19519400  0.57821101  1
