# generated using pymatgen
data_Mn2GaGe
_symmetry_space_group_name_H-M   'P 1'
_cell_length_a   4.32563782
_cell_length_b   4.32563782
_cell_length_c   7.44070578
_cell_angle_alpha   73.10169983
_cell_angle_beta   73.10169983
_cell_angle_gamma   60.00000763
_symmetry_Int_Tables_number   1
_chemical_formula_structural   Mn2GaGe
_chemical_formula_sum   'Mn2 Ga1 Ge1'
_cell_volume   113.57725049
_cell_formula_units_Z   1
loop_
 _symmetry_equiv_pos_site_id
 _symmetry_equiv_pos_as_xyz
  1  'x, y, z'
loop_
 _atom_site_type_symbol
 _atom_site_label
 _atom_site_symmetry_multiplicity
 _atom_site_fract_x
 _atom_site_fract_y
 _atom_site_fract_z
 _atom_site_occupancy
  Mn  Mn0  1  0.50697301  0.50697297  0.47908098  1
  Mn  Mn1  1  0.99404201  0.99404194  0.01787393  1
  Ga  Ga2  1  0.11829100  0.11829099  0.64512701  1
  Ge  Ge3  1  0.63069401  0.63069396  0.10791796  1
