# generated using pymatgen
data_Sr4Sn4GePd3
_symmetry_space_group_name_H-M   'P 1'
_cell_length_a   4.70744324
_cell_length_b   7.62718487
_cell_length_c   8.17362309
_cell_angle_alpha   90.00000000
_cell_angle_beta   90.00000000
_cell_angle_gamma   90.00000000
_symmetry_Int_Tables_number   1
_chemical_formula_structural   Sr4Sn4GePd3
_chemical_formula_sum   'Sr4 Sn4 Ge1 Pd3'
_cell_volume   293.47017558
_cell_formula_units_Z   1
loop_
 _symmetry_equiv_pos_site_id
 _symmetry_equiv_pos_as_xyz
  1  'x, y, z'
loop_
 _atom_site_type_symbol
 _atom_site_label
 _atom_site_symmetry_multiplicity
 _atom_site_fract_x
 _atom_site_fract_y
 _atom_site_fract_z
 _atom_site_occupancy
  Sr  Sr0  1  0.74999996  0.48455801  0.80552299  1
  Sr  Sr1  1  0.24999999  0.01544200  0.30552300  1
  Sr  Sr2  1  0.74999996  0.98455802  0.69447699  1
  Sr  Sr3  1  0.24999999  0.51544201  0.19447700  1
  Sn  Sn4  1  0.24999999  0.67349301  0.58264199  1
  Sn  Sn5  1  0.24999999  0.17349300  0.91735799  1
  Sn  Sn6  1  0.74999996  0.32650701  0.41735800  1
  Sn  Sn7  1  0.74999996  0.82650701  0.08264200  1
  Pd  Pd8  1  0.24999999  0.78897001  0.90801199  1
  Pd  Pd9  1  0.24999999  0.28897001  0.59198799  1
  Pd  Pd10  1  0.74999996  0.71103001  0.40801200  1
  Ge  Ge11  1  0.74999996  0.21103000  0.09198800  1
