# generated using pymatgen
data_Ba2Yb(BO3)2
_symmetry_space_group_name_H-M   'P 1'
_cell_length_a   5.47404003
_cell_length_b   5.47392130
_cell_length_c   6.83194494
_cell_angle_alpha   66.38224792
_cell_angle_beta   66.38300323
_cell_angle_gamma   59.99928665
_symmetry_Int_Tables_number   1
_chemical_formula_structural   Ba2Yb(BO3)2
_chemical_formula_sum   'Ba2 Yb1 B2 O6'
_cell_volume   157.17713969
_cell_formula_units_Z   1
loop_
 _symmetry_equiv_pos_site_id
 _symmetry_equiv_pos_as_xyz
  1  'x, y, z'
loop_
 _atom_site_type_symbol
 _atom_site_label
 _atom_site_symmetry_multiplicity
 _atom_site_fract_x
 _atom_site_fract_y
 _atom_site_fract_z
 _atom_site_occupancy
  Ba  Ba0  1  0.21969401  0.21975301  0.34085899  1
  Ba  Ba1  1  0.79227305  0.79228705  0.62316594  1
  Yb  Yb2  1  0.99793506  0.99791706  0.00621291  1
  B  B3  1  0.58671404  0.58672404  0.23984795  1
  B  B4  1  0.41017502  0.41014902  0.76950098  1
  O  O5  1  0.73403705  0.29297902  0.23894696  1
  O  O6  1  0.73402104  0.73405304  0.23895494  1
  O  O7  1  0.29297202  0.73405304  0.23895496  1
  O  O8  1  0.26410801  0.70392204  0.76786297  1
  O  O9  1  0.26412102  0.26408202  0.76784599  1
  O  O10  1  0.70395004  0.26408202  0.76784597  1
