# generated using pymatgen
data_PrGe2Rh
_symmetry_space_group_name_H-M   'P 1'
_cell_length_a   4.38682795
_cell_length_b   4.41658401
_cell_length_c   8.97120094
_cell_angle_alpha   75.74999237
_cell_angle_beta   90.00000000
_cell_angle_gamma   90.00000000
_symmetry_Int_Tables_number   1
_chemical_formula_structural   PrGe2Rh
_chemical_formula_sum   'Pr2 Ge4 Rh2'
_cell_volume   168.46703141
_cell_formula_units_Z   2
loop_
 _symmetry_equiv_pos_site_id
 _symmetry_equiv_pos_as_xyz
  1  'x, y, z'
loop_
 _atom_site_type_symbol
 _atom_site_label
 _atom_site_symmetry_multiplicity
 _atom_site_fract_x
 _atom_site_fract_y
 _atom_site_fract_z
 _atom_site_occupancy
  Pr  Pr0  1  0.25000000  0.89211399  0.21577201  1
  Pr  Pr1  1  0.75000001  0.10788600  0.78422801  1
  Ge  Ge2  1  0.25000000  0.54176700  0.91646601  1
  Ge  Ge3  1  0.75000001  0.45823300  0.08353401  1
  Ge  Ge4  1  0.25000000  0.25035100  0.49929801  1
  Ge  Ge5  1  0.75000001  0.74964899  0.50070201  1
  Rh  Rh6  1  0.25000000  0.68123999  0.63752001  1
  Rh  Rh7  1  0.75000001  0.31876000  0.36248001  1
