# generated using pymatgen
data_K2TaCu2O5F8
_symmetry_space_group_name_H-M   'P 1'
_cell_length_a   7.23415041
_cell_length_b   7.23415041
_cell_length_c   7.39449310
_cell_angle_alpha   118.75971222
_cell_angle_beta   118.75971222
_cell_angle_gamma   90.93951416
_symmetry_Int_Tables_number   1
_chemical_formula_structural   K2TaCu2O5F8
_chemical_formula_sum   'K2 Ta1 Cu2 O5 F8'
_cell_volume   281.49728794
_cell_formula_units_Z   1
loop_
 _symmetry_equiv_pos_site_id
 _symmetry_equiv_pos_as_xyz
  1  'x, y, z'
loop_
 _atom_site_type_symbol
 _atom_site_label
 _atom_site_symmetry_multiplicity
 _atom_site_fract_x
 _atom_site_fract_y
 _atom_site_fract_z
 _atom_site_occupancy
  K  K0  1  0.50000008  0.50000005  0.00000010  1
  K  K1  1  0.25000010  0.75000007  0.50000011  1
  Ta  Ta2  1  0.38625704  0.14488001  0.26399704  1
  Cu  Cu3  1  0.87774006  0.11911701  0.26399707  1
  Cu  Cu4  1  0.85512012  0.61374306  0.73600313  1
  O  O5  1  0.88088306  0.12226001  0.73600306  1
  O  O6  1  0.92714110  0.42714104  0.85428211  1
  O  O7  1  0.57285904  0.07285901  0.14571805  1
  O  O8  1  0.93897006  0.06103001  0.50000006  1
  O  O9  1  0.56103008  0.43897004  0.50000009  1
  F  F10  1  0.82961314  0.82961308  0.65922616  1
  F  F11  1  0.17038703  0.17038702  0.34077403  1
  F  F12  1  0.55155004  0.05155000  0.50000004  1
  F  F13  1  0.94845010  0.44845004  0.50000012  1
  F  F14  1  0.80609007  0.19391002  0.00000008  1
  F  F15  1  0.19391010  0.80609007  0.00000012  1
  F  F16  1  0.20001603  0.20001602  0.00000004  1
  F  F17  1  0.79998413  0.79998407  0.00000016  1
