# generated using pymatgen
data_Tb2Ge3
_symmetry_space_group_name_H-M   'P 1'
_cell_length_a   4.27923203
_cell_length_b   5.38551903
_cell_length_c   5.45064592
_cell_angle_alpha   119.60552216
_cell_angle_beta   113.11286163
_cell_angle_gamma   90.00000000
_symmetry_Int_Tables_number   1
_chemical_formula_structural   Tb2Ge3
_chemical_formula_sum   'Tb2 Ge3'
_cell_volume   97.45067337
_cell_formula_units_Z   1
loop_
 _symmetry_equiv_pos_site_id
 _symmetry_equiv_pos_as_xyz
  1  'x, y, z'
loop_
 _atom_site_type_symbol
 _atom_site_label
 _atom_site_symmetry_multiplicity
 _atom_site_fract_x
 _atom_site_fract_y
 _atom_site_fract_z
 _atom_site_occupancy
  Tb  Tb0  1  0.20079703  0.70079801  0.40159504  1
  Tb  Tb1  1  0.79920302  0.29920200  0.59840505  1
  Ge  Ge2  1  0.00000000  0.00000000  0.00000000  1
  Ge  Ge3  1  0.50000001  0.26378000  0.00000002  1
  Ge  Ge4  1  0.50000003  0.73622001  0.00000004  1
