# generated using pymatgen
data_Mn4SiO8
_symmetry_space_group_name_H-M   'P 1'
_cell_length_a   5.50408840
_cell_length_b   5.50408840
_cell_length_c   7.81397629
_cell_angle_alpha   75.68870544
_cell_angle_beta   75.68870544
_cell_angle_gamma   69.16062164
_symmetry_Int_Tables_number   1
_chemical_formula_structural   Mn4SiO8
_chemical_formula_sum   'Mn4 Si1 O8'
_cell_volume   211.03163319
_cell_formula_units_Z   1
loop_
 _symmetry_equiv_pos_site_id
 _symmetry_equiv_pos_as_xyz
  1  'x, y, z'
loop_
 _atom_site_type_symbol
 _atom_site_label
 _atom_site_symmetry_multiplicity
 _atom_site_fract_x
 _atom_site_fract_y
 _atom_site_fract_z
 _atom_site_occupancy
  Mn  Mn0  1  0.56872398  0.56872398  0.17816103  1
  Mn  Mn1  1  0.00000000  0.00000000  0.00000000  1
  Mn  Mn2  1  0.43127598  0.43127599  0.82183901  1
  Mn  Mn3  1  0.16706499  0.16706500  0.26039400  1
  Si  Si4  1  0.83293496  0.83293498  0.73960603  1
  O  O5  1  0.29205899  0.29205899  0.63194701  1
  O  O6  1  0.70794097  0.70794098  0.36805303  1
  O  O7  1  0.11193299  0.73142398  0.85064401  1
  O  O8  1  0.88806697  0.26857599  0.14935603  1
  O  O9  1  0.35399598  0.35399599  0.13007002  1
  O  O10  1  0.64600397  0.64600398  0.86993002  1
  O  O11  1  0.26857598  0.88806697  0.14935603  1
  O  O12  1  0.73142397  0.11193300  0.85064401  1
