# generated using pymatgen
data_Ti4CrCuS8
_symmetry_space_group_name_H-M   'P 1'
_cell_length_a   7.20471144
_cell_length_b   7.20471144
_cell_length_c   7.20471144
_cell_angle_alpha   61.50065613
_cell_angle_beta   61.50065613
_cell_angle_gamma   61.50066376
_symmetry_Int_Tables_number   1
_chemical_formula_structural   Ti4CrCuS8
_chemical_formula_sum   'Ti4 Cr1 Cu1 S8'
_cell_volume   273.35266901
_cell_formula_units_Z   1
loop_
 _symmetry_equiv_pos_site_id
 _symmetry_equiv_pos_as_xyz
  1  'x, y, z'
loop_
 _atom_site_type_symbol
 _atom_site_label
 _atom_site_symmetry_multiplicity
 _atom_site_fract_x
 _atom_site_fract_y
 _atom_site_fract_z
 _atom_site_occupancy
  Ti  Ti0  1  0.50000003  0.50000000  0.49999999  1
  Ti  Ti1  1  0.00000002  0.50000000  0.50000000  1
  Ti  Ti2  1  0.50000003  0.50000000  -0.00000001  1
  Ti  Ti3  1  0.50000001  0.00000000  0.50000000  1
  Cr  Cr4  1  0.87439705  0.87439701  0.87439699  1
  Cu  Cu5  1  0.12560301  0.12560300  0.12560300  1
  S  S6  1  0.28808603  0.74099001  0.74098999  1
  S  S7  1  0.25901001  0.25901000  0.71191400  1
  S  S8  1  0.25901003  0.71191401  0.25900999  1
  S  S9  1  0.26679401  0.26679400  0.26679400  1
  S  S10  1  0.74099002  0.28808600  0.74099000  1
  S  S11  1  0.73320604  0.73320601  0.73320599  1
  S  S12  1  0.71191402  0.25901000  0.25900999  1
  S  S13  1  0.74099004  0.74099001  0.28808598  1
