# generated using pymatgen
data_Rb3Tl3Ag2(AsS)2
_symmetry_space_group_name_H-M   'P 1'
_cell_length_a   4.73641586
_cell_length_b   7.30363894
_cell_length_c   8.81385326
_cell_angle_alpha   90.00000000
_cell_angle_beta   90.00000000
_cell_angle_gamma   90.00000000
_symmetry_Int_Tables_number   1
_chemical_formula_structural   Rb3Tl3Ag2(AsS)2
_chemical_formula_sum   'Rb3 Tl3 Ag2 As2 S2'
_cell_volume   304.89825447
_cell_formula_units_Z   1
loop_
 _symmetry_equiv_pos_site_id
 _symmetry_equiv_pos_as_xyz
  1  'x, y, z'
loop_
 _atom_site_type_symbol
 _atom_site_label
 _atom_site_symmetry_multiplicity
 _atom_site_fract_x
 _atom_site_fract_y
 _atom_site_fract_z
 _atom_site_occupancy
  Rb  Rb0  1  0.25000001  0.00984900  0.15417800  1
  Rb  Rb1  1  0.25000001  0.13499100  0.58890198  1
  Rb  Rb2  1  0.75000002  0.36500900  0.08890200  1
  Tl  Tl3  1  0.75000002  0.49015100  0.65417798  1
  Tl  Tl4  1  0.25000001  0.50984900  0.34582199  1
  Tl  Tl5  1  0.25000001  0.63499101  0.91109797  1
  Ag  Ag6  1  0.75000002  0.86500901  0.41109799  1
  Ag  Ag7  1  0.75000002  0.99015101  0.84582197  1
  S  S8  1  0.75000002  0.25801800  0.40794499  1
  As  As9  1  0.25000001  0.24198200  0.90794497  1
  As  As10  1  0.75000002  0.75801801  0.09205500  1
  S  S11  1  0.25000001  0.74198201  0.59205498  1
