# generated using pymatgen
data_ZrInNi4
_symmetry_space_group_name_H-M   'P 1'
_cell_length_a   4.91253233
_cell_length_b   4.91253233
_cell_length_c   8.48400879
_cell_angle_alpha   73.17095184
_cell_angle_beta   73.17095184
_cell_angle_gamma   60.00000000
_symmetry_Int_Tables_number   1
_chemical_formula_structural   ZrInNi4
_chemical_formula_sum   'Zr2 In2 Ni8'
_cell_volume   167.11202320
_cell_formula_units_Z   2
loop_
 _symmetry_equiv_pos_site_id
 _symmetry_equiv_pos_as_xyz
  1  'x, y, z'
loop_
 _atom_site_type_symbol
 _atom_site_label
 _atom_site_symmetry_multiplicity
 _atom_site_fract_x
 _atom_site_fract_y
 _atom_site_fract_z
 _atom_site_occupancy
  Zr  Zr0  1  0.00034300  0.00034300  0.99897103  1
  Zr  Zr1  1  0.49943199  0.49943301  0.50170305  1
  In  In2  1  0.12919400  0.12919300  0.61241903  1
  In  In3  1  0.61966399  0.61966401  0.14100805  1
  Ni  Ni4  1  0.56438800  0.06616300  0.80506104  1
  Ni  Ni5  1  0.06275299  0.55629001  0.31820503  1
  Ni  Ni6  1  0.06616399  0.56438701  0.80506104  1
  Ni  Ni7  1  0.55629000  0.06275300  0.31820503  1
  Ni  Ni8  1  0.81266098  0.81266101  0.56201707  1
  Ni  Ni9  1  0.31197199  0.31197200  0.06408402  1
  Ni  Ni10  1  0.56438799  0.56438701  0.80506106  1
  Ni  Ni11  1  0.06275300  0.06275200  0.31820501  1
