# generated using pymatgen
data_Pr12Ni6Bi
_symmetry_space_group_name_H-M   'P 1'
_cell_length_a   8.77291489
_cell_length_b   8.77291489
_cell_length_c   8.77291489
_cell_angle_alpha   109.47122192
_cell_angle_beta   109.47122192
_cell_angle_gamma   109.47122192
_symmetry_Int_Tables_number   1
_chemical_formula_structural   Pr12Ni6Bi
_chemical_formula_sum   'Pr12 Ni6 Bi1'
_cell_volume   519.76835668
_cell_formula_units_Z   1
loop_
 _symmetry_equiv_pos_site_id
 _symmetry_equiv_pos_as_xyz
  1  'x, y, z'
loop_
 _atom_site_type_symbol
 _atom_site_label
 _atom_site_symmetry_multiplicity
 _atom_site_fract_x
 _atom_site_fract_y
 _atom_site_fract_z
 _atom_site_occupancy
  Pr  Pr0  1  0.49647104  0.19071202  0.30575904  1
  Pr  Pr1  1  0.50352908  0.80928807  0.69424109  1
  Pr  Pr2  1  0.11504606  0.80928707  0.30575806  1
  Pr  Pr3  1  0.88495406  0.19071302  0.69424206  1
  Pr  Pr4  1  0.19071205  0.69424106  0.88495308  1
  Pr  Pr5  1  0.80928806  0.30575903  0.11504704  1
  Pr  Pr6  1  0.80928809  0.69424206  0.50352908  1
  Pr  Pr7  1  0.19071203  0.30575803  0.49647104  1
  Pr  Pr8  1  0.30575902  0.11504701  0.80928805  1
  Pr  Pr9  1  0.69424109  0.88495307  0.19071207  1
  Pr  Pr10  1  0.69424107  0.50352904  0.80928708  1
  Pr  Pr11  1  0.30575905  0.49647104  0.19071304  1
  Bi  Bi12  1  0.00000000  0.00000000  0.00000000  1
  Ni  Ni13  1  0.50000008  0.88860308  0.38860308  1
  Ni  Ni14  1  0.50000003  0.11139701  0.61139705  1
  Ni  Ni15  1  0.11139704  0.61139705  0.50000006  1
  Ni  Ni16  1  0.88860307  0.38860303  0.50000007  1
  Ni  Ni17  1  0.61139706  0.50000004  0.11139705  1
  Ni  Ni18  1  0.38860305  0.50000004  0.88860308  1
