# generated using pymatgen
data_HfNiGe
_symmetry_space_group_name_H-M   'P 1'
_cell_length_a   4.07370090
_cell_length_b   6.46116590
_cell_length_c   7.36267900
_cell_angle_alpha   90.00000000
_cell_angle_beta   90.00000000
_cell_angle_gamma   90.00000000
_symmetry_Int_Tables_number   1
_chemical_formula_structural   HfNiGe
_chemical_formula_sum   'Hf4 Ni4 Ge4'
_cell_volume   193.79202412
_cell_formula_units_Z   4
loop_
 _symmetry_equiv_pos_site_id
 _symmetry_equiv_pos_as_xyz
  1  'x, y, z'
loop_
 _atom_site_type_symbol
 _atom_site_label
 _atom_site_symmetry_multiplicity
 _atom_site_fract_x
 _atom_site_fract_y
 _atom_site_fract_z
 _atom_site_occupancy
  Hf  Hf0  1  0.25000001  0.01270700  0.31486900  1
  Hf  Hf1  1  0.25000001  0.51270701  0.18513100  1
  Hf  Hf2  1  0.75000002  0.98729301  0.68513100  1
  Hf  Hf3  1  0.75000002  0.48729301  0.81486900  1
  Ge  Ge4  1  0.25000001  0.28803900  0.62216500  1
  Ni  Ni5  1  0.25000001  0.78803901  0.87783500  1
  Ni  Ni6  1  0.75000002  0.71196101  0.37783500  1
  Ni  Ni7  1  0.75000002  0.21196100  0.12216500  1
  Ge  Ge8  1  0.25000001  0.16130500  0.94094900  1
  Ni  Ni9  1  0.25000001  0.66130501  0.55905100  1
  Ge  Ge10  1  0.75000002  0.83869501  0.05905100  1
  Ge  Ge11  1  0.75000002  0.33869500  0.44094900  1
