# generated using pymatgen
data_PrNi3Ge2
_symmetry_space_group_name_H-M   'P 1'
_cell_length_a   5.18105078
_cell_length_b   6.33212233
_cell_length_c   6.33212233
_cell_angle_alpha   101.06699371
_cell_angle_beta   90.00000000
_cell_angle_gamma   90.00000000
_symmetry_Int_Tables_number   1
_chemical_formula_structural   PrNi3Ge2
_chemical_formula_sum   'Pr2 Ni6 Ge4'
_cell_volume   203.87501321
_cell_formula_units_Z   2
loop_
 _symmetry_equiv_pos_site_id
 _symmetry_equiv_pos_as_xyz
  1  'x, y, z'
loop_
 _atom_site_type_symbol
 _atom_site_label
 _atom_site_symmetry_multiplicity
 _atom_site_fract_x
 _atom_site_fract_y
 _atom_site_fract_z
 _atom_site_occupancy
  Pr  Pr0  1  1.00000004  0.68904700  0.68904703  1
  Pr  Pr1  1  0.50000002  0.31032900  0.31032902  1
  Ni  Ni2  1  0.74483103  0.77459300  0.21877304  1
  Ni  Ni3  1  0.25516901  0.77459300  0.21877304  1
  Ni  Ni4  1  0.74483103  0.21877300  0.77459301  1
  Ni  Ni5  1  0.25516901  0.21877300  0.77459301  1
  Ni  Ni6  1  -0.00000000  0.08845400  0.08845400  1
  Ni  Ni7  1  0.50000002  0.93618400  0.93618405  1
  Ge  Ge8  1  -0.00000000  0.46030900  0.07574103  1
  Ge  Ge9  1  0.50000002  0.91051700  0.54268705  1
  Ge  Ge10  1  0.50000002  0.54268700  0.91051702  1
  Ge  Ge11  1  -0.00000000  0.07574100  0.46030900  1
