# generated using pymatgen
data_RbTl6Hg3(Te3W)2
_symmetry_space_group_name_H-M   'P 1'
_cell_length_a   9.06914234
_cell_length_b   9.06914234
_cell_length_c   10.55673313
_cell_angle_alpha   115.43856049
_cell_angle_beta   115.43856049
_cell_angle_gamma   90.00000000
_symmetry_Int_Tables_number   1
_chemical_formula_structural   RbTl6Hg3(Te3W)2
_chemical_formula_sum   'Rb1 Tl6 Hg3 Te6 W2'
_cell_volume   689.71825155
_cell_formula_units_Z   1
loop_
 _symmetry_equiv_pos_site_id
 _symmetry_equiv_pos_as_xyz
  1  'x, y, z'
loop_
 _atom_site_type_symbol
 _atom_site_label
 _atom_site_symmetry_multiplicity
 _atom_site_fract_x
 _atom_site_fract_y
 _atom_site_fract_z
 _atom_site_occupancy
  Rb  Rb0  1  0.49999996  0.49999997  -0.00000004  1
  Tl  Tl1  1  0.00000000  0.00000000  0.00000000  1
  Tl  Tl2  1  0.18876297  0.68876296  0.69123197  1
  Tl  Tl3  1  0.50246897  0.00246900  0.69123199  1
  Tl  Tl4  1  0.49753094  0.99753094  0.30876794  1
  Tl  Tl5  1  0.00246899  0.18876199  0.69123100  1
  Hg  Hg6  1  0.81123695  0.31123698  0.30876797  1
  Hg  Hg7  1  0.68876295  0.50246997  0.69123296  1
  Tl  Tl8  1  0.99753092  0.81123795  0.30876894  1
  Hg  Hg9  1  0.31123697  0.49752997  0.30876697  1
  Te  Te10  1  0.11361397  0.61361396  -0.00000003  1
  Te  Te11  1  0.61361394  0.88638595  -0.00000006  1
  Te  Te12  1  0.88638594  0.38638598  -0.00000004  1
  Te  Te13  1  0.38638598  0.11361399  0.99999999  1
  Te  Te14  1  0.74999993  0.74999996  0.49999995  1
  Te  Te15  1  0.24999998  0.24999999  0.49999999  1
  W  W16  1  0.74999995  0.24999999  0.49999997  1
  W  W17  1  0.24999996  0.74999996  0.49999996  1
