# generated using pymatgen
data_SrNdMnSnO6
_symmetry_space_group_name_H-M   'P 1'
_cell_length_a   5.51692915
_cell_length_b   5.56385899
_cell_length_c   8.65495300
_cell_angle_alpha   90.00000000
_cell_angle_beta   90.95202637
_cell_angle_gamma   90.00000000
_symmetry_Int_Tables_number   1
_chemical_formula_structural   SrNdMnSnO6
_chemical_formula_sum   'Sr2 Nd2 Mn2 Sn2 O12'
_cell_volume   265.63070798
_cell_formula_units_Z   2
loop_
 _symmetry_equiv_pos_site_id
 _symmetry_equiv_pos_as_xyz
  1  'x, y, z'
loop_
 _atom_site_type_symbol
 _atom_site_label
 _atom_site_symmetry_multiplicity
 _atom_site_fract_x
 _atom_site_fract_y
 _atom_site_fract_z
 _atom_site_occupancy
  Sr  Sr0  1  0.48617899  0.21843400  0.25188499  1
  Sr  Sr1  1  0.98617897  0.78156600  0.75188498  1
  Nd  Nd2  1  0.52085899  0.28994200  0.74611198  1
  Nd  Nd3  1  0.02085900  0.71005800  0.24611199  1
  Mn  Mn4  1  0.99723197  0.24735300  0.00215200  1
  Mn  Mn5  1  0.49723199  0.75264700  0.50215199  1
  Sn  Sn6  1  0.00048800  0.24933900  0.49963399  1
  Sn  Sn7  1  0.50048799  0.75066100  0.99963397  1
  O  O8  1  0.59295798  0.76318800  0.22245199  1
  O  O9  1  0.09295800  0.23681200  0.72245198  1
  O  O10  1  0.42866499  0.72800300  0.77521098  1
  O  O11  1  0.92866497  0.27199700  0.27521099  1
  O  O12  1  0.28156899  0.47222400  0.45551599  1
  O  O13  1  0.78156898  0.52777600  0.95551597  1
  O  O14  1  0.70830398  0.04049800  0.54744999  1
  O  O15  1  0.20830399  0.95950200  0.04745000  1
  O  O16  1  0.20582899  0.95776200  0.44935599  1
  O  O17  1  0.70582898  0.04223800  0.94935597  1
  O  O18  1  0.77791598  0.52905900  0.55023299  1
  O  O19  1  0.27791599  0.47094100  0.05023300  1
