# generated using pymatgen
data_Pr3Mn2Ni7
_symmetry_space_group_name_H-M   'P 1'
_cell_length_a   5.52100420
_cell_length_b   5.52100420
_cell_length_c   7.70971918
_cell_angle_alpha   90.00000000
_cell_angle_beta   90.00000000
_cell_angle_gamma   120.00000000
_symmetry_Int_Tables_number   1
_chemical_formula_structural   Pr3Mn2Ni7
_chemical_formula_sum   'Pr3 Mn2 Ni7'
_cell_volume   203.51918102
_cell_formula_units_Z   1
loop_
 _symmetry_equiv_pos_site_id
 _symmetry_equiv_pos_as_xyz
  1  'x, y, z'
loop_
 _atom_site_type_symbol
 _atom_site_label
 _atom_site_symmetry_multiplicity
 _atom_site_fract_x
 _atom_site_fract_y
 _atom_site_fract_z
 _atom_site_occupancy
  Pr  Pr0  1  0.00000000  0.00000000  0.49999999  1
  Pr  Pr1  1  0.00000000  0.00000000  0.00000000  1
  Pr  Pr2  1  0.33333334  0.66666668  0.49999999  1
  Mn  Mn3  1  0.66666665  0.33333334  0.49999999  1
  Mn  Mn4  1  0.33333334  0.66666668  0.99999998  1
  Ni  Ni5  1  0.50000001  1.00000002  0.69906898  1
  Ni  Ni6  1  0.50000000  0.50000001  0.69906898  1
  Ni  Ni7  1  0.50000000  0.50000001  0.30093099  1
  Ni  Ni8  1  0.50000001  1.00000002  0.30093099  1
  Ni  Ni9  1  0.00000001  0.50000001  0.30093099  1
  Ni  Ni10  1  0.66666665  0.33333334  0.99999998  1
  Ni  Ni11  1  0.00000001  0.50000001  0.69906898  1
