# generated using pymatgen
data_Lu2Ni6Mo
_symmetry_space_group_name_H-M   'P 1'
_cell_length_a   5.28019810
_cell_length_b   5.28019810
_cell_length_c   5.28019810
_cell_angle_alpha   60.00000000
_cell_angle_beta   60.00000000
_cell_angle_gamma   60.00000000
_symmetry_Int_Tables_number   1
_chemical_formula_structural   Lu2Ni6Mo
_chemical_formula_sum   'Lu2 Ni6 Mo1'
_cell_volume   104.09638575
_cell_formula_units_Z   1
loop_
 _symmetry_equiv_pos_site_id
 _symmetry_equiv_pos_as_xyz
  1  'x, y, z'
loop_
 _atom_site_type_symbol
 _atom_site_label
 _atom_site_symmetry_multiplicity
 _atom_site_fract_x
 _atom_site_fract_y
 _atom_site_fract_z
 _atom_site_occupancy
  Lu  Lu0  1  0.25000001  0.25000001  0.25000001  1
  Lu  Lu1  1  0.75000002  0.75000002  0.75000002  1
  Ni  Ni2  1  0.76887303  0.76887303  0.23112701  1
  Ni  Ni3  1  0.23112701  0.76887303  0.76887303  1
  Ni  Ni4  1  0.23112701  0.76887303  0.23112701  1
  Ni  Ni5  1  0.23112701  0.23112701  0.76887303  1
  Ni  Ni6  1  0.76887303  0.23112701  0.23112701  1
  Ni  Ni7  1  0.76887303  0.23112701  0.76887303  1
  Mo  Mo8  1  0.00000000  0.00000000  0.00000000  1
