# generated using pymatgen
data_Er(CoSi)2
_symmetry_space_group_name_H-M   'P 1'
_cell_length_a   3.77615595
_cell_length_b   3.77615595
_cell_length_c   5.49550295
_cell_angle_alpha   110.09439850
_cell_angle_beta   110.09439850
_cell_angle_gamma   90.00000000
_symmetry_Int_Tables_number   1
_chemical_formula_structural   Er(CoSi)2
_chemical_formula_sum   'Er1 Co2 Si2'
_cell_volume   68.49074017
_cell_formula_units_Z   1
loop_
 _symmetry_equiv_pos_site_id
 _symmetry_equiv_pos_as_xyz
  1  'x, y, z'
loop_
 _atom_site_type_symbol
 _atom_site_label
 _atom_site_symmetry_multiplicity
 _atom_site_fract_x
 _atom_site_fract_y
 _atom_site_fract_z
 _atom_site_occupancy
  Er  Er0  1  0.00000000  0.00000000  0.00000000  1
  Co  Co1  1  0.25000004  0.75000003  0.50000004  1
  Co  Co2  1  0.75000004  0.25000001  0.50000003  1
  Si  Si3  1  0.62391305  0.62391302  0.24782605  1
  Si  Si4  1  0.37608703  0.37608701  0.75217402  1
