# generated using pymatgen
data_Sr6CN9
_symmetry_space_group_name_H-M   'P 1'
_cell_length_a   3.86051607
_cell_length_b   7.02627897
_cell_length_c   11.56697845
_cell_angle_alpha   90.00000000
_cell_angle_beta   90.00000000
_cell_angle_gamma   105.94532013
_symmetry_Int_Tables_number   1
_chemical_formula_structural   Sr6CN9
_chemical_formula_sum   'Sr6 C1 N9'
_cell_volume   301.68307758
_cell_formula_units_Z   1
loop_
 _symmetry_equiv_pos_site_id
 _symmetry_equiv_pos_as_xyz
  1  'x, y, z'
loop_
 _atom_site_type_symbol
 _atom_site_label
 _atom_site_symmetry_multiplicity
 _atom_site_fract_x
 _atom_site_fract_y
 _atom_site_fract_z
 _atom_site_occupancy
  Sr  Sr0  1  0.34321805  0.68643600  0.43908998  1
  Sr  Sr1  1  0.65678202  0.31356400  0.56090998  1
  Sr  Sr2  1  0.65678202  0.31356400  0.93908996  1
  Sr  Sr3  1  0.34321805  0.68643600  0.06091000  1
  Sr  Sr4  1  0.87872105  0.75744199  0.74999997  1
  Sr  Sr5  1  0.12127902  0.24255800  0.24999999  1
  C  C6  1  0.73271203  0.46542400  0.36485199  1
  N  N7  1  0.26728804  0.53457600  0.63514798  1
  N  N8  1  0.26728804  0.53457600  0.86485197  1
  N  N9  1  0.73271203  0.46542400  0.13514799  1
  N  N10  1  0.25782704  0.51565400  0.74999997  1
  N  N11  1  0.74217303  0.48434600  0.24999999  1
  N  N12  1  0.47100707  0.94201399  0.24999999  1
  N  N13  1  0.52899300  0.05798600  0.74999997  1
  N  N14  1  0.00000000  0.00000000  0.00000000  1
  N  N15  1  0.00000000  0.00000000  0.49999998  1
