# generated using pymatgen
data_NdSn
_symmetry_space_group_name_H-M   'P 1'
_cell_length_a   4.26996803
_cell_length_b   4.55103397
_cell_length_c   6.10746336
_cell_angle_alpha   90.00000000
_cell_angle_beta   110.46099854
_cell_angle_gamma   90.00000000
_symmetry_Int_Tables_number   1
_chemical_formula_structural   NdSn
_chemical_formula_sum   'Nd2 Sn2'
_cell_volume   111.19713879
_cell_formula_units_Z   2
loop_
 _symmetry_equiv_pos_site_id
 _symmetry_equiv_pos_as_xyz
  1  'x, y, z'
loop_
 _atom_site_type_symbol
 _atom_site_label
 _atom_site_symmetry_multiplicity
 _atom_site_fract_x
 _atom_site_fract_y
 _atom_site_fract_z
 _atom_site_occupancy
  Nd  Nd0  1  0.86107601  0.75000000  0.72215205  1
  Nd  Nd1  1  0.13892400  0.25000000  0.27784801  1
  Sn  Sn2  1  0.57230000  0.75000000  0.14460002  1
  Sn  Sn3  1  0.42770000  0.25000000  0.85540005  1
