# generated using pymatgen
data_Ti4CuS8
_symmetry_space_group_name_H-M   'P 1'
_cell_length_a   7.31491804
_cell_length_b   7.35180950
_cell_length_c   7.35180950
_cell_angle_alpha   60.44388580
_cell_angle_beta   60.16585541
_cell_angle_gamma   60.16585541
_symmetry_Int_Tables_number   1
_chemical_formula_structural   Ti4CuS8
_chemical_formula_sum   'Ti4 Cu1 S8'
_cell_volume   281.19671221
_cell_formula_units_Z   1
loop_
 _symmetry_equiv_pos_site_id
 _symmetry_equiv_pos_as_xyz
  1  'x, y, z'
loop_
 _atom_site_type_symbol
 _atom_site_label
 _atom_site_symmetry_multiplicity
 _atom_site_fract_x
 _atom_site_fract_y
 _atom_site_fract_z
 _atom_site_occupancy
  Ti  Ti0  1  0.82773000  0.38953201  0.38953200  1
  Ti  Ti1  1  0.39320599  0.38953301  0.38953201  1
  Ti  Ti2  1  0.38400897  0.84705602  0.38492603  1
  Ti  Ti3  1  0.38400899  0.38492601  0.84705603  1
  Cu  Cu4  1  0.00272196  0.99727803  0.99727807  1
  S  S5  1  0.13098498  0.62352102  0.62352104  1
  S  S6  1  0.62197298  0.62352102  0.62352102  1
  S  S7  1  0.62523200  0.12404700  0.62548900  1
  S  S8  1  0.62523098  0.62548902  0.12404801  1
  S  S9  1  0.59294900  0.13523900  0.13523799  1
  S  S10  1  0.13657500  0.13523800  0.13523800  1
  S  S11  1  0.13768998  0.58720202  0.13741702  1
  S  S12  1  0.13769100  0.13741600  0.58720202  1
