# generated using pymatgen
data_CsK9Tl2
_symmetry_space_group_name_H-M   'P 1'
_cell_length_a   7.72483015
_cell_length_b   7.72483015
_cell_length_c   12.73087120
_cell_angle_alpha   90.00000000
_cell_angle_beta   90.00000000
_cell_angle_gamma   120.00000000
_symmetry_Int_Tables_number   1
_chemical_formula_structural   CsK9Tl2
_chemical_formula_sum   'Cs1 K9 Tl2'
_cell_volume   657.91022243
_cell_formula_units_Z   1
loop_
 _symmetry_equiv_pos_site_id
 _symmetry_equiv_pos_as_xyz
  1  'x, y, z'
loop_
 _atom_site_type_symbol
 _atom_site_label
 _atom_site_symmetry_multiplicity
 _atom_site_fract_x
 _atom_site_fract_y
 _atom_site_fract_z
 _atom_site_occupancy
  Cs  Cs0  1  0.66666665  0.33333333  0.56333499  1
  K  K1  1  0.33333333  0.66666665  0.43666499  1
  K  K2  1  0.33333333  0.66666665  0.06333500  1
  K  K3  1  0.66666665  0.33333333  0.93666499  1
  K  K4  1  0.00000000  0.00000000  0.49999999  1
  K  K5  1  0.00000000  0.00000000  0.00000000  1
  K  K6  1  0.16799300  0.33598599  0.74999999  1
  K  K7  1  0.16799300  0.83200698  0.74999999  1
  K  K8  1  0.66401399  0.83200698  0.74999999  1
  K  K9  1  0.83200698  0.66401398  0.25000000  1
  Tl  Tl10  1  0.83200698  0.16799300  0.25000000  1
  Tl  Tl11  1  0.33598599  0.16799300  0.25000000  1
