# generated using pymatgen
data_Sr2AgO4
_symmetry_space_group_name_H-M   'P 1'
_cell_length_a   4.20898485
_cell_length_b   4.20898485
_cell_length_c   12.73015404
_cell_angle_alpha   90.00000000
_cell_angle_beta   90.00000000
_cell_angle_gamma   90.00000000
_symmetry_Int_Tables_number   1
_chemical_formula_structural   Sr2AgO4
_chemical_formula_sum   'Sr4 Ag2 O8'
_cell_volume   225.52172470
_cell_formula_units_Z   2
loop_
 _symmetry_equiv_pos_site_id
 _symmetry_equiv_pos_as_xyz
  1  'x, y, z'
loop_
 _atom_site_type_symbol
 _atom_site_label
 _atom_site_symmetry_multiplicity
 _atom_site_fract_x
 _atom_site_fract_y
 _atom_site_fract_z
 _atom_site_occupancy
  Sr  Sr0  1  0.50000002  0.50000002  0.14179600  1
  Sr  Sr1  1  0.50000002  0.50000002  0.85820400  1
  Sr  Sr2  1  0.00000000  0.00000000  0.35077000  1
  Sr  Sr3  1  0.00000000  0.00000000  0.64923000  1
  Ag  Ag4  1  0.00000000  0.00000000  0.00000000  1
  Ag  Ag5  1  0.50000002  0.50000002  0.50000000  1
  O  O6  1  0.00000000  0.00000000  0.16217500  1
  O  O7  1  0.00000000  0.00000000  0.83782500  1
  O  O8  1  0.50000002  0.50000002  0.32846300  1
  O  O9  1  0.50000002  0.50000002  0.67153700  1
  O  O10  1  -0.00000000  0.50000002  0.00000000  1
  O  O11  1  0.50000002  0.00000000  0.00000000  1
  O  O12  1  -0.00000000  0.50000002  0.50000000  1
  O  O13  1  0.50000002  0.00000000  0.50000000  1
