# generated using pymatgen
data_Ba2LaTaO6
_symmetry_space_group_name_H-M   'P 1'
_cell_length_a   6.13232422
_cell_length_b   6.13232422
_cell_length_c   6.13232422
_cell_angle_alpha   60.00000000
_cell_angle_beta   60.00000000
_cell_angle_gamma   60.00000000
_symmetry_Int_Tables_number   1
_chemical_formula_structural   Ba2LaTaO6
_chemical_formula_sum   'Ba2 La1 Ta1 O6'
_cell_volume   163.06483921
_cell_formula_units_Z   1
loop_
 _symmetry_equiv_pos_site_id
 _symmetry_equiv_pos_as_xyz
  1  'x, y, z'
loop_
 _atom_site_type_symbol
 _atom_site_label
 _atom_site_symmetry_multiplicity
 _atom_site_fract_x
 _atom_site_fract_y
 _atom_site_fract_z
 _atom_site_occupancy
  Ba  Ba0  1  0.50000000  0.50000000  0.50000000  1
  Ba  Ba1  1  0.74999999  0.74999999  0.74999999  1
  La  La2  1  0.25000000  0.25000000  0.25000000  1
  Ta  Ta3  1  0.00000000  0.00000000  0.00000000  1
  O  O4  1  0.76688299  0.76688299  0.23311700  1
  O  O5  1  0.76688299  0.23311700  0.23311700  1
  O  O6  1  0.23311700  0.76688299  0.76688299  1
  O  O7  1  0.23311700  0.76688299  0.23311700  1
  O  O8  1  0.23311700  0.23311700  0.76688299  1
  O  O9  1  0.76688299  0.23311700  0.76688299  1
