# generated using pymatgen
data_SrCuAu3
_symmetry_space_group_name_H-M   'P 1'
_cell_length_a   4.32712984
_cell_length_b   4.88444662
_cell_length_c   6.06750965
_cell_angle_alpha   106.39198303
_cell_angle_beta   110.89043427
_cell_angle_gamma   90.00000000
_symmetry_Int_Tables_number   1
_chemical_formula_structural   SrCuAu3
_chemical_formula_sum   'Sr1 Cu1 Au3'
_cell_volume   114.21401716
_cell_formula_units_Z   1
loop_
 _symmetry_equiv_pos_site_id
 _symmetry_equiv_pos_as_xyz
  1  'x, y, z'
loop_
 _atom_site_type_symbol
 _atom_site_label
 _atom_site_symmetry_multiplicity
 _atom_site_fract_x
 _atom_site_fract_y
 _atom_site_fract_z
 _atom_site_occupancy
  Sr  Sr0  1  0.00000000  0.00000000  0.00000000  1
  Cu  Cu1  1  0.26069699  0.86277397  0.52139398  1
  Au  Au2  1  0.73930302  0.13722600  0.47860599  1
  Au  Au3  1  0.64525801  0.57290498  0.29051598  1
  Au  Au4  1  0.35474200  0.42709499  0.70948399  1
