# generated using pymatgen
data_Y3In2Sn3O
_symmetry_space_group_name_H-M   'P 1'
_cell_length_a   6.18073988
_cell_length_b   8.56387043
_cell_length_c   8.56386948
_cell_angle_alpha   120.00000000
_cell_angle_beta   90.00000000
_cell_angle_gamma   90.00000000
_symmetry_Int_Tables_number   1
_chemical_formula_structural   Y3In2Sn3O
_chemical_formula_sum   'Y6 In4 Sn6 O2'
_cell_volume   392.56468270
_cell_formula_units_Z   2
loop_
 _symmetry_equiv_pos_site_id
 _symmetry_equiv_pos_as_xyz
  1  'x, y, z'
loop_
 _atom_site_type_symbol
 _atom_site_label
 _atom_site_symmetry_multiplicity
 _atom_site_fract_x
 _atom_site_fract_y
 _atom_site_fract_z
 _atom_site_occupancy
  Y  Y0  1  0.75000001  0.26083298  0.99999995  1
  Y  Y1  1  0.75000001  0.73916694  0.73916692  1
  Y  Y2  1  0.75000001  0.99999992  0.26083292  1
  Y  Y3  1  0.25000000  0.73916694  -0.00000005  1
  Y  Y4  1  0.25000000  0.26083298  0.26083297  1
  Y  Y5  1  0.25000000  0.99999992  0.73916691  1
  In  In6  1  0.50000001  0.33333331  0.66666662  1
  In  In7  1  0.50000001  0.66666661  0.33333328  1
  In  In8  1  -0.00000000  0.66666661  0.33333328  1
  In  In9  1  -0.00000000  0.33333331  0.66666662  1
  Sn  Sn10  1  0.75000001  0.60484395  -0.00000004  1
  Sn  Sn11  1  0.75000001  0.39515597  0.39515596  1
  Sn  Sn12  1  0.75000001  0.99999992  0.60484391  1
  Sn  Sn13  1  0.25000000  0.39515597  -0.00000003  1
  Sn  Sn14  1  0.25000000  0.60484395  0.60484394  1
  Sn  Sn15  1  0.25000000  0.99999992  0.39515592  1
  O  O16  1  0.50000001  0.00000000  -0.00000000  1
  O  O17  1  0.00000000  0.00000000  0.00000000  1
