# generated using pymatgen
data_CsNbPbF6
_symmetry_space_group_name_H-M   'P 1'
_cell_length_a   7.86652184
_cell_length_b   8.17581844
_cell_length_c   8.17581844
_cell_angle_alpha   61.12775803
_cell_angle_beta   61.24373245
_cell_angle_gamma   61.24373245
_symmetry_Int_Tables_number   1
_chemical_formula_structural   CsNbPbF6
_chemical_formula_sum   'Cs2 Nb2 Pb2 F12'
_cell_volume   381.89542035
_cell_formula_units_Z   2
loop_
 _symmetry_equiv_pos_site_id
 _symmetry_equiv_pos_as_xyz
  1  'x, y, z'
loop_
 _atom_site_type_symbol
 _atom_site_label
 _atom_site_symmetry_multiplicity
 _atom_site_fract_x
 _atom_site_fract_y
 _atom_site_fract_z
 _atom_site_occupancy
  Cs  Cs0  1  0.62399102  0.12600900  0.62600902  1
  Cs  Cs1  1  0.37600900  0.87399103  0.37399102  1
  Nb  Nb2  1  0.00000000  0.00000000  0.00000000  1
  Nb  Nb3  1  1.00000002  0.50000002  0.50000001  1
  Pb  Pb4  1  0.50000001  0.50000002  -0.00000000  1
  Pb  Pb5  1  -0.00000001  0.50000002  0.00000000  1
  F  F6  1  0.07537500  0.17462501  0.67462503  1
  F  F7  1  0.69633601  0.55366402  0.05366400  1
  F  F8  1  0.08495800  0.57886002  0.66361303  1
  F  F9  1  0.67256902  0.16361301  0.07886000  1
  F  F10  1  0.67256901  0.57886002  0.66361302  1
  F  F11  1  0.08495800  0.16361301  0.07886000  1
  F  F12  1  0.92462502  0.82537503  0.32537501  1
  F  F13  1  0.30366400  0.44633602  0.94633604  1
  F  F14  1  0.91504202  0.42114002  0.33638701  1
  F  F15  1  0.32743100  0.83638703  0.92114004  1
  F  F16  1  0.32743100  0.42114002  0.33638701  1
  F  F17  1  0.91504202  0.83638703  0.92114003  1
