# generated using pymatgen
data_MnCoSe4
_symmetry_space_group_name_H-M   'P 1'
_cell_length_a   3.50363708
_cell_length_b   4.75044823
_cell_length_c   8.17269611
_cell_angle_alpha   90.00000000
_cell_angle_beta   90.00000000
_cell_angle_gamma   90.00000000
_symmetry_Int_Tables_number   1
_chemical_formula_structural   MnCoSe4
_chemical_formula_sum   'Mn1 Co1 Se4'
_cell_volume   136.02509987
_cell_formula_units_Z   1
loop_
 _symmetry_equiv_pos_site_id
 _symmetry_equiv_pos_as_xyz
  1  'x, y, z'
loop_
 _atom_site_type_symbol
 _atom_site_label
 _atom_site_symmetry_multiplicity
 _atom_site_fract_x
 _atom_site_fract_y
 _atom_site_fract_z
 _atom_site_occupancy
  Mn  Mn0  1  0.00000000  0.49999998  0.12447100  1
  Co  Co1  1  0.49999999  0.00000000  0.86790099  1
  Se  Se2  1  0.49999999  0.49999998  0.92632399  1
  Se  Se3  1  0.00000000  0.00000000  0.06710200  1
  Se  Se4  1  0.49999999  0.49999998  0.34479400  1
  Se  Se5  1  0.00000000  0.00000000  0.66940899  1
