# generated using pymatgen
data_Na4Bi5Pd3
_symmetry_space_group_name_H-M   'P 1'
_cell_length_a   6.00126982
_cell_length_b   6.00127077
_cell_length_c   9.75044155
_cell_angle_alpha   90.00000000
_cell_angle_beta   90.00000000
_cell_angle_gamma   120.00000000
_symmetry_Int_Tables_number   1
_chemical_formula_structural   Na4Bi5Pd3
_chemical_formula_sum   'Na4 Bi5 Pd3'
_cell_volume   304.11741491
_cell_formula_units_Z   1
loop_
 _symmetry_equiv_pos_site_id
 _symmetry_equiv_pos_as_xyz
  1  'x, y, z'
loop_
 _atom_site_type_symbol
 _atom_site_label
 _atom_site_symmetry_multiplicity
 _atom_site_fract_x
 _atom_site_fract_y
 _atom_site_fract_z
 _atom_site_occupancy
  Na  Na0  1  0.66666671  0.33333334  0.06357800  1
  Na  Na1  1  0.33333339  0.66666667  0.56357803  1
  Na  Na2  1  0.33333339  0.66666667  0.93642204  1
  Na  Na3  1  0.66666671  0.33333334  0.43642202  1
  Bi  Bi4  1  0.17101406  0.82898601  0.25000001  1
  Bi  Bi5  1  0.82898607  0.65797201  0.75000003  1
  Bi  Bi6  1  0.34202802  0.17101400  0.75000003  1
  Bi  Bi7  1  0.65797208  0.82898601  0.25000001  1
  Pd  Pd8  1  0.00000000  0.00000000  0.00000000  1
  Bi  Bi9  1  0.00000000  0.00000000  0.50000002  1
  Pd  Pd10  1  0.82898604  0.17101400  0.75000003  1
  Pd  Pd11  1  0.17101403  0.34202800  0.25000001  1
