# generated using pymatgen
data_NdGe16
_symmetry_space_group_name_H-M   'P 1'
_cell_length_a   7.49385643
_cell_length_b   7.49385643
_cell_length_c   7.49385643
_cell_angle_alpha   109.47122192
_cell_angle_beta   109.47122192
_cell_angle_gamma   109.47122192
_symmetry_Int_Tables_number   1
_chemical_formula_structural   NdGe16
_chemical_formula_sum   'Nd1 Ge16'
_cell_volume   323.96209137
_cell_formula_units_Z   1
loop_
 _symmetry_equiv_pos_site_id
 _symmetry_equiv_pos_as_xyz
  1  'x, y, z'
loop_
 _atom_site_type_symbol
 _atom_site_label
 _atom_site_symmetry_multiplicity
 _atom_site_fract_x
 _atom_site_fract_y
 _atom_site_fract_z
 _atom_site_occupancy
  Nd  Nd0  1  0.00000000  0.00000000  0.00000000  1
  Ge  Ge1  1  0.14914202  0.34667901  0.49582102  1
  Ge  Ge2  1  0.85085804  0.65332102  0.50417905  1
  Ge  Ge3  1  0.14914204  0.65332102  0.80246303  1
  Ge  Ge4  1  0.85085802  0.34667901  0.19753704  1
  Ge  Ge5  1  0.65332103  0.50417902  0.85085804  1
  Ge  Ge6  1  0.34667903  0.49582102  0.14914203  1
  Ge  Ge7  1  0.34667901  0.19753701  0.85085801  1
  Ge  Ge8  1  0.65332105  0.80246303  0.14914206  1
  Ge  Ge9  1  0.80246301  0.14914200  0.65332102  1
  Ge  Ge10  1  0.19753705  0.85085803  0.34667905  1
  Ge  Ge11  1  0.49582101  0.14914200  0.34667902  1
  Ge  Ge12  1  0.50417905  0.85085803  0.65332106  1
  Ge  Ge13  1  0.50000003  0.50000002  0.50000004  1
  Ge  Ge14  1  1.00000007  1.00000003  0.50000008  1
  Ge  Ge15  1  1.00000003  0.50000002  0.00000005  1
  Ge  Ge16  1  0.50000000  0.00000000  0.00000001  1
