# generated using pymatgen
data_La(ZnGa)2
_symmetry_space_group_name_H-M   'P 1'
_cell_length_a   4.32982016
_cell_length_b   4.32982016
_cell_length_c   6.28422689
_cell_angle_alpha   110.15121460
_cell_angle_beta   110.15121460
_cell_angle_gamma   90.00000000
_symmetry_Int_Tables_number   1
_chemical_formula_structural   La(ZnGa)2
_chemical_formula_sum   'La1 Zn2 Ga2'
_cell_volume   102.88489551
_cell_formula_units_Z   1
loop_
 _symmetry_equiv_pos_site_id
 _symmetry_equiv_pos_as_xyz
  1  'x, y, z'
loop_
 _atom_site_type_symbol
 _atom_site_label
 _atom_site_symmetry_multiplicity
 _atom_site_fract_x
 _atom_site_fract_y
 _atom_site_fract_z
 _atom_site_occupancy
  La  La0  1  0.00000000  0.00000000  0.00000000  1
  Zn  Zn1  1  0.74999995  0.24999999  0.49999996  1
  Zn  Zn2  1  0.24999996  0.74999996  0.49999996  1
  Ga  Ga3  1  0.61433994  0.61433996  0.22867995  1
  Ga  Ga4  1  0.38565997  0.38565998  0.77131997  1
