# generated using pymatgen
data_Mn4CoSO8
_symmetry_space_group_name_H-M   'P 1'
_cell_length_a   5.60218811
_cell_length_b   6.77966785
_cell_length_c   6.78393507
_cell_angle_alpha   90.00000000
_cell_angle_beta   90.00000000
_cell_angle_gamma   91.36821747
_symmetry_Int_Tables_number   1
_chemical_formula_structural   Mn4CoSO8
_chemical_formula_sum   'Mn4 Co1 S1 O8'
_cell_volume   257.58700399
_cell_formula_units_Z   1
loop_
 _symmetry_equiv_pos_site_id
 _symmetry_equiv_pos_as_xyz
  1  'x, y, z'
loop_
 _atom_site_type_symbol
 _atom_site_label
 _atom_site_symmetry_multiplicity
 _atom_site_fract_x
 _atom_site_fract_y
 _atom_site_fract_z
 _atom_site_occupancy
  Mn  Mn0  1  0.26787701  0.25937500  0.25000000  1
  Mn  Mn1  1  0.73212303  0.74062499  0.74999999  1
  Mn  Mn2  1  0.00011901  0.24976100  0.74999999  1
  Mn  Mn3  1  0.99988103  0.75023899  0.25000000  1
  O  O4  1  0.66635001  0.25311200  0.25000000  1
  Co  Co5  1  0.33365003  0.74688799  0.74999999  1
  S  S6  1  0.17544004  0.97445499  0.25000000  1
  O  O7  1  0.82456001  0.02554500  0.74999999  1
  O  O8  1  0.19579202  0.54460799  0.25000000  1
  O  O9  1  0.80420802  0.45539199  0.74999999  1
  O  O10  1  0.81398803  0.74080699  0.46511800  1
  O  O11  1  0.81398803  0.74080699  0.03488200  1
  O  O12  1  0.18601201  0.25919300  0.96511799  1
  O  O13  1  0.18601201  0.25919300  0.53488199  1
