# generated using pymatgen
data_Sm2Al17
_symmetry_space_group_name_H-M   'P 1'
_cell_length_a   6.77990198
_cell_length_b   6.77990198
_cell_length_c   6.77990246
_cell_angle_alpha   82.48444366
_cell_angle_beta   82.48444366
_cell_angle_gamma   82.48444366
_symmetry_Int_Tables_number   1
_chemical_formula_structural   Sm2Al17
_chemical_formula_sum   'Sm2 Al17'
_cell_volume   304.26468834
_cell_formula_units_Z   1
loop_
 _symmetry_equiv_pos_site_id
 _symmetry_equiv_pos_as_xyz
  1  'x, y, z'
loop_
 _atom_site_type_symbol
 _atom_site_label
 _atom_site_symmetry_multiplicity
 _atom_site_fract_x
 _atom_site_fract_y
 _atom_site_fract_z
 _atom_site_occupancy
  Sm  Sm0  1  0.33830000  0.33830000  0.33829998  1
  Sm  Sm1  1  0.66170001  0.66170001  0.66169995  1
  Al  Al2  1  0.64585401  0.64585401  0.16030594  1
  Al  Al3  1  0.64585401  0.16030600  0.64585398  1
  Al  Al4  1  0.89826501  0.89826501  0.89826493  1
  Al  Al5  1  0.10173500  0.10173500  0.10173499  1
  Al  Al6  1  0.00000000  0.00000000  0.50000002  1
  Al  Al7  1  0.50000000  0.00000000  -0.00000003  1
  Al  Al8  1  0.00000000  0.50000000  -0.00000003  1
  Al  Al9  1  0.29833600  0.00000000  0.70166401  1
  Al  Al10  1  0.70166401  0.29833600  -0.00000005  1
  Al  Al11  1  0.00000000  0.70166401  0.29833597  1
  Al  Al12  1  0.70166401  0.00000000  0.29833597  1
  Al  Al13  1  0.29833600  0.70166401  -0.00000005  1
  Al  Al14  1  0.00000000  0.29833600  0.70166401  1
  Al  Al15  1  0.35414600  0.83969401  0.35414595  1
  Al  Al16  1  0.35414600  0.35414600  0.83969399  1
  Al  Al17  1  0.83969401  0.35414600  0.35414595  1
  Al  Al18  1  0.16030600  0.64585401  0.64585398  1
