# generated using pymatgen
data_Ta4C2Se5S3N2
_symmetry_space_group_name_H-M   'P 1'
_cell_length_a   6.27048111
_cell_length_b   6.27048111
_cell_length_c   6.46649122
_cell_angle_alpha   90.00000000
_cell_angle_beta   90.00000000
_cell_angle_gamma   90.00000000
_symmetry_Int_Tables_number   1
_chemical_formula_structural   Ta4C2Se5S3N2
_chemical_formula_sum   'Ta4 Se5 C2 S3 N2'
_cell_volume   254.25553736
_cell_formula_units_Z   1
loop_
 _symmetry_equiv_pos_site_id
 _symmetry_equiv_pos_as_xyz
  1  'x, y, z'
loop_
 _atom_site_type_symbol
 _atom_site_label
 _atom_site_symmetry_multiplicity
 _atom_site_fract_x
 _atom_site_fract_y
 _atom_site_fract_z
 _atom_site_occupancy
  Ta  Ta0  1  0.49999999  0.00000000  0.00000000  1
  Ta  Ta1  1  0.49999999  0.00000000  0.49999998  1
  Ta  Ta2  1  -0.00000000  0.49999999  0.00000000  1
  Ta  Ta3  1  -0.00000000  0.49999999  0.49999998  1
  N  N4  1  0.65128099  0.34871899  0.74499497  1
  N  N5  1  0.84871899  0.84871899  0.75500497  1
  Se  Se6  1  0.15128100  0.15128100  0.75500497  1
  S  S7  1  0.34871899  0.65128099  0.74499497  1
  Se  Se8  1  0.34871899  0.65128099  0.25500499  1
  Se  Se9  1  0.65128099  0.34871899  0.25500499  1
  Se  Se10  1  0.84871899  0.84871899  0.24499499  1
  Se  Se11  1  0.15128100  0.15128100  0.24499499  1
  C  C12  1  0.84514299  0.15485700  0.00000000  1
  S  S13  1  0.65485699  0.65485699  0.49999998  1
  S  S14  1  0.34514299  0.34514299  0.49999998  1
  C  C15  1  0.15485700  0.84514299  0.00000000  1
