# generated using pymatgen
data_USnRh
_symmetry_space_group_name_H-M   'P 1'
_cell_length_a   3.99498200
_cell_length_b   7.35413408
_cell_length_c   7.35413408
_cell_angle_alpha   120.00000000
_cell_angle_beta   90.00000000
_cell_angle_gamma   90.00000000
_symmetry_Int_Tables_number   1
_chemical_formula_structural   USnRh
_chemical_formula_sum   'U3 Sn3 Rh3'
_cell_volume   187.11497530
_cell_formula_units_Z   3
loop_
 _symmetry_equiv_pos_site_id
 _symmetry_equiv_pos_as_xyz
  1  'x, y, z'
loop_
 _atom_site_type_symbol
 _atom_site_label
 _atom_site_symmetry_multiplicity
 _atom_site_fract_x
 _atom_site_fract_y
 _atom_site_fract_z
 _atom_site_occupancy
  U  U0  1  1.00000000  0.00000000  0.41088900  1
  U  U1  1  1.00000000  0.41088900  1.00000001  1
  U  U2  1  1.00000000  0.58911100  0.58911101  1
  Sn  Sn3  1  0.50000000  0.99999999  0.75632401  1
  Sn  Sn4  1  0.50000000  0.75632400  1.00000001  1
  Sn  Sn5  1  0.50000000  0.24367600  0.24367600  1
  Rh  Rh6  1  0.00000000  0.00000000  0.00000000  1
  Rh  Rh7  1  0.50000000  0.33333333  0.66666667  1
  Rh  Rh8  1  0.50000000  0.66666666  0.33333334  1
