# generated using pymatgen
data_Ti8C3O7
_symmetry_space_group_name_H-M   'P 1'
_cell_length_a   3.33590007
_cell_length_b   3.33589983
_cell_length_c   20.62344360
_cell_angle_alpha   90.00000000
_cell_angle_beta   90.00000000
_cell_angle_gamma   120.00000000
_symmetry_Int_Tables_number   1
_chemical_formula_structural   Ti8C3O7
_chemical_formula_sum   'Ti8 C3 O7'
_cell_volume   198.75490193
_cell_formula_units_Z   1
loop_
 _symmetry_equiv_pos_site_id
 _symmetry_equiv_pos_as_xyz
  1  'x, y, z'
loop_
 _atom_site_type_symbol
 _atom_site_label
 _atom_site_symmetry_multiplicity
 _atom_site_fract_x
 _atom_site_fract_y
 _atom_site_fract_z
 _atom_site_occupancy
  Ti  Ti0  1  0.33333331  0.66666667  0.91371802  1
  Ti  Ti1  1  0.66666664  0.33333333  0.41371801  1
  Ti  Ti2  1  0.33333331  0.66666667  0.69637801  1
  Ti  Ti3  1  0.66666664  0.33333333  0.30362201  1
  Ti  Ti4  1  0.33333331  0.66666667  0.80362202  1
  Ti  Ti5  1  0.66666664  0.33333333  0.19637800  1
  Ti  Ti6  1  0.66666664  0.33333333  0.08628200  1
  Ti  Ti7  1  0.33333331  0.66666667  0.58628201  1
  C  C8  1  0.00000000  0.00000000  0.14776200  1
  O  O9  1  0.00000000  0.00000000  0.35223801  1
  O  O10  1  0.00000000  0.00000000  0.64776201  1
  C  C11  1  0.33333331  0.66666667  0.04771200  1
  O  O12  1  0.33333331  0.66666667  0.45228801  1
  O  O13  1  0.33333331  0.66666667  0.25000000  1
  C  C14  1  0.00000000  0.00000000  0.85223802  1
  O  O15  1  0.66666664  0.33333333  0.54771201  1
  O  O16  1  0.66666664  0.33333333  0.95228802  1
  O  O17  1  0.66666664  0.33333333  0.75000001  1
