# generated using pymatgen
data_Ti3VCuSe8
_symmetry_space_group_name_H-M   'P 1'
_cell_length_a   7.66262484
_cell_length_b   7.66262484
_cell_length_c   7.66262579
_cell_angle_alpha   60.13647461
_cell_angle_beta   60.13647461
_cell_angle_gamma   60.13647461
_symmetry_Int_Tables_number   1
_chemical_formula_structural   Ti3VCuSe8
_chemical_formula_sum   'Ti3 V1 Cu1 Se8'
_cell_volume   319.12315424
_cell_formula_units_Z   1
loop_
 _symmetry_equiv_pos_site_id
 _symmetry_equiv_pos_as_xyz
  1  'x, y, z'
loop_
 _atom_site_type_symbol
 _atom_site_label
 _atom_site_symmetry_multiplicity
 _atom_site_fract_x
 _atom_site_fract_y
 _atom_site_fract_z
 _atom_site_occupancy
  Ti  Ti0  1  0.99014000  0.52772000  0.99013992  1
  Ti  Ti1  1  0.99014000  0.99014001  0.52771992  1
  Ti  Ti2  1  0.52772000  0.99014001  0.99013992  1
  V  V3  1  0.37229900  0.37229900  0.37229897  1
  Cu  Cu4  1  0.98943100  0.98943101  0.98943091  1
  Se  Se5  1  0.75739300  0.75739300  0.24256195  1
  Se  Se6  1  0.75739300  0.24256200  0.75739295  1
  Se  Se7  1  0.24256200  0.75739300  0.75739295  1
  Se  Se8  1  0.75359500  0.75359500  0.75359493  1
  Se  Se9  1  0.23835900  0.23835900  0.23835898  1
  Se  Se10  1  0.77920800  0.23837800  0.23837796  1
  Se  Se11  1  0.23837800  0.77920800  0.23837796  1
  Se  Se12  1  0.23837800  0.23837800  0.77920796  1
