# generated using pymatgen
data_SmNi5
_symmetry_space_group_name_H-M   'P 1'
_cell_length_a   4.01030207
_cell_length_b   4.90402985
_cell_length_c   4.94849777
_cell_angle_alpha   60.29681778
_cell_angle_beta   90.00000000
_cell_angle_gamma   90.00000000
_symmetry_Int_Tables_number   1
_chemical_formula_structural   SmNi5
_chemical_formula_sum   'Sm1 Ni5'
_cell_volume   84.53282686
_cell_formula_units_Z   1
loop_
 _symmetry_equiv_pos_site_id
 _symmetry_equiv_pos_as_xyz
  1  'x, y, z'
loop_
 _atom_site_type_symbol
 _atom_site_label
 _atom_site_symmetry_multiplicity
 _atom_site_fract_x
 _atom_site_fract_y
 _atom_site_fract_z
 _atom_site_occupancy
  Sm  Sm0  1  0.00000000  0.00000000  0.00000000  1
  Ni  Ni1  1  0.49999999  0.50000001  0.00000001  1
  Ni  Ni2  1  -0.00000000  0.66920001  0.66160003  1
  Ni  Ni3  1  0.00000000  0.33080001  0.33840002  1
  Ni  Ni4  1  0.49999999  0.00000000  0.50000001  1
  Ni  Ni5  1  0.49999999  0.50000001  0.50000002  1
