# generated using pymatgen
data_PrMgGa
_symmetry_space_group_name_H-M   'P 1'
_cell_length_a   4.68719101
_cell_length_b   7.55157614
_cell_length_c   7.55157566
_cell_angle_alpha   120.00000000
_cell_angle_beta   90.00000000
_cell_angle_gamma   90.00000000
_symmetry_Int_Tables_number   1
_chemical_formula_structural   PrMgGa
_chemical_formula_sum   'Pr3 Mg3 Ga3'
_cell_volume   231.48266155
_cell_formula_units_Z   3
loop_
 _symmetry_equiv_pos_site_id
 _symmetry_equiv_pos_as_xyz
  1  'x, y, z'
loop_
 _atom_site_type_symbol
 _atom_site_label
 _atom_site_symmetry_multiplicity
 _atom_site_fract_x
 _atom_site_fract_y
 _atom_site_fract_z
 _atom_site_occupancy
  Pr  Pr0  1  1.00000000  0.43396098  0.43396097  1
  Pr  Pr1  1  1.00000000  0.56603898  0.99999994  1
  Pr  Pr2  1  0.00000000  0.00000000  0.56603898  1
  Mg  Mg3  1  0.50000000  0.24209199  0.99999996  1
  Mg  Mg4  1  0.50000000  0.00000000  0.24209199  1
  Mg  Mg5  1  0.50000000  0.75790797  0.75790794  1
  Ga  Ga6  1  0.50000000  0.66666664  0.33333329  1
  Ga  Ga7  1  0.50000000  0.33333332  0.66666663  1
  Ga  Ga8  1  0.00000000  0.00000000  0.00000000  1
