# generated using pymatgen
data_Na2Bi2ClF15
_symmetry_space_group_name_H-M   'P 1'
_cell_length_a   5.43069410
_cell_length_b   5.43069410
_cell_length_c   12.17689896
_cell_angle_alpha   90.00000000
_cell_angle_beta   90.00000000
_cell_angle_gamma   90.00000000
_symmetry_Int_Tables_number   1
_chemical_formula_structural   Na2Bi2ClF15
_chemical_formula_sum   'Na2 Bi2 Cl1 F15'
_cell_volume   359.12644289
_cell_formula_units_Z   1
loop_
 _symmetry_equiv_pos_site_id
 _symmetry_equiv_pos_as_xyz
  1  'x, y, z'
loop_
 _atom_site_type_symbol
 _atom_site_label
 _atom_site_symmetry_multiplicity
 _atom_site_fract_x
 _atom_site_fract_y
 _atom_site_fract_z
 _atom_site_occupancy
  Na  Na0  1  0.25027200  0.25513100  0.49015200  1
  Na  Na1  1  0.25513100  0.74972799  0.24015200  1
  Bi  Bi2  1  0.74972799  0.74486899  0.99015200  1
  Bi  Bi3  1  0.74486899  0.25027200  0.74015200  1
  Cl  Cl4  1  0.75572999  0.24130100  0.24966200  1
  F  F5  1  0.24130100  0.24427000  0.99966200  1
  F  F6  1  0.24427000  0.75869899  0.74966200  1
  F  F7  1  0.75869899  0.75572999  0.49966200  1
  F  F8  1  0.39211699  0.02065500  0.58783100  1
  F  F9  1  0.52037899  0.12460900  0.84560200  1
  F  F10  1  0.47962099  0.87539098  0.34560200  1
  F  F11  1  0.12029700  0.06446200  0.20195300  1
  F  F12  1  0.06446200  0.87970298  0.95195300  1
  F  F13  1  0.02065500  0.60788299  0.33783100  1
  F  F14  1  0.12460900  0.47962099  0.59560200  1
  F  F15  1  0.87539098  0.52037899  0.09560200  1
  F  F16  1  0.97934498  0.39211699  0.83783100  1
  F  F17  1  0.60788299  0.97934498  0.08783100  1
  F  F18  1  0.87970298  0.93553798  0.70195300  1
  F  F19  1  0.93553798  0.12029700  0.45195300  1
