# generated using pymatgen
data_TiP2
_symmetry_space_group_name_H-M   'P 1'
_cell_length_a   4.00548983
_cell_length_b   4.01445818
_cell_length_c   5.83501720
_cell_angle_alpha   90.00000000
_cell_angle_beta   89.99333191
_cell_angle_gamma   90.00000000
_symmetry_Int_Tables_number   1
_chemical_formula_structural   TiP2
_chemical_formula_sum   'Ti2 P4'
_cell_volume   93.82632560
_cell_formula_units_Z   2
loop_
 _symmetry_equiv_pos_site_id
 _symmetry_equiv_pos_as_xyz
  1  'x, y, z'
loop_
 _atom_site_type_symbol
 _atom_site_label
 _atom_site_symmetry_multiplicity
 _atom_site_fract_x
 _atom_site_fract_y
 _atom_site_fract_z
 _atom_site_occupancy
  Ti  Ti0  1  0.24790401  0.74405197  0.71707198  1
  Ti  Ti1  1  0.75209603  0.24405199  0.28292798  1
  P  P2  1  0.75124603  0.74690797  0.49873798  1
  P  P3  1  0.24875401  0.24690799  0.50126198  1
  P  P4  1  0.75802103  0.75297997  0.99837396  1
  P  P5  1  0.24197901  0.25297999  0.00162600  1
