# generated using pymatgen
data_NaUNb2C5
_symmetry_space_group_name_H-M   'P 1'
_cell_length_a   3.90297699
_cell_length_b   4.01863098
_cell_length_c   7.80707312
_cell_angle_alpha   90.00000000
_cell_angle_beta   90.00000000
_cell_angle_gamma   90.00000000
_symmetry_Int_Tables_number   1
_chemical_formula_structural   NaUNb2C5
_chemical_formula_sum   'Na1 U1 Nb2 C5'
_cell_volume   122.45100833
_cell_formula_units_Z   1
loop_
 _symmetry_equiv_pos_site_id
 _symmetry_equiv_pos_as_xyz
  1  'x, y, z'
loop_
 _atom_site_type_symbol
 _atom_site_label
 _atom_site_symmetry_multiplicity
 _atom_site_fract_x
 _atom_site_fract_y
 _atom_site_fract_z
 _atom_site_occupancy
  Na  Na0  1  0.50000000  0.50000000  0.49999999  1
  U  U1  1  0.50000000  0.50000000  0.00000000  1
  Nb  Nb2  1  0.00000000  0.00000000  0.24521400  1
  Nb  Nb3  1  0.00000000  0.00000000  0.75478599  1
  C  C4  1  0.50000000  0.00000000  0.19030600  1
  C  C5  1  0.50000000  0.00000000  0.80969399  1
  C  C6  1  0.00000000  0.50000000  0.19656900  1
  C  C7  1  0.00000000  0.50000000  0.80343099  1
  C  C8  1  0.00000000  0.00000000  0.49999999  1
