# generated using pymatgen
data_KNa3FeO5
_symmetry_space_group_name_H-M   'P 1'
_cell_length_a   5.94450808
_cell_length_b   5.94450808
_cell_length_c   9.20817852
_cell_angle_alpha   79.14565277
_cell_angle_beta   79.14565277
_cell_angle_gamma   79.15354919
_symmetry_Int_Tables_number   1
_chemical_formula_structural   KNa3FeO5
_chemical_formula_sum   'K2 Na6 Fe2 O10'
_cell_volume   309.89320730
_cell_formula_units_Z   2
loop_
 _symmetry_equiv_pos_site_id
 _symmetry_equiv_pos_as_xyz
  1  'x, y, z'
loop_
 _atom_site_type_symbol
 _atom_site_label
 _atom_site_symmetry_multiplicity
 _atom_site_fract_x
 _atom_site_fract_y
 _atom_site_fract_z
 _atom_site_occupancy
  K  K0  1  0.25112005  0.74888001  0.49999998  1
  K  K1  1  0.74888003  0.25112000  0.49999999  1
  Na  Na2  1  0.15782904  0.64809700  0.88716797  1
  Na  Na3  1  0.35190305  0.84217101  0.11283200  1
  Na  Na4  1  0.84217103  0.35190300  0.11283200  1
  Na  Na5  1  0.18974201  0.18974200  0.72641197  1
  Na  Na6  1  0.64809702  0.15782900  0.88716797  1
  Na  Na7  1  0.81025806  0.81025801  0.27358800  1
  Fe  Fe8  1  0.69124305  0.69124300  0.74190698  1
  Fe  Fe9  1  0.30875702  0.30875700  0.25809299  1
  O  O10  1  0.25371202  0.25371200  0.46619798  1
  O  O11  1  0.74628806  0.74628801  0.53380199  1
  O  O12  1  0.88316604  0.44461600  0.84537297  1
  O  O13  1  0.09907901  0.09907900  0.24913599  1
  O  O14  1  0.47920704  0.47920700  0.74189098  1
  O  O15  1  0.44461606  0.88316601  0.84537297  1
  O  O16  1  0.55538402  0.11683400  0.15462700  1
  O  O17  1  0.52079304  0.52079300  0.25810900  1
  O  O18  1  0.90092107  0.90092101  0.75086398  1
  O  O19  1  0.11683403  0.55538400  0.15462700  1
