# generated using pymatgen
data_Er3Ga9Cu2
_symmetry_space_group_name_H-M   'P 1'
_cell_length_a   4.22897387
_cell_length_b   8.19745255
_cell_length_c   8.19745255
_cell_angle_alpha   74.47445679
_cell_angle_beta   75.05187225
_cell_angle_gamma   75.05187225
_symmetry_Int_Tables_number   1
_chemical_formula_structural   Er3Ga9Cu2
_chemical_formula_sum   'Er3 Ga9 Cu2'
_cell_volume   259.04052558
_cell_formula_units_Z   1
loop_
 _symmetry_equiv_pos_site_id
 _symmetry_equiv_pos_as_xyz
  1  'x, y, z'
loop_
 _atom_site_type_symbol
 _atom_site_label
 _atom_site_symmetry_multiplicity
 _atom_site_fract_x
 _atom_site_fract_y
 _atom_site_fract_z
 _atom_site_occupancy
  Er  Er0  1  0.49999999  0.49999999  0.49999997  1
  Er  Er1  1  0.17213496  0.82786498  0.82786497  1
  Er  Er2  1  0.82786503  0.17213500  0.17213498  1
  Ga  Ga3  1  0.37577596  0.90959998  0.33884798  1
  Ga  Ga4  1  0.62422402  0.09040000  0.66115197  1
  Ga  Ga5  1  0.37577500  0.33884799  0.90960096  1
  Ga  Ga6  1  0.62422499  0.66115199  0.09039898  1
  Ga  Ga7  1  0.16673500  0.20426000  0.46226998  1
  Ga  Ga8  1  0.83326499  0.79573998  0.53772996  1
  Ga  Ga9  1  0.16673498  0.46226999  0.20425999  1
  Ga  Ga10  1  0.83326500  0.53772999  0.79573996  1
  Ga  Ga11  1  0.50000002  0.00000000  -0.00000001  1
  Cu  Cu12  1  -0.00000001  0.21656900  0.78343098  1
  Cu  Cu13  1  1.00000000  0.78343098  0.21656897  1
