# generated using pymatgen
data_CsRbPb2ClO5
_symmetry_space_group_name_H-M   'P 1'
_cell_length_a   5.91032219
_cell_length_b   5.93845987
_cell_length_c   7.22567177
_cell_angle_alpha   90.00000000
_cell_angle_beta   114.14082336
_cell_angle_gamma   90.00000000
_symmetry_Int_Tables_number   1
_chemical_formula_structural   CsRbPb2ClO5
_chemical_formula_sum   'Cs1 Rb1 Pb2 Cl1 O5'
_cell_volume   231.42834755
_cell_formula_units_Z   1
loop_
 _symmetry_equiv_pos_site_id
 _symmetry_equiv_pos_as_xyz
  1  'x, y, z'
loop_
 _atom_site_type_symbol
 _atom_site_label
 _atom_site_symmetry_multiplicity
 _atom_site_fract_x
 _atom_site_fract_y
 _atom_site_fract_z
 _atom_site_occupancy
  Cs  Cs0  1  0.40145198  0.21910300  0.80290397  1
  Rb  Rb1  1  0.59854797  0.78089702  0.19709597  1
  Pb  Pb2  1  0.09854799  0.21910300  0.19709599  1
  Pb  Pb3  1  0.90145195  0.78089702  0.80290394  1
  Cl  Cl4  1  0.74999996  0.22905500  0.49999996  1
  O  O5  1  0.24999999  0.77094502  0.49999998  1
  O  O6  1  0.24999999  1.00000002  0.99999997  1
  O  O7  1  0.74999996  1.00000002  -0.00000004  1
  O  O8  1  0.24999999  0.50000001  0.99999997  1
  O  O9  1  0.74999996  0.50000001  -0.00000004  1
