# generated using pymatgen
data_MnNbF7
_symmetry_space_group_name_H-M   'P 1'
_cell_length_a   5.72633696
_cell_length_b   6.12361670
_cell_length_c   8.32249355
_cell_angle_alpha   102.08367157
_cell_angle_beta   90.00000000
_cell_angle_gamma   90.00000000
_symmetry_Int_Tables_number   1
_chemical_formula_structural   MnNbF7
_chemical_formula_sum   'Mn2 Nb2 F14'
_cell_volume   285.36944325
_cell_formula_units_Z   2
loop_
 _symmetry_equiv_pos_site_id
 _symmetry_equiv_pos_as_xyz
  1  'x, y, z'
loop_
 _atom_site_type_symbol
 _atom_site_label
 _atom_site_symmetry_multiplicity
 _atom_site_fract_x
 _atom_site_fract_y
 _atom_site_fract_z
 _atom_site_occupancy
  Mn  Mn0  1  0.69738801  0.65474199  0.68366101  1
  Mn  Mn1  1  0.19738800  0.34525800  0.31633901  1
  Nb  Nb2  1  0.70721001  0.81151599  0.22368801  1
  Nb  Nb3  1  0.20721000  0.18848400  0.77631201  1
  F  F4  1  0.89101901  0.45552400  0.47790101  1
  F  F5  1  0.39101900  0.54447600  0.52209901  1
  F  F6  1  0.42780400  0.92445399  0.76832901  1
  F  F7  1  0.92780401  0.07554600  0.23167100  1
  F  F8  1  0.94472901  0.95702999  0.75918001  1
  F  F9  1  0.44472900  0.04297000  0.24082000  1
  F  F10  1  0.99340701  0.45737900  0.78663101  1
  F  F11  1  0.49340700  0.54262100  0.21336901  1
  F  F12  1  0.70236101  0.75405599  0.97424202  1
  F  F13  1  0.20236100  0.24594400  0.02575800  1
  F  F14  1  0.70937501  0.85970099  0.47379401  1
  F  F15  1  0.20937500  0.14029900  0.52620601  1
  F  F16  1  0.50306800  0.37948900  0.78144101  1
  F  F17  1  0.00306800  0.62051099  0.21855901  1
