# generated using pymatgen
data_TiSe2
_symmetry_space_group_name_H-M   'P 1'
_cell_length_a   3.41778207
_cell_length_b   5.02539253
_cell_length_c   7.13142967
_cell_angle_alpha   78.78629303
_cell_angle_beta   76.13540649
_cell_angle_gamma   70.12000275
_symmetry_Int_Tables_number   1
_chemical_formula_structural   TiSe2
_chemical_formula_sum   'Ti2 Se4'
_cell_volume   110.97226771
_cell_formula_units_Z   2
loop_
 _symmetry_equiv_pos_site_id
 _symmetry_equiv_pos_as_xyz
  1  'x, y, z'
loop_
 _atom_site_type_symbol
 _atom_site_label
 _atom_site_symmetry_multiplicity
 _atom_site_fract_x
 _atom_site_fract_y
 _atom_site_fract_z
 _atom_site_occupancy
  Ti  Ti0  1  0.84306299  0.11781801  0.19605598  1
  Ti  Ti1  1  0.15693698  0.88218204  0.80394396  1
  Se  Se2  1  0.14145199  0.24566601  0.47142998  1
  Se  Se3  1  0.85854797  0.75433403  0.52856996  1
  Se  Se4  1  0.40506099  0.29665501  0.89322298  1
  Se  Se5  1  0.59493898  0.70334503  0.10677696  1
