# generated using pymatgen
data_Mg5Sn
_symmetry_space_group_name_H-M   'P 1'
_cell_length_a   3.15158391
_cell_length_b   5.01420307
_cell_length_c   8.43752670
_cell_angle_alpha   90.00000000
_cell_angle_beta   100.76375580
_cell_angle_gamma   90.00000000
_symmetry_Int_Tables_number   1
_chemical_formula_structural   Mg5Sn
_chemical_formula_sum   'Mg5 Sn1'
_cell_volume   130.98958842
_cell_formula_units_Z   1
loop_
 _symmetry_equiv_pos_site_id
 _symmetry_equiv_pos_as_xyz
  1  'x, y, z'
loop_
 _atom_site_type_symbol
 _atom_site_label
 _atom_site_symmetry_multiplicity
 _atom_site_fract_x
 _atom_site_fract_y
 _atom_site_fract_z
 _atom_site_occupancy
  Mg  Mg0  1  0.11101900  0.49999999  0.22203799  1
  Mg  Mg1  1  0.77746801  0.49999999  0.55493596  1
  Mg  Mg2  1  0.00110700  0.99999999  0.00221400  1
  Mg  Mg3  1  0.33205501  0.99999999  0.66410997  1
  Mg  Mg4  1  0.66715901  0.00000000  0.33431798  1
  Sn  Sn5  1  0.44452601  0.49999999  0.88905196  1
