# generated using pymatgen
data_CsTaRe2C3N2
_symmetry_space_group_name_H-M   'P 1'
_cell_length_a   4.94555998
_cell_length_b   4.94555998
_cell_length_c   4.94555998
_cell_angle_alpha   83.33584595
_cell_angle_beta   83.33584595
_cell_angle_gamma   83.33585358
_symmetry_Int_Tables_number   1
_chemical_formula_structural   CsTaRe2C3N2
_chemical_formula_sum   'Cs1 Ta1 Re2 C3 N2'
_cell_volume   118.68537164
_cell_formula_units_Z   1
loop_
 _symmetry_equiv_pos_site_id
 _symmetry_equiv_pos_as_xyz
  1  'x, y, z'
loop_
 _atom_site_type_symbol
 _atom_site_label
 _atom_site_symmetry_multiplicity
 _atom_site_fract_x
 _atom_site_fract_y
 _atom_site_fract_z
 _atom_site_occupancy
  Cs  Cs0  1  0.65135702  0.65135700  0.65135694  1
  Ta  Ta1  1  0.34864301  0.34864300  0.34864297  1
  Re  Re2  1  0.00000000  0.00000000  0.00000000  1
  Re  Re3  1  0.09881703  0.92610999  0.59334895  1
  N  N4  1  0.92611002  0.59334900  0.09881695  1
  N  N5  1  0.59334900  0.09881700  0.92610996  1
  C  C6  1  0.90118300  0.07389000  0.40665096  1
  C  C7  1  0.07389001  0.40665100  0.90118297  1
  C  C8  1  0.40665103  0.90118299  0.07388995  1
