# generated using pymatgen
data_Li2FeCuO6
_symmetry_space_group_name_H-M   'P 1'
_cell_length_a   5.03330708
_cell_length_b   5.41054296
_cell_length_c   7.37951708
_cell_angle_alpha   94.94708252
_cell_angle_beta   90.93610382
_cell_angle_gamma   90.97715759
_symmetry_Int_Tables_number   1
_chemical_formula_structural   Li2FeCuO6
_chemical_formula_sum   'Li4 Fe2 Cu2 O12'
_cell_volume   200.15607607
_cell_formula_units_Z   2
loop_
 _symmetry_equiv_pos_site_id
 _symmetry_equiv_pos_as_xyz
  1  'x, y, z'
loop_
 _atom_site_type_symbol
 _atom_site_label
 _atom_site_symmetry_multiplicity
 _atom_site_fract_x
 _atom_site_fract_y
 _atom_site_fract_z
 _atom_site_occupancy
  Li  Li0  1  0.50181200  0.06819100  0.20913100  1
  Li  Li1  1  0.00307103  0.57532299  0.21333302  1
  Li  Li2  1  0.49522600  0.06613000  0.71745002  1
  Li  Li3  1  0.00100303  0.58960099  0.70771504  1
  Fe  Fe4  1  0.99782499  0.01894200  0.99747002  1
  Fe  Fe5  1  0.49029802  0.48780999  0.49856902  1
  Cu  Cu6  1  0.99558098  0.00200900  0.48360400  1
  Cu  Cu7  1  0.50800702  0.50688199  0.00551801  1
  O  O8  1  0.29201804  0.76825298  0.59262404  1
  O  O9  1  0.11996505  0.96133298  0.26479303  1
  O  O10  1  0.30884300  0.15518300  0.96386303  1
  O  O11  1  0.19359001  0.26440799  0.58134002  1
  O  O12  1  0.80998700  0.27211399  0.08013900  1
  O  O13  1  0.38542802  0.46397399  0.26869402  1
  O  O14  1  0.63689201  0.45808399  0.75781603  1
  O  O15  1  0.17078303  0.64466699  0.94913005  1
  O  O16  1  0.82957702  0.66175999  0.47413302  1
  O  O17  1  0.69152903  0.77496598  0.07763702  1
  O  O18  1  0.87297904  0.97199198  0.77476004  1
  O  O19  1  0.69558700  0.14757800  0.45268101  1
