# generated using pymatgen
data_Sr2Ge3Pd
_symmetry_space_group_name_H-M   'P 1'
_cell_length_a   6.22010994
_cell_length_b   6.22010994
_cell_length_c   8.71023464
_cell_angle_alpha   110.52338409
_cell_angle_beta   110.52338409
_cell_angle_gamma   91.03792572
_symmetry_Int_Tables_number   1
_chemical_formula_structural   Sr2Ge3Pd
_chemical_formula_sum   'Sr4 Ge6 Pd2'
_cell_volume   291.72974750
_cell_formula_units_Z   2
loop_
 _symmetry_equiv_pos_site_id
 _symmetry_equiv_pos_as_xyz
  1  'x, y, z'
loop_
 _atom_site_type_symbol
 _atom_site_label
 _atom_site_symmetry_multiplicity
 _atom_site_fract_x
 _atom_site_fract_y
 _atom_site_fract_z
 _atom_site_occupancy
  Sr  Sr0  1  0.24632690  0.75367297  -0.00000007  1
  Sr  Sr1  1  0.75367295  0.24632699  0.99999996  1
  Sr  Sr2  1  0.24999990  0.74999997  0.49999993  1
  Sr  Sr3  1  0.74999995  0.24999999  0.49999995  1
  Ge  Ge4  1  0.16496898  0.16496899  0.32993798  1
  Ge  Ge5  1  0.83503088  0.83503096  0.67006190  1
  Ge  Ge6  1  0.83408488  0.83408496  0.16488489  1
  Ge  Ge7  1  0.66919990  0.66919997  0.83511492  1
  Ge  Ge8  1  0.33079995  0.33079999  0.16488496  1
  Ge  Ge9  1  0.16591498  0.16591499  0.83511499  1
  Pd  Pd10  1  0.66690090  0.66690097  0.33380192  1
  Pd  Pd11  1  0.33309895  0.33309899  0.66619797  1
