# generated using pymatgen
data_SrLaNiO4
_symmetry_space_group_name_H-M   'P 1'
_cell_length_a   5.43658781
_cell_length_b   5.45457220
_cell_length_c   6.82645226
_cell_angle_alpha   90.00000000
_cell_angle_beta   113.46570587
_cell_angle_gamma   90.00000000
_symmetry_Int_Tables_number   1
_chemical_formula_structural   SrLaNiO4
_chemical_formula_sum   'Sr2 La2 Ni2 O8'
_cell_volume   185.69186577
_cell_formula_units_Z   2
loop_
 _symmetry_equiv_pos_site_id
 _symmetry_equiv_pos_as_xyz
  1  'x, y, z'
loop_
 _atom_site_type_symbol
 _atom_site_label
 _atom_site_symmetry_multiplicity
 _atom_site_fract_x
 _atom_site_fract_y
 _atom_site_fract_z
 _atom_site_occupancy
  Sr  Sr0  1  0.85395803  0.49999998  0.70791600  1
  Sr  Sr1  1  0.64513502  0.00000000  0.29027000  1
  La  La2  1  0.36242801  0.00000000  0.72485601  1
  La  La3  1  0.13747100  0.49999998  0.27494200  1
  Ni  Ni4  1  0.50019002  0.49999998  0.00038000  1
  Ni  Ni5  1  0.99765703  0.00000000  0.99531400  1
  O  O6  1  0.17913801  0.00000000  0.35827600  1
  O  O7  1  0.66025402  0.49999998  0.32050800  1
  O  O8  1  0.32677301  0.49999998  0.65354600  1
  O  O9  1  0.83574603  0.00000000  0.67149200  1
  O  O10  1  0.24661001  0.75228997  0.00062500  1
  O  O11  1  0.75401502  0.24770999  0.00062500  1
  O  O12  1  0.24661001  0.24770999  0.00062500  1
  O  O13  1  0.75401502  0.75228997  0.00062500  1
