# generated using pymatgen
data_Ta3Fe5Si5Mo7
_symmetry_space_group_name_H-M   'P 1'
_cell_length_a   5.90752220
_cell_length_b   5.90752220
_cell_length_c   7.23370790
_cell_angle_alpha   90.00000000
_cell_angle_beta   90.00000000
_cell_angle_gamma   90.00000000
_symmetry_Int_Tables_number   1
_chemical_formula_structural   Ta3Fe5Si5Mo7
_chemical_formula_sum   'Ta3 Fe5 Si5 Mo7'
_cell_volume   252.44785970
_cell_formula_units_Z   1
loop_
 _symmetry_equiv_pos_site_id
 _symmetry_equiv_pos_as_xyz
  1  'x, y, z'
loop_
 _atom_site_type_symbol
 _atom_site_label
 _atom_site_symmetry_multiplicity
 _atom_site_fract_x
 _atom_site_fract_y
 _atom_site_fract_z
 _atom_site_occupancy
  Ta  Ta0  1  0.00000000  0.00000000  0.00000000  1
  Ta  Ta1  1  0.00000000  0.00000000  0.50000001  1
  Ta  Ta2  1  0.49999998  0.49999998  0.25000000  1
  Fe  Fe3  1  0.49999998  0.49999998  0.75000001  1
  Fe  Fe4  1  0.19225499  0.60393498  -0.00000000  1
  Fe  Fe5  1  0.39606499  0.19225499  0.50000001  1
  Fe  Fe6  1  0.60393498  0.80774497  0.50000001  1
  Fe  Fe7  1  0.80774497  0.39606499  0.00000000  1
  Si  Si8  1  0.09675600  0.29717799  0.24924700  1
  Si  Si9  1  0.70282198  0.09675600  0.74924701  1
  Si  Si10  1  0.29717799  0.90324397  0.74924701  1
  Mo  Mo11  1  0.90324397  0.70282198  0.24924700  1
  Mo  Mo12  1  0.90324397  0.70282198  0.75075301  1
  Si  Si13  1  0.29717799  0.90324397  0.25075300  1
  Si  Si14  1  0.70282198  0.09675600  0.25075300  1
  Mo  Mo15  1  0.09675600  0.29717799  0.75075301  1
  Mo  Mo16  1  0.39771199  0.20758499  0.00000000  1
  Mo  Mo17  1  0.79241497  0.39771199  0.50000001  1
  Mo  Mo18  1  0.20758499  0.60228798  0.50000001  1
  Mo  Mo19  1  0.60228798  0.79241497  -0.00000000  1
