# generated using pymatgen
data_BaAgBr3
_symmetry_space_group_name_H-M   'P 1'
_cell_length_a   7.61296225
_cell_length_b   7.61296225
_cell_length_c   7.61296320
_cell_angle_alpha   60.58479691
_cell_angle_beta   60.58479691
_cell_angle_gamma   60.58480453
_symmetry_Int_Tables_number   1
_chemical_formula_structural   BaAgBr3
_chemical_formula_sum   'Ba2 Ag2 Br6'
_cell_volume   316.11503393
_cell_formula_units_Z   2
loop_
 _symmetry_equiv_pos_site_id
 _symmetry_equiv_pos_as_xyz
  1  'x, y, z'
loop_
 _atom_site_type_symbol
 _atom_site_label
 _atom_site_symmetry_multiplicity
 _atom_site_fract_x
 _atom_site_fract_y
 _atom_site_fract_z
 _atom_site_occupancy
  Ba  Ba0  1  0.72608403  0.72608399  0.72608397  1
  Ba  Ba1  1  0.22608401  0.22608400  0.22608399  1
  Ag  Ag2  1  0.99755004  0.99754999  0.99754995  1
  Ag  Ag3  1  0.49755002  0.49754999  0.49754998  1
  Br  Br4  1  0.75233201  0.19223900  0.30329498  1
  Br  Br5  1  0.19223901  0.30329500  0.75233198  1
  Br  Br6  1  0.30329503  0.75233199  0.19223898  1
  Br  Br7  1  0.80329503  0.69223899  0.25233197  1
  Br  Br8  1  0.25233203  0.80329499  0.69223897  1
  Br  Br9  1  0.69223901  0.25233200  0.80329498  1
