# generated using pymatgen
data_Ba3CoN3
_symmetry_space_group_name_H-M   'P 1'
_cell_length_a   5.63252687
_cell_length_b   8.10507393
_cell_length_c   8.10691071
_cell_angle_alpha   119.96603394
_cell_angle_beta   90.00000000
_cell_angle_gamma   90.00000000
_symmetry_Int_Tables_number   1
_chemical_formula_structural   Ba3CoN3
_chemical_formula_sum   'Ba6 Co2 N6'
_cell_volume   320.62310538
_cell_formula_units_Z   2
loop_
 _symmetry_equiv_pos_site_id
 _symmetry_equiv_pos_as_xyz
  1  'x, y, z'
loop_
 _atom_site_type_symbol
 _atom_site_label
 _atom_site_symmetry_multiplicity
 _atom_site_fract_x
 _atom_site_fract_y
 _atom_site_fract_z
 _atom_site_occupancy
  Ba  Ba0  1  0.25000001  0.63600296  0.71771797  1
  Ba  Ba1  1  0.25000001  0.08183099  0.36388499  1
  Ba  Ba2  1  0.25000001  0.28245298  0.91855397  1
  Ba  Ba3  1  0.75000002  0.36399697  0.28228198  1
  Ba  Ba4  1  0.75000002  0.91816894  0.63611496  1
  Ba  Ba5  1  0.75000002  0.71754695  0.08144598  1
  Co  Co6  1  0.75000002  0.33308898  0.66642231  1
  Co  Co7  1  0.25000001  0.66691095  0.33357764  1
  N  N8  1  0.75000002  0.55888396  0.68705697  1
  N  N9  1  0.75000002  0.12812499  0.44129799  1
  N  N10  1  0.75000002  0.31344398  0.87199597  1
  N  N11  1  0.25000001  0.44111597  0.31294298  1
  N  N12  1  0.25000001  0.87187494  0.55870197  1
  N  N13  1  0.25000001  0.68655595  0.12800398  1
