# generated using pymatgen
data_TiC2
_symmetry_space_group_name_H-M   'P 1'
_cell_length_a   4.56632996
_cell_length_b   4.56632996
_cell_length_c   7.50342751
_cell_angle_alpha   72.28497314
_cell_angle_beta   72.28497314
_cell_angle_gamma   60.00000381
_symmetry_Int_Tables_number   1
_chemical_formula_structural   TiC2
_chemical_formula_sum   'Ti4 C8'
_cell_volume   126.85660120
_cell_formula_units_Z   4
loop_
 _symmetry_equiv_pos_site_id
 _symmetry_equiv_pos_as_xyz
  1  'x, y, z'
loop_
 _atom_site_type_symbol
 _atom_site_label
 _atom_site_symmetry_multiplicity
 _atom_site_fract_x
 _atom_site_fract_y
 _atom_site_fract_z
 _atom_site_occupancy
  Ti  Ti0  1  0.50000001  0.49999998  0.49999998  1
  Ti  Ti1  1  0.33436301  0.33436299  0.99690999  1
  Ti  Ti2  1  0.66563702  0.66563698  0.00308997  1
  Ti  Ti3  1  0.58376899  0.07564700  0.75681499  1
  C  C4  1  0.58376902  0.58376898  0.75681497  1
  C  C5  1  0.07564703  0.58376898  0.75681498  1
  C  C6  1  0.92435300  0.41623099  0.24318497  1
  C  C7  1  0.41623104  0.92435297  0.24318497  1
  C  C8  1  0.41623101  0.41623099  0.24318498  1
  C  C9  1  0.00000000  0.00000000  0.00000000  1
  C  C10  1  0.14027800  0.14027800  0.57916599  1
  C  C11  1  0.85972203  0.85972197  0.42083396  1
