# generated using pymatgen
data_HoTl3
_symmetry_space_group_name_H-M   'P 1'
_cell_length_a   5.26702976
_cell_length_b   6.93713617
_cell_length_c   6.93713617
_cell_angle_alpha   120.00000000
_cell_angle_beta   90.00000000
_cell_angle_gamma   90.00000000
_symmetry_Int_Tables_number   1
_chemical_formula_structural   HoTl3
_chemical_formula_sum   'Ho2 Tl6'
_cell_volume   219.51128058
_cell_formula_units_Z   2
loop_
 _symmetry_equiv_pos_site_id
 _symmetry_equiv_pos_as_xyz
  1  'x, y, z'
loop_
 _atom_site_type_symbol
 _atom_site_label
 _atom_site_symmetry_multiplicity
 _atom_site_fract_x
 _atom_site_fract_y
 _atom_site_fract_z
 _atom_site_occupancy
  Ho  Ho0  1  0.25000001  0.33333333  0.66666665  1
  Ho  Ho1  1  0.75000003  0.66666665  0.33333332  1
  Tl  Tl2  1  0.25000001  0.83886898  0.67773798  1
  Tl  Tl3  1  0.25000001  0.32226299  0.16113200  1
  Tl  Tl4  1  0.25000001  0.83886898  0.16113200  1
  Tl  Tl5  1  0.75000003  0.16113100  0.32226199  1
  Tl  Tl6  1  0.75000003  0.16113100  0.83886798  1
  Tl  Tl7  1  0.75000003  0.67773698  0.83886798  1
