# generated using pymatgen
data_NiSe2
_symmetry_space_group_name_H-M   'P 1'
_cell_length_a   5.78854990
_cell_length_b   5.78854990
_cell_length_c   5.78854990
_cell_angle_alpha   90.00000000
_cell_angle_beta   90.00000000
_cell_angle_gamma   90.00000000
_symmetry_Int_Tables_number   1
_chemical_formula_structural   NiSe2
_chemical_formula_sum   'Ni4 Se8'
_cell_volume   193.95873564
_cell_formula_units_Z   4
loop_
 _symmetry_equiv_pos_site_id
 _symmetry_equiv_pos_as_xyz
  1  'x, y, z'
loop_
 _atom_site_type_symbol
 _atom_site_label
 _atom_site_symmetry_multiplicity
 _atom_site_fract_x
 _atom_site_fract_y
 _atom_site_fract_z
 _atom_site_occupancy
  Ni  Ni0  1  0.50000001  0.50000001  0.00000000  1
  Ni  Ni1  1  0.50000001  0.00000000  0.50000001  1
  Ni  Ni2  1  0.00000000  0.50000001  0.50000001  1
  Ni  Ni3  1  0.00000000  0.00000000  0.00000000  1
  Se  Se4  1  0.12513000  0.87487002  0.37487001  1
  Se  Se5  1  0.87487002  0.37487001  0.12513000  1
  Se  Se6  1  0.37487001  0.12513000  0.87487002  1
  Se  Se7  1  0.62513001  0.62513001  0.62513001  1
  Se  Se8  1  0.87487002  0.12513000  0.62513001  1
  Se  Se9  1  0.12513000  0.62513001  0.87487002  1
  Se  Se10  1  0.62513001  0.87487002  0.12513000  1
  Se  Se11  1  0.37487001  0.37487001  0.37487001  1
