# generated using pymatgen
data_Rb2Ge3Se4
_symmetry_space_group_name_H-M   'P 1'
_cell_length_a   6.24976778
_cell_length_b   6.30864525
_cell_length_c   14.04341984
_cell_angle_alpha   83.67202759
_cell_angle_beta   77.14315033
_cell_angle_gamma   60.30825043
_symmetry_Int_Tables_number   1
_chemical_formula_structural   Rb2Ge3Se4
_chemical_formula_sum   'Rb4 Ge6 Se8'
_cell_volume   468.93983353
_cell_formula_units_Z   2
loop_
 _symmetry_equiv_pos_site_id
 _symmetry_equiv_pos_as_xyz
  1  'x, y, z'
loop_
 _atom_site_type_symbol
 _atom_site_label
 _atom_site_symmetry_multiplicity
 _atom_site_fract_x
 _atom_site_fract_y
 _atom_site_fract_z
 _atom_site_occupancy
  Rb  Rb0  1  0.07831103  0.99999998  0.84337800  1
  Rb  Rb1  1  0.92168904  0.00000000  0.15662197  1
  Rb  Rb2  1  0.67168905  0.49999999  0.65662198  1
  Rb  Rb3  1  0.82831105  0.49999999  0.34337798  1
  Ge  Ge4  1  0.50000002  0.00000000  -0.00000001  1
  Ge  Ge5  1  0.25000002  0.49999999  0.50000000  1
  Ge  Ge6  1  0.74933804  0.00000000  0.50132397  1
  Ge  Ge7  1  0.25066201  0.00000000  0.49867599  1
  Ge  Ge8  1  0.00066201  0.49999999  0.99867600  1
  Ge  Ge9  1  0.49933804  0.49999999  0.00132399  1
  Se  Se10  1  0.61423405  0.66791299  0.11192099  1
  Se  Se11  1  0.71785405  0.66791299  0.88807798  1
  Se  Se12  1  0.27384602  0.33208599  0.11192100  1
  Se  Se13  1  0.39406903  0.33208599  0.88807798  1
  Se  Se14  1  0.13576603  0.83208698  0.38807900  1
  Se  Se15  1  0.03214602  0.83208698  0.61192200  1
  Se  Se16  1  0.47615403  0.16791400  0.38807899  1
  Se  Se17  1  0.35593102  0.16791400  0.61192199  1
