# generated using pymatgen
data_CsRb3
_symmetry_space_group_name_H-M   'P 1'
_cell_length_a   6.76655817
_cell_length_b   6.76655817
_cell_length_c   8.68004131
_cell_angle_alpha   112.94061279
_cell_angle_beta   112.94061279
_cell_angle_gamma   90.00000000
_symmetry_Int_Tables_number   1
_chemical_formula_structural   CsRb3
_chemical_formula_sum   'Cs1 Rb3'
_cell_volume   331.59520648
_cell_formula_units_Z   1
loop_
 _symmetry_equiv_pos_site_id
 _symmetry_equiv_pos_as_xyz
  1  'x, y, z'
loop_
 _atom_site_type_symbol
 _atom_site_label
 _atom_site_symmetry_multiplicity
 _atom_site_fract_x
 _atom_site_fract_y
 _atom_site_fract_z
 _atom_site_occupancy
  Cs  Cs0  1  0.00000000  0.00000000  0.00000000  1
  Rb  Rb1  1  0.74999998  0.24999999  0.50000001  1
  Rb  Rb2  1  0.24999999  0.74999998  0.50000000  1
  Rb  Rb3  1  0.49999998  0.49999998  -0.00000001  1
