# generated using pymatgen
data_SmFe12
_symmetry_space_group_name_H-M   'P 1'
_cell_length_a   4.94084406
_cell_length_b   6.41375542
_cell_length_c   6.41375542
_cell_angle_alpha   81.46808624
_cell_angle_beta   67.34535980
_cell_angle_gamma   67.34535980
_symmetry_Int_Tables_number   1
_chemical_formula_structural   SmFe12
_chemical_formula_sum   'Sm1 Fe12'
_cell_volume   173.09394489
_cell_formula_units_Z   1
loop_
 _symmetry_equiv_pos_site_id
 _symmetry_equiv_pos_as_xyz
  1  'x, y, z'
loop_
 _atom_site_type_symbol
 _atom_site_label
 _atom_site_symmetry_multiplicity
 _atom_site_fract_x
 _atom_site_fract_y
 _atom_site_fract_z
 _atom_site_occupancy
  Sm  Sm0  1  0.00000000  0.00000000  0.00000000  1
  Fe  Fe1  1  0.65622201  0.34377799  0.34377799  1
  Fe  Fe2  1  0.34377804  0.65622197  0.65622196  1
  Fe  Fe3  1  0.00000002  0.34377799  0.65622196  1
  Fe  Fe4  1  1.00000002  0.65622197  0.34377798  1
  Fe  Fe5  1  0.72505503  0.77494497  0.77494496  1
  Fe  Fe6  1  0.27494501  0.22505499  0.22505499  1
  Fe  Fe7  1  0.50000004  0.77494497  0.22505497  1
  Fe  Fe8  1  0.50000000  0.22505499  0.77494498  1
  Fe  Fe9  1  1.00000001  0.49999998  0.00000000  1
  Fe  Fe10  1  0.50000002  0.49999998  -0.00000001  1
  Fe  Fe11  1  0.49999999  0.00000000  0.50000000  1
  Fe  Fe12  1  0.00000000  0.00000000  0.49999999  1
