# generated using pymatgen
data_Cs2PtF6
_symmetry_space_group_name_H-M   'P 1'
_cell_length_a   4.96526003
_cell_length_b   6.18261194
_cell_length_c   6.18261290
_cell_angle_alpha   60.00000381
_cell_angle_beta   90.00000000
_cell_angle_gamma   90.00000000
_symmetry_Int_Tables_number   1
_chemical_formula_structural   Cs2PtF6
_chemical_formula_sum   'Cs2 Pt1 F6'
_cell_volume   164.36778001
_cell_formula_units_Z   1
loop_
 _symmetry_equiv_pos_site_id
 _symmetry_equiv_pos_as_xyz
  1  'x, y, z'
loop_
 _atom_site_type_symbol
 _atom_site_label
 _atom_site_symmetry_multiplicity
 _atom_site_fract_x
 _atom_site_fract_y
 _atom_site_fract_z
 _atom_site_occupancy
  Cs  Cs0  1  0.68833800  0.66666668  0.66666665  1
  Cs  Cs1  1  0.31166200  0.33333334  0.33333333  1
  Pt  Pt2  1  0.00000000  0.00000000  0.00000000  1
  F  F3  1  0.22416800  0.84355101  0.31289799  1
  F  F4  1  0.22416800  0.31289800  0.84355099  1
  F  F5  1  0.22416800  0.84355101  0.84355098  1
  F  F6  1  0.77583200  0.15644900  0.68710199  1
  F  F7  1  0.77583200  0.68710201  0.15644899  1
  F  F8  1  0.77583200  0.15644900  0.15644900  1
