# generated using pymatgen
data_Cs2PO4
_symmetry_space_group_name_H-M   'P 1'
_cell_length_a   6.23632002
_cell_length_b   7.01721859
_cell_length_c   7.70152187
_cell_angle_alpha   112.86351013
_cell_angle_beta   90.00000000
_cell_angle_gamma   116.38229370
_symmetry_Int_Tables_number   1
_chemical_formula_structural   Cs2PO4
_chemical_formula_sum   'Cs4 P2 O8'
_cell_volume   272.05413040
_cell_formula_units_Z   2
loop_
 _symmetry_equiv_pos_site_id
 _symmetry_equiv_pos_as_xyz
  1  'x, y, z'
loop_
 _atom_site_type_symbol
 _atom_site_label
 _atom_site_symmetry_multiplicity
 _atom_site_fract_x
 _atom_site_fract_y
 _atom_site_fract_z
 _atom_site_occupancy
  Cs  Cs0  1  0.15525798  0.31051599  0.74700000  1
  Cs  Cs1  1  0.84458596  0.68917198  0.25382400  1
  Cs  Cs2  1  0.49131494  0.98262998  0.76705800  1
  Cs  Cs3  1  0.50879300  0.01758600  0.23252600  1
  P  P4  1  0.17605698  0.35211399  0.23060700  1
  P  P5  1  0.82400296  0.64800598  0.76906200  1
  O  O6  1  0.09555096  0.71148898  0.91752900  1
  O  O7  1  0.61593796  0.71148898  0.91752900  1
  O  O8  1  0.90701498  0.28916299  0.08375400  1
  O  O9  1  0.38214798  0.28916299  0.08375400  1
  O  O10  1  0.66627398  0.33254799  0.61026400  1
  O  O11  1  0.33192596  0.66385198  0.38877100  1
  O  O12  1  0.91407195  0.82814398  0.63669700  1
  O  O13  1  0.08706499  0.17413000  0.36162600  1
