# generated using pymatgen
data_Li2PO4
_symmetry_space_group_name_H-M   'P 1'
_cell_length_a   5.54813814
_cell_length_b   5.55054426
_cell_length_c   6.28578854
_cell_angle_alpha   103.80569458
_cell_angle_beta   103.80233765
_cell_angle_gamma   117.34290314
_symmetry_Int_Tables_number   1
_chemical_formula_structural   Li2PO4
_chemical_formula_sum   'Li4 P2 O8'
_cell_volume   152.77117276
_cell_formula_units_Z   2
loop_
 _symmetry_equiv_pos_site_id
 _symmetry_equiv_pos_as_xyz
  1  'x, y, z'
loop_
 _atom_site_type_symbol
 _atom_site_label
 _atom_site_symmetry_multiplicity
 _atom_site_fract_x
 _atom_site_fract_y
 _atom_site_fract_z
 _atom_site_occupancy
  Li  Li0  1  0.43420297  0.56605098  0.25004800  1
  Li  Li1  1  0.18412295  0.81605596  0.74996899  1
  Li  Li2  1  0.81235600  0.18770699  0.24975204  1
  Li  Li3  1  0.56205398  0.43840998  0.75020602  1
  P  P4  1  0.12970995  0.87039396  0.25006897  1
  P  P5  1  0.87955501  0.12037499  0.74994305  1
  O  O6  1  0.80177097  0.75236397  0.09059101  1
  O  O7  1  0.31589995  0.86629596  0.10293198  1
  O  O8  1  0.73672996  0.78703697  0.60326901  1
  O  O9  1  0.83787100  0.28811099  0.59009004  1
  O  O10  1  0.13365096  0.68397097  0.39694598  1
  O  O11  1  0.24778499  0.19804199  0.40972601  1
  O  O12  1  0.71131200  0.16181399  0.90954504  1
  O  O13  1  0.21297999  0.26337199  0.89691301  1
