# generated using pymatgen
data_Ti
_symmetry_space_group_name_H-M   'P 1'
_cell_length_a   4.47621584
_cell_length_b   9.59154606
_cell_length_c   9.59154606
_cell_angle_alpha   120.00000000
_cell_angle_beta   90.00000000
_cell_angle_gamma   90.00000000
_symmetry_Int_Tables_number   1
_chemical_formula_structural   Ti
_chemical_formula_sum   Ti14
_cell_volume   356.63083024
_cell_formula_units_Z   14
loop_
 _symmetry_equiv_pos_site_id
 _symmetry_equiv_pos_as_xyz
  1  'x, y, z'
loop_
 _atom_site_type_symbol
 _atom_site_label
 _atom_site_symmetry_multiplicity
 _atom_site_fract_x
 _atom_site_fract_y
 _atom_site_fract_z
 _atom_site_occupancy
  Ti  Ti0  1  0.25000001  0.66666667  0.33333337  1
  Ti  Ti1  1  0.75000003  0.33333334  0.66666670  1
  Ti  Ti2  1  0.25000001  0.02254600  0.85129403  1
  Ti  Ti3  1  0.25000001  0.14870700  0.17125301  1
  Ti  Ti4  1  0.25000001  0.82874801  0.97745506  1
  Ti  Ti5  1  0.75000003  0.97745401  0.14870604  1
  Ti  Ti6  1  0.75000003  0.85129301  0.82874706  1
  Ti  Ti7  1  0.75000003  0.17125200  0.02254501  1
  Ti  Ti8  1  0.25000001  0.72263901  0.68145505  1
  Ti  Ti9  1  0.25000001  0.31854500  0.04118401  1
  Ti  Ti10  1  0.25000001  0.95881601  0.27736104  1
  Ti  Ti11  1  0.75000003  0.27736100  0.31854502  1
  Ti  Ti12  1  0.75000003  0.68145501  0.95881606  1
  Ti  Ti13  1  0.75000003  0.04118400  0.72263903  1
