# generated using pymatgen
data_Li3MnF6
_symmetry_space_group_name_H-M   'P 1'
_cell_length_a   6.30375719
_cell_length_b   6.35821629
_cell_length_c   6.36016321
_cell_angle_alpha   92.21342468
_cell_angle_beta   92.40818024
_cell_angle_gamma   91.94155121
_symmetry_Int_Tables_number   1
_chemical_formula_structural   Li3MnF6
_chemical_formula_sum   'Li6 Mn2 F12'
_cell_volume   254.34335328
_cell_formula_units_Z   2
loop_
 _symmetry_equiv_pos_site_id
 _symmetry_equiv_pos_as_xyz
  1  'x, y, z'
loop_
 _atom_site_type_symbol
 _atom_site_label
 _atom_site_symmetry_multiplicity
 _atom_site_fract_x
 _atom_site_fract_y
 _atom_site_fract_z
 _atom_site_occupancy
  Li  Li0  1  0.49169700  0.50254899  0.51735804  1
  Li  Li1  1  0.00341500  0.01503400  0.02390100  1
  Li  Li2  1  0.72896200  0.44488099  0.91573404  1
  Li  Li3  1  0.06551701  0.24368700  0.54807401  1
  Li  Li4  1  0.58736399  0.07607500  0.26128402  1
  Li  Li5  1  0.43672102  0.90463599  0.75183906  1
  Mn  Mn6  1  0.92962400  0.76176399  0.42660707  1
  Mn  Mn7  1  0.26193501  0.56416699  0.05726804  1
  F  F8  1  0.90913298  0.06388300  0.31918504  1
  F  F9  1  0.46172701  0.59480899  0.81843604  1
  F  F10  1  0.68298898  0.09639000  0.91241102  1
  F  F11  1  0.06242301  0.31048400  0.90217301  1
  F  F12  1  0.40424700  0.18017300  0.54450902  1
  F  F13  1  0.82103399  0.47542399  0.58594105  1
  F  F14  1  0.18810901  0.53833099  0.39078903  1
  F  F15  1  0.54251200  0.40137200  0.20331304  1
  F  F16  1  0.09113603  0.91689599  0.70283605  1
  F  F17  1  0.58172801  0.79761799  0.45229806  1
  F  F18  1  0.93279500  0.68085299  0.07718907  1
  F  F19  1  0.31693303  0.93097099  0.08885206  1
