# generated using pymatgen
data_NaLi(NiO2)2
_symmetry_space_group_name_H-M   'P 1'
_cell_length_a   6.80213737
_cell_length_b   6.80213737
_cell_length_c   6.80213737
_cell_angle_alpha   92.57853699
_cell_angle_beta   118.52261353
_cell_angle_gamma   118.52261353
_symmetry_Int_Tables_number   1
_chemical_formula_structural   NaLi(NiO2)2
_chemical_formula_sum   'Na2 Li2 Ni4 O8'
_cell_volume   227.26737395
_cell_formula_units_Z   2
loop_
 _symmetry_equiv_pos_site_id
 _symmetry_equiv_pos_as_xyz
  1  'x, y, z'
loop_
 _atom_site_type_symbol
 _atom_site_label
 _atom_site_symmetry_multiplicity
 _atom_site_fract_x
 _atom_site_fract_y
 _atom_site_fract_z
 _atom_site_occupancy
  Na  Na0  1  0.24999991  0.87499995  0.62499993  1
  Na  Na1  1  0.24999996  0.37499998  0.62499996  1
  Li  Li2  1  0.74999994  0.37499998  0.12499994  1
  Li  Li3  1  0.74999994  0.37499998  0.62499994  1
  Ni  Ni4  1  0.24999996  0.37499998  0.12499996  1
  Ni  Ni5  1  0.24999991  0.87499995  0.12499993  1
  Ni  Ni6  1  0.74999989  0.87499995  0.62499991  1
  Ni  Ni7  1  0.74999989  0.87499995  0.12499991  1
  O  O8  1  0.15829498  0.15669399  0.82851798  1
  O  O9  1  0.17182394  0.57851797  0.92022295  1
  O  O10  1  0.82817590  0.74839896  0.40669391  1
  O  O11  1  0.84170491  0.67022296  0.99839891  1
  O  O12  1  0.34170493  0.59330597  0.42148194  1
  O  O13  1  0.32817597  0.17148199  0.32977697  1
  O  O14  1  0.67182398  0.00160100  0.84330597  1
  O  O15  1  0.65829497  0.07977700  0.25160097  1
