# generated using pymatgen
data_Ba3Sr(SiS3)2
_symmetry_space_group_name_H-M   'P 1'
_cell_length_a   6.54551888
_cell_length_b   7.02260399
_cell_length_c   7.02260399
_cell_angle_alpha   112.26244354
_cell_angle_beta   90.00000000
_cell_angle_gamma   90.00000000
_symmetry_Int_Tables_number   1
_chemical_formula_structural   Ba3Sr(SiS3)2
_chemical_formula_sum   'Ba3 Sr1 Si2 S6'
_cell_volume   298.74267614
_cell_formula_units_Z   1
loop_
 _symmetry_equiv_pos_site_id
 _symmetry_equiv_pos_as_xyz
  1  'x, y, z'
loop_
 _atom_site_type_symbol
 _atom_site_label
 _atom_site_symmetry_multiplicity
 _atom_site_fract_x
 _atom_site_fract_y
 _atom_site_fract_z
 _atom_site_occupancy
  Ba  Ba0  1  0.74470401  0.47676998  0.80656797  1
  Ba  Ba1  1  0.24470400  0.19343199  0.52322998  1
  Ba  Ba2  1  0.24470400  0.52322998  0.19343198  1
  Sr  Sr3  1  0.74470401  0.80656797  0.47676996  1
  Si  Si4  1  0.76240101  0.09192400  0.09192400  1
  Si  Si5  1  0.26240101  0.90807597  0.90807595  1
  S  S6  1  0.50456801  0.13024000  0.89019697  1
  S  S7  1  0.00456800  0.10980300  0.86975998  1
  S  S8  1  0.30692401  0.64878798  0.64878796  1
  S  S9  1  0.80692402  0.35121199  0.35121198  1
  S  S10  1  0.00456800  0.86975997  0.10980297  1
  S  S11  1  0.50456801  0.89019697  0.13023997  1
