# generated using pymatgen
data_Tb2(Mn3Ge)3
_symmetry_space_group_name_H-M   'P 1'
_cell_length_a   4.06253004
_cell_length_b   4.06253052
_cell_length_c   20.17518234
_cell_angle_alpha   90.00000000
_cell_angle_beta   90.00000000
_cell_angle_gamma   119.99999237
_symmetry_Int_Tables_number   1
_chemical_formula_structural   Tb2(Mn3Ge)3
_chemical_formula_sum   'Tb2 Mn9 Ge3'
_cell_volume   288.36420870
_cell_formula_units_Z   1
loop_
 _symmetry_equiv_pos_site_id
 _symmetry_equiv_pos_as_xyz
  1  'x, y, z'
loop_
 _atom_site_type_symbol
 _atom_site_label
 _atom_site_symmetry_multiplicity
 _atom_site_fract_x
 _atom_site_fract_y
 _atom_site_fract_z
 _atom_site_occupancy
  Tb  Tb0  1  0.00000000  0.00000000  0.49999999  1
  Tb  Tb1  1  0.00000000  0.00000000  0.00000000  1
  Mn  Mn2  1  0.66666665  0.33333334  0.25000000  1
  Mn  Mn3  1  0.33333331  0.66666669  0.74999999  1
  Mn  Mn4  1  0.33333331  0.66666669  0.37013699  1
  Mn  Mn5  1  0.66666665  0.33333334  0.87013699  1
  Mn  Mn6  1  0.66666665  0.33333334  0.62986299  1
  Mn  Mn7  1  0.33333331  0.66666669  0.12986300  1
  Mn  Mn8  1  0.33333331  0.66666669  0.25000000  1
  Mn  Mn9  1  0.66666665  0.33333334  0.74999999  1
  Mn  Mn10  1  0.33333331  0.66666669  0.91168998  1
  Ge  Ge11  1  0.66666665  0.33333334  0.41168999  1
  Ge  Ge12  1  0.66666665  0.33333334  0.08831000  1
  Ge  Ge13  1  0.33333331  0.66666669  0.58830999  1
