# generated using pymatgen
data_CsKNa2(AgSe3)2
_symmetry_space_group_name_H-M   'P 1'
_cell_length_a   4.21674824
_cell_length_b   8.37756348
_cell_length_c   10.95167923
_cell_angle_alpha   90.00000000
_cell_angle_beta   90.00000000
_cell_angle_gamma   104.57630157
_symmetry_Int_Tables_number   1
_chemical_formula_structural   CsKNa2(AgSe3)2
_chemical_formula_sum   'Cs1 K1 Na2 Ag2 Se6'
_cell_volume   374.42748569
_cell_formula_units_Z   1
loop_
 _symmetry_equiv_pos_site_id
 _symmetry_equiv_pos_as_xyz
  1  'x, y, z'
loop_
 _atom_site_type_symbol
 _atom_site_label
 _atom_site_symmetry_multiplicity
 _atom_site_fract_x
 _atom_site_fract_y
 _atom_site_fract_z
 _atom_site_occupancy
  Cs  Cs0  1  0.74304193  0.48608401  0.74999998  1
  K  K1  1  0.25695795  0.51391602  0.24999999  1
  Na  Na2  1  0.00000000  0.00000000  0.00000000  1
  Na  Na3  1  0.00000000  0.00000000  0.49999999  1
  Ag  Ag4  1  0.46320992  0.92642003  0.74999998  1
  Ag  Ag5  1  0.53678997  0.07358000  0.24999999  1
  Se  Se6  1  0.38557193  0.77114402  0.94523298  1
  Se  Se7  1  0.61442795  0.22885601  0.05476700  1
  Se  Se8  1  0.61442795  0.22885601  0.44523299  1
  Se  Se9  1  0.38557193  0.77114402  0.55476699  1
  Se  Se10  1  0.05437699  0.10875400  0.74999998  1
  Se  Se11  1  0.94562289  0.89124603  0.24999999  1
