# generated using pymatgen
data_Sr2Nd2LuZrO8
_symmetry_space_group_name_H-M   'P 1'
_cell_length_a   5.70099783
_cell_length_b   5.88180923
_cell_length_c   6.77474880
_cell_angle_alpha   90.00000000
_cell_angle_beta   114.88216400
_cell_angle_gamma   90.00000000
_symmetry_Int_Tables_number   1
_chemical_formula_structural   Sr2Nd2LuZrO8
_chemical_formula_sum   'Sr2 Nd2 Lu1 Zr1 O8'
_cell_volume   206.08486529
_cell_formula_units_Z   1
loop_
 _symmetry_equiv_pos_site_id
 _symmetry_equiv_pos_as_xyz
  1  'x, y, z'
loop_
 _atom_site_type_symbol
 _atom_site_label
 _atom_site_symmetry_multiplicity
 _atom_site_fract_x
 _atom_site_fract_y
 _atom_site_fract_z
 _atom_site_occupancy
  Sr  Sr0  1  0.60436501  0.51152498  0.20872999  1
  Sr  Sr1  1  0.39563501  0.01152500  0.79127000  1
  Nd  Nd2  1  0.89400202  0.49053498  0.78800399  1
  Nd  Nd3  1  0.10599800  0.99053496  0.21199600  1
  Lu  Lu4  1  0.25398600  0.49449098  0.50797200  1
  Zr  Zr5  1  0.74601401  0.99449096  0.49202799  1
  O  O6  1  0.58368401  0.92831096  0.16736799  1
  O  O7  1  0.93256902  0.10510700  0.86513799  1
  O  O8  1  0.41631601  0.42831098  0.83263200  1
  O  O9  1  0.06743100  0.60510698  0.13486200  1
  O  O10  1  0.01871700  0.73501497  0.55655501  1
  O  O11  1  0.98128302  0.23501499  0.44344498  1
  O  O12  1  0.46216201  0.23501499  0.44344499  1
  O  O13  1  0.53783801  0.73501497  0.55655499  1
