# generated using pymatgen
data_Mo2Se3S
_symmetry_space_group_name_H-M   'P 1'
_cell_length_a   3.28615189
_cell_length_b   3.28615284
_cell_length_c   37.44742966
_cell_angle_alpha   90.00000000
_cell_angle_beta   90.00000000
_cell_angle_gamma   119.99999237
_symmetry_Int_Tables_number   1
_chemical_formula_structural   Mo2Se3S
_chemical_formula_sum   'Mo4 Se6 S2'
_cell_volume   350.20961873
_cell_formula_units_Z   2
loop_
 _symmetry_equiv_pos_site_id
 _symmetry_equiv_pos_as_xyz
  1  'x, y, z'
loop_
 _atom_site_type_symbol
 _atom_site_label
 _atom_site_symmetry_multiplicity
 _atom_site_fract_x
 _atom_site_fract_y
 _atom_site_fract_z
 _atom_site_occupancy
  Mo  Mo0  1  0.66666669  0.33333333  0.90607396  1
  Mo  Mo1  1  0.66666669  0.33333333  0.53034998  1
  Mo  Mo2  1  0.33333335  0.66666665  0.71820497  1
  Mo  Mo3  1  0.33333335  0.66666665  0.34245098  1
  Se  Se4  1  0.66666669  0.33333333  0.29714499  1
  Se  Se5  1  0.33333335  0.66666665  0.95139096  1
  Se  Se6  1  0.33333335  0.66666665  0.57565097  1
  Se  Se7  1  0.33333335  0.66666665  0.86076296  1
  Se  Se8  1  0.33333335  0.66666665  0.48504298  1
  Se  Se9  1  0.66666669  0.33333333  0.38776898  1
  S  S10  1  0.66666669  0.33333333  0.67705797  1
  S  S11  1  0.66666669  0.33333333  0.75935297  1
