# generated using pymatgen
data_Na2LiMnF6
_symmetry_space_group_name_H-M   'P 1'
_cell_length_a   5.50227785
_cell_length_b   5.92061520
_cell_length_c   7.66844702
_cell_angle_alpha   90.00000000
_cell_angle_beta   90.00000000
_cell_angle_gamma   90.00000000
_symmetry_Int_Tables_number   1
_chemical_formula_structural   Na2LiMnF6
_chemical_formula_sum   'Na4 Li2 Mn2 F12'
_cell_volume   249.81400052
_cell_formula_units_Z   2
loop_
 _symmetry_equiv_pos_site_id
 _symmetry_equiv_pos_as_xyz
  1  'x, y, z'
loop_
 _atom_site_type_symbol
 _atom_site_label
 _atom_site_symmetry_multiplicity
 _atom_site_fract_x
 _atom_site_fract_y
 _atom_site_fract_z
 _atom_site_occupancy
  Na  Na0  1  0.51542301  0.42787299  0.25000000  1
  Na  Na1  1  0.98457703  0.92787297  0.25000000  1
  Na  Na2  1  0.48457701  0.57212698  0.75000000  1
  Na  Na3  1  0.01542300  0.07212700  0.75000000  1
  Li  Li4  1  -0.00000000  0.49999998  0.00000000  1
  Li  Li5  1  0.50000001  0.00000000  0.50000000  1
  Mn  Mn6  1  -0.00000000  0.49999998  0.50000000  1
  Mn  Mn7  1  0.50000001  0.00000000  -0.00000000  1
  F  F8  1  0.40200001  0.02722200  0.25000000  1
  F  F9  1  0.09800000  0.52722198  0.25000000  1
  F  F10  1  0.59800002  0.97277797  0.75000000  1
  F  F11  1  0.90200002  0.47277798  0.75000000  1
  F  F12  1  0.78683102  0.18359899  0.04869700  1
  F  F13  1  0.71316902  0.68359898  0.45130300  1
  F  F14  1  0.21316901  0.81640097  0.54869700  1
  F  F15  1  0.28683101  0.31640099  0.95130300  1
  F  F16  1  0.21316901  0.81640097  0.95130300  1
  F  F17  1  0.28683101  0.31640099  0.54869700  1
  F  F18  1  0.78683102  0.18359899  0.45130300  1
  F  F19  1  0.71316902  0.68359898  0.04869700  1
