# generated using pymatgen
data_BC3S13I
_symmetry_space_group_name_H-M   'P 1'
_cell_length_a   4.89584780
_cell_length_b   4.89584923
_cell_length_c   23.48484039
_cell_angle_alpha   90.00000000
_cell_angle_beta   90.00000000
_cell_angle_gamma   119.99999237
_symmetry_Int_Tables_number   1
_chemical_formula_structural   BC3S13I
_chemical_formula_sum   'B1 C3 S13 I1'
_cell_volume   487.49955195
_cell_formula_units_Z   1
loop_
 _symmetry_equiv_pos_site_id
 _symmetry_equiv_pos_as_xyz
  1  'x, y, z'
loop_
 _atom_site_type_symbol
 _atom_site_label
 _atom_site_symmetry_multiplicity
 _atom_site_fract_x
 _atom_site_fract_y
 _atom_site_fract_z
 _atom_site_occupancy
  B  B0  1  1.00000004  0.30050399  0.33333334  1
  C  C1  1  0.69949603  0.69949598  0.66666668  1
  I  I2  1  0.30050401  0.00000000  0.00000000  1
  C  C3  1  0.01999700  0.30191199  0.78362902  1
  C  C4  1  0.69808803  0.71808498  0.11696200  1
  S  S5  1  0.28191501  0.98000297  0.45029601  1
  S  S6  1  0.98000304  0.28191499  0.88303802  1
  S  S7  1  0.71808503  0.69808798  0.21637101  1
  S  S8  1  0.30191201  0.01999700  0.54970401  1
  S  S9  1  1.00000004  0.18088399  0.83333302  1
  S  S10  1  0.81911603  0.81911597  0.16666700  1
  S  S11  1  0.18088401  0.00000000  0.50000001  1
  S  S12  1  0.03825500  0.38218299  0.73538902  1
  S  S13  1  0.61781702  0.65607198  0.06872200  1
  S  S14  1  0.34392801  0.96174497  0.40205501  1
  S  S15  1  0.96174504  0.34392799  0.93127802  1
  S  S16  1  0.65607202  0.61781698  0.26461101  1
  S  S17  1  0.38218302  0.03825500  0.59794502  1
