# generated using pymatgen
data_Na5LiCu2F12
_symmetry_space_group_name_H-M   'P 1'
_cell_length_a   5.46875048
_cell_length_b   5.65691710
_cell_length_c   7.82982159
_cell_angle_alpha   89.99993134
_cell_angle_beta   90.33329010
_cell_angle_gamma   89.99703979
_symmetry_Int_Tables_number   1
_chemical_formula_structural   Na5LiCu2F12
_chemical_formula_sum   'Na5 Li1 Cu2 F12'
_cell_volume   242.22136100
_cell_formula_units_Z   1
loop_
 _symmetry_equiv_pos_site_id
 _symmetry_equiv_pos_as_xyz
  1  'x, y, z'
loop_
 _atom_site_type_symbol
 _atom_site_label
 _atom_site_symmetry_multiplicity
 _atom_site_fract_x
 _atom_site_fract_y
 _atom_site_fract_z
 _atom_site_occupancy
  Na  Na0  1  0.98613303  0.05552500  0.25315699  1
  Na  Na1  1  0.51387900  0.55553099  0.24683398  1
  Na  Na2  1  0.01386797  0.94447398  0.74684398  1
  Na  Na3  1  0.48611900  0.44446699  0.75316699  1
  Li  Li4  1  0.49999902  0.00000000  -0.00000001  1
  Na  Na5  1  -0.00000002  0.49999899  0.49999999  1
  Cu  Cu6  1  0.49999702  0.00000200  0.49999700  1
  Cu  Cu7  1  0.00000798  0.50000099  -0.00000002  1
  F  F8  1  0.68762901  0.28406600  0.44536199  1
  F  F9  1  0.81235300  0.78406599  0.05463697  1
  F  F10  1  0.31237398  0.71593499  0.55464098  1
  F  F11  1  0.18764800  0.21593700  0.94535900  1
  F  F12  1  0.21064800  0.19315600  0.54579000  1
  F  F13  1  0.28932298  0.69316499  0.95420899  1
  F  F14  1  0.78935400  0.80684199  0.45421197  1
  F  F15  1  0.71067101  0.30683399  0.04578698  1
  F  F16  1  0.09649599  0.46657399  0.23962199  1
  F  F17  1  0.40351798  0.96657298  0.26037597  1
  F  F18  1  0.59648202  0.03342800  0.73962800  1
  F  F19  1  0.90350401  0.53342599  0.76037798  1
