# generated using pymatgen
data_Li2Se
_symmetry_space_group_name_H-M   'P 1'
_cell_length_a   3.19959402
_cell_length_b   3.19959402
_cell_length_c   4.62425137
_cell_angle_alpha   110.24028778
_cell_angle_beta   110.24028778
_cell_angle_gamma   90.00000000
_symmetry_Int_Tables_number   1
_chemical_formula_structural   Li2Se
_chemical_formula_sum   'Li2 Se1'
_cell_volume   41.28732994
_cell_formula_units_Z   1
loop_
 _symmetry_equiv_pos_site_id
 _symmetry_equiv_pos_as_xyz
  1  'x, y, z'
loop_
 _atom_site_type_symbol
 _atom_site_label
 _atom_site_symmetry_multiplicity
 _atom_site_fract_x
 _atom_site_fract_y
 _atom_site_fract_z
 _atom_site_occupancy
  Li  Li0  1  0.66691197  0.66691199  0.33382397  1
  Li  Li1  1  0.99246996  0.99246998  0.98493996  1
  Se  Se2  1  0.34061798  0.34061799  0.68123599  1
