# generated using pymatgen
data_Li7Cu2AsP2
_symmetry_space_group_name_H-M   'P 1'
_cell_length_a   3.77829099
_cell_length_b   6.37330484
_cell_length_c   8.55248451
_cell_angle_alpha   97.06490326
_cell_angle_beta   90.00000000
_cell_angle_gamma   90.00000000
_symmetry_Int_Tables_number   1
_chemical_formula_structural   Li7Cu2AsP2
_chemical_formula_sum   'Li7 Cu2 As1 P2'
_cell_volume   204.38189081
_cell_formula_units_Z   1
loop_
 _symmetry_equiv_pos_site_id
 _symmetry_equiv_pos_as_xyz
  1  'x, y, z'
loop_
 _atom_site_type_symbol
 _atom_site_label
 _atom_site_symmetry_multiplicity
 _atom_site_fract_x
 _atom_site_fract_y
 _atom_site_fract_z
 _atom_site_occupancy
  Li  Li0  1  0.25000000  0.25267801  0.89859695  1
  Li  Li1  1  0.75000000  0.74732202  0.10140298  1
  Li  Li2  1  0.25000000  0.23826801  0.39015598  1
  Li  Li3  1  0.75000000  0.76173202  0.60984395  1
  Li  Li4  1  0.25000000  0.65619901  0.74990695  1
  Li  Li5  1  0.25000000  0.02511300  0.15177999  1
  Cu  Cu6  1  0.25000000  0.02293000  0.61066997  1
  Li  Li7  1  0.25000000  0.61949501  0.43021197  1
  Cu  Cu8  1  0.75000000  0.34380101  0.25009298  1
  P  P9  1  0.75000000  0.38050501  0.56978796  1
  P  P10  1  0.75000000  0.97707002  0.38932996  1
  As  As11  1  0.75000000  0.97488702  0.84821994  1
