# generated using pymatgen
data_Ba4Ti2WO12
_symmetry_space_group_name_H-M   'P 1'
_cell_length_a   5.84647846
_cell_length_b   5.84647846
_cell_length_c   10.02987003
_cell_angle_alpha   73.05501556
_cell_angle_beta   73.05501556
_cell_angle_gamma   59.99999237
_symmetry_Int_Tables_number   1
_chemical_formula_structural   Ba4Ti2WO12
_chemical_formula_sum   'Ba4 Ti2 W1 O12'
_cell_volume   279.58428126
_cell_formula_units_Z   1
loop_
 _symmetry_equiv_pos_site_id
 _symmetry_equiv_pos_as_xyz
  1  'x, y, z'
loop_
 _atom_site_type_symbol
 _atom_site_label
 _atom_site_symmetry_multiplicity
 _atom_site_fract_x
 _atom_site_fract_y
 _atom_site_fract_z
 _atom_site_occupancy
  Ba  Ba0  1  0.70809601  0.70809602  0.87571202  1
  Ba  Ba1  1  0.28933700  0.28933701  0.13198901  1
  Ba  Ba2  1  0.86897301  0.86897303  0.39308102  1
  Ba  Ba3  1  0.13473000  0.13473000  0.59581001  1
  Ti  Ti4  1  0.99840802  0.99840803  0.00477601  1
  Ti  Ti5  1  0.41954301  0.41954301  0.74137102  1
  W  W6  1  0.57936901  0.57936902  0.26189301  1
  O  O7  1  0.38564301  0.38564301  0.36377701  1
  O  O8  1  0.38564300  0.86493703  0.36377701  1
  O  O9  1  0.86493702  0.38564301  0.36377701  1
  O  O10  1  0.60849201  0.60849202  0.63940202  1
  O  O11  1  0.60849202  0.14361400  0.63940201  1
  O  O12  1  0.14361400  0.60849202  0.63940201  1
  O  O13  1  0.22009800  0.22009801  0.86859201  1
  O  O14  1  0.22009800  0.69121202  0.86859202  1
  O  O15  1  0.69121202  0.22009801  0.86859202  1
  O  O16  1  0.78499001  0.78499003  0.12668501  1
  O  O17  1  0.78499002  0.30333501  0.12668501  1
  O  O18  1  0.30333500  0.78499003  0.12668501  1
