# generated using pymatgen
data_Li2SO5
_symmetry_space_group_name_H-M   'P 1'
_cell_length_a   5.27669573
_cell_length_b   5.67095661
_cell_length_c   7.57354927
_cell_angle_alpha   107.14321899
_cell_angle_beta   108.41857910
_cell_angle_gamma   96.33692169
_symmetry_Int_Tables_number   1
_chemical_formula_structural   Li2SO5
_chemical_formula_sum   'Li4 S2 O10'
_cell_volume   200.22441046
_cell_formula_units_Z   2
loop_
 _symmetry_equiv_pos_site_id
 _symmetry_equiv_pos_as_xyz
  1  'x, y, z'
loop_
 _atom_site_type_symbol
 _atom_site_label
 _atom_site_symmetry_multiplicity
 _atom_site_fract_x
 _atom_site_fract_y
 _atom_site_fract_z
 _atom_site_occupancy
  Li  Li0  1  0.26068201  0.62001203  0.79279502  1
  Li  Li1  1  0.73938398  0.37988702  0.20711000  1
  Li  Li2  1  0.99997796  0.00010500  0.00014999  1
  Li  Li3  1  0.99985899  0.99969204  0.50001902  1
  S  S4  1  0.32657600  0.63106703  0.24279001  1
  S  S5  1  0.67340398  0.36897502  0.75714801  1
  O  O6  1  0.60028500  0.75123803  0.40016002  1
  O  O7  1  0.39957399  0.24880501  0.59987701  1
  O  O8  1  0.10729501  0.65068303  0.32855202  1
  O  O9  1  0.89259897  0.34926001  0.67127801  1
  O  O10  1  0.32840300  0.35889401  0.14913601  1
  O  O11  1  0.67166499  0.64122403  0.85077902  1
  O  O12  1  0.27362701  0.75200303  0.08775701  1
  O  O13  1  0.72652098  0.24812001  0.91226401  1
  O  O14  1  0.12119502  0.89848504  0.75454003  1
  O  O15  1  0.87895397  0.10155000  0.24564500  1
