# generated using pymatgen
data_Ba2SrRuO6
_symmetry_space_group_name_H-M   'P 1'
_cell_length_a   6.03230619
_cell_length_b   6.12716341
_cell_length_c   8.58755112
_cell_angle_alpha   91.34699249
_cell_angle_beta   90.73326874
_cell_angle_gamma   90.43486786
_symmetry_Int_Tables_number   1
_chemical_formula_structural   Ba2SrRuO6
_chemical_formula_sum   'Ba4 Sr2 Ru2 O12'
_cell_volume   317.28025925
_cell_formula_units_Z   2
loop_
 _symmetry_equiv_pos_site_id
 _symmetry_equiv_pos_as_xyz
  1  'x, y, z'
loop_
 _atom_site_type_symbol
 _atom_site_label
 _atom_site_symmetry_multiplicity
 _atom_site_fract_x
 _atom_site_fract_y
 _atom_site_fract_z
 _atom_site_occupancy
  Ba  Ba0  1  0.00732811  0.04028800  0.75154756  1
  Ba  Ba1  1  0.99267191  0.95971201  0.24845250  1
  Sr  Sr2  1  1.00000002  0.50000000  1.00000005  1
  Ba  Ba3  1  0.50000001  0.00000000  0.50000003  1
  Sr  Sr4  1  0.48898171  0.55058881  0.75346484  1
  Ba  Ba5  1  0.51101831  0.44941119  0.24653522  1
  Ru  Ru6  1  0.50000001  0.00000000  -0.00000000  1
  Ru  Ru7  1  1.00000002  0.50000000  0.50000003  1
  O  O8  1  0.76256760  0.18402137  0.04084619  1
  O  O9  1  0.73794302  0.67403772  0.44367729  1
  O  O10  1  0.23743242  0.81597864  0.95915387  1
  O  O11  1  0.26205699  0.32596228  0.55632277  1
  O  O12  1  0.66499599  0.73076587  0.05187661  1
  O  O13  1  0.82227474  0.23725953  0.44987050  1
  O  O14  1  0.33500403  0.26923413  0.94812345  1
  O  O15  1  0.17772528  0.76274048  0.55012955  1
  O  O16  1  0.57624952  0.95288405  0.77950054  1
  O  O17  1  0.89306501  0.48717753  0.71712287  1
  O  O18  1  0.42375050  0.04711596  0.22049952  1
  O  O19  1  0.10693501  0.51282247  0.28287719  1
