# generated using pymatgen
data_BaCaHg
_symmetry_space_group_name_H-M   'P 1'
_cell_length_a   5.02490902
_cell_length_b   8.31701565
_cell_length_c   9.06608295
_cell_angle_alpha   90.00000000
_cell_angle_beta   90.00000000
_cell_angle_gamma   90.00000000
_symmetry_Int_Tables_number   1
_chemical_formula_structural   BaCaHg
_chemical_formula_sum   'Ba4 Ca4 Hg4'
_cell_volume   378.89197765
_cell_formula_units_Z   4
loop_
 _symmetry_equiv_pos_site_id
 _symmetry_equiv_pos_as_xyz
  1  'x, y, z'
loop_
 _atom_site_type_symbol
 _atom_site_label
 _atom_site_symmetry_multiplicity
 _atom_site_fract_x
 _atom_site_fract_y
 _atom_site_fract_z
 _atom_site_occupancy
  Ba  Ba0  1  0.75000000  0.98887104  0.18854900  1
  Ba  Ba1  1  0.75000000  0.48887102  0.31145100  1
  Ba  Ba2  1  0.25000000  0.01112900  0.81145100  1
  Ba  Ba3  1  0.25000000  0.51112902  0.68854900  1
  Ca  Ca4  1  0.75000000  0.85501304  0.56642400  1
  Ca  Ca5  1  0.75000000  0.35501302  0.93357600  1
  Ca  Ca6  1  0.25000000  0.14498701  0.43357600  1
  Ca  Ca7  1  0.25000000  0.64498703  0.06642400  1
  Hg  Hg8  1  0.75000000  0.22239201  0.60904600  1
  Hg  Hg9  1  0.75000000  0.72239203  0.89095400  1
  Hg  Hg10  1  0.25000000  0.77760803  0.39095400  1
  Hg  Hg11  1  0.25000000  0.27760801  0.10904600  1
