# generated using pymatgen
data_BaNbO3
_symmetry_space_group_name_H-M   'P 1'
_cell_length_a   5.88594198
_cell_length_b   5.90410328
_cell_length_c   5.88594198
_cell_angle_alpha   60.10170364
_cell_angle_beta   90.00000000
_cell_angle_gamma   119.89830017
_symmetry_Int_Tables_number   1
_chemical_formula_structural   BaNbO3
_chemical_formula_sum   'Ba2 Nb2 O6'
_cell_volume   145.07770081
_cell_formula_units_Z   2
loop_
 _symmetry_equiv_pos_site_id
 _symmetry_equiv_pos_as_xyz
  1  'x, y, z'
loop_
 _atom_site_type_symbol
 _atom_site_label
 _atom_site_symmetry_multiplicity
 _atom_site_fract_x
 _atom_site_fract_y
 _atom_site_fract_z
 _atom_site_occupancy
  Ba  Ba0  1  0.50000000  0.00000000  0.50000000  1
  Ba  Ba1  1  0.00000000  0.00000000  0.00000000  1
  Nb  Nb2  1  0.25000003  0.50000001  0.25000000  1
  Nb  Nb3  1  0.75000003  0.50000001  0.75000001  1
  O  O4  1  0.02630503  0.49543701  0.53086801  1
  O  O5  1  0.46913203  0.49543701  0.97369501  1
  O  O6  1  0.97369503  0.50456301  0.02630500  1
  O  O7  1  0.53086803  0.50456301  0.46913201  1
  O  O8  1  0.50000000  0.00000000  1.00000000  1
  O  O9  1  1.00000005  1.00000002  0.50000001  1
