# generated using pymatgen
data_CsPrFe2B6CO9
_symmetry_space_group_name_H-M   'P 1'
_cell_length_a   4.56018400
_cell_length_b   4.56018400
_cell_length_c   11.68673706
_cell_angle_alpha   90.00000000
_cell_angle_beta   90.00000000
_cell_angle_gamma   90.00000000
_symmetry_Int_Tables_number   1
_chemical_formula_structural   CsPrFe2B6CO9
_chemical_formula_sum   'Cs1 Pr1 Fe2 B6 C1 O9'
_cell_volume   243.02894762
_cell_formula_units_Z   1
loop_
 _symmetry_equiv_pos_site_id
 _symmetry_equiv_pos_as_xyz
  1  'x, y, z'
loop_
 _atom_site_type_symbol
 _atom_site_label
 _atom_site_symmetry_multiplicity
 _atom_site_fract_x
 _atom_site_fract_y
 _atom_site_fract_z
 _atom_site_occupancy
  Cs  Cs0  1  -0.00000000  0.50000000  0.82089300  1
  Pr  Pr1  1  0.50000000  0.00000000  0.17910700  1
  Fe  Fe2  1  0.18147700  0.00000000  0.63052600  1
  Fe  Fe3  1  0.81852300  0.00000000  0.63052600  1
  B  B4  1  0.50000000  0.68147700  0.63052600  1
  B  B5  1  0.50000000  0.31852300  0.63052600  1
  B  B6  1  0.31852300  0.50000000  0.36947400  1
  B  B7  1  0.68147700  0.50000000  0.36947400  1
  B  B8  1  -0.00000000  0.81852300  0.36947400  1
  B  B9  1  -0.00000000  0.18147700  0.36947400  1
  C  C10  1  0.50000000  0.00000000  0.49120800  1
  O  O11  1  -0.00000000  0.50000000  0.50879200  1
  O  O12  1  0.50000000  0.00000000  0.90653800  1
  O  O13  1  -0.00000000  0.50000000  0.09346200  1
  O  O14  1  0.00000000  0.00000000  0.68167500  1
  O  O15  1  0.50000000  0.50000000  0.68167500  1
  O  O16  1  0.50000000  0.50000000  0.31832500  1
  O  O17  1  0.00000000  0.00000000  0.31832500  1
  O  O18  1  0.50000000  0.00000000  0.57418800  1
  O  O19  1  -0.00000000  0.50000000  0.42581200  1
