# generated using pymatgen
data_Na2UFeO6
_symmetry_space_group_name_H-M   'P 1'
_cell_length_a   5.59143829
_cell_length_b   5.59143829
_cell_length_c   5.59143829
_cell_angle_alpha   88.77204895
_cell_angle_beta   60.59693527
_cell_angle_gamma   119.18423462
_symmetry_Int_Tables_number   1
_chemical_formula_structural   Na2UFeO6
_chemical_formula_sum   'Na2 U1 Fe1 O6'
_cell_volume   124.89869796
_cell_formula_units_Z   1
loop_
 _symmetry_equiv_pos_site_id
 _symmetry_equiv_pos_as_xyz
  1  'x, y, z'
loop_
 _atom_site_type_symbol
 _atom_site_label
 _atom_site_symmetry_multiplicity
 _atom_site_fract_x
 _atom_site_fract_y
 _atom_site_fract_z
 _atom_site_occupancy
  Na  Na0  1  0.74099693  0.99099699  0.25000005  1
  Na  Na1  1  0.75900297  0.50900299  0.75000006  1
  U  U2  1  0.27027094  0.74999999  0.97972906  1
  Fe  Fe3  1  0.22972898  0.25000000  0.52027103  1
  O  O4  1  0.24999996  0.53879799  0.71120204  1
  O  O5  1  0.74999993  0.96120199  0.78879807  1
  O  O6  1  0.17000997  0.42000999  0.25000002  1
  O  O7  1  0.32999000  0.07999000  0.75000003  1
  O  O8  1  0.74999997  0.54725499  0.20274504  1
  O  O9  1  0.24999992  0.95274499  0.29725504  1
