# generated using pymatgen
data_Cs4Tl3AgS8
_symmetry_space_group_name_H-M   'P 1'
_cell_length_a   6.91654110
_cell_length_b   6.91796875
_cell_length_c   12.88208103
_cell_angle_alpha   99.34735107
_cell_angle_beta   101.18546295
_cell_angle_gamma   104.61457062
_symmetry_Int_Tables_number   1
_chemical_formula_structural   Cs4Tl3AgS8
_chemical_formula_sum   'Cs4 Tl3 Ag1 S8'
_cell_volume   570.42531369
_cell_formula_units_Z   1
loop_
 _symmetry_equiv_pos_site_id
 _symmetry_equiv_pos_as_xyz
  1  'x, y, z'
loop_
 _atom_site_type_symbol
 _atom_site_label
 _atom_site_symmetry_multiplicity
 _atom_site_fract_x
 _atom_site_fract_y
 _atom_site_fract_z
 _atom_site_occupancy
  Cs  Cs0  1  0.56383201  0.32426899  0.15367400  1
  Cs  Cs1  1  0.88784502  0.71824798  0.57850599  1
  Cs  Cs2  1  0.43616803  0.67573098  0.84632598  1
  Cs  Cs3  1  0.11215501  0.28175199  0.42149399  1
  Tl  Tl4  1  0.40936803  0.81086898  0.34621698  1
  Tl  Tl5  1  0.01026701  0.21285999  0.91323198  1
  Ag  Ag6  1  0.98973303  0.78713998  0.08676800  1
  Tl  Tl7  1  0.59063200  0.18913100  0.65378299  1
  S  S8  1  0.01742203  0.75916898  0.31730198  1
  S  S9  1  0.98257800  0.24083099  0.68269800  1
  S  S10  1  0.62414900  0.20518199  0.87759599  1
  S  S11  1  0.57589000  0.20087599  0.41097500  1
  S  S12  1  0.37585103  0.79481798  0.12240399  1
  S  S13  1  0.42411003  0.79912398  0.58902498  1
  S  S14  1  0.02250201  0.17617900  0.13300399  1
  S  S15  1  0.97749803  0.82382098  0.86699598  1
