# generated using pymatgen
data_Li5TiO8
_symmetry_space_group_name_H-M   'P 1'
_cell_length_a   5.82004023
_cell_length_b   5.82004023
_cell_length_c   5.90269899
_cell_angle_alpha   117.62516022
_cell_angle_beta   117.62516022
_cell_angle_gamma   91.10810852
_symmetry_Int_Tables_number   1
_chemical_formula_structural   Li5TiO8
_chemical_formula_sum   'Li5 Ti1 O8'
_cell_volume   149.79627452
_cell_formula_units_Z   1
loop_
 _symmetry_equiv_pos_site_id
 _symmetry_equiv_pos_as_xyz
  1  'x, y, z'
loop_
 _atom_site_type_symbol
 _atom_site_label
 _atom_site_symmetry_multiplicity
 _atom_site_fract_x
 _atom_site_fract_y
 _atom_site_fract_z
 _atom_site_occupancy
  Li  Li0  1  1.00000003  0.50000001  0.50000007  1
  Li  Li1  1  0.50000001  0.00000000  1.00000003  1
  Li  Li2  1  0.50000001  0.00000000  0.50000003  1
  Li  Li3  1  0.50000003  0.50000001  0.50000005  1
  Li  Li4  1  1.00000003  0.50000001  1.00000008  1
  Ti  Ti5  1  0.50000003  0.50000001  1.00000006  1
  O  O6  1  0.24901003  0.71050602  0.98449806  1
  O  O7  1  0.27984402  0.30166501  0.05848203  1
  O  O8  1  0.69833504  0.72015602  0.44151807  1
  O  O9  1  0.71050602  0.24901001  0.48449805  1
  O  O10  1  0.28949403  0.75099002  0.51550206  1
  O  O11  1  0.30166502  0.27984401  0.55848204  1
  O  O12  1  0.72015604  0.69833502  0.94151808  1
  O  O13  1  0.75099002  0.28949401  0.01550204  1
