# generated using pymatgen
data_Ba2Pb2OF13
_symmetry_space_group_name_H-M   'P 1'
_cell_length_a   5.77873373
_cell_length_b   8.03099155
_cell_length_c   8.03099155
_cell_angle_alpha   114.43791199
_cell_angle_beta   103.87776947
_cell_angle_gamma   103.87776947
_symmetry_Int_Tables_number   1
_chemical_formula_structural   Ba2Pb2OF13
_chemical_formula_sum   'Ba2 Pb2 O1 F13'
_cell_volume   304.20742085
_cell_formula_units_Z   1
loop_
 _symmetry_equiv_pos_site_id
 _symmetry_equiv_pos_as_xyz
  1  'x, y, z'
loop_
 _atom_site_type_symbol
 _atom_site_label
 _atom_site_symmetry_multiplicity
 _atom_site_fract_x
 _atom_site_fract_y
 _atom_site_fract_z
 _atom_site_occupancy
  Ba  Ba0  1  0.14460104  0.99999993  0.41726593  1
  Ba  Ba1  1  0.14460102  0.41726597  -0.00000002  1
  Pb  Pb2  1  0.72733502  0.58273396  0.58273396  1
  Pb  Pb3  1  0.40163602  0.59528596  -0.00000002  1
  F  F4  1  0.80635002  0.40471397  0.40471398  1
  O  O5  1  0.40163604  0.99999993  0.59528593  1
  F  F6  1  0.37641501  0.33008598  0.52840996  1
  F  F7  1  0.84800502  0.47158997  0.80167595  1
  F  F8  1  0.04632901  0.19832399  0.66991395  1
  F  F9  1  0.63526503  0.77555295  0.77555293  1
  F  F10  1  0.85971201  0.22444698  0.99999995  1
  F  F11  1  0.35352504  0.99999993  0.24391994  1
  F  F12  1  0.04632903  0.66991395  0.19832396  1
  F  F13  1  0.37641502  0.52840996  0.33008596  1
  F  F14  1  0.85971200  0.00000000  0.22444701  1
  F  F15  1  0.35352501  0.24391998  0.99999994  1
  F  F16  1  0.10960503  0.75607995  0.75607992  1
  F  F17  1  0.84800503  0.80167594  0.47158995  1
