# generated using pymatgen
data_Na3CuF5
_symmetry_space_group_name_H-M   'P 1'
_cell_length_a   7.24135208
_cell_length_b   7.24135208
_cell_length_c   7.24135208
_cell_angle_alpha   60.00000000
_cell_angle_beta   60.00000000
_cell_angle_gamma   60.00000000
_symmetry_Int_Tables_number   1
_chemical_formula_structural   Na3CuF5
_chemical_formula_sum   'Na6 Cu2 F10'
_cell_volume   268.49981671
_cell_formula_units_Z   2
loop_
 _symmetry_equiv_pos_site_id
 _symmetry_equiv_pos_as_xyz
  1  'x, y, z'
loop_
 _atom_site_type_symbol
 _atom_site_label
 _atom_site_symmetry_multiplicity
 _atom_site_fract_x
 _atom_site_fract_y
 _atom_site_fract_z
 _atom_site_occupancy
  Na  Na0  1  0.26087999  0.26087999  0.73911998  1
  Na  Na1  1  0.73911998  0.26087999  0.26087999  1
  Na  Na2  1  0.26087999  0.73911998  0.73911998  1
  Na  Na3  1  0.73911998  0.73911998  0.26087999  1
  Na  Na4  1  0.73911998  0.26087999  0.73911998  1
  Na  Na5  1  0.26087999  0.73911998  0.26087999  1
  Cu  Cu6  1  0.74999998  0.74999998  0.74999998  1
  Cu  Cu7  1  0.24999999  0.24999999  0.24999999  1
  F  F8  1  0.00000000  0.00000000  0.00000000  1
  F  F9  1  0.49999998  0.49999998  0.49999998  1
  F  F10  1  0.35036499  0.35036499  0.35036499  1
  F  F11  1  0.05109500  0.64963498  0.64963498  1
  F  F12  1  0.64963498  0.64963498  0.05109500  1
  F  F13  1  0.64963498  0.05109500  0.64963498  1
  F  F14  1  0.64963498  0.64963498  0.64963498  1
  F  F15  1  0.35036499  0.94890497  0.35036499  1
  F  F16  1  0.94890497  0.35036499  0.35036499  1
  F  F17  1  0.35036499  0.35036499  0.94890497  1
