# generated using pymatgen
data_Te3MoW2
_symmetry_space_group_name_H-M   'P 1'
_cell_length_a   3.49734807
_cell_length_b   3.49734783
_cell_length_c   39.67433929
_cell_angle_alpha   90.00000000
_cell_angle_beta   90.00000000
_cell_angle_gamma   120.00000000
_symmetry_Int_Tables_number   1
_chemical_formula_structural   Te3MoW2
_chemical_formula_sum   'Te6 Mo2 W4'
_cell_volume   420.25996456
_cell_formula_units_Z   2
loop_
 _symmetry_equiv_pos_site_id
 _symmetry_equiv_pos_as_xyz
  1  'x, y, z'
loop_
 _atom_site_type_symbol
 _atom_site_label
 _atom_site_symmetry_multiplicity
 _atom_site_fract_x
 _atom_site_fract_y
 _atom_site_fract_z
 _atom_site_occupancy
  Te  Te0  1  0.66666664  0.33333333  0.29604001  1
  Te  Te1  1  0.33333330  0.66666665  0.95249604  1
  Te  Te2  1  0.33333330  0.66666665  0.57676302  1
  Te  Te3  1  0.33333330  0.66666665  0.85964904  1
  Te  Te4  1  0.33333330  0.66666665  0.48392002  1
  Te  Te5  1  0.66666664  0.33333333  0.38889302  1
  W  W6  1  0.66666664  0.33333333  0.90608204  1
  Mo  Mo7  1  0.66666664  0.33333333  0.53035702  1
  W  W8  1  0.33333330  0.66666665  0.71820103  1
  Mo  Mo9  1  0.33333330  0.66666665  0.34244901  1
  W  W10  1  0.66666664  0.33333333  0.67728703  1
  W  W11  1  0.66666664  0.33333333  0.75911403  1
