# generated using pymatgen
data_Ta4WN3
_symmetry_space_group_name_H-M   'P 1'
_cell_length_a   3.96320009
_cell_length_b   7.09595823
_cell_length_c   7.62410498
_cell_angle_alpha   103.99024963
_cell_angle_beta   105.06487274
_cell_angle_gamma   90.00000000
_symmetry_Int_Tables_number   1
_chemical_formula_structural   Ta4WN3
_chemical_formula_sum   'Ta4 W1 N3'
_cell_volume   200.44785751
_cell_formula_units_Z   1
loop_
 _symmetry_equiv_pos_site_id
 _symmetry_equiv_pos_as_xyz
  1  'x, y, z'
loop_
 _atom_site_type_symbol
 _atom_site_label
 _atom_site_symmetry_multiplicity
 _atom_site_fract_x
 _atom_site_fract_y
 _atom_site_fract_z
 _atom_site_occupancy
  Ta  Ta0  1  0.99675303  0.78516502  0.00025906  1
  Ta  Ta1  1  0.99649400  0.21483501  0.99974103  1
  Ta  Ta2  1  0.07034103  0.56450601  0.25002402  1
  Ta  Ta3  1  0.10053300  0.07740800  0.29568500  1
  N  N4  1  0.80484804  0.92259202  0.70431505  1
  W  W5  1  0.82031702  0.43549401  0.74997603  1
  N  N6  1  0.45876603  0.77908102  0.00050404  1
  N  N7  1  0.45826201  0.22091901  0.99949601  1
