# generated using pymatgen
data_S
_symmetry_space_group_name_H-M   'P 1'
_cell_length_a   3.42007589
_cell_length_b   3.42007589
_cell_length_c   11.32730579
_cell_angle_alpha   85.26998138
_cell_angle_beta   85.26998138
_cell_angle_gamma   60.00197601
_symmetry_Int_Tables_number   1
_chemical_formula_structural   S
_chemical_formula_sum   S3
_cell_volume   114.22459842
_cell_formula_units_Z   3
loop_
 _symmetry_equiv_pos_site_id
 _symmetry_equiv_pos_as_xyz
  1  'x, y, z'
loop_
 _atom_site_type_symbol
 _atom_site_label
 _atom_site_symmetry_multiplicity
 _atom_site_fract_x
 _atom_site_fract_y
 _atom_site_fract_z
 _atom_site_occupancy
  S  S0  1  0.00000000  0.00000000  0.00000000  1
  S  S1  1  0.31044398  0.31044399  0.12548100  1
  S  S2  1  0.68955596  0.68955599  0.87451899  1
