# generated using pymatgen
data_K3FeSe4
_symmetry_space_group_name_H-M   'P 1'
_cell_length_a   6.81646013
_cell_length_b   6.81646013
_cell_length_c   6.81646013
_cell_angle_alpha   109.47122192
_cell_angle_beta   109.47122192
_cell_angle_gamma   109.47122192
_symmetry_Int_Tables_number   1
_chemical_formula_structural   K3FeSe4
_chemical_formula_sum   'K3 Fe1 Se4'
_cell_volume   243.81183635
_cell_formula_units_Z   1
loop_
 _symmetry_equiv_pos_site_id
 _symmetry_equiv_pos_as_xyz
  1  'x, y, z'
loop_
 _atom_site_type_symbol
 _atom_site_label
 _atom_site_symmetry_multiplicity
 _atom_site_fract_x
 _atom_site_fract_y
 _atom_site_fract_z
 _atom_site_occupancy
  K  K0  1  1.00000002  0.50000001  0.50000004  1
  K  K1  1  0.50000006  1.00000002  0.50000006  1
  K  K2  1  0.50000002  0.50000001  1.00000002  1
  Fe  Fe3  1  0.00000000  0.00000000  0.00000000  1
  Se  Se4  1  1.00000003  0.65125801  1.00000004  1
  Se  Se5  1  0.00000000  0.00000000  0.65125798  1
  Se  Se6  1  0.34874202  0.34874201  0.34874202  1
  Se  Se7  1  0.65125805  1.00000002  1.00000005  1
