# generated using pymatgen
data_Cs4RbSrF6
_symmetry_space_group_name_H-M   'P 1'
_cell_length_a   6.93493414
_cell_length_b   7.08852863
_cell_length_c   8.58421898
_cell_angle_alpha   88.91378784
_cell_angle_beta   68.07624817
_cell_angle_gamma   66.68299103
_symmetry_Int_Tables_number   1
_chemical_formula_structural   Cs4RbSrF6
_chemical_formula_sum   'Cs4 Rb1 Sr1 F6'
_cell_volume   355.36351346
_cell_formula_units_Z   1
loop_
 _symmetry_equiv_pos_site_id
 _symmetry_equiv_pos_as_xyz
  1  'x, y, z'
loop_
 _atom_site_type_symbol
 _atom_site_label
 _atom_site_symmetry_multiplicity
 _atom_site_fract_x
 _atom_site_fract_y
 _atom_site_fract_z
 _atom_site_occupancy
  Cs  Cs0  1  0.27811997  0.31383101  0.10983701  1
  Cs  Cs1  1  0.72187994  0.68616903  0.89016302  1
  Cs  Cs2  1  0.86291192  0.95918704  0.32700403  1
  Cs  Cs3  1  0.13708800  0.04081300  0.67299600  1
  Rb  Rb4  1  0.42992796  0.44881102  0.68292201  1
  Sr  Sr5  1  0.57007195  0.55118902  0.31707802  1
  F  F6  1  0.50822499  0.12757301  0.73381999  1
  F  F7  1  0.49177493  0.87242703  0.26618004  1
  F  F8  1  0.74951597  0.31003801  0.09350500  1
  F  F9  1  0.24084396  0.53442502  0.50446302  1
  F  F10  1  0.75915596  0.46557502  0.49553700  1
  F  F11  1  0.25048394  0.68996203  0.90649503  1
