# generated using pymatgen
data_InFe(CuSb2)2
_symmetry_space_group_name_H-M   'P 1'
_cell_length_a   6.66930389
_cell_length_b   6.66930389
_cell_length_c   6.66930389
_cell_angle_alpha   87.67346191
_cell_angle_beta   61.33401489
_cell_angle_gamma   118.66598511
_symmetry_Int_Tables_number   1
_chemical_formula_structural   InFe(CuSb2)2
_chemical_formula_sum   'In1 Fe1 Cu2 Sb4'
_cell_volume   213.80073416
_cell_formula_units_Z   1
loop_
 _symmetry_equiv_pos_site_id
 _symmetry_equiv_pos_as_xyz
  1  'x, y, z'
loop_
 _atom_site_type_symbol
 _atom_site_label
 _atom_site_symmetry_multiplicity
 _atom_site_fract_x
 _atom_site_fract_y
 _atom_site_fract_z
 _atom_site_occupancy
  In  In0  1  0.00000000  0.00000000  0.00000000  1
  Cu  Cu1  1  0.49999996  0.24999999  0.25000002  1
  Cu  Cu2  1  0.49999993  0.74999996  0.75000003  1
  Fe  Fe3  1  0.99999993  0.49999997  0.50000004  1
  Sb  Sb4  1  0.59804497  0.14836699  0.85163301  1
  Sb  Sb5  1  0.99999990  0.85163295  0.55032206  1
  Sb  Sb6  1  0.99999993  0.44967797  0.14836705  1
  Sb  Sb7  1  0.40195495  0.55032197  0.44967803  1
