# generated using pymatgen
data_Li5Ti3O8
_symmetry_space_group_name_H-M   'P 1'
_cell_length_a   6.04375839
_cell_length_b   6.04375839
_cell_length_c   6.04375887
_cell_angle_alpha   61.94973373
_cell_angle_beta   61.94973373
_cell_angle_gamma   61.94973373
_symmetry_Int_Tables_number   1
_chemical_formula_structural   Li5Ti3O8
_chemical_formula_sum   'Li5 Ti3 O8'
_cell_volume   162.91140501
_cell_formula_units_Z   1
loop_
 _symmetry_equiv_pos_site_id
 _symmetry_equiv_pos_as_xyz
  1  'x, y, z'
loop_
 _atom_site_type_symbol
 _atom_site_label
 _atom_site_symmetry_multiplicity
 _atom_site_fract_x
 _atom_site_fract_y
 _atom_site_fract_z
 _atom_site_occupancy
  Li  Li0  1  0.49999999  0.50000001  0.49999998  1
  Li  Li1  1  0.00000000  0.00000000  0.49999998  1
  Li  Li2  1  -0.00000001  0.50000001  0.00000000  1
  Li  Li3  1  0.50000000  0.00000000  -0.00000000  1
  Li  Li4  1  0.49999999  0.50000001  -0.00000000  1
  Ti  Ti5  1  0.50000000  0.00000000  0.49999998  1
  Ti  Ti6  1  -0.00000001  0.50000001  0.49999999  1
  Ti  Ti7  1  0.00000000  0.00000000  0.00000000  1
  O  O8  1  0.73790099  0.73790101  0.73790098  1
  O  O9  1  0.22766700  0.22766700  0.77992497  1
  O  O10  1  0.22766698  0.77992501  0.22766699  1
  O  O11  1  0.26209900  0.26209900  0.26209899  1
  O  O12  1  0.77992400  0.22766700  0.22766699  1
  O  O13  1  0.77233299  0.77233301  0.22007499  1
  O  O14  1  0.77233300  0.22007500  0.77233297  1
  O  O15  1  0.22007498  0.77233301  0.77233298  1
