# generated using pymatgen
data_BaLiF3
_symmetry_space_group_name_H-M   'P 1'
_cell_length_a   5.99657011
_cell_length_b   6.01680136
_cell_length_c   5.99657011
_cell_angle_alpha   119.88883209
_cell_angle_beta   90.00000000
_cell_angle_gamma   119.88883209
_symmetry_Int_Tables_number   1
_chemical_formula_structural   BaLiF3
_chemical_formula_sum   'Ba2 Li2 F6'
_cell_volume   153.50039194
_cell_formula_units_Z   2
loop_
 _symmetry_equiv_pos_site_id
 _symmetry_equiv_pos_as_xyz
  1  'x, y, z'
loop_
 _atom_site_type_symbol
 _atom_site_label
 _atom_site_symmetry_multiplicity
 _atom_site_fract_x
 _atom_site_fract_y
 _atom_site_fract_z
 _atom_site_occupancy
  Ba  Ba0  1  0.25000000  0.50000002  0.74999999  1
  Ba  Ba1  1  0.74999999  0.50000002  0.25000000  1
  Li  Li2  1  0.00000000  0.00000000  0.00000000  1
  Li  Li3  1  0.49999999  0.00000000  0.49999999  1
  F  F4  1  0.25000000  0.50000002  0.25000000  1
  F  F5  1  0.74999999  0.50000002  0.74999999  1
  F  F6  1  0.77278700  0.99999903  0.72721200  1
  F  F7  1  0.22721300  0.00000100  0.27278800  1
  F  F8  1  0.27278700  0.00000000  0.77278699  1
  F  F9  1  0.72721299  0.00000000  0.22721300  1
