# generated using pymatgen
data_KCO3
_symmetry_space_group_name_H-M   'P 1'
_cell_length_a   5.16349506
_cell_length_b   7.16673803
_cell_length_c   9.51241207
_cell_angle_alpha   90.00000000
_cell_angle_beta   90.00000000
_cell_angle_gamma   90.00000000
_symmetry_Int_Tables_number   1
_chemical_formula_structural   KCO3
_chemical_formula_sum   'K4 C4 O12'
_cell_volume   352.01077022
_cell_formula_units_Z   4
loop_
 _symmetry_equiv_pos_site_id
 _symmetry_equiv_pos_as_xyz
  1  'x, y, z'
loop_
 _atom_site_type_symbol
 _atom_site_label
 _atom_site_symmetry_multiplicity
 _atom_site_fract_x
 _atom_site_fract_y
 _atom_site_fract_z
 _atom_site_occupancy
  K  K0  1  0.25000000  0.58286600  0.25330100  1
  K  K1  1  0.25000000  0.91713400  0.75330099  1
  K  K2  1  0.74999999  0.41713400  0.74669899  1
  K  K3  1  0.74999999  0.08286600  0.24669900  1
  C  C4  1  0.25000000  0.29369600  0.52175900  1
  C  C5  1  0.25000000  0.20630400  0.02175900  1
  C  C6  1  0.74999999  0.70630400  0.47824100  1
  C  C7  1  0.74999999  0.79369600  0.97824099  1
  O  O8  1  0.25000000  0.30345000  0.65577800  1
  O  O9  1  0.25000000  0.19655000  0.15577800  1
  O  O10  1  0.74999999  0.69655000  0.34422200  1
  O  O11  1  0.74999999  0.80345000  0.84422199  1
  O  O12  1  0.53678899  0.78925100  0.04309900  1
  O  O13  1  0.96321099  0.71074900  0.54309900  1
  O  O14  1  0.03678900  0.21074900  0.95690099  1
  O  O15  1  0.46321099  0.28925100  0.45690100  1
  O  O16  1  0.46321099  0.21074900  0.95690099  1
  O  O17  1  0.03678900  0.28925100  0.45690100  1
  O  O18  1  0.96321099  0.78925100  0.04309900  1
  O  O19  1  0.53678899  0.71074900  0.54309900  1
