# generated using pymatgen
data_SrLiO2
_symmetry_space_group_name_H-M   'P 1'
_cell_length_a   5.91009092
_cell_length_b   6.20549297
_cell_length_c   6.94102097
_cell_angle_alpha   106.35662842
_cell_angle_beta   90.00000000
_cell_angle_gamma   90.00000000
_symmetry_Int_Tables_number   1
_chemical_formula_structural   SrLiO2
_chemical_formula_sum   'Sr4 Li4 O8'
_cell_volume   244.25935117
_cell_formula_units_Z   4
loop_
 _symmetry_equiv_pos_site_id
 _symmetry_equiv_pos_as_xyz
  1  'x, y, z'
loop_
 _atom_site_type_symbol
 _atom_site_label
 _atom_site_symmetry_multiplicity
 _atom_site_fract_x
 _atom_site_fract_y
 _atom_site_fract_z
 _atom_site_occupancy
  Sr  Sr0  1  0.75000001  0.73821000  0.05566200  1
  Sr  Sr1  1  0.25000000  0.26179000  0.94433800  1
  Sr  Sr2  1  0.25000000  0.21951900  0.43143700  1
  Sr  Sr3  1  0.75000001  0.78048100  0.56856300  1
  Li  Li4  1  0.25000000  0.69349800  0.30931200  1
  Li  Li5  1  0.75000001  0.30650200  0.69068800  1
  Li  Li6  1  0.75000001  0.28193800  0.20176900  1
  Li  Li7  1  0.25000000  0.71806200  0.79823100  1
  O  O8  1  0.49521001  0.53024600  0.74837300  1
  O  O9  1  0.99521001  0.46975400  0.25162700  1
  O  O10  1  0.50479001  0.46975400  0.25162700  1
  O  O11  1  0.00479000  0.53024600  0.74837300  1
  O  O12  1  0.25000000  0.90238300  0.62831900  1
  O  O13  1  0.75000001  0.09761700  0.37168100  1
  O  O14  1  0.25000000  0.88289900  0.06368700  1
  O  O15  1  0.75000001  0.11710100  0.93631300  1
