# generated using pymatgen
data_MgTe
_symmetry_space_group_name_H-M   'P 1'
_cell_length_a   4.67575264
_cell_length_b   4.67575264
_cell_length_c   7.63690281
_cell_angle_alpha   90.00000000
_cell_angle_beta   90.00000000
_cell_angle_gamma   119.35756683
_symmetry_Int_Tables_number   1
_chemical_formula_structural   MgTe
_chemical_formula_sum   'Mg2 Te2'
_cell_volume   145.52115978
_cell_formula_units_Z   2
loop_
 _symmetry_equiv_pos_site_id
 _symmetry_equiv_pos_as_xyz
  1  'x, y, z'
loop_
 _atom_site_type_symbol
 _atom_site_label
 _atom_site_symmetry_multiplicity
 _atom_site_fract_x
 _atom_site_fract_y
 _atom_site_fract_z
 _atom_site_occupancy
  Mg  Mg0  1  0.84847296  0.15152699  0.99982702  1
  Mg  Mg1  1  0.15152699  0.84847296  0.49982701  1
  Te  Te2  1  0.18218999  0.81780996  0.87517302  1
  Te  Te3  1  0.81780996  0.18218999  0.37517301  1
