# generated using pymatgen
data_NaFe2O5
_symmetry_space_group_name_H-M   'P 1'
_cell_length_a   5.63706255
_cell_length_b   5.63706255
_cell_length_c   7.26657629
_cell_angle_alpha   103.97740173
_cell_angle_beta   103.97740173
_cell_angle_gamma   105.86788177
_symmetry_Int_Tables_number   1
_chemical_formula_structural   NaFe2O5
_chemical_formula_sum   'Na2 Fe4 O10'
_cell_volume   203.49317535
_cell_formula_units_Z   2
loop_
 _symmetry_equiv_pos_site_id
 _symmetry_equiv_pos_as_xyz
  1  'x, y, z'
loop_
 _atom_site_type_symbol
 _atom_site_label
 _atom_site_symmetry_multiplicity
 _atom_site_fract_x
 _atom_site_fract_y
 _atom_site_fract_z
 _atom_site_occupancy
  Na  Na0  1  0.16292392  0.83707595  0.74999997  1
  Na  Na1  1  0.83707597  0.16292399  0.24999998  1
  Fe  Fe2  1  0.18098193  0.81901796  0.24999997  1
  Fe  Fe3  1  0.81901796  0.18098199  0.74999999  1
  Fe  Fe4  1  0.49999995  0.49999997  0.49999998  1
  Fe  Fe5  1  0.49999995  0.49999997  -0.00000003  1
  O  O6  1  0.82281795  0.39503198  0.62802598  1
  O  O7  1  0.60496797  0.17718199  0.87197399  1
  O  O8  1  0.17718194  0.60496797  0.37197398  1
  O  O9  1  0.39503192  0.82281796  0.12802596  1
  O  O10  1  0.89111391  0.75994896  0.08909796  1
  O  O11  1  0.24005098  0.10888599  0.41090200  1
  O  O12  1  0.41138694  0.58861297  0.74999998  1
  O  O13  1  0.58861295  0.41138698  0.24999998  1
  O  O14  1  0.75994891  0.89111395  0.58909796  1
  O  O15  1  0.10888598  0.24005099  0.91090200  1
