# generated using pymatgen
data_Cs3TlCl6
_symmetry_space_group_name_H-M   'P 1'
_cell_length_a   6.68255806
_cell_length_b   6.68255806
_cell_length_c   8.72124290
_cell_angle_alpha   110.77793884
_cell_angle_beta   110.77793884
_cell_angle_gamma   94.24703217
_symmetry_Int_Tables_number   1
_chemical_formula_structural   Cs3TlCl6
_chemical_formula_sum   'Cs3 Tl1 Cl6'
_cell_volume   331.42763455
_cell_formula_units_Z   1
loop_
 _symmetry_equiv_pos_site_id
 _symmetry_equiv_pos_as_xyz
  1  'x, y, z'
loop_
 _atom_site_type_symbol
 _atom_site_label
 _atom_site_symmetry_multiplicity
 _atom_site_fract_x
 _atom_site_fract_y
 _atom_site_fract_z
 _atom_site_occupancy
  Cs  Cs0  1  0.25000003  0.75000000  0.50000008  1
  Cs  Cs1  1  0.75000001  0.25000000  0.50000008  1
  Cs  Cs2  1  0.72313201  0.27686800  0.00000005  1
  Tl  Tl3  1  0.27686803  0.72313200  0.00000006  1
  Cl  Cl4  1  0.85342103  0.85342100  0.70684213  1
  Cl  Cl5  1  0.14657900  0.14657900  0.29315803  1
  Cl  Cl6  1  0.72081902  0.72081900  0.85421312  1
  Cl  Cl7  1  0.86660603  0.86660600  0.14578710  1
  Cl  Cl8  1  0.27918101  0.27918100  0.14578704  1
  Cl  Cl9  1  0.13339400  0.13339400  0.85421306  1
