# generated using pymatgen
data_NaAsO4
_symmetry_space_group_name_H-M   'P 1'
_cell_length_a   5.04048586
_cell_length_b   5.04048586
_cell_length_c   6.68862581
_cell_angle_alpha   112.13531494
_cell_angle_beta   112.13531494
_cell_angle_gamma   90.00000000
_symmetry_Int_Tables_number   1
_chemical_formula_structural   NaAsO4
_chemical_formula_sum   'Na2 As2 O8'
_cell_volume   143.79824107
_cell_formula_units_Z   2
loop_
 _symmetry_equiv_pos_site_id
 _symmetry_equiv_pos_as_xyz
  1  'x, y, z'
loop_
 _atom_site_type_symbol
 _atom_site_label
 _atom_site_symmetry_multiplicity
 _atom_site_fract_x
 _atom_site_fract_y
 _atom_site_fract_z
 _atom_site_occupancy
  Na  Na0  1  0.49999997  0.50000000  -0.00000006  1
  Na  Na1  1  0.24999996  0.75000000  0.49999995  1
  As  As2  1  0.00000000  0.00000000  0.00000000  1
  As  As3  1  0.74999999  0.25000000  0.49999996  1
  O  O4  1  0.66262196  0.77643700  0.84452694  1
  O  O5  1  0.81808995  0.91262199  0.34452691  1
  O  O6  1  0.52643698  0.43190500  0.34452695  1
  O  O7  1  0.18190500  0.06809000  0.84452701  1
  O  O8  1  0.56809499  0.18191000  0.65547298  1
  O  O9  1  0.22356295  0.81809500  0.15547294  1
  O  O10  1  0.93190998  0.33737800  0.15547294  1
  O  O11  1  0.08737797  0.47356300  0.65547298  1
