# generated using pymatgen
data_MnO2
_symmetry_space_group_name_H-M   'P 1'
_cell_length_a   4.28806591
_cell_length_b   4.28806591
_cell_length_c   5.63444710
_cell_angle_alpha   68.34815979
_cell_angle_beta   68.34815979
_cell_angle_gamma   81.79605103
_symmetry_Int_Tables_number   1
_chemical_formula_structural   MnO2
_chemical_formula_sum   'Mn2 O4'
_cell_volume   89.49674377
_cell_formula_units_Z   2
loop_
 _symmetry_equiv_pos_site_id
 _symmetry_equiv_pos_as_xyz
  1  'x, y, z'
loop_
 _atom_site_type_symbol
 _atom_site_label
 _atom_site_symmetry_multiplicity
 _atom_site_fract_x
 _atom_site_fract_y
 _atom_site_fract_z
 _atom_site_occupancy
  Mn  Mn0  1  -0.00000004  0.49999997  0.50000002  1
  Mn  Mn1  1  0.49999989  0.99999994  1.00000005  1
  O  O2  1  0.58132890  0.81079695  0.66651005  1
  O  O3  1  0.18920295  0.41867097  0.83349002  1
  O  O4  1  0.41867096  0.18920299  0.33349002  1
  O  O5  1  0.81079690  0.58132896  0.16651004  1
