# generated using pymatgen
data_Ce2O3
_symmetry_space_group_name_H-M   'P 1'
_cell_length_a   3.76660395
_cell_length_b   3.76660419
_cell_length_c   6.56155014
_cell_angle_alpha   90.00000000
_cell_angle_beta   90.00000000
_cell_angle_gamma   120.00000000
_symmetry_Int_Tables_number   1
_chemical_formula_structural   Ce2O3
_chemical_formula_sum   'Ce2 O3'
_cell_volume   80.61892917
_cell_formula_units_Z   1
loop_
 _symmetry_equiv_pos_site_id
 _symmetry_equiv_pos_as_xyz
  1  'x, y, z'
loop_
 _atom_site_type_symbol
 _atom_site_label
 _atom_site_symmetry_multiplicity
 _atom_site_fract_x
 _atom_site_fract_y
 _atom_site_fract_z
 _atom_site_occupancy
  Ce  Ce0  1  0.33333336  0.66666669  0.28284799  1
  Ce  Ce1  1  0.66666669  0.33333334  0.71715198  1
  O  O2  1  0.00000000  0.00000000  0.00000000  1
  O  O3  1  0.33333336  0.66666669  0.62959299  1
  O  O4  1  0.66666669  0.33333334  0.37040699  1
