# generated using pymatgen
data_CaMgZnSi2
_symmetry_space_group_name_H-M   'P 1'
_cell_length_a   4.34984207
_cell_length_b   4.34984207
_cell_length_c   6.98600721
_cell_angle_alpha   90.00000000
_cell_angle_beta   90.00000000
_cell_angle_gamma   120.00000000
_symmetry_Int_Tables_number   1
_chemical_formula_structural   CaMgZnSi2
_chemical_formula_sum   'Ca1 Mg1 Zn1 Si2'
_cell_volume   114.47394252
_cell_formula_units_Z   1
loop_
 _symmetry_equiv_pos_site_id
 _symmetry_equiv_pos_as_xyz
  1  'x, y, z'
loop_
 _atom_site_type_symbol
 _atom_site_label
 _atom_site_symmetry_multiplicity
 _atom_site_fract_x
 _atom_site_fract_y
 _atom_site_fract_z
 _atom_site_occupancy
  Ca  Ca0  1  0.00000000  0.00000000  0.01416900  1
  Mg  Mg1  1  0.33333336  0.66666671  0.62569498  1
  Zn  Zn2  1  0.66666667  0.33333336  0.36207899  1
  Si  Si3  1  0.66666667  0.33333336  0.75061998  1
  Si  Si4  1  0.33333336  0.66666671  0.24743499  1
