# generated using pymatgen
data_Cs2AgSbI6
_symmetry_space_group_name_H-M   'P 1'
_cell_length_a   8.50677013
_cell_length_b   8.50677013
_cell_length_c   8.50677013
_cell_angle_alpha   60.00000000
_cell_angle_beta   60.00000000
_cell_angle_gamma   60.00000000
_symmetry_Int_Tables_number   1
_chemical_formula_structural   Cs2AgSbI6
_chemical_formula_sum   'Cs2 Ag1 Sb1 I6'
_cell_volume   435.29040593
_cell_formula_units_Z   1
loop_
 _symmetry_equiv_pos_site_id
 _symmetry_equiv_pos_as_xyz
  1  'x, y, z'
loop_
 _atom_site_type_symbol
 _atom_site_label
 _atom_site_symmetry_multiplicity
 _atom_site_fract_x
 _atom_site_fract_y
 _atom_site_fract_z
 _atom_site_occupancy
  Cs  Cs0  1  0.25000001  0.25000001  0.25000001  1
  Cs  Cs1  1  0.75000002  0.75000002  0.75000002  1
  Ag  Ag2  1  0.50000001  0.50000001  0.50000001  1
  Sb  Sb3  1  0.00000000  0.00000000  0.00000000  1
  I  I4  1  0.24008501  0.75991502  0.24008501  1
  I  I5  1  0.24008501  0.24008501  0.75991502  1
  I  I6  1  0.75991502  0.24008501  0.75991502  1
  I  I7  1  0.24008501  0.75991502  0.75991502  1
  I  I8  1  0.75991502  0.24008501  0.24008501  1
  I  I9  1  0.75991502  0.75991502  0.24008501  1
