# generated using pymatgen
data_CsCuHF6
_symmetry_space_group_name_H-M   'P 1'
_cell_length_a   6.48114109
_cell_length_b   7.11644220
_cell_length_c   7.11644220
_cell_angle_alpha   60.00000000
_cell_angle_beta   90.00000000
_cell_angle_gamma   90.00000000
_symmetry_Int_Tables_number   1
_chemical_formula_structural   CsCuHF6
_chemical_formula_sum   'Cs2 Cu2 H2 F12'
_cell_volume   284.25490058
_cell_formula_units_Z   2
loop_
 _symmetry_equiv_pos_site_id
 _symmetry_equiv_pos_as_xyz
  1  'x, y, z'
loop_
 _atom_site_type_symbol
 _atom_site_label
 _atom_site_symmetry_multiplicity
 _atom_site_fract_x
 _atom_site_fract_y
 _atom_site_fract_z
 _atom_site_occupancy
  Cs  Cs0  1  0.16666700  0.00000000  0.50987201  1
  Cs  Cs1  1  0.49999999  0.49012799  1.00000001  1
  Cu  Cu2  1  0.83333299  0.50987199  0.49012799  1
  Cu  Cu3  1  0.66666666  0.00000000  0.54025601  1
  H  H4  1  0.99999999  0.45974399  -0.00000002  1
  H  H5  1  0.33333333  0.54025599  0.45974399  1
  F  F6  1  0.80110699  0.15220700  0.58781501  1
  F  F7  1  0.13444100  0.25997800  0.15220699  1
  F  F8  1  0.46777399  0.58781499  0.25997799  1
  F  F9  1  0.86555899  0.41218500  0.84779301  1
  F  F10  1  0.19889300  0.74002199  0.41218498  1
  F  F11  1  0.53222599  0.84779299  0.74002199  1
  F  F12  1  0.50743599  0.12375900  0.35487300  1
  F  F13  1  0.84076899  0.52136799  0.12375898  1
  F  F14  1  0.17410200  0.35487300  0.52136800  1
  F  F15  1  0.15923100  0.64512699  0.87624100  1
  F  F16  1  0.49256399  0.47863199  0.64512700  1
  F  F17  1  0.82589799  0.87624099  0.47863198  1
