# generated using pymatgen
data_Sr2BO5
_symmetry_space_group_name_H-M   'P 1'
_cell_length_a   3.93659496
_cell_length_b   3.93659496
_cell_length_c   7.61673498
_cell_angle_alpha   104.97905731
_cell_angle_beta   104.97905731
_cell_angle_gamma   89.98925781
_symmetry_Int_Tables_number   1
_chemical_formula_structural   Sr2BO5
_chemical_formula_sum   'Sr2 B1 O5'
_cell_volume   109.86856900
_cell_formula_units_Z   1
loop_
 _symmetry_equiv_pos_site_id
 _symmetry_equiv_pos_as_xyz
  1  'x, y, z'
loop_
 _atom_site_type_symbol
 _atom_site_label
 _atom_site_symmetry_multiplicity
 _atom_site_fract_x
 _atom_site_fract_y
 _atom_site_fract_z
 _atom_site_occupancy
  Sr  Sr0  1  0.83501206  0.83501201  0.67519704  1
  Sr  Sr1  1  0.15981501  0.15981500  0.32480301  1
  B  B2  1  0.45371903  0.45371901  0.00000001  1
  O  O3  1  0.21965802  0.21965800  0.00000001  1
  O  O4  1  0.64047905  0.64047901  0.16428302  1
  O  O5  1  0.24859305  0.74859301  0.50000003  1
  O  O6  1  0.47619603  0.47619601  0.83571703  1
  O  O7  1  0.74859302  0.24859300  0.50000002  1
