# generated using pymatgen
data_IBr7
_symmetry_space_group_name_H-M   'P 1'
_cell_length_a   6.91945601
_cell_length_b   6.93429136
_cell_length_c   7.14393377
_cell_angle_alpha   80.95816040
_cell_angle_beta   71.64007568
_cell_angle_gamma   60.07074738
_symmetry_Int_Tables_number   1
_chemical_formula_structural   IBr7
_chemical_formula_sum   'I1 Br7'
_cell_volume   281.94322015
_cell_formula_units_Z   1
loop_
 _symmetry_equiv_pos_site_id
 _symmetry_equiv_pos_as_xyz
  1  'x, y, z'
loop_
 _atom_site_type_symbol
 _atom_site_label
 _atom_site_symmetry_multiplicity
 _atom_site_fract_x
 _atom_site_fract_y
 _atom_site_fract_z
 _atom_site_occupancy
  Br  Br0  1  0.16596901  0.66806200  0.00000002  1
  Br  Br1  1  0.83403100  0.33193800  1.00000003  1
  I  I2  1  0.78218700  0.00000000  0.23395601  1
  Br  Br3  1  0.57462400  0.35705500  0.76881102  1
  Br  Br4  1  0.21781300  0.00000000  0.76604401  1
  Br  Br5  1  0.42537601  0.64294500  0.23118902  1
  Br  Br6  1  0.93167900  0.64294500  0.76881103  1
  Br  Br7  1  0.06832100  0.35705500  0.23118901  1
