# generated using pymatgen
data_Tb8Bi3O7
_symmetry_space_group_name_H-M   'P 1'
_cell_length_a   4.06071806
_cell_length_b   7.12510490
_cell_length_c   16.69662857
_cell_angle_alpha   95.28072357
_cell_angle_beta   90.00000000
_cell_angle_gamma   106.55636597
_symmetry_Int_Tables_number   1
_chemical_formula_structural   Tb8Bi3O7
_chemical_formula_sum   'Tb8 Bi3 O7'
_cell_volume   460.91608667
_cell_formula_units_Z   1
loop_
 _symmetry_equiv_pos_site_id
 _symmetry_equiv_pos_as_xyz
  1  'x, y, z'
loop_
 _atom_site_type_symbol
 _atom_site_label
 _atom_site_symmetry_multiplicity
 _atom_site_fract_x
 _atom_site_fract_y
 _atom_site_fract_z
 _atom_site_occupancy
  Tb  Tb0  1  0.49999999  0.00000000  0.50000000  1
  Tb  Tb1  1  0.00000000  0.00000000  0.00000000  1
  Tb  Tb2  1  0.78022698  0.56045399  0.60605300  1
  Tb  Tb3  1  0.21977299  0.43954599  0.39394700  1
  Tb  Tb4  1  0.52554699  0.05109400  0.78297900  1
  Tb  Tb5  1  0.47445298  0.94890599  0.21702100  1
  Tb  Tb6  1  0.26347599  0.52695199  0.89117200  1
  Tb  Tb7  1  0.73652398  0.47304799  0.10882800  1
  O  O8  1  0.15121699  0.30243400  0.53458300  1
  Bi  Bi9  1  0.84878298  0.69756599  0.46541700  1
  O  O10  1  0.42413398  0.84826799  0.63583400  1
  O  O11  1  0.57586599  0.15173200  0.36416600  1
  Bi  Bi12  1  0.15378299  0.30756600  0.74423100  1
  Bi  Bi13  1  0.84621698  0.69243399  0.25576900  1
  O  O14  1  0.91080998  0.82161999  0.85940700  1
  O  O15  1  0.08919000  0.17838000  0.14059300  1
  O  O16  1  0.35362898  0.70725799  0.05753200  1
  O  O17  1  0.64637099  0.29274200  0.94246800  1
