# generated using pymatgen
data_K2Bi2Au
_symmetry_space_group_name_H-M   'P 1'
_cell_length_a   6.89233303
_cell_length_b   7.87824011
_cell_length_c   8.64799213
_cell_angle_alpha   62.90319061
_cell_angle_beta   90.00000000
_cell_angle_gamma   90.00000000
_symmetry_Int_Tables_number   1
_chemical_formula_structural   K2Bi2Au
_chemical_formula_sum   'K4 Bi4 Au2'
_cell_volume   418.03915814
_cell_formula_units_Z   2
loop_
 _symmetry_equiv_pos_site_id
 _symmetry_equiv_pos_as_xyz
  1  'x, y, z'
loop_
 _atom_site_type_symbol
 _atom_site_label
 _atom_site_symmetry_multiplicity
 _atom_site_fract_x
 _atom_site_fract_y
 _atom_site_fract_z
 _atom_site_occupancy
  K  K0  1  0.25000000  0.58880900  0.82238201  1
  K  K1  1  0.75000000  0.41119100  0.17761800  1
  K  K2  1  0.25000000  0.20196300  0.59607401  1
  K  K3  1  0.75000000  0.79803700  0.40392599  1
  Bi  Bi4  1  0.25000000  0.07797300  0.19986200  1
  Bi  Bi5  1  0.75000000  0.27783500  0.80013802  1
  Bi  Bi6  1  0.75000000  0.92202700  0.80013800  1
  Bi  Bi7  1  0.25000000  0.72216500  0.19986199  1
  Au  Au8  1  0.00000000  0.00000000  0.00000000  1
  Au  Au9  1  0.50000000  0.00000000  0.00000000  1
