# generated using pymatgen
data_BaZrTiBiO10
_symmetry_space_group_name_H-M   'P 1'
_cell_length_a   3.93663192
_cell_length_b   3.93663192
_cell_length_c   12.88926029
_cell_angle_alpha   98.78399658
_cell_angle_beta   98.78399658
_cell_angle_gamma   90.00000000
_symmetry_Int_Tables_number   1
_chemical_formula_structural   BaZrTiBiO10
_chemical_formula_sum   'Ba1 Zr1 Ti1 Bi1 O10'
_cell_volume   195.03203232
_cell_formula_units_Z   1
loop_
 _symmetry_equiv_pos_site_id
 _symmetry_equiv_pos_as_xyz
  1  'x, y, z'
loop_
 _atom_site_type_symbol
 _atom_site_label
 _atom_site_symmetry_multiplicity
 _atom_site_fract_x
 _atom_site_fract_y
 _atom_site_fract_z
 _atom_site_occupancy
  Ba  Ba0  1  0.00000000  0.00000000  0.00000000  1
  Zr  Zr1  1  0.58503902  0.58503902  0.17007801  1
  Ti  Ti2  1  0.41496102  0.41496101  0.82992200  1
  Bi  Bi3  1  0.20051001  0.20051001  0.40102000  1
  O  O4  1  0.79949003  0.79949002  0.59898001  1
  O  O5  1  0.57636202  0.07636200  0.15272400  1
  O  O6  1  0.75000002  0.25000001  0.50000000  1
  O  O7  1  0.92363803  0.42363801  0.84727600  1
  O  O8  1  0.50000002  0.50000001  0.00000001  1
  O  O9  1  0.42363802  0.92363802  0.84727600  1
  O  O10  1  0.33934301  0.33934301  0.67868600  1
  O  O11  1  0.07636201  0.57636202  0.15272400  1
  O  O12  1  0.25000001  0.75000002  0.50000000  1
  O  O13  1  0.66065702  0.66065702  0.32131401  1
