# generated using pymatgen
data_H2O
_symmetry_space_group_name_H-M   'P 1'
_cell_length_a   4.14880610
_cell_length_b   4.30646086
_cell_length_c   6.26864100
_cell_angle_alpha   90.00000000
_cell_angle_beta   90.00000000
_cell_angle_gamma   118.79619598
_symmetry_Int_Tables_number   1
_chemical_formula_structural   H2O
_chemical_formula_sum   'H8 O4'
_cell_volume   98.14970820
_cell_formula_units_Z   4
loop_
 _symmetry_equiv_pos_site_id
 _symmetry_equiv_pos_as_xyz
  1  'x, y, z'
loop_
 _atom_site_type_symbol
 _atom_site_label
 _atom_site_symmetry_multiplicity
 _atom_site_fract_x
 _atom_site_fract_y
 _atom_site_fract_z
 _atom_site_occupancy
  H  H0  1  0.14403698  0.28807399  0.75000000  1
  H  H1  1  0.85596293  0.71192597  0.25000000  1
  H  H2  1  0.13000900  0.00000000  0.50000000  1
  H  H3  1  0.86999098  0.00000000  0.00000000  1
  H  H4  1  0.74716994  0.55698898  0.50668800  1
  H  H5  1  0.80981894  0.55698898  0.99331200  1
  H  H6  1  0.25282996  0.44301098  0.00668800  1
  H  H7  1  0.19018096  0.44301098  0.49331200  1
  O  O8  1  0.27616497  0.29895599  0.57481400  1
  O  O9  1  0.02279098  0.29895599  0.92518600  1
  O  O10  1  0.72383493  0.70104397  0.07481400  1
  O  O11  1  0.97720893  0.70104397  0.42518600  1
