# generated using pymatgen
data_Na3CuF6
_symmetry_space_group_name_H-M   'P 1'
_cell_length_a   5.65264511
_cell_length_b   5.88220692
_cell_length_c   8.23578739
_cell_angle_alpha   90.00000000
_cell_angle_beta   90.80088806
_cell_angle_gamma   90.00000000
_symmetry_Int_Tables_number   1
_chemical_formula_structural   Na3CuF6
_chemical_formula_sum   'Na6 Cu2 F12'
_cell_volume   273.81341065
_cell_formula_units_Z   2
loop_
 _symmetry_equiv_pos_site_id
 _symmetry_equiv_pos_as_xyz
  1  'x, y, z'
loop_
 _atom_site_type_symbol
 _atom_site_label
 _atom_site_symmetry_multiplicity
 _atom_site_fract_x
 _atom_site_fract_y
 _atom_site_fract_z
 _atom_site_occupancy
  Na  Na0  1  0.01661300  0.44475101  0.74117702  1
  Na  Na1  1  0.48338699  0.94475101  0.75882302  1
  Na  Na2  1  0.98338698  0.55524901  0.25882302  1
  Na  Na3  1  0.51661299  0.05524900  0.24117701  1
  Na  Na4  1  0.49999999  0.50000001  1.00000003  1
  Na  Na5  1  -0.00000000  0.00000000  0.50000001  1
  Cu  Cu6  1  0.49999999  0.50000001  0.50000002  1
  Cu  Cu7  1  0.00000000  0.00000000  0.00000000  1
  F  F8  1  0.66983799  0.78518101  0.42118702  1
  F  F9  1  0.83016198  0.28518100  0.07881301  1
  F  F10  1  0.33016199  0.21481900  0.57881302  1
  F  F11  1  0.16983800  0.71481901  0.92118702  1
  F  F12  1  0.20470400  0.67868101  0.55436902  1
  F  F13  1  0.29529599  0.17868100  0.94563103  1
  F  F14  1  0.79529598  0.32131900  0.44563102  1
  F  F15  1  0.70470399  0.82131901  0.05436901  1
  F  F16  1  0.12550800  0.93242801  0.22908501  1
  F  F17  1  0.37449199  0.43242801  0.27091501  1
  F  F18  1  0.87449198  0.06757200  0.77091503  1
  F  F19  1  0.62550799  0.56757201  0.72908503  1
