# generated using pymatgen
data_Ba4B3HO6
_symmetry_space_group_name_H-M   'P 1'
_cell_length_a   6.57442331
_cell_length_b   6.57442331
_cell_length_c   6.57442331
_cell_angle_alpha   109.47122192
_cell_angle_beta   109.47122192
_cell_angle_gamma   109.47122192
_symmetry_Int_Tables_number   1
_chemical_formula_structural   Ba4B3HO6
_chemical_formula_sum   'Ba4 B3 H1 O6'
_cell_volume   218.75152047
_cell_formula_units_Z   1
loop_
 _symmetry_equiv_pos_site_id
 _symmetry_equiv_pos_as_xyz
  1  'x, y, z'
loop_
 _atom_site_type_symbol
 _atom_site_label
 _atom_site_symmetry_multiplicity
 _atom_site_fract_x
 _atom_site_fract_y
 _atom_site_fract_z
 _atom_site_occupancy
  Ba  Ba0  1  0.00000000  0.00000000  0.00000000  1
  Ba  Ba1  1  1.00000005  1.00000002  0.50000007  1
  Ba  Ba2  1  0.50000003  0.50000001  0.50000003  1
  Ba  Ba3  1  0.49999999  0.00000000  0.00000001  1
  H  H4  1  0.00000003  0.50000001  0.00000003  1
  B  B5  1  0.50000003  0.50000001  0.00000004  1
  B  B6  1  0.49999999  0.00000000  0.50000000  1
  B  B7  1  0.00000003  0.50000001  0.50000002  1
  O  O8  1  0.32245500  0.00000000  0.32245500  1
  O  O9  1  0.67754499  0.00000000  0.67754500  1
  O  O10  1  0.32245502  0.32245501  0.00000003  1
  O  O11  1  0.67754504  0.67754501  0.00000005  1
  O  O12  1  1.00000003  0.67754501  0.67754505  1
  O  O13  1  0.00000002  0.32245501  0.32245501  1
