# generated using pymatgen
data_BaCaInAgS4
_symmetry_space_group_name_H-M   'P 1'
_cell_length_a   3.94230390
_cell_length_b   7.01912832
_cell_length_c   13.69523430
_cell_angle_alpha   90.00000000
_cell_angle_beta   90.00000000
_cell_angle_gamma   106.30949402
_symmetry_Int_Tables_number   1
_chemical_formula_structural   BaCaInAgS4
_chemical_formula_sum   'Ba2 Ca2 In2 Ag2 S8'
_cell_volume   363.71803661
_cell_formula_units_Z   2
loop_
 _symmetry_equiv_pos_site_id
 _symmetry_equiv_pos_as_xyz
  1  'x, y, z'
loop_
 _atom_site_type_symbol
 _atom_site_label
 _atom_site_symmetry_multiplicity
 _atom_site_fract_x
 _atom_site_fract_y
 _atom_site_fract_z
 _atom_site_occupancy
  Ba  Ba0  1  0.89032202  0.78064400  0.74999998  1
  Ba  Ba1  1  0.10967800  0.21935600  0.24999999  1
  Ca  Ca2  1  0.36581300  0.73162600  0.06333600  1
  Ca  Ca3  1  0.63418701  0.26837400  0.56333599  1
  In  In4  1  0.36581300  0.73162600  0.43666399  1
  In  In5  1  0.63418701  0.26837400  0.93666398  1
  Ag  Ag6  1  0.83714102  0.67428200  0.24999999  1
  Ag  Ag7  1  0.16285900  0.32571800  0.74999998  1
  S  S8  1  0.00000000  0.00000000  0.49999999  1
  S  S9  1  0.00000000  0.00000000  0.00000000  1
  S  S10  1  0.26262200  0.52524400  0.88963598  1
  S  S11  1  0.73737801  0.47475600  0.11036400  1
  S  S12  1  0.43114300  0.86228600  0.24999999  1
  S  S13  1  0.26262200  0.52524400  0.61036399  1
  S  S14  1  0.56885701  0.13771400  0.74999998  1
  S  S15  1  0.73737801  0.47475600  0.38963599  1
