# generated using pymatgen
data_NaU2BiO6
_symmetry_space_group_name_H-M   'P 1'
_cell_length_a   5.61712217
_cell_length_b   5.65132618
_cell_length_c   5.67953110
_cell_angle_alpha   60.49540329
_cell_angle_beta   60.36283112
_cell_angle_gamma   60.20001221
_symmetry_Int_Tables_number   1
_chemical_formula_structural   NaU2BiO6
_chemical_formula_sum   'Na1 U2 Bi1 O6'
_cell_volume   128.50138019
_cell_formula_units_Z   1
loop_
 _symmetry_equiv_pos_site_id
 _symmetry_equiv_pos_as_xyz
  1  'x, y, z'
loop_
 _atom_site_type_symbol
 _atom_site_label
 _atom_site_symmetry_multiplicity
 _atom_site_fract_x
 _atom_site_fract_y
 _atom_site_fract_z
 _atom_site_occupancy
  Na  Na0  1  0.75063800  0.25394499  0.24477898  1
  U  U1  1  0.99920200  0.49693098  0.50466496  1
  Bi  Bi2  1  0.25131703  0.73366296  0.76370297  1
  U  U3  1  0.50101304  0.99976995  0.99820396  1
  O  O4  1  0.73664302  0.83526596  0.69144796  1
  O  O5  1  0.21860601  0.29055799  0.80321297  1
  O  O6  1  0.29441703  0.72891896  0.18207899  1
  O  O7  1  0.79458502  0.72891896  0.18207898  1
  O  O8  1  0.68762300  0.29055799  0.80321296  1
  O  O9  1  0.26595700  0.14147199  0.32661398  1
