# generated using pymatgen
data_LiCuF4
_symmetry_space_group_name_H-M   'P 1'
_cell_length_a   5.58080816
_cell_length_b   5.66383028
_cell_length_c   5.58634520
_cell_angle_alpha   60.66920853
_cell_angle_beta   89.59870911
_cell_angle_gamma   119.29875946
_symmetry_Int_Tables_number   1
_chemical_formula_structural   LiCuF4
_chemical_formula_sum   'Li2 Cu2 F8'
_cell_volume   126.98386799
_cell_formula_units_Z   2
loop_
 _symmetry_equiv_pos_site_id
 _symmetry_equiv_pos_as_xyz
  1  'x, y, z'
loop_
 _atom_site_type_symbol
 _atom_site_label
 _atom_site_symmetry_multiplicity
 _atom_site_fract_x
 _atom_site_fract_y
 _atom_site_fract_z
 _atom_site_occupancy
  Li  Li0  1  0.00001504  0.50002804  0.99995498  1
  Li  Li1  1  0.00001504  0.50002904  0.50001598  1
  Cu  Cu2  1  0.49995908  0.99997408  0.50001195  1
  Cu  Cu3  1  0.00001607  0.99997508  0.50001197  1
  F  F4  1  0.76752902  0.03264500  0.25913397  1
  F  F5  1  0.20843904  0.46750104  0.26500698  1
  F  F6  1  0.23247207  0.96735408  0.74086296  1
  F  F7  1  0.23507107  0.96753808  0.29163797  1
  F  F8  1  0.79157205  0.53249904  0.73499295  1
  F  F9  1  0.24095004  0.53271404  0.73247397  1
  F  F10  1  0.76492901  0.03246100  0.70836697  1
  F  F11  1  0.75904005  0.46728504  0.26752696  1
