# generated using pymatgen
data_Li2PHN4
_symmetry_space_group_name_H-M   'P 1'
_cell_length_a   3.39048004
_cell_length_b   4.76234102
_cell_length_c   5.36498785
_cell_angle_alpha   90.00000000
_cell_angle_beta   90.00000000
_cell_angle_gamma   90.00000000
_symmetry_Int_Tables_number   1
_chemical_formula_structural   Li2PHN4
_chemical_formula_sum   'Li2 P1 H1 N4'
_cell_volume   86.62643186
_cell_formula_units_Z   1
loop_
 _symmetry_equiv_pos_site_id
 _symmetry_equiv_pos_as_xyz
  1  'x, y, z'
loop_
 _atom_site_type_symbol
 _atom_site_label
 _atom_site_symmetry_multiplicity
 _atom_site_fract_x
 _atom_site_fract_y
 _atom_site_fract_z
 _atom_site_occupancy
  Li  Li0  1  -0.00000000  0.72346800  0.98279703  1
  Li  Li1  1  0.49999999  0.27653200  0.48279701  1
  P  P2  1  0.49999999  0.19458100  0.96319103  1
  H  H3  1  -0.00000000  0.80541900  0.46319101  1
  N  N4  1  0.49999999  0.01823300  0.85270602  1
  N  N5  1  -0.00000000  0.51602300  0.62408202  1
  N  N6  1  -0.00000000  0.98176700  0.35270601  1
  N  N7  1  0.49999999  0.48397700  0.12408200  1
