# generated using pymatgen
data_SrTiO3
_symmetry_space_group_name_H-M   'P 1'
_cell_length_a   5.46744680
_cell_length_b   5.55013609
_cell_length_c   7.80973482
_cell_angle_alpha   90.00000000
_cell_angle_beta   90.00000000
_cell_angle_gamma   90.00000000
_symmetry_Int_Tables_number   1
_chemical_formula_structural   SrTiO3
_chemical_formula_sum   'Sr4 Ti4 O12'
_cell_volume   236.98697970
_cell_formula_units_Z   4
loop_
 _symmetry_equiv_pos_site_id
 _symmetry_equiv_pos_as_xyz
  1  'x, y, z'
loop_
 _atom_site_type_symbol
 _atom_site_label
 _atom_site_symmetry_multiplicity
 _atom_site_fract_x
 _atom_site_fract_y
 _atom_site_fract_z
 _atom_site_occupancy
  Sr  Sr0  1  0.51031302  0.99391798  0.75000002  1
  Sr  Sr1  1  0.98968704  0.49391799  0.25000001  1
  Sr  Sr2  1  0.01031300  0.50608199  0.75000002  1
  Sr  Sr3  1  0.48968702  0.00608200  0.25000001  1
  Ti  Ti4  1  0.50000002  0.49999999  0.50000001  1
  Ti  Ti5  1  0.00000000  0.00000000  0.50000001  1
  Ti  Ti6  1  0.00000000  0.00000000  0.00000000  1
  Ti  Ti7  1  0.50000002  0.49999999  0.00000000  1
  O  O8  1  0.23645201  0.25473300  0.45762901  1
  O  O9  1  0.26354801  0.75473299  0.54237101  1
  O  O10  1  0.73645203  0.24526700  0.04237100  1
  O  O11  1  0.76354803  0.74526699  0.95762902  1
  O  O12  1  0.76354803  0.74526699  0.54237101  1
  O  O13  1  0.73645203  0.24526700  0.45762901  1
  O  O14  1  0.26354801  0.75473299  0.95762902  1
  O  O15  1  0.23645201  0.25473300  0.04237100  1
  O  O16  1  0.99825404  0.07322700  0.75000002  1
  O  O17  1  0.50174602  0.57322699  0.25000001  1
  O  O18  1  0.49825402  0.42677299  0.75000002  1
  O  O19  1  0.00174600  0.92677299  0.25000001  1
