# generated using pymatgen
data_Cs2CoF6
_symmetry_space_group_name_H-M   'P 1'
_cell_length_a   6.07759857
_cell_length_b   6.07759857
_cell_length_c   6.07759857
_cell_angle_alpha   60.00000000
_cell_angle_beta   60.00000000
_cell_angle_gamma   60.00000000
_symmetry_Int_Tables_number   1
_chemical_formula_structural   Cs2CoF6
_chemical_formula_sum   'Cs2 Co1 F6'
_cell_volume   158.73804825
_cell_formula_units_Z   1
loop_
 _symmetry_equiv_pos_site_id
 _symmetry_equiv_pos_as_xyz
  1  'x, y, z'
loop_
 _atom_site_type_symbol
 _atom_site_label
 _atom_site_symmetry_multiplicity
 _atom_site_fract_x
 _atom_site_fract_y
 _atom_site_fract_z
 _atom_site_occupancy
  Cs  Cs0  1  0.24999999  0.24999999  0.24999999  1
  Cs  Cs1  1  0.74999997  0.74999997  0.74999997  1
  Co  Co2  1  0.00000000  0.00000000  0.00000000  1
  F  F3  1  0.78998297  0.21001699  0.21001699  1
  F  F4  1  0.21001699  0.21001699  0.78998297  1
  F  F5  1  0.78998297  0.78998297  0.21001699  1
  F  F6  1  0.21001699  0.78998297  0.78998297  1
  F  F7  1  0.78998297  0.21001699  0.78998297  1
  F  F8  1  0.21001699  0.78998297  0.21001699  1
