# generated using pymatgen
data_Zr3Rh
_symmetry_space_group_name_H-M   'P 1'
_cell_length_a   6.52704477
_cell_length_b   6.52704477
_cell_length_c   6.80649805
_cell_angle_alpha   90.00000000
_cell_angle_beta   90.00000000
_cell_angle_gamma   90.00000000
_symmetry_Int_Tables_number   1
_chemical_formula_structural   Zr3Rh
_chemical_formula_sum   'Zr12 Rh4'
_cell_volume   289.97256359
_cell_formula_units_Z   4
loop_
 _symmetry_equiv_pos_site_id
 _symmetry_equiv_pos_as_xyz
  1  'x, y, z'
loop_
 _atom_site_type_symbol
 _atom_site_label
 _atom_site_symmetry_multiplicity
 _atom_site_fract_x
 _atom_site_fract_y
 _atom_site_fract_z
 _atom_site_occupancy
  Zr  Zr0  1  -0.00000000  0.50000002  0.50000000  1
  Zr  Zr1  1  0.50000002  0.00000000  0.00000000  1
  Zr  Zr2  1  0.50000002  0.00000000  0.50000000  1
  Zr  Zr3  1  -0.00000000  0.50000002  0.00000000  1
  Zr  Zr4  1  0.34502801  0.65497202  0.23536400  1
  Zr  Zr5  1  0.65497202  0.34502801  0.23536400  1
  Zr  Zr6  1  0.15497201  0.15497201  0.73536399  1
  Zr  Zr7  1  0.84502803  0.84502803  0.73536399  1
  Zr  Zr8  1  0.65497202  0.34502801  0.76463599  1
  Zr  Zr9  1  0.34502801  0.65497202  0.76463599  1
  Zr  Zr10  1  0.84502803  0.84502803  0.26463600  1
  Zr  Zr11  1  0.15497201  0.15497201  0.26463600  1
  Rh  Rh12  1  0.15936101  0.84063903  0.50000000  1
  Rh  Rh13  1  0.84063903  0.15936101  0.50000000  1
  Rh  Rh14  1  0.34063901  0.34063901  0.00000000  1
  Rh  Rh15  1  0.65936102  0.65936102  0.00000000  1
