# generated using pymatgen
data_PrU3GePIr2
_symmetry_space_group_name_H-M   'P 1'
_cell_length_a   4.08085489
_cell_length_b   4.08085489
_cell_length_c   10.23309422
_cell_angle_alpha   90.00000000
_cell_angle_beta   90.00000000
_cell_angle_gamma   90.00000000
_symmetry_Int_Tables_number   1
_chemical_formula_structural   PrU3GePIr2
_chemical_formula_sum   'Pr1 U3 Ge1 P1 Ir2'
_cell_volume   170.41557232
_cell_formula_units_Z   1
loop_
 _symmetry_equiv_pos_site_id
 _symmetry_equiv_pos_as_xyz
  1  'x, y, z'
loop_
 _atom_site_type_symbol
 _atom_site_label
 _atom_site_symmetry_multiplicity
 _atom_site_fract_x
 _atom_site_fract_y
 _atom_site_fract_z
 _atom_site_occupancy
  Pr  Pr0  1  0.00000000  0.00000000  0.49999999  1
  U  U1  1  -0.00000000  0.50000001  0.15606700  1
  U  U2  1  -0.00000000  0.50000001  0.84393298  1
  U  U3  1  0.50000001  0.00000000  0.84393298  1
  Ge  Ge4  1  0.50000001  0.00000000  0.15606700  1
  Ir  Ir5  1  0.00000000  0.00000000  0.00000000  1
  P  P6  1  0.50000001  0.50000001  0.28392399  1
  Ir  Ir7  1  0.50000001  0.50000001  0.71607598  1
