# generated using pymatgen
data_CsCuCl3
_symmetry_space_group_name_H-M   'P 1'
_cell_length_a   7.04384327
_cell_length_b   7.04384327
_cell_length_c   7.04384327
_cell_angle_alpha   94.82716370
_cell_angle_beta   117.25328827
_cell_angle_gamma   117.25328827
_symmetry_Int_Tables_number   1
_chemical_formula_structural   CsCuCl3
_chemical_formula_sum   'Cs2 Cu2 Cl6'
_cell_volume   256.39856557
_cell_formula_units_Z   2
loop_
 _symmetry_equiv_pos_site_id
 _symmetry_equiv_pos_as_xyz
  1  'x, y, z'
loop_
 _atom_site_type_symbol
 _atom_site_label
 _atom_site_symmetry_multiplicity
 _atom_site_fract_x
 _atom_site_fract_y
 _atom_site_fract_z
 _atom_site_occupancy
  Cs  Cs0  1  0.00000012  0.75000004  0.75000007  1
  Cs  Cs1  1  0.00000004  0.25000001  0.25000002  1
  Cu  Cu2  1  0.50000000  0.00000000  0.50000002  1
  Cu  Cu3  1  0.50000008  0.50000003  0.00000009  1
  Cl  Cl4  1  0.93005712  0.71502804  0.21502814  1
  Cl  Cl5  1  0.50000004  0.21502901  0.28497105  1
  Cl  Cl6  1  0.50000013  0.78497105  0.71502911  1
  Cl  Cl7  1  0.06994305  0.28497202  0.78497202  1
  Cl  Cl8  1  0.50000013  0.75000004  0.25000011  1
  Cl  Cl9  1  0.50000004  0.25000001  0.75000004  1
