# generated using pymatgen
data_NaAgBr3
_symmetry_space_group_name_H-M   'P 1'
_cell_length_a   4.04905415
_cell_length_b   6.88341665
_cell_length_c   9.99265194
_cell_angle_alpha   90.00000000
_cell_angle_beta   90.00000000
_cell_angle_gamma   107.10456848
_symmetry_Int_Tables_number   1
_chemical_formula_structural   NaAgBr3
_chemical_formula_sum   'Na2 Ag2 Br6'
_cell_volume   266.18991690
_cell_formula_units_Z   2
loop_
 _symmetry_equiv_pos_site_id
 _symmetry_equiv_pos_as_xyz
  1  'x, y, z'
loop_
 _atom_site_type_symbol
 _atom_site_label
 _atom_site_symmetry_multiplicity
 _atom_site_fract_x
 _atom_site_fract_y
 _atom_site_fract_z
 _atom_site_occupancy
  Na  Na0  1  0.74801292  0.49602599  0.25000000  1
  Na  Na1  1  0.25198694  0.50397399  0.75000000  1
  Ag  Ag2  1  0.00000000  0.00000000  0.00000000  1
  Ag  Ag3  1  0.00000000  0.00000000  0.50000000  1
  Br  Br4  1  0.91468189  0.82936398  0.75000000  1
  Br  Br5  1  0.08531798  0.17063600  0.25000000  1
  Br  Br6  1  0.35726892  0.71453798  0.43869700  1
  Br  Br7  1  0.64273095  0.28546199  0.56130300  1
  Br  Br8  1  0.35726892  0.71453798  0.06130300  1
  Br  Br9  1  0.64273095  0.28546199  0.93869701  1
