# generated using pymatgen
data_Ba2Na
_symmetry_space_group_name_H-M   'P 1'
_cell_length_a   5.07947016
_cell_length_b   9.22999001
_cell_length_c   9.22998905
_cell_angle_alpha   120.00000000
_cell_angle_beta   90.00000000
_cell_angle_gamma   90.00000000
_symmetry_Int_Tables_number   1
_chemical_formula_structural   Ba2Na
_chemical_formula_sum   'Ba6 Na3'
_cell_volume   374.75847368
_cell_formula_units_Z   3
loop_
 _symmetry_equiv_pos_site_id
 _symmetry_equiv_pos_as_xyz
  1  'x, y, z'
loop_
 _atom_site_type_symbol
 _atom_site_label
 _atom_site_symmetry_multiplicity
 _atom_site_fract_x
 _atom_site_fract_y
 _atom_site_fract_z
 _atom_site_occupancy
  Ba  Ba0  1  0.49999998  0.66666665  0.33333331  1
  Ba  Ba1  1  0.49999998  0.33333332  0.66666667  1
  Ba  Ba2  1  0.00000000  0.00000000  0.00000000  1
  Ba  Ba3  1  0.99999997  0.99999997  0.59722096  1
  Ba  Ba4  1  0.49999998  0.99999997  0.25094096  1
  Ba  Ba5  1  0.00000000  0.59722098  1.00000000  1
  Na  Na6  1  0.49999998  0.74905898  0.74905898  1
  Na  Na7  1  0.49999998  0.25094099  -0.00000001  1
  Na  Na8  1  0.00000000  0.40277899  0.40277899  1
