# generated using pymatgen
data_BaMnO3
_symmetry_space_group_name_H-M   'P 1'
_cell_length_a   5.73311043
_cell_length_b   5.73310995
_cell_length_c   9.39836788
_cell_angle_alpha   89.99997711
_cell_angle_beta   90.00003815
_cell_angle_gamma   119.99999237
_symmetry_Int_Tables_number   1
_chemical_formula_structural   BaMnO3
_chemical_formula_sum   'Ba4 Mn4 O12'
_cell_volume   267.52457550
_cell_formula_units_Z   4
loop_
 _symmetry_equiv_pos_site_id
 _symmetry_equiv_pos_as_xyz
  1  'x, y, z'
loop_
 _atom_site_type_symbol
 _atom_site_label
 _atom_site_symmetry_multiplicity
 _atom_site_fract_x
 _atom_site_fract_y
 _atom_site_fract_z
 _atom_site_occupancy
  Ba  Ba0  1  0.00000100  0.00000000  0.99999401  1
  Ba  Ba1  1  0.00000000  0.00000000  0.49999601  1
  Ba  Ba2  1  0.33333334  0.66666668  0.24999697  1
  Ba  Ba3  1  0.66666668  0.33333334  0.74999597  1
  Mn  Mn4  1  0.66666668  0.33333334  0.38763497  1
  Mn  Mn5  1  0.33333334  0.66666668  0.88763598  1
  Mn  Mn6  1  0.66666668  0.33333334  0.11238296  1
  Mn  Mn7  1  0.33333334  0.66666668  0.61239397  1
  O  O8  1  0.18787101  0.81212902  0.74999897  1
  O  O9  1  0.62425802  0.81212902  0.74999796  1
  O  O10  1  0.81213002  0.18787000  0.24999996  1
  O  O11  1  0.81213102  0.62426101  0.24999995  1
  O  O12  1  0.37574001  0.18787000  0.24999998  1
  O  O13  1  0.18787001  0.37574201  0.74999799  1
  O  O14  1  0.00000500  0.50000301  0.99999500  1
  O  O15  1  0.49999902  0.99999702  0.99999496  1
  O  O16  1  0.50000101  0.00000200  0.49999599  1
  O  O17  1  0.50000101  0.50000001  0.49999597  1
  O  O18  1  0.49999701  0.50000101  0.99999498  1
  O  O19  1  0.99999803  0.50000001  0.49999595  1
