# generated using pymatgen
data_Sr3PrO8
_symmetry_space_group_name_H-M   'P 1'
_cell_length_a   4.72421885
_cell_length_b   4.94696712
_cell_length_c   8.51116085
_cell_angle_alpha   90.00000000
_cell_angle_beta   90.00000000
_cell_angle_gamma   90.00000000
_symmetry_Int_Tables_number   1
_chemical_formula_structural   Sr3PrO8
_chemical_formula_sum   'Sr3 Pr1 O8'
_cell_volume   198.91055549
_cell_formula_units_Z   1
loop_
 _symmetry_equiv_pos_site_id
 _symmetry_equiv_pos_as_xyz
  1  'x, y, z'
loop_
 _atom_site_type_symbol
 _atom_site_label
 _atom_site_symmetry_multiplicity
 _atom_site_fract_x
 _atom_site_fract_y
 _atom_site_fract_z
 _atom_site_occupancy
  Pr  Pr0  1  0.89096503  0.74999998  0.14657800  1
  Sr  Sr1  1  0.60903502  0.74999998  0.64657801  1
  Sr  Sr2  1  0.10903500  0.24999999  0.85342201  1
  Sr  Sr3  1  0.39096501  0.24999999  0.35342201  1
  O  O4  1  0.53443002  0.74999998  0.35537401  1
  O  O5  1  0.96557003  0.74999998  0.85537402  1
  O  O6  1  0.46557002  0.24999999  0.64462601  1
  O  O7  1  0.03443000  0.24999999  0.14462600  1
  O  O8  1  0.22287201  0.74999998  0.39549901  1
  O  O9  1  0.27712801  0.74999998  0.89549902  1
  O  O10  1  0.77712803  0.24999999  0.60450101  1
  O  O11  1  0.72287202  0.24999999  0.10450100  1
