# generated using pymatgen
data_KCN3
_symmetry_space_group_name_H-M   'P 1'
_cell_length_a   4.79005766
_cell_length_b   4.79005766
_cell_length_c   4.79005814
_cell_angle_alpha   85.84492493
_cell_angle_beta   85.84492493
_cell_angle_gamma   85.84493256
_symmetry_Int_Tables_number   1
_chemical_formula_structural   KCN3
_chemical_formula_sum   'K1 C1 N3'
_cell_volume   109.07942191
_cell_formula_units_Z   1
loop_
 _symmetry_equiv_pos_site_id
 _symmetry_equiv_pos_as_xyz
  1  'x, y, z'
loop_
 _atom_site_type_symbol
 _atom_site_label
 _atom_site_symmetry_multiplicity
 _atom_site_fract_x
 _atom_site_fract_y
 _atom_site_fract_z
 _atom_site_occupancy
  K  K0  1  0.02508100  0.02508100  0.02508100  1
  C  C1  1  0.51032801  0.51032802  0.51032802  1
  N  N2  1  0.57062002  0.19934001  0.57062001  1
  N  N3  1  0.19933999  0.57062002  0.57062001  1
  N  N4  1  0.57062001  0.57062002  0.19934003  1
