# generated using pymatgen
data_Li3Ni2O5
_symmetry_space_group_name_H-M   'P 1'
_cell_length_a   3.03671598
_cell_length_b   5.21469736
_cell_length_c   12.51457787
_cell_angle_alpha   96.98369598
_cell_angle_beta   90.00234985
_cell_angle_gamma   90.00939941
_symmetry_Int_Tables_number   1
_chemical_formula_structural   Li3Ni2O5
_chemical_formula_sum   'Li6 Ni4 O10'
_cell_volume   196.70497698
_cell_formula_units_Z   2
loop_
 _symmetry_equiv_pos_site_id
 _symmetry_equiv_pos_as_xyz
  1  'x, y, z'
loop_
 _atom_site_type_symbol
 _atom_site_label
 _atom_site_symmetry_multiplicity
 _atom_site_fract_x
 _atom_site_fract_y
 _atom_site_fract_z
 _atom_site_occupancy
  Li  Li0  1  0.99997808  0.59236599  0.79633699  1
  Li  Li1  1  0.49994202  0.09204100  0.79632498  1
  Li  Li2  1  0.00003904  0.40760699  0.20368001  1
  Li  Li3  1  0.50010010  0.90802999  0.20369901  1
  Li  Li4  1  0.50000508  0.69730099  0.59872500  1
  Li  Li5  1  0.00000402  0.19727200  0.59872499  1
  Ni  Ni6  1  0.50001904  0.30279500  0.40123999  1
  Ni  Ni7  1  0.00002208  0.80279799  0.40123601  1
  Ni  Ni8  1  0.49976006  0.49990899  0.00016401  1
  Ni  Ni9  1  0.00003710  0.99989198  0.99991100  1
  O  O10  1  0.00001205  0.50003999  0.49997300  1
  O  O11  1  0.50001201  0.00003600  0.49997099  1
  O  O12  1  0.49993703  0.21690200  0.10733500  1
  O  O13  1  0.99996009  0.71644399  0.10680901  1
  O  O14  1  0.50010508  0.78293699  0.89269500  1
  O  O15  1  0.00000903  0.28352700  0.89323499  1
  O  O16  1  0.50002707  0.60586699  0.30246100  1
  O  O17  1  0.00002801  0.10564100  0.30245500  1
  O  O18  1  0.50000005  0.39417199  0.69750399  1
  O  O19  1  0.00000409  0.89442399  0.69752001  1
