# generated using pymatgen
data_Pr2MgNi12
_symmetry_space_group_name_H-M   'P 1'
_cell_length_a   6.66995382
_cell_length_b   6.66995430
_cell_length_c   7.10429192
_cell_angle_alpha   90.00000000
_cell_angle_beta   90.00000000
_cell_angle_gamma   120.00000000
_symmetry_Int_Tables_number   1
_chemical_formula_structural   Pr2MgNi12
_chemical_formula_sum   'Pr2 Mg1 Ni12'
_cell_volume   273.71406566
_cell_formula_units_Z   1
loop_
 _symmetry_equiv_pos_site_id
 _symmetry_equiv_pos_as_xyz
  1  'x, y, z'
loop_
 _atom_site_type_symbol
 _atom_site_label
 _atom_site_symmetry_multiplicity
 _atom_site_fract_x
 _atom_site_fract_y
 _atom_site_fract_z
 _atom_site_occupancy
  Pr  Pr0  1  0.60586705  1.00000002  0.50000001  1
  Pr  Pr1  1  0.39413302  0.39413301  0.83333301  1
  Mg  Mg2  1  0.00000002  0.60586701  0.16666700  1
  Ni  Ni3  1  0.11628501  0.33954001  0.45677301  1
  Ni  Ni4  1  0.77674504  0.66046002  0.54322701  1
  Ni  Ni5  1  0.88371503  0.22325501  0.87656001  1
  Ni  Ni6  1  0.22325504  0.88371502  0.79010701  1
  Ni  Ni7  1  0.66046004  0.77674502  0.12344000  1
  Ni  Ni8  1  0.33954001  0.11628500  0.20989300  1
  Ni  Ni9  1  0.13631400  0.00000000  0.50000001  1
  Ni  Ni10  1  0.86368605  0.86368602  0.83333301  1
  Ni  Ni11  1  0.51403705  1.00000002  0.00000000  1
  Ni  Ni12  1  1.00000004  0.51403701  0.66666667  1
  Ni  Ni13  1  0.48596303  0.48596301  0.33333334  1
  Ni  Ni14  1  1.00000003  0.13631400  0.16666700  1
