# generated using pymatgen
data_NaCuF4
_symmetry_space_group_name_H-M   'P 1'
_cell_length_a   7.27095795
_cell_length_b   7.35427475
_cell_length_c   7.35427475
_cell_angle_alpha   60.69130707
_cell_angle_beta   60.37405777
_cell_angle_gamma   60.37405777
_symmetry_Int_Tables_number   1
_chemical_formula_structural   NaCuF4
_chemical_formula_sum   'Na3 Cu3 F12'
_cell_volume   281.08142551
_cell_formula_units_Z   3
loop_
 _symmetry_equiv_pos_site_id
 _symmetry_equiv_pos_as_xyz
  1  'x, y, z'
loop_
 _atom_site_type_symbol
 _atom_site_label
 _atom_site_symmetry_multiplicity
 _atom_site_fract_x
 _atom_site_fract_y
 _atom_site_fract_z
 _atom_site_occupancy
  Na  Na0  1  0.50000000  0.00000000  -0.00000000  1
  Na  Na1  1  0.50000001  0.49999999  0.49999997  1
  Na  Na2  1  1.00000001  0.49999999  -0.00000002  1
  Cu  Cu3  1  0.50000001  0.49999999  -0.00000002  1
  Cu  Cu4  1  0.00000000  0.49999999  0.49999997  1
  Cu  Cu5  1  0.00000000  0.00000000  0.00000000  1
  F  F6  1  0.68519701  0.56565299  0.67933297  1
  F  F7  1  0.06981700  0.56565299  0.67933297  1
  F  F8  1  0.05437500  0.19562500  0.69562498  1
  F  F9  1  0.06981700  0.17933300  0.06565299  1
  F  F10  1  0.68519701  0.17933300  0.06565299  1
  F  F11  1  0.66939901  0.58060099  0.08060098  1
  F  F12  1  0.31480301  0.43434699  0.32066698  1
  F  F13  1  0.93018301  0.43434699  0.32066698  1
  F  F14  1  0.94562501  0.80437499  0.30437497  1
  F  F15  1  0.93018301  0.82066699  0.93434695  1
  F  F16  1  0.31480301  0.82066699  0.93434695  1
  F  F17  1  0.33060101  0.41939899  0.91939897  1
