# generated using pymatgen
data_NaCuF3
_symmetry_space_group_name_H-M   'P 1'
_cell_length_a   5.47325706
_cell_length_b   5.80981493
_cell_length_c   7.73507643
_cell_angle_alpha   90.00000000
_cell_angle_beta   89.55275726
_cell_angle_gamma   90.00000000
_symmetry_Int_Tables_number   1
_chemical_formula_structural   NaCuF3
_chemical_formula_sum   'Na4 Cu4 F12'
_cell_volume   245.95718991
_cell_formula_units_Z   4
loop_
 _symmetry_equiv_pos_site_id
 _symmetry_equiv_pos_as_xyz
  1  'x, y, z'
loop_
 _atom_site_type_symbol
 _atom_site_label
 _atom_site_symmetry_multiplicity
 _atom_site_fract_x
 _atom_site_fract_y
 _atom_site_fract_z
 _atom_site_occupancy
  Na  Na0  1  0.48439499  0.93362601  0.24957099  1
  Na  Na1  1  0.01560500  0.43362601  0.25042901  1
  Na  Na2  1  0.51560499  0.06637400  0.75042901  1
  Na  Na3  1  0.98439499  0.56637401  0.74957099  1
  Cu  Cu4  1  0.49999999  0.50000001  0.50000000  1
  Cu  Cu5  1  0.00000000  0.00000000  0.00000000  1
  Cu  Cu6  1  0.49999999  0.50000001  1.00000002  1
  Cu  Cu7  1  -0.00000000  0.00000000  0.50000001  1
  F  F8  1  0.29200600  0.19403300  0.04666499  1
  F  F9  1  0.20799400  0.69403301  0.45333501  1
  F  F10  1  0.71668199  0.81595801  0.54907900  1
  F  F11  1  0.78331799  0.31595800  0.95092101  1
  F  F12  1  0.70799399  0.80596701  0.95333501  1
  F  F13  1  0.79200599  0.30596700  0.54666499  1
  F  F14  1  0.28331800  0.18404200  0.45092101  1
  F  F15  1  0.21668200  0.68404201  0.04907900  1
  F  F16  1  0.59332999  0.52372301  0.25429099  1
  F  F17  1  0.90666999  0.02372300  0.24570898  1
  F  F18  1  0.40667000  0.47627701  0.74570901  1
  F  F19  1  0.09333000  0.97627701  0.75429102  1
