# generated using pymatgen
data_Ba2SmTe3
_symmetry_space_group_name_H-M   'P 1'
_cell_length_a   6.09835720
_cell_length_b   9.03495216
_cell_length_c   9.03495216
_cell_angle_alpha   120.00000000
_cell_angle_beta   90.00000000
_cell_angle_gamma   90.00000000
_symmetry_Int_Tables_number   1
_chemical_formula_structural   Ba2SmTe3
_chemical_formula_sum   'Ba4 Sm2 Te6'
_cell_volume   431.11705660
_cell_formula_units_Z   2
loop_
 _symmetry_equiv_pos_site_id
 _symmetry_equiv_pos_as_xyz
  1  'x, y, z'
loop_
 _atom_site_type_symbol
 _atom_site_label
 _atom_site_symmetry_multiplicity
 _atom_site_fract_x
 _atom_site_fract_y
 _atom_site_fract_z
 _atom_site_occupancy
  Ba  Ba0  1  0.00000000  0.35005999  0.35006000  1
  Ba  Ba1  1  0.99999997  0.64993999  0.00000000  1
  Ba  Ba2  1  0.99999997  0.00000000  0.64993999  1
  Ba  Ba3  1  0.49999998  0.68363299  0.68363299  1
  Sm  Sm4  1  0.49999998  0.31636699  0.99999999  1
  Sm  Sm5  1  0.49999998  0.00000000  0.31636700  1
  Te  Te6  1  0.80028697  0.00000000  0.00000000  1
  Te  Te7  1  0.19971299  0.00000000  0.00000000  1
  Te  Te8  1  0.70075998  0.66666666  0.33333333  1
  Te  Te9  1  0.29923999  0.66666666  0.33333333  1
  Te  Te10  1  0.29923999  0.33333333  0.66666666  1
  Te  Te11  1  0.70075998  0.33333333  0.66666666  1
