# generated using pymatgen
data_K2Bi(SO4)3
_symmetry_space_group_name_H-M   'P 1'
_cell_length_a   6.36066198
_cell_length_b   7.05078220
_cell_length_c   7.05078268
_cell_angle_alpha   60.00000381
_cell_angle_beta   90.00000000
_cell_angle_gamma   90.00000000
_symmetry_Int_Tables_number   1
_chemical_formula_structural   K2Bi(SO4)3
_chemical_formula_sum   'K2 Bi1 S3 O12'
_cell_volume   273.84675191
_cell_formula_units_Z   1
loop_
 _symmetry_equiv_pos_site_id
 _symmetry_equiv_pos_as_xyz
  1  'x, y, z'
loop_
 _atom_site_type_symbol
 _atom_site_label
 _atom_site_symmetry_multiplicity
 _atom_site_fract_x
 _atom_site_fract_y
 _atom_site_fract_z
 _atom_site_occupancy
  K  K0  1  0.33333333  0.49999998  0.50000000  1
  K  K1  1  0.66666667  0.49999998  1.00000000  1
  Bi  Bi2  1  1.00000000  0.00000000  0.49999999  1
  S  S3  1  0.83333300  0.49999998  0.50000000  1
  S  S4  1  0.16666700  0.49999998  1.00000000  1
  S  S5  1  0.50000000  0.00000000  0.49999999  1
  O  O6  1  0.02564900  0.68879597  0.86417200  1
  O  O7  1  0.35898200  0.86417197  0.44703201  1
  O  O8  1  0.69231500  0.44703198  0.68879600  1
  O  O9  1  0.69231500  0.55296798  0.31120401  1
  O  O10  1  0.64101800  0.13582799  0.31120400  1
  O  O11  1  0.02564900  0.31120399  0.13582800  1
  O  O12  1  0.64101800  0.86417197  0.68879601  1
  O  O13  1  0.30768500  0.55296798  0.13582801  1
  O  O14  1  0.97435100  0.31120399  0.55296800  1
  O  O15  1  0.97435100  0.68879597  0.44703201  1
  O  O16  1  0.30768500  0.44703198  0.86417200  1
  O  O17  1  0.35898200  0.13582799  0.55296800  1
