# generated using pymatgen
data_ScS2
_symmetry_space_group_name_H-M   'P 1'
_cell_length_a   3.32873607
_cell_length_b   3.32873607
_cell_length_c   14.27258682
_cell_angle_alpha   90.00000000
_cell_angle_beta   90.00000000
_cell_angle_gamma   120.00000000
_symmetry_Int_Tables_number   1
_chemical_formula_structural   ScS2
_chemical_formula_sum   'Sc2 S4'
_cell_volume   136.95946425
_cell_formula_units_Z   2
loop_
 _symmetry_equiv_pos_site_id
 _symmetry_equiv_pos_as_xyz
  1  'x, y, z'
loop_
 _atom_site_type_symbol
 _atom_site_label
 _atom_site_symmetry_multiplicity
 _atom_site_fract_x
 _atom_site_fract_y
 _atom_site_fract_z
 _atom_site_occupancy
  Sc  Sc0  1  0.00000000  0.00000000  0.75000001  1
  Sc  Sc1  1  0.00000000  0.00000000  0.25000000  1
  S  S2  1  0.66666666  0.33333333  0.63292601  1
  S  S3  1  0.33333333  0.66666667  0.36707400  1
  S  S4  1  0.33333333  0.66666667  0.13292600  1
  S  S5  1  0.66666666  0.33333333  0.86707401  1
