# generated using pymatgen
data_MnI4
_symmetry_space_group_name_H-M   'P 1'
_cell_length_a   6.83568192
_cell_length_b   7.39873886
_cell_length_c   7.54668903
_cell_angle_alpha   71.53809357
_cell_angle_beta   63.07056808
_cell_angle_gamma   62.48704529
_symmetry_Int_Tables_number   1
_chemical_formula_structural   MnI4
_chemical_formula_sum   'Mn2 I8'
_cell_volume   299.00528989
_cell_formula_units_Z   2
loop_
 _symmetry_equiv_pos_site_id
 _symmetry_equiv_pos_as_xyz
  1  'x, y, z'
loop_
 _atom_site_type_symbol
 _atom_site_label
 _atom_site_symmetry_multiplicity
 _atom_site_fract_x
 _atom_site_fract_y
 _atom_site_fract_z
 _atom_site_occupancy
  Mn  Mn0  1  0.71918000  0.00000000  1.00000003  1
  Mn  Mn1  1  0.28082000  0.00000000  1.00000002  1
  I  I2  1  0.76475499  0.24218200  0.71712303  1
  I  I3  1  0.72405997  0.75781801  0.28287703  1
  I  I4  1  0.16578697  0.81260901  0.85581702  1
  I  I5  1  0.83421299  0.18739100  0.14418303  1
  I  I6  1  0.30837899  0.21664700  0.16659501  1
  I  I7  1  0.69162096  0.78335301  0.83340503  1
  I  I8  1  0.27593999  0.24218200  0.71712302  1
  I  I9  1  0.23524497  0.75781801  0.28287702  1
