# generated using pymatgen
data_LiTi3WO8
_symmetry_space_group_name_H-M   'P 1'
_cell_length_a   6.31592226
_cell_length_b   6.31592226
_cell_length_c   6.31661320
_cell_angle_alpha   60.00361633
_cell_angle_beta   60.00361633
_cell_angle_gamma   59.99999619
_symmetry_Int_Tables_number   1
_chemical_formula_structural   LiTi3WO8
_chemical_formula_sum   'Li1 Ti3 W1 O8'
_cell_volume   178.18312092
_cell_formula_units_Z   1
loop_
 _symmetry_equiv_pos_site_id
 _symmetry_equiv_pos_as_xyz
  1  'x, y, z'
loop_
 _atom_site_type_symbol
 _atom_site_label
 _atom_site_symmetry_multiplicity
 _atom_site_fract_x
 _atom_site_fract_y
 _atom_site_fract_z
 _atom_site_occupancy
  Li  Li0  1  0.85535903  0.85535902  0.43392293  1
  Ti  Ti1  1  0.14464101  0.14464100  0.56607699  1
  Ti  Ti2  1  0.50000001  0.00000000  -0.00000002  1
  Ti  Ti3  1  0.00000001  0.50000001  -0.00000002  1
  W  W4  1  0.50000002  0.50000001  -0.00000004  1
  O  O5  1  0.60461802  0.60461801  0.18614595  1
  O  O6  1  0.39538201  0.39538201  0.81385397  1
  O  O7  1  0.11316700  0.11316700  0.21475799  1
  O  O8  1  0.11316701  0.55890801  0.21475797  1
  O  O9  1  0.55890802  0.11316700  0.21475797  1
  O  O10  1  0.88683303  0.44109201  0.78524195  1
  O  O11  1  0.88683303  0.88683302  0.78524193  1
  O  O12  1  0.44109202  0.88683302  0.78524195  1
