# generated using pymatgen
data_Tb2Sc5S7
_symmetry_space_group_name_H-M   'P 1'
_cell_length_a   4.69087505
_cell_length_b   9.07935810
_cell_length_c   9.65382385
_cell_angle_alpha   90.00000000
_cell_angle_beta   90.00000000
_cell_angle_gamma   90.00000000
_symmetry_Int_Tables_number   1
_chemical_formula_structural   Tb2Sc5S7
_chemical_formula_sum   'Tb2 Sc5 S7'
_cell_volume   411.15765551
_cell_formula_units_Z   1
loop_
 _symmetry_equiv_pos_site_id
 _symmetry_equiv_pos_as_xyz
  1  'x, y, z'
loop_
 _atom_site_type_symbol
 _atom_site_label
 _atom_site_symmetry_multiplicity
 _atom_site_fract_x
 _atom_site_fract_y
 _atom_site_fract_z
 _atom_site_occupancy
  Tb  Tb0  1  -0.00000000  0.77318299  0.21695900  1
  Tb  Tb1  1  -0.00000000  0.27318300  0.78304101  1
  Sc  Sc2  1  -0.00000000  0.52444299  0.51791501  1
  Sc  Sc3  1  -0.00000000  0.02444300  0.48208501  1
  Sc  Sc4  1  0.49999999  0.35083400  0.22002100  1
  Sc  Sc5  1  0.49999999  0.85083399  0.77997901  1
  S  S6  1  -0.00000000  0.50880399  0.26454700  1
  Sc  Sc7  1  -0.00000000  0.53181899  0.76296401  1
  S  S8  1  -0.00000000  0.03181900  0.23703600  1
  S  S9  1  -0.00000000  0.00880400  0.73545301  1
  S  S10  1  0.49999999  0.73182599  0.00718400  1
  S  S11  1  0.49999999  0.23182600  0.99281602  1
  S  S12  1  0.49999999  0.77629099  0.52566001  1
  S  S13  1  0.49999999  0.27629100  0.47434001  1
