# generated using pymatgen
data_Mo4S
_symmetry_space_group_name_H-M   'P 1'
_cell_length_a   2.72254825
_cell_length_b   2.72254825
_cell_length_c   11.15878105
_cell_angle_alpha   82.99297333
_cell_angle_beta   82.99297333
_cell_angle_gamma   59.99999619
_symmetry_Int_Tables_number   1
_chemical_formula_structural   Mo4S
_chemical_formula_sum   'Mo4 S1'
_cell_volume   70.91636891
_cell_formula_units_Z   1
loop_
 _symmetry_equiv_pos_site_id
 _symmetry_equiv_pos_as_xyz
  1  'x, y, z'
loop_
 _atom_site_type_symbol
 _atom_site_label
 _atom_site_symmetry_multiplicity
 _atom_site_fract_x
 _atom_site_fract_y
 _atom_site_fract_z
 _atom_site_occupancy
  S  S0  1  0.00000000  0.00000000  0.00000000  1
  Mo  Mo1  1  0.60106701  0.60106699  0.19679898  1
  Mo  Mo2  1  0.19980900  0.19980900  0.40057300  1
  Mo  Mo3  1  0.80019102  0.80019098  0.59942699  1
  Mo  Mo4  1  0.39893301  0.39893299  0.80320100  1
