# generated using pymatgen
data_CsBr3
_symmetry_space_group_name_H-M   'P 1'
_cell_length_a   6.67037010
_cell_length_b   8.01230621
_cell_length_c   8.01230526
_cell_angle_alpha   120.00000000
_cell_angle_beta   90.00000000
_cell_angle_gamma   90.00000000
_symmetry_Int_Tables_number   1
_chemical_formula_structural   CsBr3
_chemical_formula_sum   'Cs2 Br6'
_cell_volume   370.84769901
_cell_formula_units_Z   2
loop_
 _symmetry_equiv_pos_site_id
 _symmetry_equiv_pos_as_xyz
  1  'x, y, z'
loop_
 _atom_site_type_symbol
 _atom_site_label
 _atom_site_symmetry_multiplicity
 _atom_site_fract_x
 _atom_site_fract_y
 _atom_site_fract_z
 _atom_site_occupancy
  Br  Br0  1  0.25000000  0.66666664  0.33333332  1
  Cs  Cs1  1  0.74999999  0.33333332  0.66666668  1
  Cs  Cs2  1  0.74999999  0.83569696  0.16430297  1
  Br  Br3  1  0.74999999  0.32860598  0.16430299  1
  Br  Br4  1  0.74999999  0.83569696  0.67139399  1
  Br  Br5  1  0.25000000  0.16430299  0.83569702  1
  Br  Br6  1  0.25000000  0.67139397  0.83569700  1
  Br  Br7  1  0.25000000  0.16430299  0.32860600  1
