# generated using pymatgen
data_CsLa6Br13
_symmetry_space_group_name_H-M   'P 1'
_cell_length_a   6.46304893
_cell_length_b   10.07785797
_cell_length_c   10.07785797
_cell_angle_alpha   120.00000000
_cell_angle_beta   90.00000000
_cell_angle_gamma   90.00000000
_symmetry_Int_Tables_number   1
_chemical_formula_structural   CsLa6Br13
_chemical_formula_sum   'Cs1 La6 Br13'
_cell_volume   568.46606315
_cell_formula_units_Z   1
loop_
 _symmetry_equiv_pos_site_id
 _symmetry_equiv_pos_as_xyz
  1  'x, y, z'
loop_
 _atom_site_type_symbol
 _atom_site_label
 _atom_site_symmetry_multiplicity
 _atom_site_fract_x
 _atom_site_fract_y
 _atom_site_fract_z
 _atom_site_occupancy
  Br  Br0  1  0.41833800  0.33333333  0.66666667  1
  Cs  Cs1  1  0.91833801  0.66666667  0.33333333  1
  Br  Br2  1  0.25438900  0.12848900  0.87151100  1
  Br  Br3  1  0.25438900  0.74302200  0.87151100  1
  Br  Br4  1  0.25438900  0.12848900  0.25697800  1
  Br  Br5  1  0.75438901  0.87151100  0.12848900  1
  Br  Br6  1  0.75438901  0.25697800  0.12848900  1
  Br  Br7  1  0.75438901  0.87151100  0.74302200  1
  Br  Br8  1  0.46883100  0.54417000  0.45583100  1
  Br  Br9  1  0.46883100  0.91166100  0.45583100  1
  Br  Br10  1  0.46883100  0.54417000  0.08834000  1
  Br  Br11  1  0.96883101  0.45583000  0.54416900  1
  Br  Br12  1  0.96883101  0.08833900  0.54416900  1
  Br  Br13  1  0.96883101  0.45583000  0.91166000  1
  La  La14  1  0.18931800  0.81167700  0.18832200  1
  La  La15  1  0.18931800  0.37664500  0.18832200  1
  La  La16  1  0.18931800  0.81167700  0.62335400  1
  La  La17  1  0.68931801  0.18832300  0.81167800  1
  La  La18  1  0.68931801  0.62335500  0.81167800  1
  La  La19  1  0.68931801  0.18832300  0.37664600  1
