# generated using pymatgen
data_In2Ir
_symmetry_space_group_name_H-M   'P 1'
_cell_length_a   5.42535400
_cell_length_b   6.49946308
_cell_length_c   6.49946308
_cell_angle_alpha   90.00000000
_cell_angle_beta   90.00000000
_cell_angle_gamma   90.00000000
_symmetry_Int_Tables_number   1
_chemical_formula_structural   In2Ir
_chemical_formula_sum   'In8 Ir4'
_cell_volume   229.18333957
_cell_formula_units_Z   4
loop_
 _symmetry_equiv_pos_site_id
 _symmetry_equiv_pos_as_xyz
  1  'x, y, z'
loop_
 _atom_site_type_symbol
 _atom_site_label
 _atom_site_symmetry_multiplicity
 _atom_site_fract_x
 _atom_site_fract_y
 _atom_site_fract_z
 _atom_site_occupancy
  In  In0  1  0.50000000  0.16103800  0.65349699  1
  In  In1  1  0.50000000  0.65349699  0.83896199  1
  In  In2  1  0.50000000  0.34650300  0.16103800  1
  In  In3  1  0.00000000  0.83896199  0.65349699  1
  In  In4  1  0.50000000  0.83896199  0.34650300  1
  In  In5  1  1.00000000  0.34650300  0.83896199  1
  In  In6  1  0.00000000  0.65349699  0.16103800  1
  In  In7  1  0.00000000  0.16103800  0.34650300  1
  Ir  Ir8  1  0.25000000  0.00000000  0.00000000  1
  Ir  Ir9  1  0.75000000  0.00000000  -0.00000000  1
  Ir  Ir10  1  0.75000000  0.49999999  0.49999999  1
  Ir  Ir11  1  0.25000000  0.49999999  0.49999999  1
