# generated using pymatgen
data_GaS
_symmetry_space_group_name_H-M   'P 1'
_cell_length_a   3.85725617
_cell_length_b   3.85725617
_cell_length_c   19.01215744
_cell_angle_alpha   84.17779541
_cell_angle_beta   84.17779541
_cell_angle_gamma   60.00000000
_symmetry_Int_Tables_number   1
_chemical_formula_structural   GaS
_chemical_formula_sum   'Ga6 S6'
_cell_volume   243.28704364
_cell_formula_units_Z   6
loop_
 _symmetry_equiv_pos_site_id
 _symmetry_equiv_pos_as_xyz
  1  'x, y, z'
loop_
 _atom_site_type_symbol
 _atom_site_label
 _atom_site_symmetry_multiplicity
 _atom_site_fract_x
 _atom_site_fract_y
 _atom_site_fract_z
 _atom_site_occupancy
  S  S0  1  0.55556700  0.55556698  0.33329900  1
  S  S1  1  0.16668100  0.16668099  0.49995701  1
  Ga  Ga2  1  0.38893800  0.38893798  0.83318601  1
  S  S3  1  0.27780200  0.27780199  0.16659400  1
  S  S4  1  0.00001600  0.00001600  0.99995202  1
  Ga  Ga5  1  0.77780700  0.77780697  0.66657901  1
  Ga  Ga6  1  0.59723100  0.59723098  0.20830700  1
  Ga  Ga7  1  0.04168400  0.04168400  0.87494801  1
  S  S8  1  0.43056000  0.43055998  0.70832001  1
  Ga  Ga9  1  0.20828500  0.20828499  0.37514501  1
  Ga  Ga10  1  0.31939500  0.31939499  0.04181500  1
  S  S11  1  0.81943100  0.81943097  0.54170700  1
