# generated using pymatgen
data_BaGaP
_symmetry_space_group_name_H-M   'P 1'
_cell_length_a   4.07659912
_cell_length_b   4.07744694
_cell_length_c   8.77888298
_cell_angle_alpha   90.00000000
_cell_angle_beta   90.00000000
_cell_angle_gamma   119.98760223
_symmetry_Int_Tables_number   1
_chemical_formula_structural   BaGaP
_chemical_formula_sum   'Ba2 Ga2 P2'
_cell_volume   126.38934358
_cell_formula_units_Z   2
loop_
 _symmetry_equiv_pos_site_id
 _symmetry_equiv_pos_as_xyz
  1  'x, y, z'
loop_
 _atom_site_type_symbol
 _atom_site_label
 _atom_site_symmetry_multiplicity
 _atom_site_fract_x
 _atom_site_fract_y
 _atom_site_fract_z
 _atom_site_occupancy
  Ba  Ba0  1  0.99998197  0.00007800  0.99228900  1
  Ba  Ba1  1  0.99998197  0.00007800  0.50771100  1
  P  P2  1  0.66666667  0.33333336  0.75000000  1
  P  P3  1  0.66677334  0.33333336  0.25000000  1
  Ga  Ga4  1  0.33346904  0.66661906  0.75000000  1
  Ga  Ga5  1  0.33328371  0.66666672  0.25000000  1
