# generated using pymatgen
data_Ba2Pb5Au3
_symmetry_space_group_name_H-M   'P 1'
_cell_length_a   4.94840002
_cell_length_b   4.94840002
_cell_length_c   24.48816490
_cell_angle_alpha   90.00000000
_cell_angle_beta   90.00000000
_cell_angle_gamma   90.00000000
_symmetry_Int_Tables_number   1
_chemical_formula_structural   Ba2Pb5Au3
_chemical_formula_sum   'Ba4 Pb10 Au6'
_cell_volume   599.63343565
_cell_formula_units_Z   2
loop_
 _symmetry_equiv_pos_site_id
 _symmetry_equiv_pos_as_xyz
  1  'x, y, z'
loop_
 _atom_site_type_symbol
 _atom_site_label
 _atom_site_symmetry_multiplicity
 _atom_site_fract_x
 _atom_site_fract_y
 _atom_site_fract_z
 _atom_site_occupancy
  Ba  Ba0  1  0.00000000  0.50000000  0.37978599  1
  Ba  Ba1  1  0.50000000  0.00000000  0.62021398  1
  Ba  Ba2  1  0.00000000  0.50000000  0.87114997  1
  Ba  Ba3  1  0.50000000  0.00000000  0.12885000  1
  Pb  Pb4  1  0.00000000  0.00000000  0.74767797  1
  Pb  Pb5  1  0.50000000  0.50000000  0.74767797  1
  Pb  Pb6  1  0.00000000  0.00000000  0.25232199  1
  Pb  Pb7  1  0.50000000  0.50000000  0.25232199  1
  Pb  Pb8  1  0.50000000  0.50000000  -0.00000000  1
  Pb  Pb9  1  0.00000000  0.00000000  0.00000000  1
  Pb  Pb10  1  0.50000000  0.00000000  0.43448598  1
  Pb  Pb11  1  0.00000000  0.50000000  0.56551398  1
  Au  Au12  1  0.50000000  0.00000000  0.31824399  1
  Au  Au13  1  0.00000000  0.50000000  0.68175597  1
  Au  Au14  1  0.00000000  0.00000000  0.49999998  1
  Au  Au15  1  0.50000000  0.50000000  0.49999998  1
  Au  Au16  1  0.50000000  0.00000000  0.81488597  1
  Au  Au17  1  0.00000000  0.50000000  0.18511399  1
  Pb  Pb18  1  0.50000000  0.00000000  0.93405497  1
  Pb  Pb19  1  0.00000000  0.50000000  0.06594500  1
