# generated using pymatgen
data_Ba(V3S4)2
_symmetry_space_group_name_H-M   'P 1'
_cell_length_a   3.26194692
_cell_length_b   9.19626045
_cell_length_c   9.20436382
_cell_angle_alpha   60.02596664
_cell_angle_beta   90.00087738
_cell_angle_gamma   90.00350952
_symmetry_Int_Tables_number   1
_chemical_formula_structural   Ba(V3S4)2
_chemical_formula_sum   'Ba1 V6 S8'
_cell_volume   239.18070205
_cell_formula_units_Z   1
loop_
 _symmetry_equiv_pos_site_id
 _symmetry_equiv_pos_as_xyz
  1  'x, y, z'
loop_
 _atom_site_type_symbol
 _atom_site_label
 _atom_site_symmetry_multiplicity
 _atom_site_fract_x
 _atom_site_fract_y
 _atom_site_fract_z
 _atom_site_occupancy
  Ba  Ba0  1  0.50000001  0.00000000  -0.00000000  1
  V  V1  1  0.74871000  0.88450196  0.62472100  1
  V  V2  1  0.74875201  0.49063898  0.88439299  1
  V  V3  1  0.74867600  0.62479797  0.49071100  1
  V  V4  1  0.25129000  0.11549800  0.37527899  1
  V  V5  1  0.25124799  0.50936098  0.11560701  1
  V  V6  1  0.25132400  0.37520198  0.50928900  1
  S  S7  1  0.75079401  0.33333332  0.33333333  1
  S  S8  1  0.24920599  0.66666664  0.66666667  1
  S  S9  1  0.75327000  0.70353697  0.94951399  1
  S  S10  1  0.75331201  0.34699299  0.70336399  1
  S  S11  1  0.75328999  0.94940696  0.34715401  1
  S  S12  1  0.24673000  0.29646299  0.05048600  1
  S  S13  1  0.24668799  0.65300697  0.29663601  1
  S  S14  1  0.24671000  0.05059300  0.65284599  1
