# generated using pymatgen
data_EuGa4
_symmetry_space_group_name_H-M   'P 1'
_cell_length_a   4.46220398
_cell_length_b   4.46220398
_cell_length_c   6.00562572
_cell_angle_alpha   111.80828094
_cell_angle_beta   111.80828094
_cell_angle_gamma   90.00000000
_symmetry_Int_Tables_number   1
_chemical_formula_structural   EuGa4
_chemical_formula_sum   'Eu1 Ga4'
_cell_volume   101.74618483
_cell_formula_units_Z   1
loop_
 _symmetry_equiv_pos_site_id
 _symmetry_equiv_pos_as_xyz
  1  'x, y, z'
loop_
 _atom_site_type_symbol
 _atom_site_label
 _atom_site_symmetry_multiplicity
 _atom_site_fract_x
 _atom_site_fract_y
 _atom_site_fract_z
 _atom_site_occupancy
  Eu  Eu0  1  0.00000000  0.00000000  0.00000000  1
  Ga  Ga1  1  0.61663401  0.61663401  0.23326800  1
  Ga  Ga2  1  0.38336601  0.38336600  0.76673198  1
  Ga  Ga3  1  0.75000001  0.25000000  0.49999999  1
  Ga  Ga4  1  0.25000001  0.75000001  0.49999999  1
