# generated using pymatgen
data_CrS2
_symmetry_space_group_name_H-M   'P 1'
_cell_length_a   3.43905210
_cell_length_b   4.83423901
_cell_length_c   7.57864189
_cell_angle_alpha   90.00000000
_cell_angle_beta   90.00000000
_cell_angle_gamma   90.00000000
_symmetry_Int_Tables_number   1
_chemical_formula_structural   CrS2
_chemical_formula_sum   'Cr2 S4'
_cell_volume   125.99643588
_cell_formula_units_Z   2
loop_
 _symmetry_equiv_pos_site_id
 _symmetry_equiv_pos_as_xyz
  1  'x, y, z'
loop_
 _atom_site_type_symbol
 _atom_site_label
 _atom_site_symmetry_multiplicity
 _atom_site_fract_x
 _atom_site_fract_y
 _atom_site_fract_z
 _atom_site_occupancy
  Cr  Cr0  1  0.49999998  0.00000000  0.39622301  1
  Cr  Cr1  1  0.00000000  0.50000000  0.60377701  1
  S  S2  1  0.00000000  0.00000000  0.62543801  1
  S  S3  1  0.49999998  0.50000000  0.37456201  1
  S  S4  1  0.00000000  0.00000000  0.16459000  1
  S  S5  1  0.49999998  0.50000000  0.83541001  1
