# generated using pymatgen
data_LaCuO3
_symmetry_space_group_name_H-M   'P 1'
_cell_length_a   3.89038992
_cell_length_b   5.83558989
_cell_length_c   7.98778963
_cell_angle_alpha   108.90537262
_cell_angle_beta   90.00000000
_cell_angle_gamma   90.00000000
_symmetry_Int_Tables_number   1
_chemical_formula_structural   LaCuO3
_chemical_formula_sum   'La2 Cu2 O6'
_cell_volume   171.56191662
_cell_formula_units_Z   2
loop_
 _symmetry_equiv_pos_site_id
 _symmetry_equiv_pos_as_xyz
  1  'x, y, z'
loop_
 _atom_site_type_symbol
 _atom_site_label
 _atom_site_symmetry_multiplicity
 _atom_site_fract_x
 _atom_site_fract_y
 _atom_site_fract_z
 _atom_site_occupancy
  La  La0  1  0.25000001  0.74175001  0.68947997  1
  La  La1  1  0.75000002  0.25825000  0.31051999  1
  Cu  Cu2  1  0.25000001  0.64479001  0.16916998  1
  Cu  Cu3  1  0.75000002  0.35521000  0.83082998  1
  O  O4  1  0.25000001  0.54149001  0.36688998  1
  O  O5  1  0.25000001  0.96873001  0.23701998  1
  O  O6  1  0.75000002  0.45851000  0.63310998  1
  O  O7  1  0.25000001  0.47986000  0.89025998  1
  O  O8  1  0.75000002  0.52014001  0.10973999  1
  O  O9  1  0.75000002  0.03127000  0.76297999  1
