# generated using pymatgen
data_Mo7(CS2)3
_symmetry_space_group_name_H-M   'P 1'
_cell_length_a   5.73817587
_cell_length_b   5.73831797
_cell_length_c   8.86134815
_cell_angle_alpha   83.79293060
_cell_angle_beta   77.51116943
_cell_angle_gamma   60.00081635
_symmetry_Int_Tables_number   1
_chemical_formula_structural   Mo7(CS2)3
_chemical_formula_sum   'Mo7 C3 S6'
_cell_volume   246.71340194
_cell_formula_units_Z   1
loop_
 _symmetry_equiv_pos_site_id
 _symmetry_equiv_pos_as_xyz
  1  'x, y, z'
loop_
 _atom_site_type_symbol
 _atom_site_label
 _atom_site_symmetry_multiplicity
 _atom_site_fract_x
 _atom_site_fract_y
 _atom_site_fract_z
 _atom_site_occupancy
  Mo  Mo0  1  0.21096300  0.33317700  0.36705400  1
  Mo  Mo1  1  0.87759003  0.00000000  0.36824300  1
  Mo  Mo2  1  0.54414001  0.66682300  0.36705398  1
  Mo  Mo3  1  0.78903701  0.66682300  0.63294598  1
  Mo  Mo4  1  0.45586001  0.33317700  0.63294600  1
  Mo  Mo5  1  0.12240999  1.00000000  0.63175699  1
  Mo  Mo6  1  0.00000000  0.00000000  0.00000000  1
  C  C7  1  0.50000002  0.00000000  0.50000001  1
  C  C8  1  0.16765899  0.66468200  0.49999999  1
  C  C9  1  0.83234102  0.33531800  0.49999999  1
  S  S10  1  0.05801700  0.33572400  0.82629002  1
  S  S11  1  0.72205402  0.00000000  0.82673402  1
  S  S12  1  0.39374100  0.66427600  0.82629000  1
  S  S13  1  0.94198302  0.66427600  0.17370996  1
  S  S14  1  0.60625901  0.33572400  0.17370998  1
  S  S15  1  0.27794601  0.00000000  0.17326600  1
