# generated using pymatgen
data_Ba9LaYS9
_symmetry_space_group_name_H-M   'P 1'
_cell_length_a   7.30558205
_cell_length_b   7.76749611
_cell_length_c   10.93136311
_cell_angle_alpha   90.00000000
_cell_angle_beta   90.59147644
_cell_angle_gamma   90.00000000
_symmetry_Int_Tables_number   1
_chemical_formula_structural   Ba9LaYS9
_chemical_formula_sum   'Ba9 La1 Y1 S9'
_cell_volume   620.27895400
_cell_formula_units_Z   1
loop_
 _symmetry_equiv_pos_site_id
 _symmetry_equiv_pos_as_xyz
  1  'x, y, z'
loop_
 _atom_site_type_symbol
 _atom_site_label
 _atom_site_symmetry_multiplicity
 _atom_site_fract_x
 _atom_site_fract_y
 _atom_site_fract_z
 _atom_site_occupancy
  Ba  Ba0  1  0.50000000  0.49999999  1.00000003  1
  Ba  Ba1  1  0.02803100  0.41489999  0.73516602  1
  Ba  Ba2  1  0.47196900  0.91489999  0.76483402  1
  Y  Y3  1  0.99999999  0.00000000  0.50000000  1
  Ba  Ba4  1  0.52803100  0.08510000  0.23516600  1
  Ba  Ba5  1  0.97196899  0.58509999  0.26483400  1
  La  La6  1  0.50000000  0.49999999  0.50000001  1
  Ba  Ba7  1  0.00000000  0.00000000  0.00000000  1
  S  S8  1  0.81611399  0.32107700  0.43470000  1
  Ba  Ba9  1  0.68388600  0.82107699  0.06529999  1
  S  S10  1  0.16836600  0.69388399  0.91980603  1
  S  S11  1  0.33163400  0.19388400  0.58019401  1
  Ba  Ba12  1  0.83163399  0.30611600  0.08019399  1
  S  S13  1  0.66836600  0.80611599  0.41980600  1
  S  S14  1  0.14130200  0.93710099  0.23797601  1
  S  S15  1  0.35869800  0.43710099  0.26202400  1
  Ba  Ba16  1  0.85869799  0.06289900  0.76202401  1
  S  S17  1  0.64130200  0.56289899  0.73797602  1
  S  S18  1  0.31611400  0.17892300  0.93470003  1
  S  S19  1  0.18388600  0.67892299  0.56530002  1
