# generated using pymatgen
data_BaSiGeN2
_symmetry_space_group_name_H-M   'P 1'
_cell_length_a   4.57045794
_cell_length_b   4.57045841
_cell_length_c   4.91915798
_cell_angle_alpha   90.00000000
_cell_angle_beta   90.00000000
_cell_angle_gamma   120.00000000
_symmetry_Int_Tables_number   1
_chemical_formula_structural   BaSiGeN2
_chemical_formula_sum   'Ba1 Si1 Ge1 N2'
_cell_volume   88.98993302
_cell_formula_units_Z   1
loop_
 _symmetry_equiv_pos_site_id
 _symmetry_equiv_pos_as_xyz
  1  'x, y, z'
loop_
 _atom_site_type_symbol
 _atom_site_label
 _atom_site_symmetry_multiplicity
 _atom_site_fract_x
 _atom_site_fract_y
 _atom_site_fract_z
 _atom_site_occupancy
  Ba  Ba0  1  0.00000000  0.00000000  0.00000000  1
  N  N1  1  0.66666669  0.33333333  0.53160400  1
  Ge  Ge2  1  0.33333336  0.66666665  0.46839600  1
  Si  Si3  1  0.66666669  0.33333333  0.87548500  1
  N  N4  1  0.33333336  0.66666665  0.12451500  1
