# generated using pymatgen
data_CdHgClO
_symmetry_space_group_name_H-M   'P 1'
_cell_length_a   3.03251696
_cell_length_b   4.68066597
_cell_length_c   4.83263206
_cell_angle_alpha   118.96511841
_cell_angle_beta   90.00000000
_cell_angle_gamma   90.00000000
_symmetry_Int_Tables_number   1
_chemical_formula_structural   CdHgClO
_chemical_formula_sum   'Cd1 Hg1 Cl1 O1'
_cell_volume   60.01507181
_cell_formula_units_Z   1
loop_
 _symmetry_equiv_pos_site_id
 _symmetry_equiv_pos_as_xyz
  1  'x, y, z'
loop_
 _atom_site_type_symbol
 _atom_site_label
 _atom_site_symmetry_multiplicity
 _atom_site_fract_x
 _atom_site_fract_y
 _atom_site_fract_z
 _atom_site_occupancy
  Cd  Cd0  1  0.00000000  0.00000000  0.00000000  1
  Cl  Cl1  1  0.50000001  0.32868500  0.65737003  1
  Hg  Hg2  1  0.50000001  0.67131500  0.34263001  1
  O  O3  1  0.00000000  0.50000000  -0.00000000  1
