# generated using pymatgen
data_EuGa4
_symmetry_space_group_name_H-M   'P 1'
_cell_length_a   4.37593985
_cell_length_b   4.37593985
_cell_length_c   6.30351019
_cell_angle_alpha   110.31024933
_cell_angle_beta   110.31024933
_cell_angle_gamma   90.00000000
_symmetry_Int_Tables_number   1
_chemical_formula_structural   EuGa4
_chemical_formula_sum   'Eu1 Ga4'
_cell_volume   105.16156212
_cell_formula_units_Z   1
loop_
 _symmetry_equiv_pos_site_id
 _symmetry_equiv_pos_as_xyz
  1  'x, y, z'
loop_
 _atom_site_type_symbol
 _atom_site_label
 _atom_site_symmetry_multiplicity
 _atom_site_fract_x
 _atom_site_fract_y
 _atom_site_fract_z
 _atom_site_occupancy
  Eu  Eu0  1  0.98854401  0.98854402  0.97708793  1
  Ga  Ga1  1  0.39829200  0.39829201  0.79658396  1
  Ga  Ga2  1  0.25088099  0.75088102  0.50176196  1
  Ga  Ga3  1  0.75088102  0.25088101  0.50176196  1
  Ga  Ga4  1  0.62740100  0.62740102  0.25480197  1
