# generated using pymatgen
data_Si3B2Os13
_symmetry_space_group_name_H-M   'P 1'
_cell_length_a   5.24465990
_cell_length_b   7.14565182
_cell_length_c   7.14565182
_cell_angle_alpha   120.00000000
_cell_angle_beta   90.00000000
_cell_angle_gamma   90.00000000
_symmetry_Int_Tables_number   1
_chemical_formula_structural   Si3B2Os13
_chemical_formula_sum   'Si3 B2 Os13'
_cell_volume   231.91650844
_cell_formula_units_Z   1
loop_
 _symmetry_equiv_pos_site_id
 _symmetry_equiv_pos_as_xyz
  1  'x, y, z'
loop_
 _atom_site_type_symbol
 _atom_site_label
 _atom_site_symmetry_multiplicity
 _atom_site_fract_x
 _atom_site_fract_y
 _atom_site_fract_z
 _atom_site_occupancy
  Si  Si0  1  0.50000001  0.33333334  0.66666667  1
  Si  Si1  1  0.50000001  0.66666668  0.33333333  1
  Os  Os2  1  0.00000000  0.66666668  0.33333333  1
  Os  Os3  1  1.00000002  0.33333334  0.66666667  1
  Si  Si4  1  0.75000001  0.22271200  -0.00000000  1
  Os  Os5  1  0.75000001  0.77728801  0.77728799  1
  Os  Os6  1  0.75000001  0.00000000  0.22271200  1
  Os  Os7  1  0.25000000  0.77728801  -0.00000001  1
  Os  Os8  1  0.25000000  0.22271200  0.22271200  1
  Os  Os9  1  0.25000000  0.00000000  0.77728800  1
  Os  Os10  1  0.75000001  0.59775701  -0.00000001  1
  Os  Os11  1  0.75000001  0.40224301  0.40224300  1
  Os  Os12  1  0.75000001  0.00000000  0.59775700  1
  Os  Os13  1  0.25000000  0.40224301  1.00000000  1
  Os  Os14  1  0.25000000  0.59775701  0.59775700  1
  Os  Os15  1  0.25000000  0.00000000  0.40224300  1
  B  B16  1  0.50000001  0.00000000  -0.00000000  1
  B  B17  1  0.00000000  0.00000000  0.00000000  1
