# generated using pymatgen
data_NaCrF3
_symmetry_space_group_name_H-M   'P 1'
_cell_length_a   3.16105604
_cell_length_b   5.21010303
_cell_length_c   7.37753105
_cell_angle_alpha   90.00000000
_cell_angle_beta   90.00000000
_cell_angle_gamma   107.65942383
_symmetry_Int_Tables_number   1
_chemical_formula_structural   NaCrF3
_chemical_formula_sum   'Na2 Cr2 F6'
_cell_volume   115.77804048
_cell_formula_units_Z   2
loop_
 _symmetry_equiv_pos_site_id
 _symmetry_equiv_pos_as_xyz
  1  'x, y, z'
loop_
 _atom_site_type_symbol
 _atom_site_label
 _atom_site_symmetry_multiplicity
 _atom_site_fract_x
 _atom_site_fract_y
 _atom_site_fract_z
 _atom_site_occupancy
  Na  Na0  1  0.25061501  0.50123000  0.74999999  1
  Na  Na1  1  0.74938501  0.49877000  0.25000000  1
  Cr  Cr2  1  0.00000000  0.00000000  0.50000000  1
  Cr  Cr3  1  0.00000000  0.00000000  0.00000000  1
  F  F4  1  0.92317501  0.84634999  0.74999999  1
  F  F5  1  0.07682500  0.15365000  0.25000000  1
  F  F6  1  0.62708000  0.25416000  0.55221900  1
  F  F7  1  0.37292002  0.74584000  0.44778100  1
  F  F8  1  0.62708000  0.25416000  0.94778099  1
  F  F9  1  0.37292002  0.74584000  0.05221900  1
