# generated using pymatgen
data_CaMoO3
_symmetry_space_group_name_H-M   'P 1'
_cell_length_a   5.46758604
_cell_length_b   5.69891596
_cell_length_c   7.81508017
_cell_angle_alpha   90.00000000
_cell_angle_beta   89.83596039
_cell_angle_gamma   90.00000000
_symmetry_Int_Tables_number   1
_chemical_formula_structural   CaMoO3
_chemical_formula_sum   'Ca4 Mo4 O12'
_cell_volume   243.51153364
_cell_formula_units_Z   4
loop_
 _symmetry_equiv_pos_site_id
 _symmetry_equiv_pos_as_xyz
  1  'x, y, z'
loop_
 _atom_site_type_symbol
 _atom_site_label
 _atom_site_symmetry_multiplicity
 _atom_site_fract_x
 _atom_site_fract_y
 _atom_site_fract_z
 _atom_site_occupancy
  Ca  Ca0  1  0.48597700  0.05958300  0.24870900  1
  Ca  Ca1  1  0.51402300  0.94041701  0.75129100  1
  Ca  Ca2  1  0.01402300  0.55958300  0.25129100  1
  Ca  Ca3  1  0.98597699  0.44041700  0.74870901  1
  Mo  Mo4  1  0.50000000  0.50000000  0.00000001  1
  Mo  Mo5  1  0.00000000  0.00000000  0.49999999  1
  Mo  Mo6  1  0.50000000  0.50000000  0.50000000  1
  Mo  Mo7  1  0.00000000  0.00000000  0.00000000  1
  O  O8  1  0.59280000  0.47277400  0.25420201  1
  O  O9  1  0.40720000  0.52722600  0.74579799  1
  O  O10  1  0.90719999  0.97277401  0.24579801  1
  O  O11  1  0.09280000  0.02722600  0.75420199  1
  O  O12  1  0.30818300  0.79152301  0.44987000  1
  O  O13  1  0.69181699  0.20847700  0.55013000  1
  O  O14  1  0.19181700  0.29152300  0.05013000  1
  O  O15  1  0.80818299  0.70847701  0.94987000  1
  O  O16  1  0.20360300  0.30463000  0.45434300  1
  O  O17  1  0.79639699  0.69537001  0.54565701  1
  O  O18  1  0.29639700  0.80463001  0.04565700  1
  O  O19  1  0.70360299  0.19537000  0.95434300  1
