# generated using pymatgen
data_Lu5Bi3
_symmetry_space_group_name_H-M   'P 1'
_cell_length_a   6.70408821
_cell_length_b   8.93149757
_cell_length_c   8.93149757
_cell_angle_alpha   120.00000000
_cell_angle_beta   90.00000000
_cell_angle_gamma   90.00000000
_symmetry_Int_Tables_number   1
_chemical_formula_structural   Lu5Bi3
_chemical_formula_sum   'Lu10 Bi6'
_cell_volume   463.14706997
_cell_formula_units_Z   2
loop_
 _symmetry_equiv_pos_site_id
 _symmetry_equiv_pos_as_xyz
  1  'x, y, z'
loop_
 _atom_site_type_symbol
 _atom_site_label
 _atom_site_symmetry_multiplicity
 _atom_site_fract_x
 _atom_site_fract_y
 _atom_site_fract_z
 _atom_site_occupancy
  Lu  Lu0  1  0.00000000  0.33333335  0.66666668  1
  Lu  Lu1  1  -0.00000000  0.66666670  0.33333334  1
  Lu  Lu2  1  0.49999998  0.66666670  0.33333334  1
  Lu  Lu3  1  0.49999998  0.33333335  0.66666668  1
  Lu  Lu4  1  0.24999999  0.23691301  1.00000003  1
  Lu  Lu5  1  0.24999999  0.76308703  0.76308702  1
  Lu  Lu6  1  0.24999999  0.00000000  0.23691301  1
  Lu  Lu7  1  0.74999998  0.76308703  -0.00000001  1
  Lu  Lu8  1  0.74999998  0.23691301  0.23691301  1
  Lu  Lu9  1  0.74999998  1.00000004  0.76308701  1
  Bi  Bi10  1  0.24999999  0.59906003  1.00000003  1
  Bi  Bi11  1  0.24999999  0.40094002  0.40094001  1
  Bi  Bi12  1  0.24999999  0.00000000  0.59906002  1
  Bi  Bi13  1  0.74999998  0.40094002  1.00000003  1
  Bi  Bi14  1  0.74999998  0.59906003  0.59906001  1
  Bi  Bi15  1  0.74999998  1.00000004  0.40094000  1
