# generated using pymatgen
data_BaHg
_symmetry_space_group_name_H-M   'P 1'
_cell_length_a   4.15761709
_cell_length_b   5.06112003
_cell_length_c   6.56749487
_cell_angle_alpha   112.66335297
_cell_angle_beta   90.00000000
_cell_angle_gamma   90.00000000
_symmetry_Int_Tables_number   1
_chemical_formula_structural   BaHg
_chemical_formula_sum   'Ba2 Hg2'
_cell_volume   127.52380675
_cell_formula_units_Z   2
loop_
 _symmetry_equiv_pos_site_id
 _symmetry_equiv_pos_as_xyz
  1  'x, y, z'
loop_
 _atom_site_type_symbol
 _atom_site_label
 _atom_site_symmetry_multiplicity
 _atom_site_fract_x
 _atom_site_fract_y
 _atom_site_fract_z
 _atom_site_occupancy
  Ba  Ba0  1  0.74999998  0.86039500  0.72079001  1
  Ba  Ba1  1  0.24999999  0.13960500  0.27921000  1
  Hg  Hg2  1  0.74999998  0.55757900  0.11515801  1
  Hg  Hg3  1  0.24999999  0.44242100  0.88484200  1
