# generated using pymatgen
data_Ba2(LuS3)3
_symmetry_space_group_name_H-M   'P 1'
_cell_length_a   6.57321405
_cell_length_b   6.57321405
_cell_length_c   11.26526737
_cell_angle_alpha   90.00000000
_cell_angle_beta   90.00000000
_cell_angle_gamma   116.87748718
_symmetry_Int_Tables_number   1
_chemical_formula_structural   Ba2(LuS3)3
_chemical_formula_sum   'Ba2 Lu3 S9'
_cell_volume   434.16004107
_cell_formula_units_Z   1
loop_
 _symmetry_equiv_pos_site_id
 _symmetry_equiv_pos_as_xyz
  1  'x, y, z'
loop_
 _atom_site_type_symbol
 _atom_site_label
 _atom_site_symmetry_multiplicity
 _atom_site_fract_x
 _atom_site_fract_y
 _atom_site_fract_z
 _atom_site_occupancy
  Ba  Ba0  1  0.50000001  0.50000000  0.24999999  1
  Ba  Ba1  1  0.50000001  0.50000000  0.74999998  1
  Lu  Lu2  1  0.23056403  0.77107600  0.49999998  1
  Lu  Lu3  1  0.76943599  0.22892400  0.49999998  1
  Lu  Lu4  1  0.22892403  0.76943600  -0.00000000  1
  S  S5  1  0.77107599  0.23056400  -0.00000000  1
  S  S6  1  0.20745501  0.35685700  0.49999998  1
  S  S7  1  0.79254501  0.64314300  0.49999998  1
  S  S8  1  0.64314303  0.79254500  0.99999997  1
  S  S9  1  0.35685700  0.20745500  0.99999997  1
  S  S10  1  0.00000002  0.50000000  0.17730899  1
  S  S11  1  0.49999999  0.00000000  0.32269099  1
  S  S12  1  0.00000002  0.50000000  0.82269097  1
  S  S13  1  0.49999999  0.00000000  0.67730898  1
