# generated using pymatgen
data_Ga5Pt3
_symmetry_space_group_name_H-M   'P 1'
_cell_length_a   3.79406810
_cell_length_b   3.79406810
_cell_length_c   8.24546623
_cell_angle_alpha   103.30119324
_cell_angle_beta   103.30119324
_cell_angle_gamma   90.00000000
_symmetry_Int_Tables_number   1
_chemical_formula_structural   Ga5Pt3
_chemical_formula_sum   'Ga5 Pt3'
_cell_volume   112.23470014
_cell_formula_units_Z   1
loop_
 _symmetry_equiv_pos_site_id
 _symmetry_equiv_pos_as_xyz
  1  'x, y, z'
loop_
 _atom_site_type_symbol
 _atom_site_label
 _atom_site_symmetry_multiplicity
 _atom_site_fract_x
 _atom_site_fract_y
 _atom_site_fract_z
 _atom_site_occupancy
  Ga  Ga0  1  0.62897400  0.62897399  0.25794802  1
  Ga  Ga1  1  0.37102600  0.37102599  0.74205198  1
  Ga  Ga2  1  1.00000000  0.49999999  0.99999998  1
  Pt  Pt3  1  0.49999999  0.00000000  0.00000001  1
  Ga  Ga4  1  0.25000001  0.74999999  0.50000000  1
  Pt  Pt5  1  0.74999999  0.25000000  0.50000000  1
  Pt  Pt6  1  0.88294101  0.88294099  0.76588200  1
  Ga  Ga7  1  0.11705900  0.11705900  0.23411799  1
