# generated using pymatgen
data_BiClO
_symmetry_space_group_name_H-M   'P 1'
_cell_length_a   4.07009077
_cell_length_b   4.07009077
_cell_length_c   7.08246088
_cell_angle_alpha   90.00000000
_cell_angle_beta   90.00000000
_cell_angle_gamma   90.00000000
_symmetry_Int_Tables_number   1
_chemical_formula_structural   BiClO
_chemical_formula_sum   'Bi2 Cl2 O2'
_cell_volume   117.32548934
_cell_formula_units_Z   2
loop_
 _symmetry_equiv_pos_site_id
 _symmetry_equiv_pos_as_xyz
  1  'x, y, z'
loop_
 _atom_site_type_symbol
 _atom_site_label
 _atom_site_symmetry_multiplicity
 _atom_site_fract_x
 _atom_site_fract_y
 _atom_site_fract_z
 _atom_site_occupancy
  Cl  Cl0  1  0.00000000  0.50000003  0.31330001  1
  Cl  Cl1  1  0.50000003  0.00000000  0.68670001  1
  O  O2  1  0.00000000  0.00000000  0.00000000  1
  O  O3  1  0.50000003  0.50000003  0.00000000  1
  Bi  Bi4  1  0.00000000  0.50000003  0.84201401  1
  Bi  Bi5  1  0.50000003  0.00000000  0.15798600  1
