# generated using pymatgen
data_Ho2Ga5Pd
_symmetry_space_group_name_H-M   'P 1'
_cell_length_a   4.39651203
_cell_length_b   5.49704933
_cell_length_c   6.62556410
_cell_angle_alpha   90.00000000
_cell_angle_beta   90.00000000
_cell_angle_gamma   113.57176971
_symmetry_Int_Tables_number   1
_chemical_formula_structural   Ho2Ga5Pd
_chemical_formula_sum   'Ho2 Ga5 Pd1'
_cell_volume   146.76469659
_cell_formula_units_Z   1
loop_
 _symmetry_equiv_pos_site_id
 _symmetry_equiv_pos_as_xyz
  1  'x, y, z'
loop_
 _atom_site_type_symbol
 _atom_site_label
 _atom_site_symmetry_multiplicity
 _atom_site_fract_x
 _atom_site_fract_y
 _atom_site_fract_z
 _atom_site_occupancy
  Ho  Ho0  1  0.08697101  0.17394201  0.25000000  1
  Ho  Ho1  1  0.91302904  0.82605803  0.74999999  1
  Ga  Ga2  1  0.37199104  0.74398202  0.05219100  1
  Ga  Ga3  1  0.62800901  0.25601801  0.94780899  1
  Ga  Ga4  1  0.62800901  0.25601801  0.55219099  1
  Ga  Ga5  1  0.37199104  0.74398202  0.44780899  1
  Ga  Ga6  1  0.79935203  0.59870402  0.25000000  1
  Pd  Pd7  1  0.20064802  0.40129601  0.74999999  1
