# generated using pymatgen
data_Cs2SbF4
_symmetry_space_group_name_H-M   'P 1'
_cell_length_a   5.65791416
_cell_length_b   6.90721607
_cell_length_c   9.16616058
_cell_angle_alpha   104.31304169
_cell_angle_beta   90.00000000
_cell_angle_gamma   90.00000000
_symmetry_Int_Tables_number   1
_chemical_formula_structural   Cs2SbF4
_chemical_formula_sum   'Cs4 Sb2 F8'
_cell_volume   347.09829123
_cell_formula_units_Z   2
loop_
 _symmetry_equiv_pos_site_id
 _symmetry_equiv_pos_as_xyz
  1  'x, y, z'
loop_
 _atom_site_type_symbol
 _atom_site_label
 _atom_site_symmetry_multiplicity
 _atom_site_fract_x
 _atom_site_fract_y
 _atom_site_fract_z
 _atom_site_occupancy
  Cs  Cs0  1  0.74999998  0.25985900  0.04209300  1
  Cs  Cs1  1  0.24999999  0.74014100  0.95790698  1
  Cs  Cs2  1  0.74999998  0.25280800  0.55606699  1
  Cs  Cs3  1  0.24999999  0.74719200  0.44393300  1
  Sb  Sb4  1  0.24999999  0.24645500  0.32658999  1
  Sb  Sb5  1  0.74999998  0.75354500  0.67340999  1
  F  F6  1  0.24999999  0.43204000  0.17793800  1
  F  F7  1  0.74999998  0.56796000  0.82206198  1
  F  F8  1  0.74999998  0.60981400  0.44329700  1
  F  F9  1  0.24999999  0.39018600  0.55670299  1
  F  F10  1  0.99064397  0.00677500  0.27972999  1
  F  F11  1  0.49064399  0.99322500  0.72027000  1
  F  F12  1  0.50935599  0.00677500  0.27972999  1
  F  F13  1  0.00935600  0.99322500  0.72027000  1
