# generated using pymatgen
data_LaSe15
_symmetry_space_group_name_H-M   'P 1'
_cell_length_a   4.33109188
_cell_length_b   9.35579109
_cell_length_c   10.85859871
_cell_angle_alpha   98.07482910
_cell_angle_beta   90.00000000
_cell_angle_gamma   103.38338470
_symmetry_Int_Tables_number   1
_chemical_formula_structural   LaSe15
_chemical_formula_sum   'La1 Se15'
_cell_volume   423.56453791
_cell_formula_units_Z   1
loop_
 _symmetry_equiv_pos_site_id
 _symmetry_equiv_pos_as_xyz
  1  'x, y, z'
loop_
 _atom_site_type_symbol
 _atom_site_label
 _atom_site_symmetry_multiplicity
 _atom_site_fract_x
 _atom_site_fract_y
 _atom_site_fract_z
 _atom_site_occupancy
  La  La0  1  0.68373498  0.36746999  0.14805200  1
  Se  Se1  1  0.53204301  0.06408600  0.83137200  1
  Se  Se2  1  0.38315994  0.76631998  0.50950100  1
  Se  Se3  1  0.31626495  0.63252998  0.85194800  1
  Se  Se4  1  0.46795692  0.93591397  0.16862799  1
  Se  Se5  1  0.61683999  0.23367999  0.49049900  1
  Se  Se6  1  0.97579693  0.95159397  0.38333399  1
  Se  Se7  1  0.90400995  0.80801998  0.71839700  1
  Se  Se8  1  0.09598998  0.19197999  0.28160300  1
  Se  Se9  1  0.92975994  0.85951997  0.95586500  1
  Se  Se10  1  0.02420300  0.04840600  0.61666600  1
  Se  Se11  1  0.07023999  0.14048000  0.04413500  1
  Se  Se12  1  0.77362197  0.54724398  0.39251600  1
  Se  Se13  1  0.29874595  0.59749198  0.12641700  1
  Se  Se14  1  0.70125398  0.40250799  0.87358300  1
  Se  Se15  1  0.22637796  0.45275599  0.60748400  1
