# generated using pymatgen
data_Cs5BaInS8
_symmetry_space_group_name_H-M   'P 1'
_cell_length_a   4.20230389
_cell_length_b   4.20230293
_cell_length_c   24.93014145
_cell_angle_alpha   90.00000000
_cell_angle_beta   90.00000000
_cell_angle_gamma   120.00000763
_symmetry_Int_Tables_number   1
_chemical_formula_structural   Cs5BaInS8
_chemical_formula_sum   'Cs5 Ba1 In1 S8'
_cell_volume   381.26782079
_cell_formula_units_Z   1
loop_
 _symmetry_equiv_pos_site_id
 _symmetry_equiv_pos_as_xyz
  1  'x, y, z'
loop_
 _atom_site_type_symbol
 _atom_site_label
 _atom_site_symmetry_multiplicity
 _atom_site_fract_x
 _atom_site_fract_y
 _atom_site_fract_z
 _atom_site_occupancy
  Cs  Cs0  1  0.00000000  0.00000000  0.89953202  1
  S  S1  1  0.00000000  0.00000000  0.10046800  1
  Cs  Cs2  1  0.00000000  0.00000000  0.30027901  1
  Cs  Cs3  1  0.00000000  0.00000000  0.50000001  1
  S  S4  1  0.00000000  0.00000000  0.69972102  1
  S  S5  1  0.66666669  0.33333335  0.38030501  1
  S  S6  1  0.66666669  0.33333335  0.58021001  1
  In  In7  1  0.66666669  0.33333335  0.77855002  1
  S  S8  1  0.66666669  0.33333335  0.98046402  1
  Cs  Cs9  1  0.66666669  0.33333335  0.18241600  1
  S  S10  1  0.33333335  0.66666670  0.41979001  1
  Ba  Ba11  1  0.33333335  0.66666670  0.61969501  1
  S  S12  1  0.33333335  0.66666670  0.81758402  1
  Cs  Cs13  1  0.33333335  0.66666670  0.01953600  1
  S  S14  1  0.33333335  0.66666670  0.22145000  1
