# generated using pymatgen
data_Pm3Cd
_symmetry_space_group_name_H-M   'P 1'
_cell_length_a   5.37060404
_cell_length_b   6.98940182
_cell_length_c   6.98940229
_cell_angle_alpha   60.00000000
_cell_angle_beta   90.00000000
_cell_angle_gamma   90.00000000
_symmetry_Int_Tables_number   1
_chemical_formula_structural   Pm3Cd
_chemical_formula_sum   'Pm6 Cd2'
_cell_volume   227.21333306
_cell_formula_units_Z   2
loop_
 _symmetry_equiv_pos_site_id
 _symmetry_equiv_pos_as_xyz
  1  'x, y, z'
loop_
 _atom_site_type_symbol
 _atom_site_label
 _atom_site_symmetry_multiplicity
 _atom_site_fract_x
 _atom_site_fract_y
 _atom_site_fract_z
 _atom_site_occupancy
  Pm  Pm0  1  0.74999999  0.33333335  0.33333332  1
  Pm  Pm1  1  0.25000000  0.66666669  0.66666665  1
  Cd  Cd2  1  0.74999999  0.84265403  0.31469198  1
  Pm  Pm3  1  0.74999999  0.31469301  0.84265299  1
  Pm  Pm4  1  0.74999999  0.84265403  0.84265298  1
  Cd  Cd5  1  0.25000000  0.15734601  0.68530799  1
  Pm  Pm6  1  0.25000000  0.68530703  0.15734698  1
  Pm  Pm7  1  0.25000000  0.15734601  0.15734700  1
