# generated using pymatgen
data_HoGe
_symmetry_space_group_name_H-M   'P 1'
_cell_length_a   3.84254599
_cell_length_b   4.28920221
_cell_length_c   5.69978571
_cell_angle_alpha   67.89779663
_cell_angle_beta   90.00000000
_cell_angle_gamma   90.00000000
_symmetry_Int_Tables_number   1
_chemical_formula_structural   HoGe
_chemical_formula_sum   'Ho2 Ge2'
_cell_volume   87.03745533
_cell_formula_units_Z   2
loop_
 _symmetry_equiv_pos_site_id
 _symmetry_equiv_pos_as_xyz
  1  'x, y, z'
loop_
 _atom_site_type_symbol
 _atom_site_label
 _atom_site_symmetry_multiplicity
 _atom_site_fract_x
 _atom_site_fract_y
 _atom_site_fract_z
 _atom_site_occupancy
  Ge  Ge0  1  0.75000000  0.14021499  0.71957000  1
  Ge  Ge1  1  0.25000000  0.85978494  0.28043003  1
  Ho  Ho2  1  0.75000000  0.42396397  0.15207202  1
  Ho  Ho3  1  0.25000000  0.57603596  0.84792801  1
