# generated using pymatgen
data_BaNaLiSi4N5
_symmetry_space_group_name_H-M   'P 1'
_cell_length_a   6.08966398
_cell_length_b   6.08966446
_cell_length_c   6.20974493
_cell_angle_alpha   90.00000000
_cell_angle_beta   90.00000000
_cell_angle_gamma   120.00000000
_symmetry_Int_Tables_number   1
_chemical_formula_structural   BaNaLiSi4N5
_chemical_formula_sum   'Ba1 Na1 Li1 Si4 N5'
_cell_volume   199.43027429
_cell_formula_units_Z   1
loop_
 _symmetry_equiv_pos_site_id
 _symmetry_equiv_pos_as_xyz
  1  'x, y, z'
loop_
 _atom_site_type_symbol
 _atom_site_label
 _atom_site_symmetry_multiplicity
 _atom_site_fract_x
 _atom_site_fract_y
 _atom_site_fract_z
 _atom_site_occupancy
  Ba  Ba0  1  0.33333335  0.66666665  0.75000001  1
  Na  Na1  1  0.66666668  0.33333333  0.25000000  1
  N  N2  1  0.00000000  0.00000000  0.00000000  1
  Li  Li3  1  0.00000000  0.00000000  0.50000001  1
  N  N4  1  0.83194401  0.16805700  0.75000001  1
  N  N5  1  0.83194402  0.66388798  0.75000001  1
  N  N6  1  0.33611301  0.16805700  0.75000001  1
  Si  Si7  1  0.66388702  0.83194298  0.25000000  1
  Si  Si8  1  0.16805601  0.33611199  0.25000000  1
  Si  Si9  1  0.16805602  0.83194298  0.25000000  1
  Si  Si10  1  0.66666668  0.33333333  0.75000001  1
  N  N11  1  0.33333335  0.66666665  0.25000000  1
