# generated using pymatgen
data_CrS
_symmetry_space_group_name_H-M   'P 1'
_cell_length_a   3.06363606
_cell_length_b   5.32946491
_cell_length_c   6.05194187
_cell_angle_alpha   90.00000000
_cell_angle_beta   90.00000000
_cell_angle_gamma   90.00000000
_symmetry_Int_Tables_number   1
_chemical_formula_structural   CrS
_chemical_formula_sum   'Cr4 S4'
_cell_volume   98.81332850
_cell_formula_units_Z   4
loop_
 _symmetry_equiv_pos_site_id
 _symmetry_equiv_pos_as_xyz
  1  'x, y, z'
loop_
 _atom_site_type_symbol
 _atom_site_label
 _atom_site_symmetry_multiplicity
 _atom_site_fract_x
 _atom_site_fract_y
 _atom_site_fract_z
 _atom_site_occupancy
  Cr  Cr0  1  0.49999999  0.49072901  0.06171800  1
  Cr  Cr1  1  0.49999999  0.99072902  0.93828202  1
  Cr  Cr2  1  0.00000000  0.50552101  0.45145901  1
  Cr  Cr3  1  0.00000000  0.00552100  0.54854101  1
  S  S4  1  0.49999999  0.31659201  0.69988401  1
  S  S5  1  0.49999999  0.81659201  0.30011601  1
  S  S6  1  0.00000000  0.68715801  0.82631402  1
  S  S7  1  0.00000000  0.18715800  0.17368600  1
