# generated using pymatgen
data_Li7AgOF11
_symmetry_space_group_name_H-M   'P 1'
_cell_length_a   2.91117001
_cell_length_b   6.03678417
_cell_length_c   13.23431396
_cell_angle_alpha   97.01205444
_cell_angle_beta   90.00000000
_cell_angle_gamma   90.00000000
_symmetry_Int_Tables_number   1
_chemical_formula_structural   Li7AgOF11
_chemical_formula_sum   'Li7 Ag1 O1 F11'
_cell_volume   230.84162972
_cell_formula_units_Z   1
loop_
 _symmetry_equiv_pos_site_id
 _symmetry_equiv_pos_as_xyz
  1  'x, y, z'
loop_
 _atom_site_type_symbol
 _atom_site_label
 _atom_site_symmetry_multiplicity
 _atom_site_fract_x
 _atom_site_fract_y
 _atom_site_fract_z
 _atom_site_occupancy
  O  O0  1  0.50000000  0.30052099  0.70129001  1
  F  F1  1  0.50000000  0.89807398  0.09840702  1
  F  F2  1  0.50000000  0.69947898  0.29871002  1
  F  F3  1  0.50000000  0.10192600  0.90159301  1
  F  F4  1  0.50000000  0.49999999  0.50000002  1
  F  F5  1  0.00000000  0.00000000  0.50000001  1
  F  F6  1  1.00000000  0.40235899  0.09623301  1
  F  F7  1  1.00000000  0.59764099  0.90376702  1
  F  F8  1  1.00000000  0.80006198  0.70139303  1
  F  F9  1  1.00000000  0.19993800  0.29860701  1
  Li  Li10  1  -0.00000000  0.10471900  0.64824801  1
  Li  Li11  1  1.00000000  0.89528098  0.35175203  1
  Li  Li12  1  -0.00000000  0.49624899  0.75467402  1
  Li  Li13  1  1.00000000  0.29995299  0.45233801  1
  F  F14  1  0.00000000  0.10169800  0.14515900  1
  F  F15  1  0.00000000  0.89830198  0.85484103  1
  Li  Li16  1  1.00000000  0.70004698  0.54766202  1
  Ag  Ag17  1  -0.00000000  0.50375099  0.24532602  1
  Li  Li18  1  1.00000000  0.29880799  0.94942402  1
  Li  Li19  1  0.00000000  0.70119198  0.05057602  1
