# generated using pymatgen
data_GaF
_symmetry_space_group_name_H-M   'P 1'
_cell_length_a   4.29390907
_cell_length_b   4.60106611
_cell_length_c   4.60106611
_cell_angle_alpha   120.00000000
_cell_angle_beta   90.00000000
_cell_angle_gamma   90.00000000
_symmetry_Int_Tables_number   1
_chemical_formula_structural   GaF
_chemical_formula_sum   'Ga4 F4'
_cell_volume   78.72278007
_cell_formula_units_Z   4
loop_
 _symmetry_equiv_pos_site_id
 _symmetry_equiv_pos_as_xyz
  1  'x, y, z'
loop_
 _atom_site_type_symbol
 _atom_site_label
 _atom_site_symmetry_multiplicity
 _atom_site_fract_x
 _atom_site_fract_y
 _atom_site_fract_z
 _atom_site_occupancy
  F  F0  1  0.49999999  0.00000000  0.67059098  1
  Ga  Ga1  1  0.99999998  0.00000000  0.32940899  1
  Ga  Ga2  1  0.00000000  0.32940899  -0.00000000  1
  F  F3  1  0.49999999  0.32940899  0.32940899  1
  F  F4  1  0.49999999  0.67059098  0.99999996  1
  F  F5  1  0.00000000  0.67059098  0.67059097  1
  Ga  Ga6  1  0.25000000  0.33333332  0.66666664  1
  Ga  Ga7  1  0.74999999  0.66666665  0.33333332  1
