# generated using pymatgen
data_Mn3O4
_symmetry_space_group_name_H-M   'P 1'
_cell_length_a   6.00145197
_cell_length_b   6.10682583
_cell_length_c   6.10682583
_cell_angle_alpha   61.07370377
_cell_angle_beta   60.56917191
_cell_angle_gamma   60.56917191
_symmetry_Int_Tables_number   1
_chemical_formula_structural   Mn3O4
_chemical_formula_sum   'Mn6 O8'
_cell_volume   160.88542413
_cell_formula_units_Z   2
loop_
 _symmetry_equiv_pos_site_id
 _symmetry_equiv_pos_as_xyz
  1  'x, y, z'
loop_
 _atom_site_type_symbol
 _atom_site_label
 _atom_site_symmetry_multiplicity
 _atom_site_fract_x
 _atom_site_fract_y
 _atom_site_fract_z
 _atom_site_occupancy
  Mn  Mn0  1  0.85645001  0.89354998  0.39355003  1
  Mn  Mn1  1  0.14355000  0.10645000  0.60645000  1
  Mn  Mn2  1  0.50000000  0.49999999  0.00000002  1
  Mn  Mn3  1  0.00000001  0.49999999  0.00000000  1
  Mn  Mn4  1  0.50000000  0.49999999  0.50000001  1
  Mn  Mn5  1  0.50000001  0.99999997  0.00000002  1
  O  O6  1  0.72346800  0.25269599  0.75269601  1
  O  O7  1  0.27114000  0.25269499  0.75269600  1
  O  O8  1  0.26210101  0.71759898  0.75819900  1
  O  O9  1  0.26210000  0.25819899  0.21760001  1
  O  O10  1  0.73790001  0.74180098  0.78240002  1
  O  O11  1  0.72886001  0.74730498  0.24730402  1
  O  O12  1  0.73789900  0.28240099  0.24180102  1
  O  O13  1  0.27653201  0.74730398  0.24730401  1
