# generated using pymatgen
data_CsAgS2
_symmetry_space_group_name_H-M   'P 1'
_cell_length_a   7.01101923
_cell_length_b   8.28662586
_cell_length_c   8.28662586
_cell_angle_alpha   90.00000000
_cell_angle_beta   90.00000000
_cell_angle_gamma   90.00000000
_symmetry_Int_Tables_number   1
_chemical_formula_structural   CsAgS2
_chemical_formula_sum   'Cs4 Ag4 S8'
_cell_volume   481.43384758
_cell_formula_units_Z   4
loop_
 _symmetry_equiv_pos_site_id
 _symmetry_equiv_pos_as_xyz
  1  'x, y, z'
loop_
 _atom_site_type_symbol
 _atom_site_label
 _atom_site_symmetry_multiplicity
 _atom_site_fract_x
 _atom_site_fract_y
 _atom_site_fract_z
 _atom_site_occupancy
  Cs  Cs0  1  0.24999999  0.00000000  -0.00000000  1
  Cs  Cs1  1  0.74999998  0.50000001  0.50000001  1
  Cs  Cs2  1  0.24999999  0.50000001  0.50000001  1
  Cs  Cs3  1  0.74999998  0.00000000  -0.00000000  1
  Ag  Ag4  1  0.74999998  0.00000000  0.50000001  1
  Ag  Ag5  1  0.24999999  0.50000001  -0.00000000  1
  Ag  Ag6  1  0.74999998  0.50000001  -0.00000000  1
  Ag  Ag7  1  0.24999999  0.00000000  0.50000001  1
  S  S8  1  0.50024398  0.32964201  0.82964201  1
  S  S9  1  0.00841100  0.82624801  0.32624801  1
  S  S10  1  0.00841100  0.17375200  0.67375201  1
  S  S11  1  0.50024398  0.67035801  0.17035800  1
  S  S12  1  0.49158898  0.17375200  0.32624801  1
  S  S13  1  0.99975597  0.67035801  0.82964201  1
  S  S14  1  0.99975597  0.32964201  0.17035800  1
  S  S15  1  0.49158898  0.82624801  0.67375201  1
