# generated using pymatgen
data_MgGa8
_symmetry_space_group_name_H-M   'P 1'
_cell_length_a   3.72166491
_cell_length_b   6.98940992
_cell_length_c   6.98941040
_cell_angle_alpha   120.00000000
_cell_angle_beta   90.00000000
_cell_angle_gamma   90.00000000
_symmetry_Int_Tables_number   1
_chemical_formula_structural   MgGa8
_chemical_formula_sum   'Mg1 Ga8'
_cell_volume   157.45227970
_cell_formula_units_Z   1
loop_
 _symmetry_equiv_pos_site_id
 _symmetry_equiv_pos_as_xyz
  1  'x, y, z'
loop_
 _atom_site_type_symbol
 _atom_site_label
 _atom_site_symmetry_multiplicity
 _atom_site_fract_x
 _atom_site_fract_y
 _atom_site_fract_z
 _atom_site_occupancy
  Ga  Ga0  1  0.50000001  1.00000003  0.41335703  1
  Ga  Ga1  1  0.50000001  0.41335701  1.00000000  1
  Mg  Mg2  1  0.50000001  0.58664302  0.58664301  1
  Ga  Ga3  1  1.00000003  1.00000003  0.75806302  1
  Ga  Ga4  1  0.00000000  0.75806302  1.00000001  1
  Ga  Ga5  1  0.00000000  0.24193701  0.24193701  1
  Ga  Ga6  1  0.00000000  0.66666668  0.33333335  1
  Ga  Ga7  1  0.00000000  0.33333334  0.66666667  1
  Ga  Ga8  1  0.50000001  0.00000000  -0.00000000  1
