# generated using pymatgen
data_HgBi(SBr)2
_symmetry_space_group_name_H-M   'P 1'
_cell_length_a   5.31341648
_cell_length_b   6.75373507
_cell_length_c   6.75373507
_cell_angle_alpha   113.38082886
_cell_angle_beta   105.20336151
_cell_angle_gamma   105.20336151
_symmetry_Int_Tables_number   1
_chemical_formula_structural   HgBi(SBr)2
_chemical_formula_sum   'Hg1 Bi1 S2 Br2'
_cell_volume   195.45560712
_cell_formula_units_Z   1
loop_
 _symmetry_equiv_pos_site_id
 _symmetry_equiv_pos_as_xyz
  1  'x, y, z'
loop_
 _atom_site_type_symbol
 _atom_site_label
 _atom_site_symmetry_multiplicity
 _atom_site_fract_x
 _atom_site_fract_y
 _atom_site_fract_z
 _atom_site_occupancy
  Br  Br0  1  0.13755602  0.86841600  0.24240802  1
  S  S1  1  0.89514803  0.75759200  0.62600801  1
  Bi  Bi2  1  0.73086002  0.62600800  0.86841601  1
  Br  Br3  1  0.86244401  0.13158400  0.75759200  1
  Hg  Hg4  1  0.26914001  0.37399200  0.13158401  1
  S  S5  1  0.10485201  0.24240800  0.37399200  1
