# generated using pymatgen
data_In8Co
_symmetry_space_group_name_H-M   'P 1'
_cell_length_a   6.64861679
_cell_length_b   8.73606014
_cell_length_c   8.73606014
_cell_angle_alpha   60.00000000
_cell_angle_beta   90.00000000
_cell_angle_gamma   90.00000000
_symmetry_Int_Tables_number   1
_chemical_formula_structural   In8Co
_chemical_formula_sum   'In16 Co2'
_cell_volume   439.43350215
_cell_formula_units_Z   2
loop_
 _symmetry_equiv_pos_site_id
 _symmetry_equiv_pos_as_xyz
  1  'x, y, z'
loop_
 _atom_site_type_symbol
 _atom_site_label
 _atom_site_symmetry_multiplicity
 _atom_site_fract_x
 _atom_site_fract_y
 _atom_site_fract_z
 _atom_site_occupancy
  In  In0  1  0.00000000  0.66666667  0.66666665  1
  In  In1  1  0.00000000  0.33333333  0.33333333  1
  In  In2  1  0.50000002  0.33333333  0.33333333  1
  In  In3  1  0.50000002  0.66666667  0.66666665  1
  In  In4  1  0.25000001  0.22239400  -0.00000000  1
  In  In5  1  0.25000001  0.00000000  0.77760599  1
  In  In6  1  0.25000001  0.77760600  0.22239399  1
  In  In7  1  0.75000002  0.77760600  -0.00000001  1
  In  In8  1  0.75000002  0.00000000  0.22239400  1
  In  In9  1  0.75000002  0.22239400  0.77760599  1
  In  In10  1  0.25000001  0.59305900  -0.00000000  1
  In  In11  1  0.25000001  0.00000000  0.40694099  1
  In  In12  1  0.25000001  0.40694100  0.59305899  1
  In  In13  1  0.75000002  0.40694100  0.99999998  1
  In  In14  1  0.75000002  0.00000000  0.59305899  1
  In  In15  1  0.75000002  0.59305900  0.40694099  1
  Co  Co16  1  0.00000000  0.00000000  0.00000000  1
  Co  Co17  1  0.50000002  0.00000000  -0.00000000  1
