# generated using pymatgen
data_V2OF3
_symmetry_space_group_name_H-M   'P 1'
_cell_length_a   3.09301710
_cell_length_b   4.73113203
_cell_length_c   4.73113203
_cell_angle_alpha   93.26055145
_cell_angle_beta   90.00000000
_cell_angle_gamma   90.00000000
_symmetry_Int_Tables_number   1
_chemical_formula_structural   V2OF3
_chemical_formula_sum   'V2 O1 F3'
_cell_volume   69.12081613
_cell_formula_units_Z   1
loop_
 _symmetry_equiv_pos_site_id
 _symmetry_equiv_pos_as_xyz
  1  'x, y, z'
loop_
 _atom_site_type_symbol
 _atom_site_label
 _atom_site_symmetry_multiplicity
 _atom_site_fract_x
 _atom_site_fract_y
 _atom_site_fract_z
 _atom_site_occupancy
  V  V0  1  0.49999998  0.00000000  -0.00000000  1
  V  V1  1  -0.00000000  0.50000002  0.50000003  1
  F  F2  1  0.99999997  0.79245303  0.79245305  1
  F  F3  1  0.49999998  0.31088101  0.68911903  1
  O  O4  1  -0.00000000  0.20754701  0.20754701  1
  F  F5  1  0.49999998  0.68911902  0.31088103  1
