# generated using pymatgen
data_Sr2Nd2Cu2BiO9
_symmetry_space_group_name_H-M   'P 1'
_cell_length_a   3.82846069
_cell_length_b   3.82846069
_cell_length_c   15.19508171
_cell_angle_alpha   97.18199921
_cell_angle_beta   97.18199921
_cell_angle_gamma   90.43455505
_symmetry_Int_Tables_number   1
_chemical_formula_structural   Sr2Nd2Cu2BiO9
_chemical_formula_sum   'Sr2 Nd2 Cu2 Bi1 O9'
_cell_volume   219.17389218
_cell_formula_units_Z   1
loop_
 _symmetry_equiv_pos_site_id
 _symmetry_equiv_pos_as_xyz
  1  'x, y, z'
loop_
 _atom_site_type_symbol
 _atom_site_label
 _atom_site_symmetry_multiplicity
 _atom_site_fract_x
 _atom_site_fract_y
 _atom_site_fract_z
 _atom_site_occupancy
  Sr  Sr0  1  0.59306098  0.57590999  0.16897101  1
  Sr  Sr1  1  0.42408999  0.40693899  0.83102901  1
  Nd  Nd2  1  0.70447798  0.70069599  0.40517401  1
  Nd  Nd3  1  0.29930399  0.29552200  0.59482601  1
  Bi  Bi4  1  0.04365799  0.95634198  0.00000000  1
  Cu  Cu5  1  0.14950500  0.14395800  0.29346300  1
  Cu  Cu6  1  0.85604198  0.85049499  0.70653702  1
  O  O7  1  0.06967200  0.07178000  0.14145200  1
  O  O8  1  0.92821997  0.93032798  0.85854802  1
  O  O9  1  0.65173599  0.14643600  0.29845301  1
  O  O10  1  0.15201799  0.64671699  0.29845401  1
  O  O11  1  0.35328298  0.84798199  0.70154701  1
  O  O12  1  0.85356398  0.34826399  0.70154601  1
  O  O13  1  0.22055699  0.21815100  0.43870801  1
  O  O14  1  0.78184898  0.77944299  0.56129201  1
  O  O15  1  0.47296299  0.52703699  0.00000001  1
