# generated using pymatgen
data_Cs5Li2CuF12
_symmetry_space_group_name_H-M   'P 1'
_cell_length_a   7.71794558
_cell_length_b   7.71794558
_cell_length_c   7.71794558
_cell_angle_alpha   109.47122192
_cell_angle_beta   109.47122192
_cell_angle_gamma   109.47122192
_symmetry_Int_Tables_number   1
_chemical_formula_structural   Cs5Li2CuF12
_chemical_formula_sum   'Cs5 Li2 Cu1 F12'
_cell_volume   353.90216852
_cell_formula_units_Z   1
loop_
 _symmetry_equiv_pos_site_id
 _symmetry_equiv_pos_as_xyz
  1  'x, y, z'
loop_
 _atom_site_type_symbol
 _atom_site_label
 _atom_site_symmetry_multiplicity
 _atom_site_fract_x
 _atom_site_fract_y
 _atom_site_fract_z
 _atom_site_occupancy
  Cs  Cs0  1  0.50000007  1.00000005  0.00000007  1
  Cs  Cs1  1  0.00000003  0.50000002  0.00000003  1
  Cs  Cs2  1  0.00000000  0.00000000  0.50000000  1
  Cs  Cs3  1  0.50000004  0.50000002  0.50000004  1
  Cs  Cs4  1  0.00000000  0.00000000  0.00000000  1
  Li  Li5  1  0.00000003  0.50000002  0.50000003  1
  Cu  Cu6  1  0.50000007  1.00000005  0.50000007  1
  Li  Li7  1  0.50000004  0.50000002  1.00000005  1
  F  F8  1  0.25000005  0.75000004  0.50000005  1
  F  F9  1  0.50000002  0.25000001  0.75000003  1
  F  F10  1  0.50000006  0.75000004  0.25000006  1
  F  F11  1  0.25000004  0.50000002  0.75000004  1
  F  F12  1  0.75000005  0.50000002  0.25000005  1
  F  F13  1  0.75000003  0.25000001  0.50000004  1
  F  F14  1  0.28398602  0.28398601  1.00000003  1
  F  F15  1  0.00000005  0.71601404  0.71601405  1
  F  F16  1  0.71601406  0.71601404  1.00000007  1
  F  F17  1  0.71601408  1.00000005  0.71601408  1
  F  F18  1  0.28398607  1.00000005  0.28398607  1
  F  F19  1  0.00000002  0.28398601  0.28398602  1
