# generated using pymatgen
data_Ga
_symmetry_space_group_name_H-M   'P 1'
_cell_length_a   4.52709770
_cell_length_b   4.52709770
_cell_length_c   18.70014000
_cell_angle_alpha   83.04761505
_cell_angle_beta   83.04761505
_cell_angle_gamma   60.00000763
_symmetry_Int_Tables_number   1
_chemical_formula_structural   Ga
_chemical_formula_sum   Ga20
_cell_volume   328.64812147
_cell_formula_units_Z   20
loop_
 _symmetry_equiv_pos_site_id
 _symmetry_equiv_pos_as_xyz
  1  'x, y, z'
loop_
 _atom_site_type_symbol
 _atom_site_label
 _atom_site_symmetry_multiplicity
 _atom_site_fract_x
 _atom_site_fract_y
 _atom_site_fract_z
 _atom_site_occupancy
  Ga  Ga0  1  0.09997100  0.09997100  0.70008697  1
  Ga  Ga1  1  0.90002901  0.90002896  0.29991296  1
  Ga  Ga2  1  0.50000000  0.49999998  0.49999996  1
  Ga  Ga3  1  0.69933001  0.69932997  0.90200994  1
  Ga  Ga4  1  0.30067000  0.30066999  0.09798999  1
  Ga  Ga5  1  0.00000000  0.00000000  0.00000000  1
  Ga  Ga6  1  0.60014801  0.60014798  0.19955597  1
  Ga  Ga7  1  0.19994800  0.19994799  0.40015598  1
  Ga  Ga8  1  0.80005201  0.80005197  0.59984395  1
  Ga  Ga9  1  0.39985200  0.39985198  0.80044395  1
  Ga  Ga10  1  0.74996901  0.74996897  0.75009295  1
  Ga  Ga11  1  0.54996300  0.54996298  0.35011097  1
  Ga  Ga12  1  0.15002900  0.15002899  0.54991297  1
  Ga  Ga13  1  0.34940800  0.34940799  0.95177595  1
  Ga  Ga14  1  0.95054101  0.95054096  0.14837697  1
  Ga  Ga15  1  0.04945900  0.04945900  0.85162296  1
  Ga  Ga16  1  0.84997101  0.84997097  0.45008696  1
  Ga  Ga17  1  0.45003700  0.45003698  0.64988896  1
  Ga  Ga18  1  0.65059201  0.65059197  0.04822398  1
  Ga  Ga19  1  0.25003100  0.25003099  0.24990698  1
