# generated using pymatgen
data_Mg3F5
_symmetry_space_group_name_H-M   'P 1'
_cell_length_a   3.97134590
_cell_length_b   5.56921244
_cell_length_c   10.39088154
_cell_angle_alpha   90.00000000
_cell_angle_beta   90.00000000
_cell_angle_gamma   110.88814545
_symmetry_Int_Tables_number   1
_chemical_formula_structural   Mg3F5
_chemical_formula_sum   'Mg6 F10'
_cell_volume   214.71388913
_cell_formula_units_Z   2
loop_
 _symmetry_equiv_pos_site_id
 _symmetry_equiv_pos_as_xyz
  1  'x, y, z'
loop_
 _atom_site_type_symbol
 _atom_site_label
 _atom_site_symmetry_multiplicity
 _atom_site_fract_x
 _atom_site_fract_y
 _atom_site_fract_z
 _atom_site_occupancy
  Mg  Mg0  1  0.18030102  0.36060199  0.75000003  1
  Mg  Mg1  1  0.81969904  0.63939798  0.25000001  1
  Mg  Mg2  1  0.13616601  0.27233199  0.43070402  1
  Mg  Mg3  1  0.13616601  0.27233199  0.06929600  1
  Mg  Mg4  1  0.86383405  0.72766798  0.93070404  1
  Mg  Mg5  1  0.86383405  0.72766798  0.56929603  1
  F  F6  1  0.05547001  0.11094000  0.88507704  1
  F  F7  1  0.31864103  0.63728198  0.93486204  1
  F  F8  1  0.05547001  0.11094000  0.61492303  1
  F  F9  1  0.31864103  0.63728198  0.56513803  1
  F  F10  1  0.23254902  0.46509799  0.25000001  1
  F  F11  1  0.76745104  0.53490199  0.75000003  1
  F  F12  1  0.94453006  0.88905998  0.38507702  1
  F  F13  1  0.94453006  0.88905998  0.11492301  1
  F  F14  1  0.68135903  0.36271799  0.43486202  1
  F  F15  1  0.68135903  0.36271799  0.06513800  1
