# generated using pymatgen
data_Ba4GaSe5
_symmetry_space_group_name_H-M   'P 1'
_cell_length_a   6.57325602
_cell_length_b   7.15098190
_cell_length_c   8.24811745
_cell_angle_alpha   115.68936157
_cell_angle_beta   113.48256683
_cell_angle_gamma   90.00000000
_symmetry_Int_Tables_number   1
_chemical_formula_structural   Ba4GaSe5
_chemical_formula_sum   'Ba4 Ga1 Se5'
_cell_volume   313.37154743
_cell_formula_units_Z   1
loop_
 _symmetry_equiv_pos_site_id
 _symmetry_equiv_pos_as_xyz
  1  'x, y, z'
loop_
 _atom_site_type_symbol
 _atom_site_label
 _atom_site_symmetry_multiplicity
 _atom_site_fract_x
 _atom_site_fract_y
 _atom_site_fract_z
 _atom_site_occupancy
  Ba  Ba0  1  0.85459396  0.52110700  0.70918895  1
  Ba  Ba1  1  0.14540598  0.47889300  0.29081099  1
  Ba  Ba2  1  0.64540495  0.81191801  0.29080996  1
  Ba  Ba3  1  0.35459498  0.18808200  0.70918998  1
  Se  Se4  1  0.24999999  0.00000000  0.99999999  1
  Ga  Ga5  1  0.74999998  0.00000000  0.99999996  1
  Se  Se6  1  0.10469796  0.90957701  0.20939599  1
  Se  Se7  1  0.89530197  0.09042300  0.79060395  1
  Se  Se8  1  0.39530296  0.70018201  0.79060497  1
  Se  Se9  1  0.60469697  0.29981800  0.20939497  1
