# generated using pymatgen
data_ThTe2
_symmetry_space_group_name_H-M   'P 1'
_cell_length_a   4.64724207
_cell_length_b   4.64724207
_cell_length_c   9.72232628
_cell_angle_alpha   103.82743835
_cell_angle_beta   103.82743835
_cell_angle_gamma   90.00000000
_symmetry_Int_Tables_number   1
_chemical_formula_structural   ThTe2
_chemical_formula_sum   'Th2 Te4'
_cell_volume   197.61443992
_cell_formula_units_Z   2
loop_
 _symmetry_equiv_pos_site_id
 _symmetry_equiv_pos_as_xyz
  1  'x, y, z'
loop_
 _atom_site_type_symbol
 _atom_site_label
 _atom_site_symmetry_multiplicity
 _atom_site_fract_x
 _atom_site_fract_y
 _atom_site_fract_z
 _atom_site_occupancy
  Te  Te0  1  0.32052700  0.32052700  0.64105398  1
  Te  Te1  1  0.67947300  0.67947299  0.35894600  1
  Te  Te2  1  0.50000000  0.00000000  0.00000001  1
  Te  Te3  1  0.00000001  0.50000000  0.00000001  1
  Th  Th4  1  0.86291300  0.86291299  0.72582599  1
  Th  Th5  1  0.13708700  0.13708700  0.27417399  1
