# generated using pymatgen
data_Mg8GaS4
_symmetry_space_group_name_H-M   'P 1'
_cell_length_a   6.95221186
_cell_length_b   6.95221186
_cell_length_c   6.95221186
_cell_angle_alpha   60.00000000
_cell_angle_beta   60.00000000
_cell_angle_gamma   60.00000000
_symmetry_Int_Tables_number   1
_chemical_formula_structural   Mg8GaS4
_chemical_formula_sum   'Mg8 Ga1 S4'
_cell_volume   237.60413604
_cell_formula_units_Z   1
loop_
 _symmetry_equiv_pos_site_id
 _symmetry_equiv_pos_as_xyz
  1  'x, y, z'
loop_
 _atom_site_type_symbol
 _atom_site_label
 _atom_site_symmetry_multiplicity
 _atom_site_fract_x
 _atom_site_fract_y
 _atom_site_fract_z
 _atom_site_occupancy
  Ga  Ga0  1  0.49999999  0.49999999  0.49999999  1
  Mg  Mg1  1  0.89647297  0.31057899  0.89647397  1
  Mg  Mg2  1  0.31057799  0.89647397  0.89647397  1
  Mg  Mg3  1  0.89647297  0.89647397  0.89647397  1
  Mg  Mg4  1  0.89647297  0.89647397  0.31057899  1
  S  S5  1  0.63547398  0.63547498  0.09357600  1
  S  S6  1  0.63547398  0.09357600  0.63547498  1
  S  S7  1  0.09357500  0.63547498  0.63547498  1
  S  S8  1  0.63547398  0.63547498  0.63547498  1
  Mg  Mg9  1  0.13354900  0.13354900  0.59935298  1
  Mg  Mg10  1  0.13354900  0.13354900  0.13354900  1
  Mg  Mg11  1  0.59935298  0.13354900  0.13354900  1
  Mg  Mg12  1  0.13354900  0.59935298  0.13354900  1
