# generated using pymatgen
data_Ba2Cu2O3
_symmetry_space_group_name_H-M   'P 1'
_cell_length_a   3.51338792
_cell_length_b   5.43262005
_cell_length_c   11.59014225
_cell_angle_alpha   90.00000000
_cell_angle_beta   90.00000000
_cell_angle_gamma   90.00000000
_symmetry_Int_Tables_number   1
_chemical_formula_structural   Ba2Cu2O3
_chemical_formula_sum   'Ba4 Cu4 O6'
_cell_volume   221.21990517
_cell_formula_units_Z   2
loop_
 _symmetry_equiv_pos_site_id
 _symmetry_equiv_pos_as_xyz
  1  'x, y, z'
loop_
 _atom_site_type_symbol
 _atom_site_label
 _atom_site_symmetry_multiplicity
 _atom_site_fract_x
 _atom_site_fract_y
 _atom_site_fract_z
 _atom_site_occupancy
  Ba  Ba0  1  0.50000001  0.82117699  0.14887300  1
  Ba  Ba1  1  0.00000000  0.32117700  0.35112699  1
  Ba  Ba2  1  0.00000000  0.67882299  0.64887299  1
  Ba  Ba3  1  0.50000001  0.17882300  0.85112698  1
  Cu  Cu4  1  0.50000001  0.81350899  0.41373399  1
  Cu  Cu5  1  0.00000000  0.31350900  0.08626600  1
  Cu  Cu6  1  0.50000001  0.18649100  0.58626599  1
  Cu  Cu7  1  0.00000000  0.68649099  0.91373398  1
  O  O8  1  0.00000000  0.17186600  0.68921199  1
  O  O9  1  0.50000001  0.67186599  0.81078798  1
  O  O10  1  0.00000000  0.82813399  0.31078799  1
  O  O11  1  0.00000000  0.00000000  0.00000000  1
  O  O12  1  0.50000001  0.32813400  0.18921200  1
  O  O13  1  0.50000001  0.50000000  0.49999999  1
