# generated using pymatgen
data_P
_symmetry_space_group_name_H-M   'P 1'
_cell_length_a   2.92550302
_cell_length_b   5.23348188
_cell_length_c   5.23348188
_cell_angle_alpha   120.00000000
_cell_angle_beta   90.00000000
_cell_angle_gamma   90.00000000
_symmetry_Int_Tables_number   1
_chemical_formula_structural   P
_chemical_formula_sum   P6
_cell_volume   69.39251567
_cell_formula_units_Z   6
loop_
 _symmetry_equiv_pos_site_id
 _symmetry_equiv_pos_as_xyz
  1  'x, y, z'
loop_
 _atom_site_type_symbol
 _atom_site_label
 _atom_site_symmetry_multiplicity
 _atom_site_fract_x
 _atom_site_fract_y
 _atom_site_fract_z
 _atom_site_occupancy
  P  P0  1  0.00000000  0.00000000  0.00000000  1
  P  P1  1  0.50000000  0.66666667  0.33333329  1
  P  P2  1  0.50000000  0.33333333  0.66666663  1
  P  P3  1  0.00000000  0.60744500  0.60744495  1
  P  P4  1  0.00000000  0.39255500  -0.00000002  1
  P  P5  1  0.99999999  0.00000000  0.39255499  1
