# generated using pymatgen
data_CoO2
_symmetry_space_group_name_H-M   'P 1'
_cell_length_a   5.65406656
_cell_length_b   5.74264526
_cell_length_c   6.44464970
_cell_angle_alpha   104.56175995
_cell_angle_beta   102.56358337
_cell_angle_gamma   90.32324219
_symmetry_Int_Tables_number   1
_chemical_formula_structural   CoO2
_chemical_formula_sum   'Co6 O12'
_cell_volume   197.27834081
_cell_formula_units_Z   6
loop_
 _symmetry_equiv_pos_site_id
 _symmetry_equiv_pos_as_xyz
  1  'x, y, z'
loop_
 _atom_site_type_symbol
 _atom_site_label
 _atom_site_symmetry_multiplicity
 _atom_site_fract_x
 _atom_site_fract_y
 _atom_site_fract_z
 _atom_site_occupancy
  Co  Co0  1  0.99942803  0.00243100  0.00130497  1
  Co  Co1  1  0.33211999  0.33503999  0.33636497  1
  Co  Co2  1  0.49942301  0.00242600  0.00129398  1
  Co  Co3  1  0.83210500  0.33503599  0.33636196  1
  Co  Co4  1  0.66595897  0.66877098  0.66874295  1
  Co  Co5  1  0.16550896  0.66880598  0.66874996  1
  O  O6  1  0.24235095  0.77990398  0.97613096  1
  O  O7  1  0.74237797  0.77989698  0.97612494  1
  O  O8  1  0.08911996  0.55757099  0.36141697  1
  O  O9  1  0.58917298  0.55755799  0.36142395  1
  O  O10  1  0.40875698  0.44731599  0.64610497  1
  O  O11  1  0.90876399  0.44727299  0.64610195  1
  O  O12  1  0.42275595  0.89032498  0.69152194  1
  O  O13  1  0.92274096  0.89034098  0.69152192  1
  O  O14  1  0.07489699  0.11235300  0.31115100  1
  O  O15  1  0.57491701  0.11234000  0.31113698  1
  O  O16  1  0.25665099  0.22509499  0.02657398  1
  O  O17  1  0.75664500  0.22509599  0.02653996  1
