# generated using pymatgen
data_Ba5PbS8
_symmetry_space_group_name_H-M   'P 1'
_cell_length_a   7.80285978
_cell_length_b   7.80285978
_cell_length_c   7.80285978
_cell_angle_alpha   73.78939056
_cell_angle_beta   68.87428284
_cell_angle_gamma   111.12571716
_symmetry_Int_Tables_number   1
_chemical_formula_structural   Ba5PbS8
_chemical_formula_sum   'Ba5 Pb1 S8'
_cell_volume   364.83044273
_cell_formula_units_Z   1
loop_
 _symmetry_equiv_pos_site_id
 _symmetry_equiv_pos_as_xyz
  1  'x, y, z'
loop_
 _atom_site_type_symbol
 _atom_site_label
 _atom_site_symmetry_multiplicity
 _atom_site_fract_x
 _atom_site_fract_y
 _atom_site_fract_z
 _atom_site_occupancy
  Ba  Ba0  1  0.38267500  0.62499999  0.49232504  1
  Ba  Ba1  1  0.88267500  0.75767499  0.62500004  1
  Ba  Ba2  1  0.61732501  0.12500000  0.75767501  1
  Ba  Ba3  1  0.11732500  0.49232500  0.12500003  1
  Ba  Ba4  1  0.00000000  0.00000000  0.00000000  1
  Pb  Pb5  1  0.50000000  0.25000000  0.25000001  1
  S  S6  1  0.26767599  0.89235099  0.23865905  1
  S  S7  1  0.86899001  0.37532500  0.89235102  1
  S  S8  1  0.73232401  0.49366500  0.37532502  1
  S  S9  1  0.13101000  0.23865900  0.49366502  1
  S  S10  1  0.36899000  0.35764900  0.87467503  1
  S  S11  1  0.23232399  0.87467499  0.75633506  1
  S  S12  1  0.63101000  0.75633499  0.01134104  1
  S  S13  1  0.76767601  0.01134100  0.35764900  1
