# generated using pymatgen
data_La4Co3O10
_symmetry_space_group_name_H-M   'P 1'
_cell_length_a   3.87307858
_cell_length_b   3.87291956
_cell_length_c   14.26831532
_cell_angle_alpha   97.80303955
_cell_angle_beta   97.80316925
_cell_angle_gamma   89.97727203
_symmetry_Int_Tables_number   1
_chemical_formula_structural   La4Co3O10
_chemical_formula_sum   'La4 Co3 O10'
_cell_volume   210.04578549
_cell_formula_units_Z   1
loop_
 _symmetry_equiv_pos_site_id
 _symmetry_equiv_pos_as_xyz
  1  'x, y, z'
loop_
 _atom_site_type_symbol
 _atom_site_label
 _atom_site_symmetry_multiplicity
 _atom_site_fract_x
 _atom_site_fract_y
 _atom_site_fract_z
 _atom_site_occupancy
  La  La0  1  0.30151402  0.30148100  0.60298900  1
  La  La1  1  0.69848604  0.69852001  0.39701200  1
  La  La2  1  0.43285203  0.43279001  0.86564400  1
  La  La3  1  0.56714504  0.56720301  0.13434700  1
  Co  Co4  1  0.14031401  0.14043400  0.28074100  1
  Co  Co5  1  0.85971705  0.85957701  0.71930900  1
  Co  Co6  1  0.99998206  0.99999002  0.99996900  1
  O  O7  1  0.21720301  0.21721800  0.43441200  1
  O  O8  1  0.78279605  0.78278101  0.56558600  1
  O  O9  1  0.36031004  0.86019301  0.72053200  1
  O  O10  1  0.13965503  0.63977901  0.27946500  1
  O  O11  1  0.63968902  0.13980800  0.27946700  1
  O  O12  1  0.86034204  0.36022201  0.72053300  1
  O  O13  1  0.06861900  0.06865200  0.13727500  1
  O  O14  1  0.99999604  0.49999701  0.99999400  1
  O  O15  1  0.93138406  0.93135301  0.86273100  1
  O  O16  1  0.49999705  0.99999702  0.99999400  1
