# generated using pymatgen
data_Tb(Co2B)6
_symmetry_space_group_name_H-M   'P 1'
_cell_length_a   5.95905685
_cell_length_b   5.95905685
_cell_length_c   5.95905685
_cell_angle_alpha   103.98969269
_cell_angle_beta   103.98969269
_cell_angle_gamma   103.98969269
_symmetry_Int_Tables_number   1
_chemical_formula_structural   Tb(Co2B)6
_chemical_formula_sum   'Tb1 Co12 B6'
_cell_volume   188.84401500
_cell_formula_units_Z   1
loop_
 _symmetry_equiv_pos_site_id
 _symmetry_equiv_pos_as_xyz
  1  'x, y, z'
loop_
 _atom_site_type_symbol
 _atom_site_label
 _atom_site_symmetry_multiplicity
 _atom_site_fract_x
 _atom_site_fract_y
 _atom_site_fract_z
 _atom_site_occupancy
  Tb  Tb0  1  0.00000000  0.00000000  0.00000000  1
  Co  Co1  1  0.13241891  0.86758096  0.49999989  1
  Co  Co2  1  0.86758094  0.49999998  0.13241889  1
  Co  Co3  1  0.49999998  0.13241899  0.86758093  1
  Co  Co4  1  0.13241895  0.49999998  0.86758091  1
  Co  Co5  1  0.49999990  0.86758096  0.13241888  1
  Co  Co6  1  0.86758098  0.13241899  0.49999991  1
  Co  Co7  1  0.18595595  0.45639098  0.45639093  1
  Co  Co8  1  0.45639095  0.45639098  0.18595592  1
  Co  Co9  1  0.45639098  0.18595599  0.45639094  1
  Co  Co10  1  0.81404394  0.54360898  0.54360888  1
  Co  Co11  1  0.54360894  0.54360898  0.81404388  1
  Co  Co12  1  0.54360891  0.81404397  0.54360887  1
  B  B13  1  0.67600097  0.23279499  0.23279493  1
  B  B14  1  0.23279497  0.23279499  0.67600094  1
  B  B15  1  0.23279493  0.67600097  0.23279491  1
  B  B16  1  0.32399891  0.76720497  0.76720488  1
  B  B17  1  0.76720491  0.76720497  0.32399886  1
  B  B18  1  0.76720496  0.32399899  0.76720489  1
