# generated using pymatgen
data_Ga14FeCo
_symmetry_space_group_name_H-M   'P 1'
_cell_length_a   6.54039717
_cell_length_b   6.54039717
_cell_length_c   6.70644522
_cell_angle_alpha   90.00000000
_cell_angle_beta   90.00000000
_cell_angle_gamma   90.00000000
_symmetry_Int_Tables_number   1
_chemical_formula_structural   Ga14FeCo
_chemical_formula_sum   'Ga14 Fe1 Co1'
_cell_volume   286.88023293
_cell_formula_units_Z   1
loop_
 _symmetry_equiv_pos_site_id
 _symmetry_equiv_pos_as_xyz
  1  'x, y, z'
loop_
 _atom_site_type_symbol
 _atom_site_label
 _atom_site_symmetry_multiplicity
 _atom_site_fract_x
 _atom_site_fract_y
 _atom_site_fract_z
 _atom_site_occupancy
  Ga  Ga0  1  0.00000000  0.49999999  0.49999998  1
  Ga  Ga1  1  0.49999999  0.00000000  -0.00000000  1
  Ga  Ga2  1  0.49999999  0.00000000  0.49999998  1
  Ga  Ga3  1  0.00000000  0.49999999  -0.00000000  1
  Ga  Ga4  1  0.34798499  0.65201498  0.23983899  1
  Ga  Ga5  1  0.65201498  0.34798499  0.23983899  1
  Ga  Ga6  1  0.15201500  0.15201500  0.73983898  1
  Ga  Ga7  1  0.84798498  0.84798498  0.73983898  1
  Ga  Ga8  1  0.65201498  0.34798499  0.76016098  1
  Ga  Ga9  1  0.34798499  0.65201498  0.76016098  1
  Ga  Ga10  1  0.84798498  0.84798498  0.26016099  1
  Ga  Ga11  1  0.15201500  0.15201500  0.26016099  1
  Co  Co12  1  0.15919000  0.84080998  0.49999998  1
  Ga  Ga13  1  0.84080998  0.15919000  0.49999998  1
  Fe  Fe14  1  0.34080999  0.34080999  -0.00000000  1
  Ga  Ga15  1  0.65918998  0.65918998  -0.00000000  1
