# generated using pymatgen
data_InCo3Ge2
_symmetry_space_group_name_H-M   'P 1'
_cell_length_a   2.96630812
_cell_length_b   2.96630812
_cell_length_c   8.86839581
_cell_angle_alpha   90.00000000
_cell_angle_beta   90.00000000
_cell_angle_gamma   90.00000000
_symmetry_Int_Tables_number   1
_chemical_formula_structural   InCo3Ge2
_chemical_formula_sum   'In1 Co3 Ge2'
_cell_volume   78.03287142
_cell_formula_units_Z   1
loop_
 _symmetry_equiv_pos_site_id
 _symmetry_equiv_pos_as_xyz
  1  'x, y, z'
loop_
 _atom_site_type_symbol
 _atom_site_label
 _atom_site_symmetry_multiplicity
 _atom_site_fract_x
 _atom_site_fract_y
 _atom_site_fract_z
 _atom_site_occupancy
  Co  Co0  1  0.49999998  0.49999998  0.18374500  1
  Co  Co1  1  0.49999998  0.49999998  0.50000001  1
  Co  Co2  1  0.49999998  0.49999998  0.81625502  1
  Ge  Ge3  1  0.00000000  0.00000000  0.33426501  1
  Ge  Ge4  1  0.00000000  0.00000000  0.66573501  1
  In  In5  1  0.00000000  0.00000000  0.00000000  1
