# generated using pymatgen
data_CaCoO3
_symmetry_space_group_name_H-M   'P 1'
_cell_length_a   5.42008686
_cell_length_b   5.45580912
_cell_length_c   7.65439510
_cell_angle_alpha   90.00377655
_cell_angle_beta   89.99732208
_cell_angle_gamma   89.87640381
_symmetry_Int_Tables_number   1
_chemical_formula_structural   CaCoO3
_chemical_formula_sum   'Ca4 Co4 O12'
_cell_volume   226.34727874
_cell_formula_units_Z   4
loop_
 _symmetry_equiv_pos_site_id
 _symmetry_equiv_pos_as_xyz
  1  'x, y, z'
loop_
 _atom_site_type_symbol
 _atom_site_label
 _atom_site_symmetry_multiplicity
 _atom_site_fract_x
 _atom_site_fract_y
 _atom_site_fract_z
 _atom_site_occupancy
  Ca  Ca0  1  0.50950302  0.46370801  0.74999201  1
  Ca  Ca1  1  0.99101704  0.95847102  0.74998104  1
  Ca  Ca2  1  0.49122502  0.53904301  0.25000902  1
  Ca  Ca3  1  0.00455100  0.02883900  0.24998800  1
  Co  Co4  1  0.00017600  0.49969201  0.99579500  1
  Co  Co5  1  0.49985102  0.00084500  0.50481301  1
  Co  Co6  1  0.00002400  0.49984401  0.50438400  1
  Co  Co7  1  0.49988502  0.00081700  0.99510500  1
  O  O8  1  0.79040403  0.21126401  0.96164302  1
  O  O9  1  0.71573703  0.71623202  0.54144603  1
  O  O10  1  0.21748301  0.78242502  0.46530201  1
  O  O11  1  0.28409901  0.28415801  0.04348401  1
  O  O12  1  0.21754701  0.78239102  0.03470002  1
  O  O13  1  0.28415001  0.28419701  0.45648601  1
  O  O14  1  0.79040403  0.21126801  0.53835302  1
  O  O15  1  0.71581003  0.71625402  0.95855202  1
  O  O16  1  0.42063102  0.02619800  0.75003900  1
  O  O17  1  0.08058300  0.51732101  0.75001300  1
  O  O18  1  0.56269002  0.98292302  0.24995703  1
  O  O19  1  0.92422604  0.49411201  0.24995703  1
