# generated using pymatgen
data_GaNi(MoP)5
_symmetry_space_group_name_H-M   'P 1'
_cell_length_a   3.27367496
_cell_length_b   6.18387985
_cell_length_c   7.56755400
_cell_angle_alpha   90.00000000
_cell_angle_beta   90.00000000
_cell_angle_gamma   90.00000000
_symmetry_Int_Tables_number   1
_chemical_formula_structural   GaNi(MoP)5
_chemical_formula_sum   'Ga1 Ni1 Mo5 P5'
_cell_volume   153.19765891
_cell_formula_units_Z   1
loop_
 _symmetry_equiv_pos_site_id
 _symmetry_equiv_pos_as_xyz
  1  'x, y, z'
loop_
 _atom_site_type_symbol
 _atom_site_label
 _atom_site_symmetry_multiplicity
 _atom_site_fract_x
 _atom_site_fract_y
 _atom_site_fract_z
 _atom_site_occupancy
  Ga  Ga0  1  0.25000000  0.86126902  0.94117400  1
  Mo  Mo1  1  0.25000000  0.36126901  0.55882600  1
  P  P2  1  0.75000001  0.13873100  0.05882600  1
  Ni  Ni3  1  0.75000001  0.63873102  0.44117400  1
  Mo  Mo4  1  0.25000000  0.96012802  0.33352300  1
  Mo  Mo5  1  0.25000000  0.46012801  0.16647700  1
  Mo  Mo6  1  0.75000001  0.03987200  0.66647700  1
  Mo  Mo7  1  0.75000001  0.53987201  0.83352300  1
  P  P8  1  0.25000000  0.24769601  0.85782800  1
  P  P9  1  0.25000000  0.74769602  0.64217200  1
  P  P10  1  0.75000001  0.75230402  0.14217200  1
  P  P11  1  0.75000001  0.25230401  0.35782800  1
