# generated using pymatgen
data_LiCoB3
_symmetry_space_group_name_H-M   'P 1'
_cell_length_a   2.97918105
_cell_length_b   3.01216602
_cell_length_c   8.87394047
_cell_angle_alpha   99.77152252
_cell_angle_beta   90.00000000
_cell_angle_gamma   90.00000000
_symmetry_Int_Tables_number   1
_chemical_formula_structural   LiCoB3
_chemical_formula_sum   'Li2 Co2 B6'
_cell_volume   78.47757630
_cell_formula_units_Z   2
loop_
 _symmetry_equiv_pos_site_id
 _symmetry_equiv_pos_as_xyz
  1  'x, y, z'
loop_
 _atom_site_type_symbol
 _atom_site_label
 _atom_site_symmetry_multiplicity
 _atom_site_fract_x
 _atom_site_fract_y
 _atom_site_fract_z
 _atom_site_occupancy
  Li  Li0  1  0.74999999  0.07441600  0.14883201  1
  Li  Li1  1  0.25000000  0.92558399  0.85116802  1
  Co  Co2  1  0.74999999  0.79615999  0.59232002  1
  Co  Co3  1  0.25000000  0.20384000  0.40768002  1
  B  B4  1  0.74999999  0.37544499  0.75089003  1
  B  B5  1  0.25000000  0.62455499  0.24911000  1
  B  B6  1  0.74999999  0.47497899  0.94995804  1
  B  B7  1  0.25000000  0.52502099  0.05004199  1
  B  B8  1  0.25000000  0.32086400  0.64172802  1
  B  B9  1  0.74999999  0.67913599  0.35827201  1
