# generated using pymatgen
data_Ba3(B4Os3)2
_symmetry_space_group_name_H-M   'P 1'
_cell_length_a   5.52517414
_cell_length_b   5.52924728
_cell_length_c   9.26282406
_cell_angle_alpha   81.43029785
_cell_angle_beta   72.64780426
_cell_angle_gamma   60.02436829
_symmetry_Int_Tables_number   1
_chemical_formula_structural   Ba3(B4Os3)2
_chemical_formula_sum   'Ba3 B8 Os6'
_cell_volume   233.97193898
_cell_formula_units_Z   1
loop_
 _symmetry_equiv_pos_site_id
 _symmetry_equiv_pos_as_xyz
  1  'x, y, z'
loop_
 _atom_site_type_symbol
 _atom_site_label
 _atom_site_symmetry_multiplicity
 _atom_site_fract_x
 _atom_site_fract_y
 _atom_site_fract_z
 _atom_site_occupancy
  Ba  Ba0  1  0.00000000  0.00000000  0.00000000  1
  Ba  Ba1  1  0.17970699  0.00000000  0.64058600  1
  Ba  Ba2  1  0.82029301  1.00000000  0.35941399  1
  Os  Os3  1  0.82394900  0.70252100  0.64958100  1
  Os  Os4  1  0.17605101  0.29747900  0.35041899  1
  Os  Os5  1  0.47353001  0.70252100  0.35041899  1
  B  B6  1  0.68197900  0.63604200  0.00000000  1
  Os  Os7  1  0.52646999  0.29747900  0.64958100  1
  Os  Os8  1  0.31802100  0.36395800  -0.00000000  1
  B  B9  1  0.42025298  0.00000000  0.15949401  1
  B  B10  1  0.09027002  0.50000000  0.81945997  1
  B  B11  1  0.59027000  0.50000000  0.81945999  1
  B  B12  1  0.40973001  0.50000000  0.18054000  1
  B  B13  1  0.57974702  1.00000000  0.84050598  1
  B  B14  1  0.74999999  0.50000000  0.50000000  1
  Os  Os15  1  0.90972998  0.50000000  0.18054001  1
  B  B16  1  0.25000001  0.50000000  0.49999999  1
