# generated using pymatgen
data_BaGe2F7
_symmetry_space_group_name_H-M   'P 1'
_cell_length_a   5.57403803
_cell_length_b   5.57876587
_cell_length_c   7.92000484
_cell_angle_alpha   90.00000000
_cell_angle_beta   90.00000000
_cell_angle_gamma   90.00000000
_symmetry_Int_Tables_number   1
_chemical_formula_structural   BaGe2F7
_chemical_formula_sum   'Ba2 Ge4 F14'
_cell_volume   246.28247527
_cell_formula_units_Z   2
loop_
 _symmetry_equiv_pos_site_id
 _symmetry_equiv_pos_as_xyz
  1  'x, y, z'
loop_
 _atom_site_type_symbol
 _atom_site_label
 _atom_site_symmetry_multiplicity
 _atom_site_fract_x
 _atom_site_fract_y
 _atom_site_fract_z
 _atom_site_occupancy
  Ba  Ba0  1  0.51676300  0.49954501  0.75000001  1
  F  F1  1  0.01676300  0.00045500  0.75000001  1
  F  F2  1  0.98323699  0.99954502  0.25000000  1
  Ba  Ba3  1  0.48323700  0.50045501  0.25000000  1
  Ge  Ge4  1  0.00000000  0.50000001  0.50000001  1
  Ge  Ge5  1  0.50000000  0.00000000  0.00000000  1
  Ge  Ge6  1  0.50000000  0.00000000  0.50000001  1
  Ge  Ge7  1  0.00000000  0.50000001  -0.00000000  1
  F  F8  1  0.22250900  0.77777302  0.02198800  1
  F  F9  1  0.77749100  0.22222701  0.52198801  1
  F  F10  1  0.77749100  0.22222701  0.97801202  1
  F  F11  1  0.49644000  0.95632202  0.75000001  1
  F  F12  1  0.99643999  0.54367801  0.75000001  1
  F  F13  1  0.50356000  0.04367800  0.25000000  1
  F  F14  1  0.22250900  0.77777302  0.47801201  1
  F  F15  1  0.72250900  0.72222702  0.47801201  1
  F  F16  1  0.72250900  0.72222702  0.02198800  1
  F  F17  1  0.27749100  0.27777301  0.52198801  1
  F  F18  1  0.00356000  0.45632201  0.25000000  1
  F  F19  1  0.27749100  0.27777301  0.97801202  1
