# generated using pymatgen
data_Ga3Co8Ni
_symmetry_space_group_name_H-M   'P 1'
_cell_length_a   3.64823389
_cell_length_b   3.64823389
_cell_length_c   10.54394913
_cell_angle_alpha   99.96236420
_cell_angle_beta   99.96236420
_cell_angle_gamma   90.00000000
_symmetry_Int_Tables_number   1
_chemical_formula_structural   Ga3Co8Ni
_chemical_formula_sum   'Ga3 Co8 Ni1'
_cell_volume   136.07087459
_cell_formula_units_Z   1
loop_
 _symmetry_equiv_pos_site_id
 _symmetry_equiv_pos_as_xyz
  1  'x, y, z'
loop_
 _atom_site_type_symbol
 _atom_site_label
 _atom_site_symmetry_multiplicity
 _atom_site_fract_x
 _atom_site_fract_y
 _atom_site_fract_z
 _atom_site_occupancy
  Ni  Ni0  1  0.50000000  0.50000001  -0.00000002  1
  Co  Co1  1  0.58410201  0.08410200  0.16820398  1
  Co  Co2  1  0.24999999  0.75000001  0.49999997  1
  Ga  Ga3  1  0.91589801  0.41589801  0.83179596  1
  Ga  Ga4  1  0.08410199  0.58410201  0.16820398  1
  Ga  Ga5  1  0.75000001  0.25000000  0.49999997  1
  Co  Co6  1  0.41589799  0.91589802  0.83179596  1
  Co  Co7  1  0.00000000  0.00000000  0.00000000  1
  Co  Co8  1  0.66583300  0.66583301  0.33166597  1
  Co  Co9  1  0.33416700  0.33416701  0.66833398  1
  Co  Co10  1  0.16739300  0.16739300  0.33478599  1
  Co  Co11  1  0.83260700  0.83260702  0.66521395  1
