# generated using pymatgen
data_Li7CuF10
_symmetry_space_group_name_H-M   'P 1'
_cell_length_a   5.29856253
_cell_length_b   5.39980555
_cell_length_c   7.49639273
_cell_angle_alpha   106.91706085
_cell_angle_beta   110.67773438
_cell_angle_gamma   94.55849457
_symmetry_Int_Tables_number   1
_chemical_formula_structural   Li7CuF10
_chemical_formula_sum   'Li7 Cu1 F10'
_cell_volume   187.96034086
_cell_formula_units_Z   1
loop_
 _symmetry_equiv_pos_site_id
 _symmetry_equiv_pos_as_xyz
  1  'x, y, z'
loop_
 _atom_site_type_symbol
 _atom_site_label
 _atom_site_symmetry_multiplicity
 _atom_site_fract_x
 _atom_site_fract_y
 _atom_site_fract_z
 _atom_site_occupancy
  Li  Li0  1  0.49022904  0.57390300  0.71594402  1
  Li  Li1  1  0.99023506  0.57391400  0.21594601  1
  Li  Li2  1  0.04941702  0.36994600  0.79489701  1
  Cu  Cu3  1  0.54940604  0.36994600  0.29489801  1
  Li  Li4  1  0.52700406  0.82178299  0.11960402  1
  Li  Li5  1  0.02702504  0.82178899  0.61961602  1
  Li  Li6  1  0.00900800  0.01536600  0.02340800  1
  Li  Li7  1  0.50902902  0.01532800  0.52340201  1
  F  F8  1  0.80464903  0.00641000  0.75526201  1
  F  F9  1  0.30462701  0.00641100  0.25524300  1
  F  F10  1  0.27323104  0.67777600  0.48956402  1
  F  F11  1  0.77322306  0.67778700  0.98956402  1
  F  F12  1  0.22758904  0.74355999  0.86000302  1
  F  F13  1  0.72758306  0.74356599  0.36000902  1
  F  F14  1  0.28453502  0.20624700  0.66164001  1
  F  F15  1  0.78452304  0.20626000  0.16165101  1
  F  F16  1  0.21669703  0.38425900  0.07724201  1
  F  F17  1  0.71670004  0.38425300  0.57723901  1
