# generated using pymatgen
data_TaCo2(Si2Mo)3
_symmetry_space_group_name_H-M   'P 1'
_cell_length_a   4.80771589
_cell_length_b   4.80771589
_cell_length_c   7.90994501
_cell_angle_alpha   90.00000000
_cell_angle_beta   90.00000000
_cell_angle_gamma   120.00000000
_symmetry_Int_Tables_number   1
_chemical_formula_structural   TaCo2(Si2Mo)3
_chemical_formula_sum   'Ta1 Co2 Si6 Mo3'
_cell_volume   158.33673568
_cell_formula_units_Z   1
loop_
 _symmetry_equiv_pos_site_id
 _symmetry_equiv_pos_as_xyz
  1  'x, y, z'
loop_
 _atom_site_type_symbol
 _atom_site_label
 _atom_site_symmetry_multiplicity
 _atom_site_fract_x
 _atom_site_fract_y
 _atom_site_fract_z
 _atom_site_occupancy
  Ta  Ta0  1  0.66666667  0.33333333  0.93660600  1
  Mo  Mo1  1  0.33333333  0.66666665  0.43660600  1
  Mo  Mo2  1  0.33333333  0.66666665  0.06339400  1
  Mo  Mo3  1  0.66666667  0.33333333  0.56339400  1
  Si  Si4  1  0.00000000  0.00000000  0.00000000  1
  Si  Si5  1  0.00000000  0.00000000  0.50000000  1
  Si  Si6  1  0.17185499  0.82814398  0.75000000  1
  Si  Si7  1  0.82814500  0.65628999  0.25000000  1
  Co  Co8  1  0.34371100  0.17185600  0.25000000  1
  Si  Si9  1  0.65628900  0.82814398  0.75000000  1
  Co  Co10  1  0.17185500  0.34370999  0.75000000  1
  Si  Si11  1  0.82814502  0.17185600  0.25000000  1
