# generated using pymatgen
data_Na4Mo5O11
_symmetry_space_group_name_H-M   'P 1'
_cell_length_a   5.44156790
_cell_length_b   5.61986399
_cell_length_c   7.77715302
_cell_angle_alpha   90.00000000
_cell_angle_beta   90.00000000
_cell_angle_gamma   90.00000000
_symmetry_Int_Tables_number   1
_chemical_formula_structural   Na4Mo5O11
_chemical_formula_sum   'Na4 Mo5 O11'
_cell_volume   237.83211669
_cell_formula_units_Z   1
loop_
 _symmetry_equiv_pos_site_id
 _symmetry_equiv_pos_as_xyz
  1  'x, y, z'
loop_
 _atom_site_type_symbol
 _atom_site_label
 _atom_site_symmetry_multiplicity
 _atom_site_fract_x
 _atom_site_fract_y
 _atom_site_fract_z
 _atom_site_occupancy
  Na  Na0  1  0.01174800  0.44812400  0.25000000  1
  Na  Na1  1  0.48825201  0.94812400  0.25000000  1
  Na  Na2  1  0.98825202  0.55187600  0.75000000  1
  Na  Na3  1  0.51174801  0.05187600  0.75000000  1
  Mo  Mo4  1  0.50000001  0.50000000  -0.00000000  1
  Mo  Mo5  1  0.00000000  0.00000000  0.50000000  1
  Mo  Mo6  1  0.50000001  0.50000000  0.50000000  1
  Mo  Mo7  1  0.00000000  0.00000000  0.00000000  1
  O  O8  1  0.90830902  0.03068000  0.25000000  1
  O  O9  1  0.59169101  0.53068000  0.25000000  1
  Mo  Mo10  1  0.09169100  0.96932000  0.75000000  1
  O  O11  1  0.40830901  0.46932000  0.75000000  1
  O  O12  1  0.19954400  0.70377800  0.04785900  1
  O  O13  1  0.30045601  0.20377800  0.45214100  1
  O  O14  1  0.80045602  0.29622200  0.54785900  1
  O  O15  1  0.69954401  0.79622200  0.95214100  1
  O  O16  1  0.80045602  0.29622200  0.95214100  1
  O  O17  1  0.69954401  0.79622200  0.54785900  1
  O  O18  1  0.19954400  0.70377800  0.45214100  1
  O  O19  1  0.30045601  0.20377800  0.04785900  1
