# generated using pymatgen
data_Ge3Te
_symmetry_space_group_name_H-M   'P 1'
_cell_length_a   4.14048195
_cell_length_b   4.14048243
_cell_length_c   6.82263660
_cell_angle_alpha   90.21083832
_cell_angle_beta   90.21083832
_cell_angle_gamma   60.13725662
_symmetry_Int_Tables_number   1
_chemical_formula_structural   Ge3Te
_chemical_formula_sum   'Ge3 Te1'
_cell_volume   101.43312244
_cell_formula_units_Z   1
loop_
 _symmetry_equiv_pos_site_id
 _symmetry_equiv_pos_as_xyz
  1  'x, y, z'
loop_
 _atom_site_type_symbol
 _atom_site_label
 _atom_site_symmetry_multiplicity
 _atom_site_fract_x
 _atom_site_fract_y
 _atom_site_fract_z
 _atom_site_occupancy
  Te  Te0  1  0.66753201  0.66753198  0.63924104  1
  Ge  Ge1  1  0.33288300  0.33288399  0.08017202  1
  Ge  Ge2  1  0.33301700  0.33301799  0.45576803  1
  Ge  Ge3  1  0.66656801  0.66656698  0.01441903  1
