# generated using pymatgen
data_P
_symmetry_space_group_name_H-M   'P 1'
_cell_length_a   3.33555198
_cell_length_b   3.33555126
_cell_length_c   12.82671165
_cell_angle_alpha   90.00000000
_cell_angle_beta   90.00000000
_cell_angle_gamma   120.00000763
_symmetry_Int_Tables_number   1
_chemical_formula_structural   P
_chemical_formula_sum   P8
_cell_volume   123.58941091
_cell_formula_units_Z   8
loop_
 _symmetry_equiv_pos_site_id
 _symmetry_equiv_pos_as_xyz
  1  'x, y, z'
loop_
 _atom_site_type_symbol
 _atom_site_label
 _atom_site_symmetry_multiplicity
 _atom_site_fract_x
 _atom_site_fract_y
 _atom_site_fract_z
 _atom_site_occupancy
  P  P0  1  0.00000000  0.00000000  0.00000000  1
  P  P1  1  0.00000000  0.00000000  0.50000001  1
  P  P2  1  0.33333335  0.66666669  0.25000001  1
  P  P3  1  0.66666668  0.33333334  0.75000002  1
  P  P4  1  0.33333335  0.66666669  0.08508900  1
  P  P5  1  0.66666668  0.33333334  0.58508902  1
  P  P6  1  0.66666668  0.33333334  0.91491102  1
  P  P7  1  0.33333335  0.66666669  0.41491101  1
