# generated using pymatgen
data_HoAu2
_symmetry_space_group_name_H-M   'P 1'
_cell_length_a   3.90792298
_cell_length_b   7.75763178
_cell_length_c   7.75763273
_cell_angle_alpha   120.00000000
_cell_angle_beta   90.00000000
_cell_angle_gamma   90.00000000
_symmetry_Int_Tables_number   1
_chemical_formula_structural   HoAu2
_chemical_formula_sum   'Ho3 Au6'
_cell_volume   203.67372417
_cell_formula_units_Z   3
loop_
 _symmetry_equiv_pos_site_id
 _symmetry_equiv_pos_as_xyz
  1  'x, y, z'
loop_
 _atom_site_type_symbol
 _atom_site_label
 _atom_site_symmetry_multiplicity
 _atom_site_fract_x
 _atom_site_fract_y
 _atom_site_fract_z
 _atom_site_occupancy
  Ho  Ho0  1  0.50000000  0.00000000  0.59091698  1
  Ho  Ho1  1  0.50000000  0.59091703  1.00000000  1
  Ho  Ho2  1  0.50000000  0.40908302  0.40908301  1
  Au  Au3  1  1.00000000  0.25735801  0.99999999  1
  Au  Au4  1  1.00000000  0.00000000  0.25735799  1
  Au  Au5  1  1.00000000  0.74264204  0.74264201  1
  Au  Au6  1  -0.00000000  0.66666670  0.33333336  1
  Au  Au7  1  0.50000000  0.00000000  -0.00000000  1
  Au  Au8  1  1.00000000  0.33333335  0.66666666  1
