# generated using pymatgen
data_PrGe2
_symmetry_space_group_name_H-M   'P 1'
_cell_length_a   4.55033302
_cell_length_b   4.55033302
_cell_length_c   18.67198563
_cell_angle_alpha   90.00000000
_cell_angle_beta   90.00000000
_cell_angle_gamma   90.00000000
_symmetry_Int_Tables_number   1
_chemical_formula_structural   PrGe2
_chemical_formula_sum   'Pr5 Ge10'
_cell_volume   386.61337014
_cell_formula_units_Z   5
loop_
 _symmetry_equiv_pos_site_id
 _symmetry_equiv_pos_as_xyz
  1  'x, y, z'
loop_
 _atom_site_type_symbol
 _atom_site_label
 _atom_site_symmetry_multiplicity
 _atom_site_fract_x
 _atom_site_fract_y
 _atom_site_fract_z
 _atom_site_occupancy
  Pr  Pr0  1  0.50000000  0.00000000  0.38601601  1
  Pr  Pr1  1  0.50000000  0.00000000  0.88649302  1
  Pr  Pr2  1  0.00000000  0.50000000  0.11350700  1
  Pr  Pr3  1  0.00000000  0.50000000  0.61398401  1
  Ge  Ge4  1  0.50000000  0.50000000  0.50000001  1
  Ge  Ge5  1  0.00000000  0.00000000  0.00000000  1
  Ge  Ge6  1  0.00000000  0.00000000  0.50000001  1
  Ge  Ge7  1  0.50000000  0.00000000  0.06985600  1
  Ge  Ge8  1  0.50000000  0.00000000  0.57409201  1
  Ge  Ge9  1  0.00000000  0.50000000  0.42590801  1
  Ge  Ge10  1  0.00000000  0.50000000  0.93014402  1
  Pr  Pr11  1  0.50000000  0.50000000  0.24984501  1
  Ge  Ge12  1  0.50000000  0.50000000  0.75015502  1
  Ge  Ge13  1  0.00000000  0.00000000  0.24976200  1
  Ge  Ge14  1  0.00000000  0.00000000  0.75023802  1
