# generated using pymatgen
data_Tb(HO)3
_symmetry_space_group_name_H-M   'P 1'
_cell_length_a   3.67926908
_cell_length_b   6.47712898
_cell_length_c   6.51417398
_cell_angle_alpha   117.65068817
_cell_angle_beta   90.00000000
_cell_angle_gamma   90.00000000
_symmetry_Int_Tables_number   1
_chemical_formula_structural   Tb(HO)3
_chemical_formula_sum   'Tb2 H6 O6'
_cell_volume   137.51050366
_cell_formula_units_Z   2
loop_
 _symmetry_equiv_pos_site_id
 _symmetry_equiv_pos_as_xyz
  1  'x, y, z'
loop_
 _atom_site_type_symbol
 _atom_site_label
 _atom_site_symmetry_multiplicity
 _atom_site_fract_x
 _atom_site_fract_y
 _atom_site_fract_z
 _atom_site_occupancy
  Tb  Tb0  1  0.24999999  0.65455400  0.32264098  1
  Tb  Tb1  1  0.74999998  0.34544600  0.67735899  1
  H  H2  1  0.24999999  0.13646000  0.31997399  1
  H  H3  1  0.24999999  0.72233900  0.85472398  1
  H  H4  1  0.24999999  0.13987900  0.86015099  1
  H  H5  1  0.74999998  0.86353999  0.68002598  1
  H  H6  1  0.74999998  0.27766100  0.14527599  1
  H  H7  1  0.74999998  0.86012099  0.13984898  1
  O  O8  1  0.24999999  0.30653300  0.40582799  1
  O  O9  1  0.24999999  0.60802500  0.91258998  1
  O  O10  1  0.24999999  0.09435400  0.69498999  1
  O  O11  1  0.74999998  0.69346700  0.59417198  1
  O  O12  1  0.74999998  0.39197500  0.08740999  1
  O  O13  1  0.74999998  0.90564599  0.30500998  1
