# generated using pymatgen
data_TbMoO4
_symmetry_space_group_name_H-M   'P 1'
_cell_length_a   5.17744780
_cell_length_b   5.19980669
_cell_length_c   6.92556620
_cell_angle_alpha   112.04981232
_cell_angle_beta   111.95005798
_cell_angle_gamma   89.99909210
_symmetry_Int_Tables_number   1
_chemical_formula_structural   TbMoO4
_chemical_formula_sum   'Tb2 Mo2 O8'
_cell_volume   158.13454189
_cell_formula_units_Z   2
loop_
 _symmetry_equiv_pos_site_id
 _symmetry_equiv_pos_as_xyz
  1  'x, y, z'
loop_
 _atom_site_type_symbol
 _atom_site_label
 _atom_site_symmetry_multiplicity
 _atom_site_fract_x
 _atom_site_fract_y
 _atom_site_fract_z
 _atom_site_occupancy
  Mo  Mo0  1  0.62272592  0.87272600  0.74545198  1
  Mo  Mo1  1  0.37727398  0.12727400  0.25454799  1
  Tb  Tb2  1  0.12311797  0.37311800  0.74623600  1
  Tb  Tb3  1  0.87688194  0.62688200  0.25376397  1
  O  O4  1  0.43691093  0.79917100  0.09546398  1
  O  O5  1  0.15855297  0.29629300  0.09546399  1
  O  O6  1  0.56308897  0.20082900  0.90453599  1
  O  O7  1  0.84144693  0.70370700  0.90453598  1
  O  O8  1  0.70894396  0.34953100  0.41115498  1
  O  O9  1  0.20221099  0.06162400  0.41115500  1
  O  O10  1  0.29105595  0.65046900  0.58884499  1
  O  O11  1  0.79778891  0.93837600  0.58884497  1
