# generated using pymatgen
data_In
_symmetry_space_group_name_H-M   'P 1'
_cell_length_a   5.12766409
_cell_length_b   8.82328510
_cell_length_c   8.82328510
_cell_angle_alpha   85.15650940
_cell_angle_beta   73.10757446
_cell_angle_gamma   73.10757446
_symmetry_Int_Tables_number   1
_chemical_formula_structural   In
_chemical_formula_sum   In13
_cell_volume   365.48515005
_cell_formula_units_Z   13
loop_
 _symmetry_equiv_pos_site_id
 _symmetry_equiv_pos_as_xyz
  1  'x, y, z'
loop_
 _atom_site_type_symbol
 _atom_site_label
 _atom_site_symmetry_multiplicity
 _atom_site_fract_x
 _atom_site_fract_y
 _atom_site_fract_z
 _atom_site_occupancy
  In  In0  1  0.49999995  0.99999997  0.00000002  1
  In  In1  1  0.87594296  0.71926598  0.52884799  1
  In  In2  1  0.40479197  0.47115098  0.71926598  1
  In  In3  1  0.59520797  0.52884898  0.28073400  1
  In  In4  1  0.12405699  0.28073399  0.47115199  1
  In  In5  1  0.81548999  0.07432500  0.29469398  1
  In  In6  1  0.11018497  0.70530598  0.07432401  1
  In  In7  1  0.88981498  0.29469399  0.92567596  1
  In  In8  1  0.18450996  0.92567497  0.70530599  1
  In  In9  1  0.61283699  0.11900500  0.65532097  1
  In  In10  1  0.26815698  0.34467999  0.11900500  1
  In  In11  1  0.73184296  0.65531998  0.88099497  1
  In  In12  1  0.38716296  0.88099497  0.34467900  1
