# generated using pymatgen
data_HoInAu
_symmetry_space_group_name_H-M   'P 1'
_cell_length_a   4.55563688
_cell_length_b   7.51016998
_cell_length_c   7.51017094
_cell_angle_alpha   120.00000000
_cell_angle_beta   90.00000000
_cell_angle_gamma   90.00000000
_symmetry_Int_Tables_number   1
_chemical_formula_structural   HoInAu
_chemical_formula_sum   'Ho3 In3 Au3'
_cell_volume   222.52526189
_cell_formula_units_Z   3
loop_
 _symmetry_equiv_pos_site_id
 _symmetry_equiv_pos_as_xyz
  1  'x, y, z'
loop_
 _atom_site_type_symbol
 _atom_site_label
 _atom_site_symmetry_multiplicity
 _atom_site_fract_x
 _atom_site_fract_y
 _atom_site_fract_z
 _atom_site_occupancy
  Ho  Ho0  1  0.50000001  0.43124102  0.43124103  1
  Ho  Ho1  1  0.50000001  0.56875902  1.00000003  1
  Ho  Ho2  1  0.50000001  0.00000000  0.56875899  1
  In  In3  1  1.00000003  0.24606401  1.00000001  1
  In  In4  1  1.00000003  0.00000000  0.24606400  1
  In  In5  1  1.00000003  0.75393603  0.75393605  1
  Au  Au6  1  0.50000001  0.00000000  -0.00000000  1
  Au  Au7  1  1.00000003  0.66666669  0.33333338  1
  Au  Au8  1  1.00000003  0.33333335  0.66666669  1
