# generated using pymatgen
data_BiF3
_symmetry_space_group_name_H-M   'P 1'
_cell_length_a   5.63588381
_cell_length_b   5.63588381
_cell_length_c   6.19626951
_cell_angle_alpha   62.94919586
_cell_angle_beta   62.94919586
_cell_angle_gamma   60.00000381
_symmetry_Int_Tables_number   1
_chemical_formula_structural   BiF3
_chemical_formula_sum   'Bi2 F6'
_cell_volume   145.05215494
_cell_formula_units_Z   2
loop_
 _symmetry_equiv_pos_site_id
 _symmetry_equiv_pos_as_xyz
  1  'x, y, z'
loop_
 _atom_site_type_symbol
 _atom_site_label
 _atom_site_symmetry_multiplicity
 _atom_site_fract_x
 _atom_site_fract_y
 _atom_site_fract_z
 _atom_site_occupancy
  Bi  Bi0  1  0.50000001  0.49999999  0.49999998  1
  Bi  Bi1  1  0.00000000  0.00000000  0.00000000  1
  F  F2  1  0.75644900  0.10813700  0.76861397  1
  F  F3  1  0.10813701  0.36679999  0.76861398  1
  F  F4  1  0.36680001  0.75644899  0.76861397  1
  F  F5  1  0.63320000  0.24355100  0.23138599  1
  F  F6  1  0.89186300  0.63319999  0.23138598  1
  F  F7  1  0.24355102  0.89186299  0.23138598  1
