# generated using pymatgen
data_Cs6P2S3N
_symmetry_space_group_name_H-M   'P 1'
_cell_length_a   6.71906137
_cell_length_b   6.71906137
_cell_length_c   9.15415859
_cell_angle_alpha   74.93930054
_cell_angle_beta   74.93930054
_cell_angle_gamma   86.14102936
_symmetry_Int_Tables_number   1
_chemical_formula_structural   Cs6P2S3N
_chemical_formula_sum   'Cs6 P2 S3 N1'
_cell_volume   385.36840607
_cell_formula_units_Z   1
loop_
 _symmetry_equiv_pos_site_id
 _symmetry_equiv_pos_as_xyz
  1  'x, y, z'
loop_
 _atom_site_type_symbol
 _atom_site_label
 _atom_site_symmetry_multiplicity
 _atom_site_fract_x
 _atom_site_fract_y
 _atom_site_fract_z
 _atom_site_occupancy
  Cs  Cs0  1  0.25130299  0.14487100  0.02017300  1
  Cs  Cs1  1  0.14487100  0.25130299  0.52017302  1
  Cs  Cs2  1  0.64338499  0.35661499  0.25000002  1
  Cs  Cs3  1  0.35661499  0.64338499  0.75000004  1
  Cs  Cs4  1  0.85512898  0.74869698  0.47982703  1
  Cs  Cs5  1  0.74869698  0.85512898  0.97982705  1
  N  N6  1  0.71589598  0.28410399  0.75000004  1
  P  P7  1  0.28410399  0.71589598  0.25000002  1
  S  S8  1  0.58561299  0.14277500  0.64651003  1
  P  P9  1  0.85722498  0.41438699  0.85349004  1
  S  S10  1  0.14277500  0.58561299  0.14651001  1
  S  S11  1  0.41438699  0.85722498  0.35349002  1
