# generated using pymatgen
data_Mg2Ga
_symmetry_space_group_name_H-M   'P 1'
_cell_length_a   3.96618295
_cell_length_b   3.96618295
_cell_length_c   8.07707691
_cell_angle_alpha   90.00000000
_cell_angle_beta   90.00000000
_cell_angle_gamma   90.00000000
_symmetry_Int_Tables_number   1
_chemical_formula_structural   Mg2Ga
_chemical_formula_sum   'Mg4 Ga2'
_cell_volume   127.05732399
_cell_formula_units_Z   2
loop_
 _symmetry_equiv_pos_site_id
 _symmetry_equiv_pos_as_xyz
  1  'x, y, z'
loop_
 _atom_site_type_symbol
 _atom_site_label
 _atom_site_symmetry_multiplicity
 _atom_site_fract_x
 _atom_site_fract_y
 _atom_site_fract_z
 _atom_site_occupancy
  Ga  Ga0  1  0.00000000  0.50000001  0.71370901  1
  Ga  Ga1  1  0.50000001  0.00000000  0.28629100  1
  Mg  Mg2  1  0.00000000  0.50000001  0.35626900  1
  Mg  Mg3  1  0.50000001  0.00000000  0.64373101  1
  Mg  Mg4  1  0.50000001  0.50000001  -0.00000000  1
  Mg  Mg5  1  0.00000000  0.00000000  0.00000000  1
