# generated using pymatgen
data_K2W2O5F
_symmetry_space_group_name_H-M   'P 1'
_cell_length_a   6.39551497
_cell_length_b   6.39551497
_cell_length_c   6.39551497
_cell_angle_alpha   60.00000000
_cell_angle_beta   60.00000000
_cell_angle_gamma   60.00000000
_symmetry_Int_Tables_number   1
_chemical_formula_structural   K2W2O5F
_chemical_formula_sum   'K2 W2 O5 F1'
_cell_volume   184.97437162
_cell_formula_units_Z   1
loop_
 _symmetry_equiv_pos_site_id
 _symmetry_equiv_pos_as_xyz
  1  'x, y, z'
loop_
 _atom_site_type_symbol
 _atom_site_label
 _atom_site_symmetry_multiplicity
 _atom_site_fract_x
 _atom_site_fract_y
 _atom_site_fract_z
 _atom_site_occupancy
  F  F0  1  0.71245300  0.71245300  0.28754700  1
  O  O1  1  0.71245300  0.28754700  0.28754700  1
  O  O2  1  0.28754700  0.71245300  0.71245300  1
  O  O3  1  0.28754700  0.71245300  0.28754700  1
  O  O4  1  0.28754700  0.28754700  0.71245300  1
  O  O5  1  0.71245300  0.28754700  0.71245300  1
  K  K6  1  0.75000000  0.75000000  0.75000000  1
  K  K7  1  0.25000000  0.25000000  0.25000000  1
  W  W8  1  0.00000000  0.00000000  0.00000000  1
  W  W9  1  0.50000000  0.50000000  0.50000000  1
