# generated using pymatgen
data_Ho5InPt4
_symmetry_space_group_name_H-M   'P 1'
_cell_length_a   3.68839192
_cell_length_b   7.66804218
_cell_length_c   7.66804218
_cell_angle_alpha   90.00000000
_cell_angle_beta   90.00000000
_cell_angle_gamma   90.00000000
_symmetry_Int_Tables_number   1
_chemical_formula_structural   Ho5InPt4
_chemical_formula_sum   'Ho5 In1 Pt4'
_cell_volume   216.87328063
_cell_formula_units_Z   1
loop_
 _symmetry_equiv_pos_site_id
 _symmetry_equiv_pos_as_xyz
  1  'x, y, z'
loop_
 _atom_site_type_symbol
 _atom_site_label
 _atom_site_symmetry_multiplicity
 _atom_site_fract_x
 _atom_site_fract_y
 _atom_site_fract_z
 _atom_site_occupancy
  Ho  Ho0  1  0.50000001  0.67245298  0.17245300  1
  Ho  Ho1  1  0.50000001  0.32754699  0.82754698  1
  Ho  Ho2  1  0.50000001  0.17245300  0.32754699  1
  Ho  Ho3  1  0.50000001  0.82754698  0.67245298  1
  Ho  Ho4  1  0.00000000  0.00000000  0.00000000  1
  In  In5  1  0.00000000  0.49999999  0.49999999  1
  Pt  Pt6  1  0.00000000  0.12907000  0.62906998  1
  Pt  Pt7  1  1.00000002  0.87092998  0.37092999  1
  Pt  Pt8  1  1.00000002  0.62906998  0.87092998  1
  Pt  Pt9  1  0.00000000  0.37092999  0.12907000  1
