# generated using pymatgen
data_Co4PbF13
_symmetry_space_group_name_H-M   'P 1'
_cell_length_a   5.13011694
_cell_length_b   6.81761980
_cell_length_c   7.35261297
_cell_angle_alpha   66.02613831
_cell_angle_beta   70.78037262
_cell_angle_gamma   79.15582275
_symmetry_Int_Tables_number   1
_chemical_formula_structural   Co4PbF13
_chemical_formula_sum   'Co4 Pb1 F13'
_cell_volume   221.43637169
_cell_formula_units_Z   1
loop_
 _symmetry_equiv_pos_site_id
 _symmetry_equiv_pos_as_xyz
  1  'x, y, z'
loop_
 _atom_site_type_symbol
 _atom_site_label
 _atom_site_symmetry_multiplicity
 _atom_site_fract_x
 _atom_site_fract_y
 _atom_site_fract_z
 _atom_site_occupancy
  F  F0  1  0.00000000  0.00000000  0.00000000  1
  Pb  Pb1  1  0.50000000  0.00000000  0.50000002  1
  Co  Co2  1  0.04605801  0.35417600  0.22785299  1
  Co  Co3  1  0.95394202  0.64582401  0.77214702  1
  Co  Co4  1  0.45145103  0.64041701  0.26711600  1
  Co  Co5  1  0.54854901  0.35958300  0.73288402  1
  F  F6  1  0.17076603  0.71970701  0.15174899  1
  F  F7  1  0.31453001  0.30837300  0.33694001  1
  F  F8  1  0.75727902  0.56231601  0.06255601  1
  F  F9  1  0.25783502  0.56486001  0.56610400  1
  F  F10  1  0.56053804  0.89088101  0.22443800  1
  F  F11  1  0.04836704  0.88348901  0.72157998  1
  F  F12  1  0.95163300  0.11651100  0.27842003  1
  F  F13  1  0.43946200  0.10911900  0.77556202  1
  F  F14  1  0.24272102  0.43768400  0.93744401  1
  F  F15  1  0.74216502  0.43514000  0.43389602  1
  F  F16  1  0.68547003  0.69162701  0.66306001  1
  F  F17  1  0.82923401  0.28029300  0.84825103  1
