# generated using pymatgen
data_Cs4In3F9
_symmetry_space_group_name_H-M   'P 1'
_cell_length_a   6.80854082
_cell_length_b   7.03688717
_cell_length_c   9.71565914
_cell_angle_alpha   90.00000000
_cell_angle_beta   86.69812012
_cell_angle_gamma   90.00000000
_symmetry_Int_Tables_number   1
_chemical_formula_structural   Cs4In3F9
_chemical_formula_sum   'Cs4 In3 F9'
_cell_volume   464.71355840
_cell_formula_units_Z   1
loop_
 _symmetry_equiv_pos_site_id
 _symmetry_equiv_pos_as_xyz
  1  'x, y, z'
loop_
 _atom_site_type_symbol
 _atom_site_label
 _atom_site_symmetry_multiplicity
 _atom_site_fract_x
 _atom_site_fract_y
 _atom_site_fract_z
 _atom_site_occupancy
  Cs  Cs0  1  0.20118200  0.74999998  0.46373698  1
  Cs  Cs1  1  0.47888401  0.24999999  0.15887100  1
  Cs  Cs2  1  0.79881802  0.24999999  0.53626300  1
  Cs  Cs3  1  0.52111601  0.74999998  0.84112898  1
  In  In4  1  0.27347201  0.24999999  0.71978698  1
  In  In5  1  0.72652802  0.74999998  0.28021300  1
  F  F6  1  0.00000000  0.00000000  0.00000000  1
  In  In7  1  0.00000000  0.49999999  0.99999996  1
  F  F8  1  0.69488302  0.74999998  0.50259199  1
  F  F9  1  0.30511701  0.24999999  0.49740799  1
  F  F10  1  0.45572201  0.74999998  0.17473900  1
  F  F11  1  0.54427801  0.24999999  0.82526098  1
  F  F12  1  0.90357902  0.48777499  0.23256901  1
  F  F13  1  0.90357902  0.01222500  0.23256901  1
  F  F14  1  0.09642100  0.51222499  0.76743097  1
  F  F15  1  0.09642100  0.98777498  0.76743097  1
