# generated using pymatgen
data_LiB4Ir3
_symmetry_space_group_name_H-M   'P 1'
_cell_length_a   2.93763494
_cell_length_b   4.11291409
_cell_length_c   5.49128008
_cell_angle_alpha   90.00000000
_cell_angle_beta   90.00000000
_cell_angle_gamma   90.00000000
_symmetry_Int_Tables_number   1
_chemical_formula_structural   LiB4Ir3
_chemical_formula_sum   'Li1 B4 Ir3'
_cell_volume   66.34696460
_cell_formula_units_Z   1
loop_
 _symmetry_equiv_pos_site_id
 _symmetry_equiv_pos_as_xyz
  1  'x, y, z'
loop_
 _atom_site_type_symbol
 _atom_site_label
 _atom_site_symmetry_multiplicity
 _atom_site_fract_x
 _atom_site_fract_y
 _atom_site_fract_z
 _atom_site_occupancy
  Li  Li0  1  0.00000000  0.12606100  0.67968499  1
  Ir  Ir1  1  0.00000000  0.87393898  0.17968500  1
  Ir  Ir2  1  0.50000001  0.36423699  0.32113800  1
  Ir  Ir3  1  0.50000001  0.63576299  0.82113799  1
  B  B4  1  0.00000000  0.62838199  0.53436899  1
  B  B5  1  0.00000000  0.37161799  0.03436900  1
  B  B6  1  0.50000001  0.85620998  0.46480899  1
  B  B7  1  0.50000001  0.14379000  0.96480899  1
