# generated using pymatgen
data_Hg3S2F15
_symmetry_space_group_name_H-M   'P 1'
_cell_length_a   5.88815022
_cell_length_b   7.36357212
_cell_length_c   8.33041096
_cell_angle_alpha   104.03780365
_cell_angle_beta   90.00000000
_cell_angle_gamma   90.00000000
_symmetry_Int_Tables_number   1
_chemical_formula_structural   Hg3S2F15
_chemical_formula_sum   'Hg3 S2 F15'
_cell_volume   350.40187896
_cell_formula_units_Z   1
loop_
 _symmetry_equiv_pos_site_id
 _symmetry_equiv_pos_as_xyz
  1  'x, y, z'
loop_
 _atom_site_type_symbol
 _atom_site_label
 _atom_site_symmetry_multiplicity
 _atom_site_fract_x
 _atom_site_fract_y
 _atom_site_fract_z
 _atom_site_occupancy
  Hg  Hg0  1  0.74999997  0.23907199  0.84269003  1
  F  F1  1  0.24999999  0.76092798  0.15730997  1
  F  F2  1  0.74999997  0.60743798  0.41401799  1
  Hg  Hg3  1  0.24999999  0.39256199  0.58598201  1
  Hg  Hg4  1  0.74999997  0.07749500  0.37780402  1
  F  F5  1  0.24999999  0.92250497  0.62219599  1
  S  S6  1  0.74999997  0.70633298  0.85716601  1
  S  S7  1  0.24999999  0.29366699  0.14283399  1
  F  F8  1  0.49946298  0.17788699  0.62115402  1
  F  F9  1  0.99946296  0.82211298  0.37884598  1
  F  F10  1  0.50053698  0.82211298  0.37884598  1
  F  F11  1  0.00053700  0.17788699  0.62115402  1
  F  F12  1  0.74999997  0.81611898  0.72509700  1
  F  F13  1  0.24999999  0.18388099  0.27490301  1
  F  F14  1  0.74999997  0.83754398  0.02227396  1
  F  F15  1  0.24999999  0.16245600  0.97772604  1
  F  F16  1  0.45549898  0.41849999  0.16499299  1
  F  F17  1  0.95549897  0.58149998  0.83500702  1
  F  F18  1  0.54450098  0.58149998  0.83500702  1
  F  F19  1  0.04450100  0.41849999  0.16499299  1
