# generated using pymatgen
data_HoGe
_symmetry_space_group_name_H-M   'P 1'
_cell_length_a   3.91270304
_cell_length_b   3.94029403
_cell_length_c   17.65846443
_cell_angle_alpha   90.00000000
_cell_angle_beta   90.00000000
_cell_angle_gamma   90.00000000
_symmetry_Int_Tables_number   1
_chemical_formula_structural   HoGe
_chemical_formula_sum   'Ho6 Ge6'
_cell_volume   272.24408505
_cell_formula_units_Z   6
loop_
 _symmetry_equiv_pos_site_id
 _symmetry_equiv_pos_as_xyz
  1  'x, y, z'
loop_
 _atom_site_type_symbol
 _atom_site_label
 _atom_site_symmetry_multiplicity
 _atom_site_fract_x
 _atom_site_fract_y
 _atom_site_fract_z
 _atom_site_occupancy
  Ge  Ge0  1  0.74999999  0.24056800  0.86088603  1
  Ho  Ho1  1  0.74999999  0.25943200  0.36088601  1
  Ho  Ho2  1  0.25000000  0.75943199  0.13911400  1
  Ge  Ge3  1  0.25000000  0.74056799  0.63911402  1
  Ho  Ho4  1  0.25000000  0.21564200  0.50120302  1
  Ge  Ge5  1  0.25000000  0.28435800  0.00120300  1
  Ge  Ge6  1  0.74999999  0.78435799  0.49879702  1
  Ho  Ho7  1  0.74999999  0.71564200  0.99879703  1
  Ho  Ho8  1  0.74999999  0.24268200  0.68780802  1
  Ge  Ge9  1  0.74999999  0.25731800  0.18780801  1
  Ge  Ge10  1  0.25000000  0.75731799  0.31219201  1
  Ho  Ho11  1  0.25000000  0.74268199  0.81219203  1
