# generated using pymatgen
data_Ga
_symmetry_space_group_name_H-M   'P 1'
_cell_length_a   4.51698828
_cell_length_b   4.51698828
_cell_length_c   18.72187805
_cell_angle_alpha   83.07130432
_cell_angle_beta   83.07130432
_cell_angle_gamma   59.99999619
_symmetry_Int_Tables_number   1
_chemical_formula_structural   Ga
_chemical_formula_sum   Ga15
_cell_volume   327.58434578
_cell_formula_units_Z   15
loop_
 _symmetry_equiv_pos_site_id
 _symmetry_equiv_pos_as_xyz
  1  'x, y, z'
loop_
 _atom_site_type_symbol
 _atom_site_label
 _atom_site_symmetry_multiplicity
 _atom_site_fract_x
 _atom_site_fract_y
 _atom_site_fract_z
 _atom_site_occupancy
  Ga  Ga0  1  0.70032704  0.70032700  0.89901902  1
  Ga  Ga1  1  0.09994101  0.09994100  0.70017701  1
  Ga  Ga2  1  0.50010503  0.50010500  0.49968501  1
  Ga  Ga3  1  0.89918405  0.89918400  0.30244801  1
  Ga  Ga4  1  0.59804403  0.59804400  0.20586801  1
  Ga  Ga5  1  0.80007704  0.80007700  0.59976902  1
  Ga  Ga6  1  0.20033401  0.20033400  0.39899801  1
  Ga  Ga7  1  0.00191300  0.00191300  0.99426101  1
  Ga  Ga8  1  0.40042602  0.40042600  0.79872201  1
  Ga  Ga9  1  0.29978102  0.29978100  0.10065700  1
  Ga  Ga10  1  0.05054300  0.05054300  0.84837101  1
  Ga  Ga11  1  0.45009902  0.45009900  0.64970301  1
  Ga  Ga12  1  0.84985405  0.84985400  0.45043801  1
  Ga  Ga13  1  0.24978901  0.24978900  0.25063301  1
  Ga  Ga14  1  0.64958204  0.64958200  0.05125401  1
