# generated using pymatgen
data_Ga9S7O
_symmetry_space_group_name_H-M   'P 1'
_cell_length_a   7.00161982
_cell_length_b   7.00161982
_cell_length_c   7.00161982
_cell_angle_alpha   60.00000000
_cell_angle_beta   60.00000000
_cell_angle_gamma   60.00000000
_symmetry_Int_Tables_number   1
_chemical_formula_structural   Ga9S7O
_chemical_formula_sum   'Ga9 S7 O1'
_cell_volume   242.70603618
_cell_formula_units_Z   1
loop_
 _symmetry_equiv_pos_site_id
 _symmetry_equiv_pos_as_xyz
  1  'x, y, z'
loop_
 _atom_site_type_symbol
 _atom_site_label
 _atom_site_symmetry_multiplicity
 _atom_site_fract_x
 _atom_site_fract_y
 _atom_site_fract_z
 _atom_site_occupancy
  Ga  Ga0  1  0.87371103  0.87371103  0.37886701  1
  Ga  Ga1  1  0.87371103  0.87371103  0.87371103  1
  Ga  Ga2  1  0.87371103  0.37886701  0.87371103  1
  Ga  Ga3  1  0.37886701  0.87371103  0.87371103  1
  Ga  Ga4  1  0.12628900  0.12628900  0.62113302  1
  Ga  Ga5  1  0.12628900  0.12628900  0.12628900  1
  Ga  Ga6  1  0.12628900  0.62113302  0.12628900  1
  Ga  Ga7  1  0.62113302  0.12628900  0.12628900  1
  Ga  Ga8  1  0.50000002  0.50000002  0.50000002  1
  O  O9  1  0.75000002  0.75000002  0.75000002  1
  S  S10  1  0.25000001  0.25000001  0.25000001  1
  S  S11  1  0.25582101  0.74417902  0.25582101  1
  S  S12  1  0.74417902  0.25582101  0.25582101  1
  S  S13  1  0.74417902  0.74417902  0.25582101  1
  S  S14  1  0.74417902  0.25582101  0.74417902  1
  S  S15  1  0.25582101  0.74417902  0.74417902  1
  S  S16  1  0.25582101  0.25582101  0.74417902  1
