# generated using pymatgen
data_CsBaAgS3
_symmetry_space_group_name_H-M   'P 1'
_cell_length_a   4.49837780
_cell_length_b   7.77835226
_cell_length_c   11.51433754
_cell_angle_alpha   90.00000000
_cell_angle_beta   90.00000000
_cell_angle_gamma   106.80767822
_symmetry_Int_Tables_number   1
_chemical_formula_structural   CsBaAgS3
_chemical_formula_sum   'Cs2 Ba2 Ag2 S6'
_cell_volume   385.67529410
_cell_formula_units_Z   2
loop_
 _symmetry_equiv_pos_site_id
 _symmetry_equiv_pos_as_xyz
  1  'x, y, z'
loop_
 _atom_site_type_symbol
 _atom_site_label
 _atom_site_symmetry_multiplicity
 _atom_site_fract_x
 _atom_site_fract_y
 _atom_site_fract_z
 _atom_site_occupancy
  Cs  Cs0  1  0.74972004  0.49944000  0.75000003  1
  Cs  Cs1  1  0.25028001  0.50056000  0.25000001  1
  Ba  Ba2  1  0.00000000  0.00000000  0.50000002  1
  Ba  Ba3  1  0.00000000  0.00000000  0.00000000  1
  Ag  Ag4  1  0.46653503  0.93307001  0.75000003  1
  Ag  Ag5  1  0.53346502  0.06693000  0.25000001  1
  S  S6  1  0.36207702  0.72415401  0.56250502  1
  S  S7  1  0.63792303  0.27584600  0.43749502  1
  S  S8  1  0.36207702  0.72415401  0.93749504  1
  S  S9  1  0.63792303  0.27584600  0.06250500  1
  S  S10  1  0.07049100  0.14098200  0.75000003  1
  S  S11  1  0.92950905  0.85901801  0.25000001  1
