# generated using pymatgen
data_Co4BP
_symmetry_space_group_name_H-M   'P 1'
_cell_length_a   3.66038895
_cell_length_b   3.66038895
_cell_length_c   5.18308020
_cell_angle_alpha   90.00000000
_cell_angle_beta   90.00000000
_cell_angle_gamma   90.00000000
_symmetry_Int_Tables_number   1
_chemical_formula_structural   Co4BP
_chemical_formula_sum   'Co4 B1 P1'
_cell_volume   69.44522655
_cell_formula_units_Z   1
loop_
 _symmetry_equiv_pos_site_id
 _symmetry_equiv_pos_as_xyz
  1  'x, y, z'
loop_
 _atom_site_type_symbol
 _atom_site_label
 _atom_site_symmetry_multiplicity
 _atom_site_fract_x
 _atom_site_fract_y
 _atom_site_fract_z
 _atom_site_occupancy
  B  B0  1  0.00000000  0.00000000  0.00000000  1
  P  P1  1  0.50000001  0.50000001  0.49999998  1
  Co  Co2  1  0.50000001  0.00000000  0.74871097  1
  Co  Co3  1  0.00000000  0.50000001  0.25128899  1
  Co  Co4  1  0.50000001  0.00000000  0.25128899  1
  Co  Co5  1  0.00000000  0.50000001  0.74871097  1
