# generated using pymatgen
data_Cr2CuS4
_symmetry_space_group_name_H-M   'P 1'
_cell_length_a   6.96808386
_cell_length_b   7.03412628
_cell_length_c   7.03412628
_cell_angle_alpha   60.79770660
_cell_angle_beta   60.31009674
_cell_angle_gamma   60.31009674
_symmetry_Int_Tables_number   1
_chemical_formula_structural   Cr2CuS4
_chemical_formula_sum   'Cr4 Cu2 S8'
_cell_volume   246.38432287
_cell_formula_units_Z   2
loop_
 _symmetry_equiv_pos_site_id
 _symmetry_equiv_pos_as_xyz
  1  'x, y, z'
loop_
 _atom_site_type_symbol
 _atom_site_label
 _atom_site_symmetry_multiplicity
 _atom_site_fract_x
 _atom_site_fract_y
 _atom_site_fract_z
 _atom_site_occupancy
  Cr  Cr0  1  1.00000002  0.50000000  -0.00000002  1
  Cr  Cr1  1  0.50000001  0.50000000  -0.00000001  1
  Cr  Cr2  1  0.50000001  0.50000000  0.49999998  1
  Cr  Cr3  1  0.50000001  0.00000000  -0.00000000  1
  Cu  Cu4  1  0.87446702  0.87553300  0.37553297  1
  Cu  Cu5  1  0.12553300  0.12446700  0.62446699  1
  S  S6  1  0.74291002  0.74688500  0.76729497  1
  S  S7  1  0.74291002  0.26729500  0.24688499  1
  S  S8  1  0.27253401  0.74443100  0.24443098  1
  S  S9  1  0.73860402  0.74443200  0.24443098  1
  S  S10  1  0.25709001  0.25311500  0.23270499  1
  S  S11  1  0.25709001  0.73270500  0.75311497  1
  S  S12  1  0.72746602  0.25556900  0.75556898  1
  S  S13  1  0.26139601  0.25556800  0.75556898  1
