# generated using pymatgen
data_Hg
_symmetry_space_group_name_H-M   'P 1'
_cell_length_a   5.55408287
_cell_length_b   6.66630411
_cell_length_c   6.66630411
_cell_angle_alpha   60.00000000
_cell_angle_beta   90.00000000
_cell_angle_gamma   90.00000000
_symmetry_Int_Tables_number   1
_chemical_formula_structural   Hg
_chemical_formula_sum   Hg8
_cell_volume   213.75349823
_cell_formula_units_Z   8
loop_
 _symmetry_equiv_pos_site_id
 _symmetry_equiv_pos_as_xyz
  1  'x, y, z'
loop_
 _atom_site_type_symbol
 _atom_site_label
 _atom_site_symmetry_multiplicity
 _atom_site_fract_x
 _atom_site_fract_y
 _atom_site_fract_z
 _atom_site_occupancy
  Hg  Hg0  1  0.75000002  0.66666667  0.66666667  1
  Hg  Hg1  1  0.25000001  0.33333333  0.33333333  1
  Hg  Hg2  1  0.25000001  0.83724500  0.32550998  1
  Hg  Hg3  1  0.25000001  0.83724500  0.83724400  1
  Hg  Hg4  1  0.25000001  0.32551100  0.83724402  1
  Hg  Hg5  1  0.75000002  0.16275500  0.67449002  1
  Hg  Hg6  1  0.75000002  0.16275500  0.16275600  1
  Hg  Hg7  1  0.75000002  0.67448900  0.16275598  1
