# generated using pymatgen
data_Tb2NiP11Pd2
_symmetry_space_group_name_H-M   'P 1'
_cell_length_a   5.27575779
_cell_length_b   5.27575779
_cell_length_c   10.52173233
_cell_angle_alpha   104.51939392
_cell_angle_beta   104.51939392
_cell_angle_gamma   90.00000000
_symmetry_Int_Tables_number   1
_chemical_formula_structural   Tb2NiP11Pd2
_chemical_formula_sum   'Tb2 Ni1 P11 Pd2'
_cell_volume   273.83252180
_cell_formula_units_Z   1
loop_
 _symmetry_equiv_pos_site_id
 _symmetry_equiv_pos_as_xyz
  1  'x, y, z'
loop_
 _atom_site_type_symbol
 _atom_site_label
 _atom_site_symmetry_multiplicity
 _atom_site_fract_x
 _atom_site_fract_y
 _atom_site_fract_z
 _atom_site_occupancy
  Tb  Tb0  1  0.62627704  0.62627703  0.76486402  1
  Tb  Tb1  1  0.13858701  0.13858701  0.76486401  1
  P  P2  1  0.37372303  0.86141404  0.23513702  1
  P  P3  1  0.86141305  0.37372202  0.23513502  1
  P  P4  1  0.74971805  0.74971804  0.49943603  1
  Ni  Ni5  1  0.25028202  0.25028201  0.50056401  1
  Pd  Pd6  1  0.25000002  0.75000004  0.50000002  1
  Pd  Pd7  1  0.75000004  0.25000001  0.50000002  1
  P  P8  1  0.00000000  0.00000000  0.00000000  1
  P  P9  1  0.41980503  0.41980502  0.34579702  1
  P  P10  1  0.92599206  0.92599204  0.34579703  1
  P  P11  1  0.58019503  0.07400800  0.65420301  1
  P  P12  1  0.07400801  0.58019503  0.65420302  1
  P  P13  1  0.50000003  0.50000002  1.00000002  1
  P  P14  1  0.50000002  0.00000000  0.00000001  1
  P  P15  1  0.00000001  0.50000002  0.00000001  1
