# generated using pymatgen
data_Au
_symmetry_space_group_name_H-M   'P 1'
_cell_length_a   5.10599995
_cell_length_b   5.26178455
_cell_length_c   5.77894449
_cell_angle_alpha   65.75258636
_cell_angle_beta   63.78273773
_cell_angle_gamma   60.97464371
_symmetry_Int_Tables_number   1
_chemical_formula_structural   Au
_chemical_formula_sum   Au6
_cell_volume   117.91846001
_cell_formula_units_Z   6
loop_
 _symmetry_equiv_pos_site_id
 _symmetry_equiv_pos_as_xyz
  1  'x, y, z'
loop_
 _atom_site_type_symbol
 _atom_site_label
 _atom_site_symmetry_multiplicity
 _atom_site_fract_x
 _atom_site_fract_y
 _atom_site_fract_z
 _atom_site_occupancy
  Au  Au0  1  0.41612499  0.58608600  0.75120399  1
  Au  Au1  1  0.75341499  0.91391399  0.74879598  1
  Au  Au2  1  0.24658500  0.08608600  0.25120400  1
  Au  Au3  1  0.58387500  0.41391400  0.24879600  1
  Au  Au4  1  0.91762699  0.75000000  0.24999999  1
  Au  Au5  1  0.08237300  0.25000000  0.74999999  1
