# generated using pymatgen
data_Nd4CoGe4
_symmetry_space_group_name_H-M   'P 1'
_cell_length_a   3.94827604
_cell_length_b   4.31038809
_cell_length_c   12.68203545
_cell_angle_alpha   99.78437042
_cell_angle_beta   90.00000000
_cell_angle_gamma   90.00000000
_symmetry_Int_Tables_number   1
_chemical_formula_structural   Nd4CoGe4
_chemical_formula_sum   'Nd4 Co1 Ge4'
_cell_volume   212.69110667
_cell_formula_units_Z   1
loop_
 _symmetry_equiv_pos_site_id
 _symmetry_equiv_pos_as_xyz
  1  'x, y, z'
loop_
 _atom_site_type_symbol
 _atom_site_label
 _atom_site_symmetry_multiplicity
 _atom_site_fract_x
 _atom_site_fract_y
 _atom_site_fract_z
 _atom_site_occupancy
  Nd  Nd0  1  0.49999999  0.57028299  0.14056599  1
  Nd  Nd1  1  0.00000000  0.42999499  0.85998998  1
  Nd  Nd2  1  0.49999999  0.29905899  0.59811799  1
  Nd  Nd3  1  0.00000000  0.70236298  0.40472599  1
  Ge  Ge4  1  0.49999999  0.17062500  0.34124999  1
  Ge  Ge5  1  0.00000000  0.82927798  0.65855598  1
  Co  Co6  1  0.49999999  0.88720598  0.77441198  1
  Ge  Ge7  1  0.00000000  0.11171500  0.22343000  1
  Ge  Ge8  1  0.49999999  0.98147598  0.96295198  1
