# generated using pymatgen
data_Ba2MgWO6
_symmetry_space_group_name_H-M   'P 1'
_cell_length_a   5.74308014
_cell_length_b   5.97874832
_cell_length_c   5.74308014
_cell_angle_alpha   61.29557800
_cell_angle_beta   90.00000000
_cell_angle_gamma   118.70442200
_symmetry_Int_Tables_number   1
_chemical_formula_structural   Ba2MgWO6
_chemical_formula_sum   'Ba2 Mg1 W1 O6'
_cell_volume   144.72702141
_cell_formula_units_Z   1
loop_
 _symmetry_equiv_pos_site_id
 _symmetry_equiv_pos_as_xyz
  1  'x, y, z'
loop_
 _atom_site_type_symbol
 _atom_site_label
 _atom_site_symmetry_multiplicity
 _atom_site_fract_x
 _atom_site_fract_y
 _atom_site_fract_z
 _atom_site_occupancy
  Ba  Ba0  1  0.25000002  0.50000002  0.24999997  1
  Ba  Ba1  1  0.75000001  0.50000002  0.74999996  1
  Mg  Mg2  1  0.00000000  0.00000000  0.00000000  1
  W  W3  1  0.49999999  0.00000000  0.49999999  1
  O  O4  1  0.27841102  0.55682202  0.72158896  1
  O  O5  1  0.72158900  0.44317802  0.27841097  1
  O  O6  1  0.72130398  0.00000000  0.75431198  1
  O  O7  1  0.27869599  0.00000000  0.24568799  1
  O  O8  1  0.75431198  0.00000000  0.27869599  1
  O  O9  1  0.24568799  0.00000000  0.72130398  1
