# generated using pymatgen
data_LuCo7Mo5C
_symmetry_space_group_name_H-M   'P 1'
_cell_length_a   4.85352421
_cell_length_b   6.49680519
_cell_length_c   6.49680519
_cell_angle_alpha   81.63886261
_cell_angle_beta   68.06641388
_cell_angle_gamma   68.06641388
_symmetry_Int_Tables_number   1
_chemical_formula_structural   LuCo7Mo5C
_chemical_formula_sum   'Lu1 Co7 Mo5 C1'
_cell_volume   176.27249459
_cell_formula_units_Z   1
loop_
 _symmetry_equiv_pos_site_id
 _symmetry_equiv_pos_as_xyz
  1  'x, y, z'
loop_
 _atom_site_type_symbol
 _atom_site_label
 _atom_site_symmetry_multiplicity
 _atom_site_fract_x
 _atom_site_fract_y
 _atom_site_fract_z
 _atom_site_occupancy
  Lu  Lu0  1  -0.00000007  0.99273903  0.00726107  1
  Mo  Mo1  1  0.99999994  0.36596401  0.63403602  1
  Co  Co2  1  0.49999993  0.77562402  0.22437605  1
  Mo  Mo3  1  0.49999997  0.22241201  0.77758803  1
  Co  Co4  1  0.72032492  0.78167902  0.77767106  1
  Co  Co5  1  0.27967498  0.22232901  0.21832102  1
  Co  Co6  1  0.00094293  0.99777603  0.49918208  1
  Co  Co7  1  0.50209992  0.99777603  0.49918207  1
  Co  Co8  1  0.49790095  0.50081802  0.00222403  1
  Co  Co9  1  0.99905793  0.50081802  0.00222402  1
  Mo  Mo10  1  -0.00000004  0.64345002  0.35655005  1
  Mo  Mo11  1  0.64133795  0.35872801  0.35859602  1
  Mo  Mo12  1  0.35866195  0.64140402  0.64127205  1
  C  C13  1  0.49999992  0.99848503  0.00151506  1
