# generated using pymatgen
data_Na4Li2CuGeF12
_symmetry_space_group_name_H-M   'P 1'
_cell_length_a   5.18307495
_cell_length_b   5.23502016
_cell_length_c   7.36093569
_cell_angle_alpha   90.00000000
_cell_angle_beta   90.02084351
_cell_angle_gamma   90.00000000
_symmetry_Int_Tables_number   1
_chemical_formula_structural   Na4Li2CuGeF12
_chemical_formula_sum   'Na4 Li2 Cu1 Ge1 F12'
_cell_volume   199.72794899
_cell_formula_units_Z   1
loop_
 _symmetry_equiv_pos_site_id
 _symmetry_equiv_pos_as_xyz
  1  'x, y, z'
loop_
 _atom_site_type_symbol
 _atom_site_label
 _atom_site_symmetry_multiplicity
 _atom_site_fract_x
 _atom_site_fract_y
 _atom_site_fract_z
 _atom_site_occupancy
  Na  Na0  1  0.50557700  0.02599200  0.75021697  1
  Na  Na1  1  0.99442301  0.52599198  0.74978296  1
  Na  Na2  1  0.49442300  0.97400797  0.24978298  1
  Na  Na3  1  0.00557700  0.47400799  0.25021699  1
  Li  Li4  1  0.00000000  0.00000000  0.49999999  1
  Li  Li5  1  0.50000000  0.49999998  -0.00000001  1
  Cu  Cu6  1  0.00000000  0.00000000  0.00000000  1
  Ge  Ge7  1  0.50000000  0.49999998  0.49999998  1
  F  F8  1  0.29983600  0.23191599  0.46441998  1
  F  F9  1  0.20016400  0.73191598  0.03558000  1
  F  F10  1  0.70016401  0.76808398  0.53557997  1
  F  F11  1  0.79983601  0.26808399  0.96441996  1
  F  F12  1  0.26820200  0.20292599  0.03150399  1
  F  F13  1  0.23179800  0.70292598  0.46849598  1
  F  F14  1  0.73179801  0.79707398  0.96849596  1
  F  F15  1  0.76820201  0.29707399  0.53150397  1
  F  F16  1  0.93655301  0.01651200  0.23511898  1
  F  F17  1  0.56344701  0.51651198  0.26488098  1
  F  F18  1  0.06344700  0.98348797  0.76488098  1
  F  F19  1  0.43655300  0.48348799  0.73511897  1
