# generated using pymatgen
data_Lu2Te3
_symmetry_space_group_name_H-M   'P 1'
_cell_length_a   3.35442710
_cell_length_b   3.35442710
_cell_length_c   17.66164970
_cell_angle_alpha   90.00000000
_cell_angle_beta   90.00000000
_cell_angle_gamma   90.00000000
_symmetry_Int_Tables_number   1
_chemical_formula_structural   Lu2Te3
_chemical_formula_sum   'Lu4 Te6'
_cell_volume   198.73208212
_cell_formula_units_Z   2
loop_
 _symmetry_equiv_pos_site_id
 _symmetry_equiv_pos_as_xyz
  1  'x, y, z'
loop_
 _atom_site_type_symbol
 _atom_site_label
 _atom_site_symmetry_multiplicity
 _atom_site_fract_x
 _atom_site_fract_y
 _atom_site_fract_z
 _atom_site_occupancy
  Te  Te0  1  0.49999999  0.49999999  -0.00000000  1
  Te  Te1  1  0.00000000  0.00000000  0.89132396  1
  Lu  Lu2  1  0.00000000  0.00000000  0.10867600  1
  Lu  Lu3  1  0.00000000  0.00000000  0.30410899  1
  Te  Te4  1  0.00000000  0.00000000  0.49999998  1
  Te  Te5  1  0.00000000  0.00000000  0.69589097  1
  Te  Te6  1  0.49999999  0.49999999  0.20380599  1
  Te  Te7  1  0.49999999  0.49999999  0.40153298  1
  Lu  Lu8  1  0.49999999  0.49999999  0.59846698  1
  Lu  Lu9  1  0.49999999  0.49999999  0.79619397  1
