# generated using pymatgen
data_Cs2HgP
_symmetry_space_group_name_H-M   'P 1'
_cell_length_a   6.13366795
_cell_length_b   6.44574118
_cell_length_c   6.44574118
_cell_angle_alpha   103.59111786
_cell_angle_beta   90.00000000
_cell_angle_gamma   90.00000000
_symmetry_Int_Tables_number   1
_chemical_formula_structural   Cs2HgP
_chemical_formula_sum   'Cs4 Hg2 P2'
_cell_volume   247.70290985
_cell_formula_units_Z   2
loop_
 _symmetry_equiv_pos_site_id
 _symmetry_equiv_pos_as_xyz
  1  'x, y, z'
loop_
 _atom_site_type_symbol
 _atom_site_label
 _atom_site_symmetry_multiplicity
 _atom_site_fract_x
 _atom_site_fract_y
 _atom_site_fract_z
 _atom_site_occupancy
  Cs  Cs0  1  0.75000001  0.68409898  0.02944401  1
  Cs  Cs1  1  0.25000000  0.31590099  0.97055598  1
  Cs  Cs2  1  0.75000001  0.02944400  0.68409898  1
  Cs  Cs3  1  0.25000000  0.97055598  0.31590100  1
  Hg  Hg4  1  0.50000000  0.49999999  0.49999999  1
  Hg  Hg5  1  1.00000001  0.49999999  0.49999999  1
  P  P6  1  0.25000000  0.75907298  0.75907299  1
  P  P7  1  0.75000001  0.24092699  0.24092700  1
