# generated using pymatgen
data_In4SiP4HN
_symmetry_space_group_name_H-M   'P 1'
_cell_length_a   5.91995001
_cell_length_b   6.48008966
_cell_length_c   6.48008966
_cell_angle_alpha   77.95687103
_cell_angle_beta   62.82048416
_cell_angle_gamma   62.82048416
_symmetry_Int_Tables_number   1
_chemical_formula_structural   In4SiP4HN
_chemical_formula_sum   'In4 Si1 P4 H1 N1'
_cell_volume   196.72059661
_cell_formula_units_Z   1
loop_
 _symmetry_equiv_pos_site_id
 _symmetry_equiv_pos_as_xyz
  1  'x, y, z'
loop_
 _atom_site_type_symbol
 _atom_site_label
 _atom_site_symmetry_multiplicity
 _atom_site_fract_x
 _atom_site_fract_y
 _atom_site_fract_z
 _atom_site_occupancy
  In  In0  1  0.75000001  0.50000001  0.50000001  1
  H  H1  1  0.49649200  0.11950800  0.08676601  1
  In  In2  1  0.70276603  0.88049201  0.91323401  1
  In  In3  1  0.38399903  0.91323501  0.11950798  1
  In  In4  1  0.41674300  0.08676500  0.88049202  1
  Si  Si5  1  0.25000002  0.50000001  0.50000000  1
  P  P6  1  0.16529202  0.57678901  0.18402299  1
  P  P7  1  0.92610401  0.42321100  0.81597702  1
  P  P8  1  0.25791903  0.81597701  0.57678899  1
  P  P9  1  0.65068500  0.18402300  0.42321102  1
  N  N10  1  0.49999999  0.00000000  0.00000001  1
