# generated using pymatgen
data_Tb(In2Au3)3
_symmetry_space_group_name_H-M   'P 1'
_cell_length_a   7.82986593
_cell_length_b   8.76760483
_cell_length_c   7.82986593
_cell_angle_alpha   63.47920990
_cell_angle_beta   90.00000000
_cell_angle_gamma   116.52079010
_symmetry_Int_Tables_number   1
_chemical_formula_structural   Tb(In2Au3)3
_chemical_formula_sum   'Tb1 In6 Au9'
_cell_volume   416.78477825
_cell_formula_units_Z   1
loop_
 _symmetry_equiv_pos_site_id
 _symmetry_equiv_pos_as_xyz
  1  'x, y, z'
loop_
 _atom_site_type_symbol
 _atom_site_label
 _atom_site_symmetry_multiplicity
 _atom_site_fract_x
 _atom_site_fract_y
 _atom_site_fract_z
 _atom_site_occupancy
  Tb  Tb0  1  0.00000000  0.00000000  0.00000000  1
  In  In1  1  0.50000000  0.00000000  0.50000000  1
  In  In2  1  0.79899301  0.28486200  0.01413100  1
  Au  Au3  1  0.20100700  0.71513800  0.98586901  1
  In  In4  1  0.48587000  0.28486400  0.70100601  1
  In  In5  1  0.29899300  0.28486300  0.20100700  1
  Au  Au6  1  0.01413000  0.71513700  0.48587001  1
  In  In7  1  0.51413000  0.71513600  0.29899400  1
  Au  Au8  1  0.70100700  0.71513700  0.79899301  1
  In  In9  1  0.98587001  0.28486300  0.51413000  1
  Au  Au10  1  0.25000000  0.50000000  0.75000001  1
  Au  Au11  1  0.75000001  0.50000000  0.25000000  1
  Au  Au12  1  0.13654800  0.99999901  0.63654901  1
  Au  Au13  1  0.86345201  0.00000100  0.36345100  1
  Au  Au14  1  0.63654801  0.00000000  0.86345201  1
  Au  Au15  1  0.36345200  0.00000000  0.13654800  1
