# generated using pymatgen
data_V5OF14
_symmetry_space_group_name_H-M   'P 1'
_cell_length_a   5.28644609
_cell_length_b   6.59706545
_cell_length_c   7.21482277
_cell_angle_alpha   84.21576691
_cell_angle_beta   89.82422638
_cell_angle_gamma   66.59988403
_symmetry_Int_Tables_number   1
_chemical_formula_structural   V5OF14
_chemical_formula_sum   'V5 O1 F14'
_cell_volume   229.55859381
_cell_formula_units_Z   1
loop_
 _symmetry_equiv_pos_site_id
 _symmetry_equiv_pos_as_xyz
  1  'x, y, z'
loop_
 _atom_site_type_symbol
 _atom_site_label
 _atom_site_symmetry_multiplicity
 _atom_site_fract_x
 _atom_site_fract_y
 _atom_site_fract_z
 _atom_site_occupancy
  V  V0  1  0.98738198  0.00051200  0.74921003  1
  F  F1  1  0.00539400  0.01121400  0.24051200  1
  V  V2  1  0.63673900  0.70035299  0.71453505  1
  V  V3  1  0.33604200  0.29880100  0.78565603  1
  V  V4  1  0.65604100  0.70193899  0.21496205  1
  V  V5  1  0.36169400  0.29480600  0.28548202  1
  F  F6  1  0.22441900  0.29995900  0.53300502  1
  F  F7  1  0.52722701  0.69937499  0.96815205  1
  F  F8  1  0.63795899  0.00128400  0.75089502  1
  F  F9  1  0.40162801  0.58189499  0.29815404  1
  O  O10  1  0.11768900  0.15679200  0.88893602  1
  F  F11  1  0.71811799  0.15977800  0.38406402  1
  F  F12  1  0.02505401  0.58473299  0.79948403  1
  F  F13  1  0.98432299  0.41561800  0.20323004  1
  F  F14  1  0.27980601  0.84094399  0.61494405  1
  F  F15  1  0.61102500  0.41383100  0.69995404  1
  F  F16  1  0.87666500  0.83621099  0.11778506  1
  F  F17  1  0.36306299  0.00289600  0.25145101  1
  F  F18  1  0.77348200  0.70078299  0.46664205  1
  F  F19  1  0.47625400  0.29827300  0.03295102  1
