# generated using pymatgen
data_Ba3GaS3
_symmetry_space_group_name_H-M   'P 1'
_cell_length_a   7.67407513
_cell_length_b   7.67407513
_cell_length_c   8.32491684
_cell_angle_alpha   104.90648651
_cell_angle_beta   104.90648651
_cell_angle_gamma   110.06221008
_symmetry_Int_Tables_number   1
_chemical_formula_structural   Ba3GaS3
_chemical_formula_sum   'Ba6 Ga2 S6'
_cell_volume   411.52469050
_cell_formula_units_Z   2
loop_
 _symmetry_equiv_pos_site_id
 _symmetry_equiv_pos_as_xyz
  1  'x, y, z'
loop_
 _atom_site_type_symbol
 _atom_site_label
 _atom_site_symmetry_multiplicity
 _atom_site_fract_x
 _atom_site_fract_y
 _atom_site_fract_z
 _atom_site_occupancy
  Ba  Ba0  1  0.21613299  0.21613299  0.68558501  1
  Ba  Ba1  1  0.78386696  0.78386698  0.31441505  1
  Ba  Ba2  1  0.49999999  0.00000000  1.00000001  1
  Ba  Ba3  1  0.99999997  0.49999999  1.00000004  1
  Ba  Ba4  1  0.66814098  0.33185899  0.50000003  1
  Ba  Ba5  1  0.33185897  0.66814098  0.50000003  1
  Ga  Ga6  1  0.88161396  0.88161398  0.84359605  1
  Ga  Ga7  1  0.11838599  0.11838600  0.15640401  1
  S  S8  1  0.95042498  0.24276899  0.29977305  1
  S  S9  1  0.75723099  0.04957500  0.70022702  1
  S  S10  1  0.63156397  0.63156398  0.85708303  1
  S  S11  1  0.36843598  0.36843599  0.14291703  1
  S  S12  1  0.04957497  0.75723098  0.70022701  1
  S  S13  1  0.24276896  0.95042497  0.29977304  1
