# generated using pymatgen
data_Ca4Mn5O11
_symmetry_space_group_name_H-M   'P 1'
_cell_length_a   5.38360023
_cell_length_b   5.75580978
_cell_length_c   7.62505817
_cell_angle_alpha   90.00000000
_cell_angle_beta   90.75337982
_cell_angle_gamma   90.00000000
_symmetry_Int_Tables_number   1
_chemical_formula_structural   Ca4Mn5O11
_chemical_formula_sum   'Ca4 Mn5 O11'
_cell_volume   236.25709147
_cell_formula_units_Z   1
loop_
 _symmetry_equiv_pos_site_id
 _symmetry_equiv_pos_as_xyz
  1  'x, y, z'
loop_
 _atom_site_type_symbol
 _atom_site_label
 _atom_site_symmetry_multiplicity
 _atom_site_fract_x
 _atom_site_fract_y
 _atom_site_fract_z
 _atom_site_occupancy
  Mn  Mn0  1  0.49999998  0.50000002  -0.00000001  1
  Mn  Mn1  1  0.00000000  0.00000000  0.50000000  1
  Ca  Ca2  1  0.51731998  0.92780203  0.24876698  1
  Ca  Ca3  1  0.48267998  0.07219800  0.75123298  1
  Ca  Ca4  1  0.98267996  0.42780202  0.25123297  1
  Ca  Ca5  1  0.01732000  0.57219802  0.74876700  1
  Mn  Mn6  1  0.49999998  0.50000002  0.49999998  1
  Mn  Mn7  1  0.00000000  0.00000000  0.00000000  1
  O  O8  1  0.40040098  0.53172902  0.25524499  1
  O  O9  1  0.59959897  0.46827102  0.74475498  1
  O  O10  1  0.09959900  0.03172900  0.24475500  1
  Mn  Mn11  1  0.90040096  0.96827104  0.75524497  1
  O  O12  1  0.67673497  0.21097001  0.44722798  1
  O  O13  1  0.32326499  0.78903003  0.55277199  1
  O  O14  1  0.82326496  0.71097003  0.05277198  1
  O  O15  1  0.17673499  0.28903001  0.94722799  1
  O  O16  1  0.79856896  0.68528803  0.45115298  1
  O  O17  1  0.20143099  0.31471201  0.54884699  1
  O  O18  1  0.70143097  0.18528801  0.04884698  1
  O  O19  1  0.29856899  0.81471203  0.95115299  1
