# generated using pymatgen
data_Pr3Au5Se
_symmetry_space_group_name_H-M   'P 1'
_cell_length_a   4.12554979
_cell_length_b   7.83485794
_cell_length_c   7.83485794
_cell_angle_alpha   120.00000000
_cell_angle_beta   90.00000000
_cell_angle_gamma   90.00000000
_symmetry_Int_Tables_number   1
_chemical_formula_structural   Pr3Au5Se
_chemical_formula_sum   'Pr3 Au5 Se1'
_cell_volume   219.31822261
_cell_formula_units_Z   1
loop_
 _symmetry_equiv_pos_site_id
 _symmetry_equiv_pos_as_xyz
  1  'x, y, z'
loop_
 _atom_site_type_symbol
 _atom_site_label
 _atom_site_symmetry_multiplicity
 _atom_site_fract_x
 _atom_site_fract_y
 _atom_site_fract_z
 _atom_site_occupancy
  Pr  Pr0  1  0.50000003  0.00000000  0.58997300  1
  Pr  Pr1  1  0.50000003  0.41002700  0.41002700  1
  Pr  Pr2  1  0.50000003  0.58997300  1.00000000  1
  Au  Au3  1  -0.00000000  1.00000001  0.25536700  1
  Au  Au4  1  -0.00000000  0.74463300  0.74463300  1
  Au  Au5  1  -0.00000000  0.25536700  1.00000000  1
  Au  Au6  1  0.50000003  0.00000000  -0.00000000  1
  Au  Au7  1  -0.00000000  0.33333334  0.66666667  1
  Se  Se8  1  1.00000005  0.66666667  0.33333333  1
