# generated using pymatgen
data_CsAuBr3
_symmetry_space_group_name_H-M   'P 1'
_cell_length_a   5.28907681
_cell_length_b   5.29223204
_cell_length_c   5.29620123
_cell_angle_alpha   89.98901367
_cell_angle_beta   89.97922516
_cell_angle_gamma   89.95703888
_symmetry_Int_Tables_number   1
_chemical_formula_structural   CsAuBr3
_chemical_formula_sum   'Cs1 Au1 Br3'
_cell_volume   148.24602946
_cell_formula_units_Z   1
loop_
 _symmetry_equiv_pos_site_id
 _symmetry_equiv_pos_as_xyz
  1  'x, y, z'
loop_
 _atom_site_type_symbol
 _atom_site_label
 _atom_site_symmetry_multiplicity
 _atom_site_fract_x
 _atom_site_fract_y
 _atom_site_fract_z
 _atom_site_occupancy
  Cs  Cs0  1  0.99366702  0.99898301  0.00069800  1
  Au  Au1  1  0.48491901  0.50410900  0.49940101  1
  Br  Br2  1  0.48729901  0.50397600  0.99937402  1
  Br  Br3  1  0.98533102  0.49895400  0.50195903  1
  Br  Br4  1  0.48878101  0.00398000  0.49856803  1
