# generated using pymatgen
data_Mn3O4
_symmetry_space_group_name_H-M   'P 1'
_cell_length_a   6.01920414
_cell_length_b   6.01920414
_cell_length_c   6.15305138
_cell_angle_alpha   60.71701431
_cell_angle_beta   60.71701431
_cell_angle_gamma   60.00000000
_symmetry_Int_Tables_number   1
_chemical_formula_structural   Mn3O4
_chemical_formula_sum   'Mn6 O8'
_cell_volume   159.32222981
_cell_formula_units_Z   2
loop_
 _symmetry_equiv_pos_site_id
 _symmetry_equiv_pos_as_xyz
  1  'x, y, z'
loop_
 _atom_site_type_symbol
 _atom_site_label
 _atom_site_symmetry_multiplicity
 _atom_site_fract_x
 _atom_site_fract_y
 _atom_site_fract_z
 _atom_site_occupancy
  Mn  Mn0  1  0.87158195  0.87158197  0.38525408  1
  Mn  Mn1  1  0.12841799  0.12841800  0.61474602  1
  Mn  Mn2  1  0.49999997  0.49999998  0.00000004  1
  Mn  Mn3  1  0.49999998  0.00000000  0.00000002  1
  Mn  Mn4  1  -0.00000001  0.49999998  0.00000002  1
  Mn  Mn5  1  0.49999997  0.49999998  0.50000005  1
  O  O6  1  0.73443696  0.73443698  0.79668908  1
  O  O7  1  0.28458497  0.74139398  0.23262705  1
  O  O8  1  0.74139397  0.28458499  0.23262704  1
  O  O9  1  0.74139396  0.74139398  0.23262706  1
  O  O10  1  0.25860598  0.25860599  0.76737304  1
  O  O11  1  0.25860598  0.71541498  0.76737306  1
  O  O12  1  0.71541497  0.25860599  0.76737305  1
  O  O13  1  0.26556298  0.26556299  0.20331103  1
