# generated using pymatgen
data_Cs2Co2Se5
_symmetry_space_group_name_H-M   'P 1'
_cell_length_a   6.43603086
_cell_length_b   6.43603086
_cell_length_c   7.83413792
_cell_angle_alpha   102.24462891
_cell_angle_beta   102.24462891
_cell_angle_gamma   118.92630768
_symmetry_Int_Tables_number   1
_chemical_formula_structural   Cs2Co2Se5
_chemical_formula_sum   'Cs2 Co2 Se5'
_cell_volume   258.09745779
_cell_formula_units_Z   1
loop_
 _symmetry_equiv_pos_site_id
 _symmetry_equiv_pos_as_xyz
  1  'x, y, z'
loop_
 _atom_site_type_symbol
 _atom_site_label
 _atom_site_symmetry_multiplicity
 _atom_site_fract_x
 _atom_site_fract_y
 _atom_site_fract_z
 _atom_site_occupancy
  Cs  Cs0  1  0.65278394  0.65278396  0.30556794  1
  Cs  Cs1  1  0.34721597  0.34721598  0.69443196  1
  Co  Co2  1  0.49999992  0.99999994  -0.00000007  1
  Se  Se3  1  0.00000000  0.00000000  0.00000000  1
  Co  Co4  1  -0.00000003  0.49999997  -0.00000003  1
  Se  Se5  1  0.06500995  0.72883795  0.79384795  1
  Se  Se6  1  0.72883798  0.06501000  0.79384797  1
  Se  Se7  1  0.93498996  0.27116198  0.20615195  1
  Se  Se8  1  0.27116193  0.93498994  0.20615194  1
