# generated using pymatgen
data_In
_symmetry_space_group_name_H-M   'P 1'
_cell_length_a   4.84393787
_cell_length_b   4.84393787
_cell_length_c   7.79485083
_cell_angle_alpha   90.00000000
_cell_angle_beta   90.00000000
_cell_angle_gamma   120.00000000
_symmetry_Int_Tables_number   1
_chemical_formula_structural   In
_chemical_formula_sum   In6
_cell_volume   158.39284841
_cell_formula_units_Z   6
loop_
 _symmetry_equiv_pos_site_id
 _symmetry_equiv_pos_as_xyz
  1  'x, y, z'
loop_
 _atom_site_type_symbol
 _atom_site_label
 _atom_site_symmetry_multiplicity
 _atom_site_fract_x
 _atom_site_fract_y
 _atom_site_fract_z
 _atom_site_occupancy
  In  In0  1  0.00000000  0.00000000  0.73925902  1
  In  In1  1  0.00000000  0.00000000  0.23925901  1
  In  In2  1  0.66666667  0.33333331  0.96166802  1
  In  In3  1  0.33333331  0.66666663  0.46166801  1
  In  In4  1  0.66666667  0.33333331  0.56807301  1
  In  In5  1  0.33333331  0.66666663  0.06807300  1
