# generated using pymatgen
data_SiMo2
_symmetry_space_group_name_H-M   'P 1'
_cell_length_a   7.49919128
_cell_length_b   7.49919128
_cell_length_c   7.49919128
_cell_angle_alpha   60.00000000
_cell_angle_beta   60.00000000
_cell_angle_gamma   60.00000000
_symmetry_Int_Tables_number   1
_chemical_formula_structural   SiMo2
_chemical_formula_sum   'Si4 Mo8'
_cell_volume   298.21418429
_cell_formula_units_Z   4
loop_
 _symmetry_equiv_pos_site_id
 _symmetry_equiv_pos_as_xyz
  1  'x, y, z'
loop_
 _atom_site_type_symbol
 _atom_site_label
 _atom_site_symmetry_multiplicity
 _atom_site_fract_x
 _atom_site_fract_y
 _atom_site_fract_z
 _atom_site_occupancy
  Mo  Mo0  1  0.61434200  0.61434200  0.61434200  1
  Mo  Mo1  1  0.61434200  0.61434200  0.15697400  1
  Mo  Mo2  1  0.59302600  0.13565800  0.13565800  1
  Mo  Mo3  1  0.13565800  0.13565800  0.59302600  1
  Mo  Mo4  1  0.13565800  0.13565800  0.13565800  1
  Mo  Mo5  1  0.13565800  0.59302600  0.13565800  1
  Mo  Mo6  1  0.15697400  0.61434200  0.61434200  1
  Mo  Mo7  1  0.61434200  0.15697400  0.61434200  1
  Si  Si8  1  0.37500000  0.37500000  0.87500000  1
  Si  Si9  1  0.37500000  0.37500000  0.37500000  1
  Si  Si10  1  0.37500000  0.87500000  0.37500000  1
  Si  Si11  1  0.87500000  0.37500000  0.37500000  1
