# generated using pymatgen
data_CuGeTe
_symmetry_space_group_name_H-M   'P 1'
_cell_length_a   4.15200090
_cell_length_b   4.24440813
_cell_length_c   4.24626207
_cell_angle_alpha   119.98023987
_cell_angle_beta   90.00000000
_cell_angle_gamma   90.00000000
_symmetry_Int_Tables_number   1
_chemical_formula_structural   CuGeTe
_chemical_formula_sum   'Cu1 Ge1 Te1'
_cell_volume   64.81842055
_cell_formula_units_Z   1
loop_
 _symmetry_equiv_pos_site_id
 _symmetry_equiv_pos_as_xyz
  1  'x, y, z'
loop_
 _atom_site_type_symbol
 _atom_site_label
 _atom_site_symmetry_multiplicity
 _atom_site_fract_x
 _atom_site_fract_y
 _atom_site_fract_z
 _atom_site_occupancy
  Te  Te0  1  1.00000002  0.00001100  0.99998503  1
  Ge  Ge1  1  0.50000001  0.33333334  0.66662603  1
  Cu  Cu2  1  0.50000001  0.66666668  0.33348904  1
