# generated using pymatgen
data_Na5(BO3)3
_symmetry_space_group_name_H-M   'P 1'
_cell_length_a   5.18312502
_cell_length_b   6.77767467
_cell_length_c   6.77767467
_cell_angle_alpha   114.28024292
_cell_angle_beta   90.00000000
_cell_angle_gamma   90.00000000
_symmetry_Int_Tables_number   1
_chemical_formula_structural   Na5(BO3)3
_chemical_formula_sum   'Na5 B3 O9'
_cell_volume   217.03575900
_cell_formula_units_Z   1
loop_
 _symmetry_equiv_pos_site_id
 _symmetry_equiv_pos_as_xyz
  1  'x, y, z'
loop_
 _atom_site_type_symbol
 _atom_site_label
 _atom_site_symmetry_multiplicity
 _atom_site_fract_x
 _atom_site_fract_y
 _atom_site_fract_z
 _atom_site_occupancy
  Na  Na0  1  -0.00000000  0.45756901  0.45756901  1
  Na  Na1  1  0.50000000  0.12908200  0.12908200  1
  Na  Na2  1  0.50000000  0.71145702  0.71145702  1
  Na  Na3  1  -0.00000000  0.04325100  0.61687802  1
  Na  Na4  1  -0.00000000  0.61687802  0.04325100  1
  B  B5  1  0.50000000  0.29185701  0.72156102  1
  B  B6  1  -0.00000000  0.05800600  0.05800600  1
  B  B7  1  0.50000000  0.72156102  0.29185701  1
  O  O8  1  -0.00000000  0.86772602  0.86772602  1
  O  O9  1  -0.00000000  0.25541901  0.04515700  1
  O  O10  1  0.50000000  0.74973402  0.09970000  1
  O  O11  1  0.26637600  0.38290301  0.70064902  1
  O  O12  1  -0.00000000  0.04515700  0.25541901  1
  O  O13  1  0.50000000  0.09970000  0.74973402  1
  O  O14  1  0.26637600  0.70064902  0.38290301  1
  O  O15  1  0.73362400  0.38290301  0.70064902  1
  O  O16  1  0.73362400  0.70064902  0.38290301  1
