# generated using pymatgen
data_Li2MnF13
_symmetry_space_group_name_H-M   'P 1'
_cell_length_a   5.32979488
_cell_length_b   5.38250494
_cell_length_c   7.57997322
_cell_angle_alpha   90.00000000
_cell_angle_beta   89.98963165
_cell_angle_gamma   90.00000000
_symmetry_Int_Tables_number   1
_chemical_formula_structural   Li2MnF13
_chemical_formula_sum   'Li2 Mn1 F13'
_cell_volume   217.45159467
_cell_formula_units_Z   1
loop_
 _symmetry_equiv_pos_site_id
 _symmetry_equiv_pos_as_xyz
  1  'x, y, z'
loop_
 _atom_site_type_symbol
 _atom_site_label
 _atom_site_symmetry_multiplicity
 _atom_site_fract_x
 _atom_site_fract_y
 _atom_site_fract_z
 _atom_site_occupancy
  F  F0  1  0.50000001  0.00000000  0.00000001  1
  Li  Li1  1  0.00000000  0.50000001  0.49999999  1
  Mn  Mn2  1  0.50000001  0.00000000  0.50000001  1
  Li  Li3  1  0.00000000  0.50000001  -0.00000000  1
  F  F4  1  0.27685901  0.28191600  0.47404700  1
  F  F5  1  0.22314100  0.78191601  0.02595301  1
  F  F6  1  0.72314102  0.71808401  0.52595301  1
  F  F7  1  0.77685902  0.21808400  0.97404701  1
  F  F8  1  0.78226802  0.22363500  0.52597702  1
  F  F9  1  0.71773202  0.72363501  0.97402301  1
  F  F10  1  0.21773200  0.77636501  0.47402300  1
  F  F11  1  0.28226801  0.27636500  0.02597701  1
  F  F12  1  0.94693602  0.49427801  0.25263602  1
  F  F13  1  0.55306401  0.99427801  0.24736401  1
  F  F14  1  0.44693601  0.00572200  0.75263600  1
  F  F15  1  0.05306400  0.50572201  0.74736399  1
