# generated using pymatgen
data_Tb(GaCo3)3
_symmetry_space_group_name_H-M   'P 1'
_cell_length_a   4.86874008
_cell_length_b   6.19360781
_cell_length_c   6.30248356
_cell_angle_alpha   81.26781464
_cell_angle_beta   67.27828217
_cell_angle_gamma   66.85586548
_symmetry_Int_Tables_number   1
_chemical_formula_structural   Tb(GaCo3)3
_chemical_formula_sum   'Tb1 Ga3 Co9'
_cell_volume   161.19372578
_cell_formula_units_Z   1
loop_
 _symmetry_equiv_pos_site_id
 _symmetry_equiv_pos_as_xyz
  1  'x, y, z'
loop_
 _atom_site_type_symbol
 _atom_site_label
 _atom_site_symmetry_multiplicity
 _atom_site_fract_x
 _atom_site_fract_y
 _atom_site_fract_z
 _atom_site_occupancy
  Tb  Tb0  1  0.00000000  0.00000000  0.00000000  1
  Co  Co1  1  0.50000002  0.49999999  -0.00000002  1
  Ga  Ga2  1  0.00000002  0.49999999  -0.00000001  1
  Co  Co3  1  0.50000004  0.99999998  0.49999998  1
  Ga  Ga4  1  0.00000000  0.00000000  0.50000001  1
  Co  Co5  1  0.72214003  0.78334698  0.77237298  1
  Co  Co6  1  0.27786001  0.21665300  0.22762699  1
  Co  Co7  1  0.50548701  0.21665300  0.77237299  1
  Co  Co8  1  0.49451303  0.78334698  0.22762698  1
  Ga  Ga9  1  0.65402601  0.33964399  0.35230398  1
  Co  Co10  1  0.34597403  0.66035599  0.64769599  1
  Co  Co11  1  0.99367003  0.66035599  0.35230396  1
  Co  Co12  1  0.00633001  0.33964399  0.64769600  1
