# generated using pymatgen
data_Cs7Ba4Br9
_symmetry_space_group_name_H-M   'P 1'
_cell_length_a   8.60429955
_cell_length_b   8.94568539
_cell_length_c   12.32157707
_cell_angle_alpha   90.00000000
_cell_angle_beta   90.00000000
_cell_angle_gamma   90.00000000
_symmetry_Int_Tables_number   1
_chemical_formula_structural   Cs7Ba4Br9
_chemical_formula_sum   'Cs7 Ba4 Br9'
_cell_volume   948.40850398
_cell_formula_units_Z   1
loop_
 _symmetry_equiv_pos_site_id
 _symmetry_equiv_pos_as_xyz
  1  'x, y, z'
loop_
 _atom_site_type_symbol
 _atom_site_label
 _atom_site_symmetry_multiplicity
 _atom_site_fract_x
 _atom_site_fract_y
 _atom_site_fract_z
 _atom_site_occupancy
  Cs  Cs0  1  0.02237700  0.43472698  0.25000000  1
  Cs  Cs1  1  0.97762305  0.56527298  0.75000000  1
  Cs  Cs2  1  0.52237703  0.06527300  0.75000000  1
  Cs  Cs3  1  0.47762303  0.93472696  0.25000000  1
  Ba  Ba4  1  0.00000000  0.00000000  0.00000000  1
  Ba  Ba5  1  0.50000003  0.49999998  -0.00000000  1
  Ba  Ba6  1  0.00000000  0.00000000  0.50000000  1
  Ba  Ba7  1  0.50000003  0.49999998  0.50000000  1
  Br  Br8  1  0.29366002  0.20962599  0.03803800  1
  Cs  Cs9  1  0.70634004  0.79037397  0.96196199  1
  Br  Br10  1  0.79366004  0.29037399  0.96196199  1
  Br  Br11  1  0.70634004  0.79037397  0.53803800  1
  Br  Br12  1  0.20634001  0.70962597  0.03803800  1
  Br  Br13  1  0.29366002  0.20962599  0.46196200  1
  Br  Br14  1  0.20634001  0.70962597  0.46196200  1
  Br  Br15  1  0.79366004  0.29037399  0.53803800  1
  Br  Br16  1  0.57668103  0.51240598  0.25000000  1
  Br  Br17  1  0.42331902  0.48759398  0.75000000  1
  Cs  Cs18  1  0.07668100  0.98759396  0.75000000  1
  Cs  Cs19  1  0.92331905  0.01240600  0.25000000  1
