# generated using pymatgen
data_HgTe
_symmetry_space_group_name_H-M   'P 1'
_cell_length_a   6.66142607
_cell_length_b   6.66142607
_cell_length_c   6.66142607
_cell_angle_alpha   90.00000000
_cell_angle_beta   90.00000000
_cell_angle_gamma   90.00000000
_symmetry_Int_Tables_number   1
_chemical_formula_structural   HgTe
_chemical_formula_sum   'Hg4 Te4'
_cell_volume   295.59809885
_cell_formula_units_Z   4
loop_
 _symmetry_equiv_pos_site_id
 _symmetry_equiv_pos_as_xyz
  1  'x, y, z'
loop_
 _atom_site_type_symbol
 _atom_site_label
 _atom_site_symmetry_multiplicity
 _atom_site_fract_x
 _atom_site_fract_y
 _atom_site_fract_z
 _atom_site_occupancy
  Te  Te0  1  0.00000000  0.00000000  0.00000000  1
  Te  Te1  1  0.00000000  0.49999999  0.49999999  1
  Te  Te2  1  0.49999999  0.00000000  0.49999999  1
  Te  Te3  1  0.49999999  0.49999999  -0.00000000  1
  Hg  Hg4  1  0.24939200  0.24939200  0.24939200  1
  Hg  Hg5  1  0.75060799  0.75060799  0.24939200  1
  Hg  Hg6  1  0.24939200  0.75060799  0.75060799  1
  Hg  Hg7  1  0.75060799  0.24939200  0.75060799  1
