# generated using pymatgen
data_Li3VF6
_symmetry_space_group_name_H-M   'P 1'
_cell_length_a   5.11999989
_cell_length_b   5.21428823
_cell_length_c   7.79390574
_cell_angle_alpha   90.00000000
_cell_angle_beta   92.11070251
_cell_angle_gamma   90.00000000
_symmetry_Int_Tables_number   1
_chemical_formula_structural   Li3VF6
_chemical_formula_sum   'Li6 V2 F12'
_cell_volume   207.93393834
_cell_formula_units_Z   2
loop_
 _symmetry_equiv_pos_site_id
 _symmetry_equiv_pos_as_xyz
  1  'x, y, z'
loop_
 _atom_site_type_symbol
 _atom_site_label
 _atom_site_symmetry_multiplicity
 _atom_site_fract_x
 _atom_site_fract_y
 _atom_site_fract_z
 _atom_site_occupancy
  Li  Li0  1  0.50000001  0.49999998  0.00000002  1
  Li  Li1  1  0.48220401  0.03744800  0.75015504  1
  Li  Li2  1  0.00000000  0.00000000  0.50000001  1
  Li  Li3  1  0.01779600  0.53744798  0.74984502  1
  V  V4  1  0.98220402  0.46255198  0.25015505  1
  Li  Li5  1  0.51779601  0.96255196  0.24984503  1
  V  V6  1  0.50000001  0.49999998  0.50000003  1
  Li  Li7  1  0.00000000  0.00000000  0.00000000  1
  F  F8  1  0.63123102  0.59488897  0.25021703  1
  F  F9  1  0.65274802  0.81311996  0.57286904  1
  F  F10  1  0.68219602  0.83324096  0.92973805  1
  F  F11  1  0.81780402  0.33324098  0.57026205  1
  F  F12  1  0.84725202  0.31311999  0.92713105  1
  F  F13  1  0.86876902  0.09488900  0.24978304  1
  F  F14  1  0.13123100  0.90511096  0.75021702  1
  F  F15  1  0.15274800  0.68687997  0.07286901  1
  F  F16  1  0.18219600  0.66675897  0.42973802  1
  F  F17  1  0.31780401  0.16675899  0.07026201  1
  F  F18  1  0.34725201  0.18687999  0.42713102  1
  F  F19  1  0.36876901  0.40511098  0.74978303  1
