# generated using pymatgen
data_Er2Si11Mo2Ir3
_symmetry_space_group_name_H-M   'P 1'
_cell_length_a   3.31661296
_cell_length_b   7.51289701
_cell_length_c   10.25295067
_cell_angle_alpha   100.42007446
_cell_angle_beta   90.00000000
_cell_angle_gamma   90.00000000
_symmetry_Int_Tables_number   1
_chemical_formula_structural   Er2Si11Mo2Ir3
_chemical_formula_sum   'Er2 Si11 Mo2 Ir3'
_cell_volume   251.26330357
_cell_formula_units_Z   1
loop_
 _symmetry_equiv_pos_site_id
 _symmetry_equiv_pos_as_xyz
  1  'x, y, z'
loop_
 _atom_site_type_symbol
 _atom_site_label
 _atom_site_symmetry_multiplicity
 _atom_site_fract_x
 _atom_site_fract_y
 _atom_site_fract_z
 _atom_site_occupancy
  Er  Er0  1  0.75000001  0.19275600  0.78112103  1
  Er  Er1  1  0.25000000  0.80724400  0.21887901  1
  Ir  Ir2  1  0.75000001  0.47041400  0.09164801  1
  Si  Si3  1  0.25000000  0.52958600  0.90835203  1
  Si  Si4  1  0.75000001  0.07418900  0.09468600  1
  Si  Si5  1  0.25000000  0.92581100  0.90531403  1
  Ir  Ir6  1  0.75000001  0.37744700  0.50036702  1
  Si  Si7  1  0.25000000  0.62255300  0.49963302  1
  Ir  Ir8  1  0.75000001  0.87058400  0.48669102  1
  Si  Si9  1  0.25000000  0.12941600  0.51330902  1
  Mo  Mo10  1  0.75000001  0.68459900  0.73110403  1
  Mo  Mo11  1  0.25000000  0.31540100  0.26889601  1
  Si  Si12  1  0.75000001  0.74905800  0.98987304  1
  Si  Si13  1  0.25000000  0.25094200  0.01012700  1
  Si  Si14  1  0.75000001  0.56812300  0.32778201  1
  Si  Si15  1  0.25000000  0.43187700  0.67221802  1
  Si  Si16  1  0.75000001  0.09794200  0.33638001  1
  Si  Si17  1  0.25000000  0.90205800  0.66362003  1
