# generated using pymatgen
data_SmAl3Si(Ni3Mo)2
_symmetry_space_group_name_H-M   'P 1'
_cell_length_a   4.73044682
_cell_length_b   6.30719328
_cell_length_c   6.30719328
_cell_angle_alpha   80.64533997
_cell_angle_beta   67.97543335
_cell_angle_gamma   67.97543335
_symmetry_Int_Tables_number   1
_chemical_formula_structural   SmAl3Si(Ni3Mo)2
_chemical_formula_sum   'Sm1 Al3 Si1 Ni6 Mo2'
_cell_volume   161.66437079
_cell_formula_units_Z   1
loop_
 _symmetry_equiv_pos_site_id
 _symmetry_equiv_pos_as_xyz
  1  'x, y, z'
loop_
 _atom_site_type_symbol
 _atom_site_label
 _atom_site_symmetry_multiplicity
 _atom_site_fract_x
 _atom_site_fract_y
 _atom_site_fract_z
 _atom_site_occupancy
  Sm  Sm0  1  0.00000000  0.00000000  0.00000000  1
  Mo  Mo1  1  0.36033995  0.63966001  0.63966000  1
  Mo  Mo2  1  0.63966000  0.36034000  0.36033998  1
  Ni  Ni3  1  -0.00000007  0.64919401  0.35080603  1
  Al  Al4  1  -0.00000004  0.35080600  0.64919401  1
  Al  Al5  1  0.49999995  0.80479801  0.19520201  1
  Al  Al6  1  0.50000001  0.19520200  0.80479797  1
  Ni  Ni7  1  0.50000003  0.00000000  0.49999997  1
  Ni  Ni8  1  0.00000000  0.00000000  0.49999999  1
  Ni  Ni9  1  0.49999998  0.50000000  0.99999999  1
  Si  Si10  1  -0.00000005  0.50000000  0.00000002  1
  Ni  Ni11  1  0.73813096  0.76186901  0.76186899  1
  Ni  Ni12  1  0.26186899  0.23813100  0.23813100  1
