# generated using pymatgen
data_Ag7F9
_symmetry_space_group_name_H-M   'P 1'
_cell_length_a   5.43490410
_cell_length_b   5.67525768
_cell_length_c   9.33297920
_cell_angle_alpha   101.92143250
_cell_angle_beta   106.92781067
_cell_angle_gamma   90.00000000
_symmetry_Int_Tables_number   1
_chemical_formula_structural   Ag7F9
_chemical_formula_sum   'Ag7 F9'
_cell_volume   268.90143643
_cell_formula_units_Z   1
loop_
 _symmetry_equiv_pos_site_id
 _symmetry_equiv_pos_as_xyz
  1  'x, y, z'
loop_
 _atom_site_type_symbol
 _atom_site_label
 _atom_site_symmetry_multiplicity
 _atom_site_fract_x
 _atom_site_fract_y
 _atom_site_fract_z
 _atom_site_occupancy
  Ag  Ag0  1  0.36322099  0.28586799  0.31944999  1
  Ag  Ag1  1  0.68718798  0.24999999  -0.00000001  1
  Ag  Ag2  1  0.95622897  0.78586798  0.31944999  1
  Ag  Ag3  1  0.31281199  0.74999998  0.00000001  1
  F  F4  1  0.04377100  0.21413199  0.68054999  1
  Ag  Ag5  1  0.63677898  0.71413198  0.68054999  1
  F  F6  1  0.48072899  0.12981000  0.13098099  1
  F  F7  1  0.16566600  0.55086999  0.22391501  1
  F  F8  1  0.94175097  0.94912998  0.77608498  1
  F  F9  1  0.65025198  0.62980998  0.13098100  1
  Ag  Ag10  1  0.34974799  0.37018999  0.86901898  1
  F  F11  1  0.05824900  0.05087000  0.22391499  1
  F  F12  1  0.83433398  0.44912999  0.77608497  1
  F  F13  1  0.51927099  0.87018998  0.86901899  1
  Ag  Ag14  1  0.00000000  0.49999999  0.50000000  1
  F  F15  1  0.49999998  0.00000000  0.49999998  1
