# generated using pymatgen
data_TbNi2Bi7
_symmetry_space_group_name_H-M   'P 1'
_cell_length_a   6.03575516
_cell_length_b   6.20234203
_cell_length_c   12.76526356
_cell_angle_alpha   90.00000000
_cell_angle_beta   90.00000000
_cell_angle_gamma   90.00000000
_symmetry_Int_Tables_number   1
_chemical_formula_structural   TbNi2Bi7
_chemical_formula_sum   'Tb2 Ni4 Bi14'
_cell_volume   477.87808219
_cell_formula_units_Z   2
loop_
 _symmetry_equiv_pos_site_id
 _symmetry_equiv_pos_as_xyz
  1  'x, y, z'
loop_
 _atom_site_type_symbol
 _atom_site_label
 _atom_site_symmetry_multiplicity
 _atom_site_fract_x
 _atom_site_fract_y
 _atom_site_fract_z
 _atom_site_occupancy
  Tb  Tb0  1  0.24999999  0.50540500  0.30913301  1
  Bi  Bi1  1  0.74999998  0.49459500  0.69086702  1
  Bi  Bi2  1  0.24999999  0.00540500  0.69086702  1
  Tb  Tb3  1  0.74999998  0.99459499  0.30913301  1
  Bi  Bi4  1  0.00000000  0.75000000  0.90338203  1
  Ni  Ni5  1  0.00000000  0.25000000  0.09661800  1
  Ni  Ni6  1  0.49999999  0.25000000  0.09661800  1
  Bi  Bi7  1  0.49999999  0.75000000  0.90338203  1
  Bi  Bi8  1  0.00000000  0.75000000  0.50211002  1
  Bi  Bi9  1  0.00000000  0.25000000  0.49789002  1
  Bi  Bi10  1  0.49999999  0.25000000  0.49789002  1
  Bi  Bi11  1  0.49999999  0.75000000  0.50211002  1
  Bi  Bi12  1  0.24999999  0.60090300  0.06377800  1
  Ni  Ni13  1  0.74999998  0.39909700  0.93622203  1
  Bi  Bi14  1  0.24999999  0.10090300  0.93622203  1
  Bi  Bi15  1  0.74999998  0.89909700  0.06377800  1
  Bi  Bi16  1  0.24999999  0.99691899  0.22581801  1
  Bi  Bi17  1  0.74999998  0.00308100  0.77418203  1
  Ni  Ni18  1  0.24999999  0.49691900  0.77418203  1
  Bi  Bi19  1  0.74999998  0.50308100  0.22581801  1
