# generated using pymatgen
data_Ga5Co
_symmetry_space_group_name_H-M   'P 1'
_cell_length_a   5.41865683
_cell_length_b   7.47283602
_cell_length_c   7.47283697
_cell_angle_alpha   119.99999237
_cell_angle_beta   90.00000000
_cell_angle_gamma   90.00000000
_symmetry_Int_Tables_number   1
_chemical_formula_structural   Ga5Co
_chemical_formula_sum   'Ga15 Co3'
_cell_volume   262.05549589
_cell_formula_units_Z   3
loop_
 _symmetry_equiv_pos_site_id
 _symmetry_equiv_pos_as_xyz
  1  'x, y, z'
loop_
 _atom_site_type_symbol
 _atom_site_label
 _atom_site_symmetry_multiplicity
 _atom_site_fract_x
 _atom_site_fract_y
 _atom_site_fract_z
 _atom_site_occupancy
  Ga  Ga0  1  0.25000001  0.76494597  0.76494596  1
  Co  Co1  1  0.75000002  0.23505399  0.23505399  1
  Co  Co2  1  0.25000001  0.00000000  0.23505400  1
  Ga  Ga3  1  0.75000002  0.00000000  0.76494601  1
  Co  Co4  1  0.25000001  0.23505399  -0.00000001  1
  Ga  Ga5  1  0.75000002  0.76494597  -0.00000005  1
  Ga  Ga6  1  0.50000002  0.66666664  0.33333329  1
  Ga  Ga7  1  0.50000002  0.33333332  0.66666665  1
  Ga  Ga8  1  0.00000000  0.33333332  0.66666665  1
  Ga  Ga9  1  1.00000003  0.66666664  0.33333329  1
  Ga  Ga10  1  0.25000001  0.40471799  0.40471798  1
  Ga  Ga11  1  0.75000002  0.59528198  0.59528197  1
  Ga  Ga12  1  0.25000001  0.00000000  0.59528200  1
  Ga  Ga13  1  0.75000002  0.00000000  0.40471800  1
  Ga  Ga14  1  0.25000001  0.59528198  -0.00000004  1
  Ga  Ga15  1  0.75000002  0.40471799  -0.00000003  1
  Ga  Ga16  1  0.50000002  0.00000000  -0.00000000  1
  Ga  Ga17  1  0.00000000  0.00000000  0.00000000  1
