# generated using pymatgen
data_PmHg7
_symmetry_space_group_name_H-M   'P 1'
_cell_length_a   5.02656221
_cell_length_b   6.76385021
_cell_length_c   6.76384926
_cell_angle_alpha   120.00000763
_cell_angle_beta   90.00000000
_cell_angle_gamma   90.00000000
_symmetry_Int_Tables_number   1
_chemical_formula_structural   PmHg7
_chemical_formula_sum   'Pm1 Hg7'
_cell_volume   199.15424235
_cell_formula_units_Z   1
loop_
 _symmetry_equiv_pos_site_id
 _symmetry_equiv_pos_as_xyz
  1  'x, y, z'
loop_
 _atom_site_type_symbol
 _atom_site_label
 _atom_site_symmetry_multiplicity
 _atom_site_fract_x
 _atom_site_fract_y
 _atom_site_fract_z
 _atom_site_occupancy
  Pm  Pm0  1  0.24999999  0.66666667  0.33333338  1
  Hg  Hg1  1  0.74999997  0.33333334  0.66666669  1
  Hg  Hg2  1  0.74999997  0.83924701  0.16075206  1
  Hg  Hg3  1  0.74999997  0.32150500  0.16075202  1
  Hg  Hg4  1  0.74999997  0.83924701  0.67849406  1
  Hg  Hg5  1  0.24999999  0.16075300  0.83924800  1
  Hg  Hg6  1  0.24999999  0.67849500  0.83924804  1
  Hg  Hg7  1  0.24999999  0.16075300  0.32150601  1
