# generated using pymatgen
data_In3Bi2(SeS3)2
_symmetry_space_group_name_H-M   'P 1'
_cell_length_a   4.17029762
_cell_length_b   4.17029762
_cell_length_c   17.04877663
_cell_angle_alpha   82.97486115
_cell_angle_beta   82.97486115
_cell_angle_gamma   60.00001144
_symmetry_Int_Tables_number   1
_chemical_formula_structural   In3Bi2(SeS3)2
_chemical_formula_sum   'In3 Bi2 Se2 S6'
_cell_volume   254.20454459
_cell_formula_units_Z   1
loop_
 _symmetry_equiv_pos_site_id
 _symmetry_equiv_pos_as_xyz
  1  'x, y, z'
loop_
 _atom_site_type_symbol
 _atom_site_label
 _atom_site_symmetry_multiplicity
 _atom_site_fract_x
 _atom_site_fract_y
 _atom_site_fract_z
 _atom_site_occupancy
  Se  Se0  1  0.56584298  0.56584296  0.30247102  1
  S  S1  1  0.43415699  0.43415697  0.69752903  1
  Se  Se2  1  0.94955897  0.94955893  0.15132302  1
  S  S3  1  0.05044100  0.05044100  0.84867703  1
  S  S4  1  0.31747299  0.31747298  0.04758101  1
  S  S5  1  0.81479598  0.81479594  0.55561203  1
  S  S6  1  0.18520399  0.18520399  0.44438802  1
  S  S7  1  0.68252698  0.68252695  0.95241904  1
  Bi  Bi8  1  0.26567499  0.26567498  0.20297501  1
  In  In9  1  0.13504500  0.13504499  0.59486502  1
  Bi  Bi10  1  0.86495498  0.86495494  0.40513503  1
  In  In11  1  0.73432498  0.73432495  0.79702504  1
  In  In12  1  0.00000000  0.00000000  0.00000000  1
