# generated using pymatgen
data_Ba3P8
_symmetry_space_group_name_H-M   'P 1'
_cell_length_a   4.15281582
_cell_length_b   4.18793011
_cell_length_c   12.43298054
_cell_angle_alpha   99.69597626
_cell_angle_beta   99.61390686
_cell_angle_gamma   90.00000000
_symmetry_Int_Tables_number   1
_chemical_formula_structural   Ba3P8
_chemical_formula_sum   'Ba3 P8'
_cell_volume   210.06041109
_cell_formula_units_Z   1
loop_
 _symmetry_equiv_pos_site_id
 _symmetry_equiv_pos_as_xyz
  1  'x, y, z'
loop_
 _atom_site_type_symbol
 _atom_site_label
 _atom_site_symmetry_multiplicity
 _atom_site_fract_x
 _atom_site_fract_y
 _atom_site_fract_z
 _atom_site_occupancy
  Ba  Ba0  1  0.00000000  0.00000000  0.00000000  1
  Ba  Ba1  1  0.64851803  0.14851800  0.29703599  1
  Ba  Ba2  1  0.35148201  0.85148197  0.70296398  1
  P  P3  1  0.45026802  0.45026799  0.90053599  1
  P  P4  1  0.54973202  0.54973198  0.09946399  1
  P  P5  1  0.80084503  0.30084499  0.60168999  1
  P  P6  1  0.19915500  0.69915498  0.39830999  1
  P  P7  1  0.75003503  0.75003498  0.50006998  1
  P  P8  1  0.90033804  0.40033799  0.80067599  1
  P  P9  1  0.09966200  0.59966198  0.19932399  1
  P  P10  1  0.24996501  0.24996499  0.49992999  1
