# generated using pymatgen
data_Co2O3
_symmetry_space_group_name_H-M   'P 1'
_cell_length_a   5.70585823
_cell_length_b   6.48957443
_cell_length_c   5.70585823
_cell_angle_alpha   116.07946777
_cell_angle_beta   90.00000000
_cell_angle_gamma   116.07946777
_symmetry_Int_Tables_number   1
_chemical_formula_structural   Co2O3
_chemical_formula_sum   'Co4 O6'
_cell_volume   165.48398557
_cell_formula_units_Z   2
loop_
 _symmetry_equiv_pos_site_id
 _symmetry_equiv_pos_as_xyz
  1  'x, y, z'
loop_
 _atom_site_type_symbol
 _atom_site_label
 _atom_site_symmetry_multiplicity
 _atom_site_fract_x
 _atom_site_fract_y
 _atom_site_fract_z
 _atom_site_occupancy
  Co  Co0  1  0.12500007  0.75000004  0.87500004  1
  Co  Co1  1  0.62500005  0.75000004  0.87500004  1
  Co  Co2  1  0.12500002  0.25000001  0.37500001  1
  Co  Co3  1  0.12500002  0.25000001  0.87499999  1
  O  O4  1  0.25000004  0.50000003  0.75000002  1
  O  O5  1  0.00000000  0.00000000  0.00000000  1
  O  O6  1  0.74585502  0.49171003  0.74585502  1
  O  O7  1  0.99585505  0.99171006  0.49585507  1
  O  O8  1  0.25414504  0.50829003  0.25414504  1
  O  O9  1  0.50414498  0.00829000  0.00414500  1
