# generated using pymatgen
data_GaAg4S7
_symmetry_space_group_name_H-M   'P 1'
_cell_length_a   6.86880589
_cell_length_b   6.88225222
_cell_length_c   6.90554047
_cell_angle_alpha   80.45659637
_cell_angle_beta   70.59530640
_cell_angle_gamma   60.06460953
_symmetry_Int_Tables_number   1
_chemical_formula_structural   GaAg4S7
_chemical_formula_sum   'Ga1 Ag4 S7'
_cell_volume   266.82358015
_cell_formula_units_Z   1
loop_
 _symmetry_equiv_pos_site_id
 _symmetry_equiv_pos_as_xyz
  1  'x, y, z'
loop_
 _atom_site_type_symbol
 _atom_site_label
 _atom_site_symmetry_multiplicity
 _atom_site_fract_x
 _atom_site_fract_y
 _atom_site_fract_z
 _atom_site_occupancy
  Ga  Ga0  1  0.82261700  0.16855100  0.00384704  1
  S  S1  1  0.16564501  0.50109101  0.00216399  1
  Ag  Ag2  1  0.99116801  0.83144902  0.50384701  1
  Ag  Ag3  1  0.66673601  0.49890901  0.50216400  1
  Ag  Ag4  1  0.50892701  0.82644902  0.99341796  1
  Ag  Ag5  1  0.33537600  0.17355100  0.49341800  1
  S  S6  1  0.87923001  0.83218602  0.87753799  1
  S  S7  1  0.53778901  0.49900501  0.87558098  1
  S  S8  1  0.36699901  0.82731202  0.38318897  1
  S  S9  1  0.19431100  0.17268800  0.88318898  1
  S  S10  1  0.03679401  0.50099501  0.37558097  1
  S  S11  1  0.71141600  0.16781400  0.37753802  1
