# generated using pymatgen
data_La3MgSe5
_symmetry_space_group_name_H-M   'P 1'
_cell_length_a   6.23461819
_cell_length_b   9.33240604
_cell_length_c   9.33240509
_cell_angle_alpha   120.00000000
_cell_angle_beta   90.00000000
_cell_angle_gamma   90.00000000
_symmetry_Int_Tables_number   1
_chemical_formula_structural   La3MgSe5
_chemical_formula_sum   'La6 Mg2 Se10'
_cell_volume   470.24880646
_cell_formula_units_Z   2
loop_
 _symmetry_equiv_pos_site_id
 _symmetry_equiv_pos_as_xyz
  1  'x, y, z'
loop_
 _atom_site_type_symbol
 _atom_site_label
 _atom_site_symmetry_multiplicity
 _atom_site_fract_x
 _atom_site_fract_y
 _atom_site_fract_z
 _atom_site_occupancy
  La  La0  1  0.74999998  0.38182699  0.38182700  1
  La  La1  1  0.24999999  0.61817298  0.61817300  1
  La  La2  1  0.74999998  0.00000000  0.61817302  1
  La  La3  1  0.24999999  0.00000000  0.38182701  1
  La  La4  1  0.74999998  0.61817298  1.00000001  1
  La  La5  1  0.24999999  0.38182699  1.00000002  1
  Mg  Mg6  1  0.00000000  0.00000000  0.00000000  1
  Mg  Mg7  1  0.49999999  0.00000000  -0.00000000  1
  Se  Se8  1  0.74999998  0.74220198  0.74220200  1
  Se  Se9  1  0.24999999  0.25779799  0.25779800  1
  Se  Se10  1  0.74999998  0.00000000  0.25779801  1
  Se  Se11  1  0.24999999  0.00000000  0.74220203  1
  Se  Se12  1  0.74999998  0.25779799  1.00000002  1
  Se  Se13  1  0.24999999  0.74220198  1.00000000  1
  Se  Se14  1  0.99999997  0.66666665  0.33333332  1
  Se  Se15  1  -0.00000000  0.33333332  0.66666668  1
  Se  Se16  1  0.49999999  0.33333332  0.66666668  1
  Se  Se17  1  0.49999999  0.66666665  0.33333332  1
