# generated using pymatgen
data_TbB4
_symmetry_space_group_name_H-M   'P 1'
_cell_length_a   3.98223209
_cell_length_b   5.40282583
_cell_length_c   5.40282583
_cell_angle_alpha   90.00000000
_cell_angle_beta   90.00000000
_cell_angle_gamma   90.00000000
_symmetry_Int_Tables_number   1
_chemical_formula_structural   TbB4
_chemical_formula_sum   'Tb2 B8'
_cell_volume   116.24345335
_cell_formula_units_Z   2
loop_
 _symmetry_equiv_pos_site_id
 _symmetry_equiv_pos_as_xyz
  1  'x, y, z'
loop_
 _atom_site_type_symbol
 _atom_site_label
 _atom_site_symmetry_multiplicity
 _atom_site_fract_x
 _atom_site_fract_y
 _atom_site_fract_z
 _atom_site_occupancy
  Tb  Tb0  1  0.00000000  0.50000002  0.50000002  1
  Tb  Tb1  1  0.00000000  0.00000000  0.00000000  1
  B  B2  1  0.49999999  0.13792600  0.63792602  1
  B  B3  1  0.49999999  0.63792602  0.86207403  1
  B  B4  1  0.49999999  0.86207403  0.36207401  1
  B  B5  1  0.49999999  0.36207401  0.13792600  1
  B  B6  1  0.49999999  0.83905503  0.66094502  1
  B  B7  1  0.49999999  0.33905501  0.83905503  1
  B  B8  1  0.49999999  0.66094502  0.16094500  1
  B  B9  1  0.49999999  0.16094500  0.33905501  1
