# generated using pymatgen
data_Cs3Br5
_symmetry_space_group_name_H-M   'P 1'
_cell_length_a   5.36794519
_cell_length_b   7.91203594
_cell_length_c   7.91203594
_cell_angle_alpha   120.00000000
_cell_angle_beta   90.00000000
_cell_angle_gamma   90.00000000
_symmetry_Int_Tables_number   1
_chemical_formula_structural   Cs3Br5
_chemical_formula_sum   'Cs3 Br5'
_cell_volume   291.01488811
_cell_formula_units_Z   1
loop_
 _symmetry_equiv_pos_site_id
 _symmetry_equiv_pos_as_xyz
  1  'x, y, z'
loop_
 _atom_site_type_symbol
 _atom_site_label
 _atom_site_symmetry_multiplicity
 _atom_site_fract_x
 _atom_site_fract_y
 _atom_site_fract_z
 _atom_site_occupancy
  Cs  Cs0  1  0.74999997  0.33333333  0.66666665  1
  Cs  Cs1  1  0.24999999  0.66666667  0.33333332  1
  Br  Br2  1  0.24999999  0.14458200  0.28916399  1
  Br  Br3  1  0.24999999  0.71083500  0.85541698  1
  Br  Br4  1  0.24999999  0.14458200  0.85541699  1
  Br  Br5  1  0.74999997  0.85541800  0.71083598  1
  Br  Br6  1  0.74999997  0.28916500  0.14458299  1
  Cs  Cs7  1  0.74999997  0.85541800  0.14458299  1
