# generated using pymatgen
data_Co2(MoP)5
_symmetry_space_group_name_H-M   'P 1'
_cell_length_a   4.71323061
_cell_length_b   4.71323061
_cell_length_c   7.50546980
_cell_angle_alpha   90.00000000
_cell_angle_beta   90.00000000
_cell_angle_gamma   119.65267944
_symmetry_Int_Tables_number   1
_chemical_formula_structural   Co2(MoP)5
_chemical_formula_sum   'Co2 Mo5 P5'
_cell_volume   144.89561276
_cell_formula_units_Z   1
loop_
 _symmetry_equiv_pos_site_id
 _symmetry_equiv_pos_as_xyz
  1  'x, y, z'
loop_
 _atom_site_type_symbol
 _atom_site_label
 _atom_site_symmetry_multiplicity
 _atom_site_fract_x
 _atom_site_fract_y
 _atom_site_fract_z
 _atom_site_occupancy
  Mo  Mo0  1  0.66726298  0.33273699  0.18427000  1
  Mo  Mo1  1  0.33356796  0.66643198  0.31026201  1
  Mo  Mo2  1  0.33356796  0.66643198  0.68973802  1
  Mo  Mo3  1  0.66726298  0.33273699  0.81573002  1
  Mo  Mo4  1  0.01036894  0.98963097  0.75701702  1
  P  P5  1  0.01036894  0.98963097  0.24298301  1
  P  P6  1  0.81632999  0.18367000  0.50000001  1
  P  P7  1  0.82519096  0.67247198  0.50000001  1
  Co  Co8  1  0.32752799  0.17480900  0.50000001  1
  Co  Co9  1  0.17414295  0.82585698  -0.00000000  1
  P  P10  1  0.17104398  0.33665999  -0.00000000  1
  P  P11  1  0.66333995  0.82895598  -0.00000000  1
