# generated using pymatgen
data_Tb3Cd3Se14
_symmetry_space_group_name_H-M   'P 1'
_cell_length_a   6.45518494
_cell_length_b   10.08351707
_cell_length_c   10.08351707
_cell_angle_alpha   119.78182220
_cell_angle_beta   90.00000000
_cell_angle_gamma   90.00000000
_symmetry_Int_Tables_number   1
_chemical_formula_structural   Tb3Cd3Se14
_chemical_formula_sum   'Tb3 Cd3 Se14'
_cell_volume   569.65774040
_cell_formula_units_Z   1
loop_
 _symmetry_equiv_pos_site_id
 _symmetry_equiv_pos_as_xyz
  1  'x, y, z'
loop_
 _atom_site_type_symbol
 _atom_site_label
 _atom_site_symmetry_multiplicity
 _atom_site_fract_x
 _atom_site_fract_y
 _atom_site_fract_z
 _atom_site_occupancy
  Se  Se0  1  0.44855100  0.33341701  0.66658302  1
  Se  Se1  1  0.94855101  0.66658302  0.33341701  1
  Se  Se2  1  0.24607200  0.12651300  0.87348702  1
  Se  Se3  1  0.24554700  0.74706502  0.87354402  1
  Se  Se4  1  0.24554700  0.12645600  0.25293501  1
  Se  Se5  1  0.74607201  0.87348702  0.12651301  1
  Se  Se6  1  0.74554701  0.25293501  0.12645600  1
  Se  Se7  1  0.74554701  0.87354402  0.74706502  1
  Se  Se8  1  0.44596500  0.53779001  0.46221001  1
  Se  Se9  1  0.44518800  0.92478102  0.46238601  1
  Se  Se10  1  0.44518800  0.53761401  0.07521900  1
  Se  Se11  1  0.94596501  0.46221001  0.53779001  1
  Se  Se12  1  0.94518801  0.07521900  0.53761401  1
  Se  Se13  1  0.94518801  0.46238601  0.92478102  1
  Cd  Cd14  1  0.19030500  0.81094402  0.18905601  1
  Cd  Cd15  1  0.19031900  0.37795601  0.18894701  1
  Cd  Cd16  1  0.19031900  0.81105302  0.62204402  1
  Tb  Tb17  1  0.69030501  0.18905600  0.81094402  1
  Tb  Tb18  1  0.69031901  0.62204401  0.81105302  1
  Tb  Tb19  1  0.69031901  0.18894700  0.37795601  1
