# generated using pymatgen
data_Ga8Co5
_symmetry_space_group_name_H-M   'P 1'
_cell_length_a   4.95438385
_cell_length_b   6.49650097
_cell_length_c   6.49650097
_cell_angle_alpha   80.79317474
_cell_angle_beta   67.58504486
_cell_angle_gamma   67.58504486
_symmetry_Int_Tables_number   1
_chemical_formula_structural   Ga8Co5
_chemical_formula_sum   'Ga8 Co5'
_cell_volume   178.66886471
_cell_formula_units_Z   1
loop_
 _symmetry_equiv_pos_site_id
 _symmetry_equiv_pos_as_xyz
  1  'x, y, z'
loop_
 _atom_site_type_symbol
 _atom_site_label
 _atom_site_symmetry_multiplicity
 _atom_site_fract_x
 _atom_site_fract_y
 _atom_site_fract_z
 _atom_site_occupancy
  Ga  Ga0  1  0.00000000  0.00000000  0.00000000  1
  Ga  Ga1  1  0.34289105  0.65710900  0.65710900  1
  Ga  Ga2  1  0.65710903  0.34289100  0.34289101  1
  Ga  Ga3  1  0.00000005  0.66775900  0.33224098  1
  Ga  Ga4  1  1.00000004  0.33224100  0.66775903  1
  Ga  Ga5  1  0.31771302  0.18228700  0.18228701  1
  Ga  Ga6  1  0.68228707  0.81771300  0.81771301  1
  Co  Co7  1  0.50000001  0.00000000  0.50000002  1
  Co  Co8  1  1.00000001  0.00000000  0.50000004  1
  Co  Co9  1  0.50000004  0.50000000  -0.00000000  1
  Ga  Ga10  1  0.00000003  0.50000000  1.00000000  1
  Co  Co11  1  0.50000002  0.24093300  0.75906702  1
  Co  Co12  1  0.50000006  0.75906700  0.24093299  1
