# generated using pymatgen
data_Ac7Pb
_symmetry_space_group_name_H-M   'P 1'
_cell_length_a   5.99917221
_cell_length_b   7.63925982
_cell_length_c   7.63925982
_cell_angle_alpha   120.00000000
_cell_angle_beta   90.00000000
_cell_angle_gamma   90.00000000
_symmetry_Int_Tables_number   1
_chemical_formula_structural   Ac7Pb
_chemical_formula_sum   'Ac7 Pb1'
_cell_volume   303.19673642
_cell_formula_units_Z   1
loop_
 _symmetry_equiv_pos_site_id
 _symmetry_equiv_pos_as_xyz
  1  'x, y, z'
loop_
 _atom_site_type_symbol
 _atom_site_label
 _atom_site_symmetry_multiplicity
 _atom_site_fract_x
 _atom_site_fract_y
 _atom_site_fract_z
 _atom_site_occupancy
  Ac  Ac0  1  0.74999997  0.83834901  0.16165099  1
  Pb  Pb1  1  0.74999997  0.32330200  0.16165099  1
  Ac  Ac2  1  0.74999997  0.83834901  0.67669798  1
  Ac  Ac3  1  0.24999999  0.16165100  0.83834900  1
  Ac  Ac4  1  0.24999999  0.67669801  0.83834899  1
  Ac  Ac5  1  0.24999999  0.16165100  0.32330200  1
  Ac  Ac6  1  0.24999999  0.66666668  0.33333332  1
  Ac  Ac7  1  0.74999997  0.33333334  0.66666666  1
