# generated using pymatgen
data_Ba2BiO4
_symmetry_space_group_name_H-M   'P 1'
_cell_length_a   6.16318083
_cell_length_b   6.48302507
_cell_length_c   7.19765520
_cell_angle_alpha   90.00000000
_cell_angle_beta   115.34945679
_cell_angle_gamma   90.00000000
_symmetry_Int_Tables_number   1
_chemical_formula_structural   Ba2BiO4
_chemical_formula_sum   'Ba4 Bi2 O8'
_cell_volume   259.89883652
_cell_formula_units_Z   2
loop_
 _symmetry_equiv_pos_site_id
 _symmetry_equiv_pos_as_xyz
  1  'x, y, z'
loop_
 _atom_site_type_symbol
 _atom_site_label
 _atom_site_symmetry_multiplicity
 _atom_site_fract_x
 _atom_site_fract_y
 _atom_site_fract_z
 _atom_site_occupancy
  Ba  Ba0  1  0.64256603  0.01988100  0.28513103  1
  Ba  Ba1  1  0.35743402  0.98011899  0.71486901  1
  Ba  Ba2  1  0.85743405  0.51988099  0.71486903  1
  Ba  Ba3  1  0.14256601  0.48011899  0.28513100  1
  Bi  Bi4  1  0.00000000  0.00000000  0.00000000  1
  Bi  Bi5  1  0.50000003  0.49999999  0.00000002  1
  O  O6  1  0.22387501  0.25000000  0.94775000  1
  O  O7  1  0.77612504  0.74999999  0.05225004  1
  O  O8  1  0.27612501  0.74999999  0.05225001  1
  O  O9  1  0.72387504  0.25000000  0.94775003  1
  O  O10  1  0.66310603  0.42857200  0.32621203  1
  O  O11  1  0.33689402  0.57142799  0.67378801  1
  O  O12  1  0.83689404  0.92857199  0.67378803  1
  O  O13  1  0.16310601  0.07142800  0.32621200  1
