# generated using pymatgen
data_Te5Mo2WSe
_symmetry_space_group_name_H-M   'P 1'
_cell_length_a   3.42421603
_cell_length_b   3.42421508
_cell_length_c   31.59260559
_cell_angle_alpha   90.00000000
_cell_angle_beta   90.00000000
_cell_angle_gamma   120.00000763
_symmetry_Int_Tables_number   1
_chemical_formula_structural   Te5Mo2WSe
_chemical_formula_sum   'Te5 Mo2 W1 Se1'
_cell_volume   320.80286310
_cell_formula_units_Z   1
loop_
 _symmetry_equiv_pos_site_id
 _symmetry_equiv_pos_as_xyz
  1  'x, y, z'
loop_
 _atom_site_type_symbol
 _atom_site_label
 _atom_site_symmetry_multiplicity
 _atom_site_fract_x
 _atom_site_fract_y
 _atom_site_fract_z
 _atom_site_occupancy
  Te  Te0  1  0.66666665  0.33333333  0.29019200  1
  Te  Te1  1  0.66666665  0.33333333  0.82758501  1
  Te  Te2  1  0.66666665  0.33333333  0.17241500  1
  Te  Te3  1  0.66666665  0.33333333  0.70980801  1
  Mo  Mo4  1  0.00000000  0.00000000  0.23132700  1
  Mo  Mo5  1  0.00000000  0.00000000  0.76867301  1
  W  W6  1  0.66666665  0.33333333  -0.00000000  1
  Te  Te7  1  0.00000000  0.00000000  0.95266001  1
  Se  Se8  1  0.00000000  0.00000000  0.04734000  1
