# generated using pymatgen
data_Ba4LaBi(SbO6)2
_symmetry_space_group_name_H-M   'P 1'
_cell_length_a   6.05249500
_cell_length_b   6.08677053
_cell_length_c   8.57325745
_cell_angle_alpha   89.68050385
_cell_angle_beta   90.40603638
_cell_angle_gamma   89.86313629
_symmetry_Int_Tables_number   1
_chemical_formula_structural   Ba4LaBi(SbO6)2
_chemical_formula_sum   'Ba4 La1 Bi1 Sb2 O12'
_cell_volume   315.82630287
_cell_formula_units_Z   1
loop_
 _symmetry_equiv_pos_site_id
 _symmetry_equiv_pos_as_xyz
  1  'x, y, z'
loop_
 _atom_site_type_symbol
 _atom_site_label
 _atom_site_symmetry_multiplicity
 _atom_site_fract_x
 _atom_site_fract_y
 _atom_site_fract_z
 _atom_site_occupancy
  Ba  Ba0  1  0.99472866  0.02753218  0.25010454  1
  Ba  Ba1  1  0.00527134  0.97246785  0.74989544  1
  Ba  Ba2  1  0.50800335  0.53663339  0.24791807  1
  Ba  Ba3  1  0.49199665  0.46336665  0.75208192  1
  Bi  Bi4  1  -0.00000001  0.50000002  -0.00000000  1
  La  La5  1  0.50000000  0.00000000  0.50000000  1
  Sb  Sb6  1  0.50000000  0.00000000  -0.00000001  1
  Sb  Sb7  1  -0.00000001  0.50000002  0.50000000  1
  O  O8  1  0.23570428  0.20021755  0.96748241  1
  O  O9  1  0.26710133  0.69444444  0.54544755  1
  O  O10  1  0.76429572  0.79978249  0.03251758  1
  O  O11  1  0.73289866  0.30555559  0.45455244  1
  O  O12  1  0.31229087  0.72753260  0.95643321  1
  O  O13  1  0.19777883  0.23624424  0.54023164  1
  O  O14  1  0.68770912  0.27246744  0.04356678  1
  O  O15  1  0.80222117  0.76375580  0.45976835  1
  O  O16  1  0.43579980  0.96430073  0.23092353  1
  O  O17  1  0.08644377  0.49238504  0.27014769  1
  O  O18  1  0.56420019  0.03569930  0.76907646  1
  O  O19  1  0.91355622  0.50761500  0.72985230  1
