# generated using pymatgen
data_Mg5GaO6
_symmetry_space_group_name_H-M   'P 1'
_cell_length_a   5.10120773
_cell_length_b   5.10206032
_cell_length_c   5.23924780
_cell_angle_alpha   101.12421417
_cell_angle_beta   101.16203308
_cell_angle_gamma   118.03692627
_symmetry_Int_Tables_number   1
_chemical_formula_structural   Mg5GaO6
_chemical_formula_sum   'Mg5 Ga1 O6'
_cell_volume   111.55319892
_cell_formula_units_Z   1
loop_
 _symmetry_equiv_pos_site_id
 _symmetry_equiv_pos_as_xyz
  1  'x, y, z'
loop_
 _atom_site_type_symbol
 _atom_site_label
 _atom_site_symmetry_multiplicity
 _atom_site_fract_x
 _atom_site_fract_y
 _atom_site_fract_z
 _atom_site_occupancy
  Mg  Mg0  1  0.50020596  0.50000895  0.50002800  1
  Mg  Mg1  1  0.83309399  0.16714998  0.49990901  1
  Mg  Mg2  1  0.16921493  0.83060692  0.49996298  1
  Ga  Ga3  1  0.33026195  0.66974994  0.00010897  1
  Mg  Mg4  1  0.66379598  0.33621797  0.99998202  1
  Mg  Mg5  1  0.00247692  0.99742291  0.99986999  1
  O  O6  1  0.27272098  0.27961797  0.77148102  1
  O  O7  1  0.56586893  0.91525392  0.78712099  1
  O  O8  1  0.94514296  0.58799295  0.75949900  1
  O  O9  1  0.72047394  0.72716093  0.22853897  1
  O  O10  1  0.08478396  0.43402196  0.21301099  1
  O  O11  1  0.41195900  0.05479499  0.24048901  1
