# generated using pymatgen
data_Ba2Zn4P2NO
_symmetry_space_group_name_H-M   'P 1'
_cell_length_a   3.94582796
_cell_length_b   5.79754210
_cell_length_c   7.30260277
_cell_angle_alpha   90.00000000
_cell_angle_beta   90.00000000
_cell_angle_gamma   109.89526367
_symmetry_Int_Tables_number   1
_chemical_formula_structural   Ba2Zn4P2NO
_chemical_formula_sum   'Ba2 Zn4 P2 N1 O1'
_cell_volume   157.08462537
_cell_formula_units_Z   1
loop_
 _symmetry_equiv_pos_site_id
 _symmetry_equiv_pos_as_xyz
  1  'x, y, z'
loop_
 _atom_site_type_symbol
 _atom_site_label
 _atom_site_symmetry_multiplicity
 _atom_site_fract_x
 _atom_site_fract_y
 _atom_site_fract_z
 _atom_site_occupancy
  Ba  Ba0  1  0.45630903  0.91261798  0.75000002  1
  Ba  Ba1  1  0.54369101  0.08738200  0.25000001  1
  Zn  Zn2  1  0.17380401  0.34760799  0.93917103  1
  Zn  Zn3  1  0.82619602  0.65239199  0.06082900  1
  Zn  Zn4  1  0.82619602  0.65239199  0.43917101  1
  Zn  Zn5  1  0.17380401  0.34760799  0.56082902  1
  P  P6  1  0.73461102  0.46922199  0.75000002  1
  P  P7  1  0.26538901  0.53077799  0.25000001  1
  O  O8  1  0.00000000  0.00000000  0.00000000  1
  N  N9  1  0.00000000  0.00000000  0.50000002  1
