# generated using pymatgen
data_EuAu5
_symmetry_space_group_name_H-M   'P 1'
_cell_length_a   5.65500593
_cell_length_b   5.65500593
_cell_length_c   9.89032745
_cell_angle_alpha   73.38820648
_cell_angle_beta   73.38820648
_cell_angle_gamma   60.00000381
_symmetry_Int_Tables_number   1
_chemical_formula_structural   EuAu5
_chemical_formula_sum   'Eu2 Au10'
_cell_volume   258.55480188
_cell_formula_units_Z   2
loop_
 _symmetry_equiv_pos_site_id
 _symmetry_equiv_pos_as_xyz
  1  'x, y, z'
loop_
 _atom_site_type_symbol
 _atom_site_label
 _atom_site_symmetry_multiplicity
 _atom_site_fract_x
 _atom_site_fract_y
 _atom_site_fract_z
 _atom_site_occupancy
  Eu  Eu0  1  0.37457097  0.37457098  0.87628703  1
  Au  Au1  1  0.99931493  0.99931495  0.00205508  1
  Au  Au2  1  0.50055497  0.50055498  0.49833504  1
  Eu  Eu3  1  0.87490294  0.87490296  0.37529107  1
  Au  Au4  1  0.93469394  0.43597898  0.19334805  1
  Au  Au5  1  0.44192996  0.93856995  0.68093005  1
  Au  Au6  1  0.43597897  0.43597898  0.19334803  1
  Au  Au7  1  0.93856994  0.93856995  0.68093007  1
  Au  Au8  1  0.18792599  0.18792599  0.43622201  1
  Au  Au9  1  0.68700895  0.68700897  0.93897305  1
  Au  Au10  1  0.43597896  0.93469395  0.19334805  1
  Au  Au11  1  0.93856994  0.44192998  0.68093005  1
