# generated using pymatgen
data_Li2VF5
_symmetry_space_group_name_H-M   'P 1'
_cell_length_a   2.99209428
_cell_length_b   5.19050360
_cell_length_c   6.41184950
_cell_angle_alpha   74.26538849
_cell_angle_beta   89.98709106
_cell_angle_gamma   89.96906281
_symmetry_Int_Tables_number   1
_chemical_formula_structural   Li2VF5
_chemical_formula_sum   'Li2 V1 F5'
_cell_volume   95.84764455
_cell_formula_units_Z   1
loop_
 _symmetry_equiv_pos_site_id
 _symmetry_equiv_pos_as_xyz
  1  'x, y, z'
loop_
 _atom_site_type_symbol
 _atom_site_label
 _atom_site_symmetry_multiplicity
 _atom_site_fract_x
 _atom_site_fract_y
 _atom_site_fract_z
 _atom_site_occupancy
  Li  Li0  1  0.50000001  0.00000000  0.50000003  1
  Li  Li1  1  0.00000098  0.49999999  0.50000001  1
  F  F2  1  0.00000000  0.00000000  0.00000000  1
  V  V3  1  0.49999999  0.49999999  1.00000004  1
  F  F4  1  0.00015196  0.88919199  0.32901000  1
  F  F5  1  0.50015199  0.38918400  0.32901202  1
  F  F6  1  0.99984701  0.11080800  0.67099005  1
  F  F7  1  0.49984698  0.61081599  0.67098803  1
