# generated using pymatgen
data_Co19Mo
_symmetry_space_group_name_H-M   'P 1'
_cell_length_a   6.10996723
_cell_length_b   6.10996723
_cell_length_c   6.10996723
_cell_angle_alpha   90.00000000
_cell_angle_beta   90.00000000
_cell_angle_gamma   90.00000000
_symmetry_Int_Tables_number   1
_chemical_formula_structural   Co19Mo
_chemical_formula_sum   'Co19 Mo1'
_cell_volume   228.09546110
_cell_formula_units_Z   1
loop_
 _symmetry_equiv_pos_site_id
 _symmetry_equiv_pos_as_xyz
  1  'x, y, z'
loop_
 _atom_site_type_symbol
 _atom_site_label
 _atom_site_symmetry_multiplicity
 _atom_site_fract_x
 _atom_site_fract_y
 _atom_site_fract_z
 _atom_site_occupancy
  Co  Co0  1  0.12229000  0.20648299  0.45367098  1
  Co  Co1  1  0.37770999  0.79351697  0.95367096  1
  Co  Co2  1  0.87770997  0.70648297  0.04632900  1
  Co  Co3  1  0.45367098  0.12229000  0.20648299  1
  Co  Co4  1  0.62228998  0.29351699  0.54632898  1
  Co  Co5  1  0.95367096  0.37770999  0.79351697  1
  Co  Co6  1  0.04632900  0.87770997  0.70648297  1
  Mo  Mo7  1  0.54632898  0.62228998  0.29351699  1
  Co  Co8  1  0.20648299  0.45367098  0.12229000  1
  Co  Co9  1  0.70648297  0.04632900  0.87770997  1
  Co  Co10  1  0.29351699  0.54632898  0.62228998  1
  Co  Co11  1  0.79351697  0.95367096  0.37770999  1
  Co  Co12  1  0.06484700  0.06484700  0.06484700  1
  Co  Co13  1  0.43515298  0.93515296  0.56484698  1
  Co  Co14  1  0.93515296  0.56484698  0.43515298  1
  Co  Co15  1  0.56484698  0.43515298  0.93515296  1
  Co  Co16  1  0.68496697  0.68496697  0.68496697  1
  Co  Co17  1  0.81503297  0.31503299  0.18496699  1
  Co  Co18  1  0.31503299  0.18496699  0.81503297  1
  Co  Co19  1  0.18496699  0.81503297  0.31503299  1
