# generated using pymatgen
data_BaGaS2
_symmetry_space_group_name_H-M   'P 1'
_cell_length_a   3.35253191
_cell_length_b   3.35253215
_cell_length_c   15.39104176
_cell_angle_alpha   90.00000000
_cell_angle_beta   90.00000000
_cell_angle_gamma   120.00000000
_symmetry_Int_Tables_number   1
_chemical_formula_structural   BaGaS2
_chemical_formula_sum   'Ba2 Ga2 S4'
_cell_volume   149.81128165
_cell_formula_units_Z   2
loop_
 _symmetry_equiv_pos_site_id
 _symmetry_equiv_pos_as_xyz
  1  'x, y, z'
loop_
 _atom_site_type_symbol
 _atom_site_label
 _atom_site_symmetry_multiplicity
 _atom_site_fract_x
 _atom_site_fract_y
 _atom_site_fract_z
 _atom_site_occupancy
  S  S0  1  0.66666669  0.33333333  0.92030301  1
  S  S1  1  0.66666669  0.33333333  0.57969701  1
  S  S2  1  0.33333336  0.66666666  0.42030301  1
  Ga  Ga3  1  0.33333336  0.66666666  0.07969700  1
  Ba  Ba4  1  0.66666669  0.33333333  0.25000000  1
  Ba  Ba5  1  0.33333336  0.66666666  0.75000001  1
  S  S6  1  0.00000000  0.00000000  0.00000000  1
  Ga  Ga7  1  0.00000000  0.00000000  0.50000001  1
