# generated using pymatgen
data_Tb4Ga11Co
_symmetry_space_group_name_H-M   'P 1'
_cell_length_a   5.60410023
_cell_length_b   7.15365601
_cell_length_c   7.32839012
_cell_angle_alpha   90.00000000
_cell_angle_beta   90.00000000
_cell_angle_gamma   90.00000000
_symmetry_Int_Tables_number   1
_chemical_formula_structural   Tb4Ga11Co
_chemical_formula_sum   'Tb4 Ga11 Co1'
_cell_volume   293.79373276
_cell_formula_units_Z   1
loop_
 _symmetry_equiv_pos_site_id
 _symmetry_equiv_pos_as_xyz
  1  'x, y, z'
loop_
 _atom_site_type_symbol
 _atom_site_label
 _atom_site_symmetry_multiplicity
 _atom_site_fract_x
 _atom_site_fract_y
 _atom_site_fract_z
 _atom_site_occupancy
  Tb  Tb0  1  0.64428297  0.25000000  0.97513898  1
  Tb  Tb1  1  0.85571697  0.25000000  0.47513899  1
  Tb  Tb2  1  0.35571699  0.75000000  0.02486100  1
  Tb  Tb3  1  0.14428299  0.75000000  0.52486099  1
  Ga  Ga4  1  0.35887399  0.25000000  0.62160099  1
  Ga  Ga5  1  0.85887397  0.75000000  0.87839899  1
  Co  Co6  1  0.64112597  0.75000000  0.37839899  1
  Ga  Ga7  1  0.14112599  0.25000000  0.12160100  1
  Ga  Ga8  1  0.41201898  0.05127500  0.31717599  1
  Ga  Ga9  1  0.08798100  0.05127500  0.81717599  1
  Ga  Ga10  1  0.41201898  0.44872500  0.31717599  1
  Ga  Ga11  1  0.91201896  0.55127500  0.18282400  1
  Ga  Ga12  1  0.58798098  0.55127500  0.68282399  1
  Ga  Ga13  1  0.08798100  0.44872500  0.81717599  1
  Ga  Ga14  1  0.58798098  0.94872500  0.68282399  1
  Ga  Ga15  1  0.91201896  0.94872500  0.18282400  1
