# generated using pymatgen
data_In2Au9S
_symmetry_space_group_name_H-M   'P 1'
_cell_length_a   6.74691677
_cell_length_b   6.74691677
_cell_length_c   6.74691677
_cell_angle_alpha   90.00000000
_cell_angle_beta   90.00000000
_cell_angle_gamma   90.00000000
_symmetry_Int_Tables_number   1
_chemical_formula_structural   In2Au9S
_chemical_formula_sum   'In2 Au9 S1'
_cell_volume   307.12562860
_cell_formula_units_Z   1
loop_
 _symmetry_equiv_pos_site_id
 _symmetry_equiv_pos_as_xyz
  1  'x, y, z'
loop_
 _atom_site_type_symbol
 _atom_site_label
 _atom_site_symmetry_multiplicity
 _atom_site_fract_x
 _atom_site_fract_y
 _atom_site_fract_z
 _atom_site_occupancy
  In  In0  1  0.50000002  0.50000002  -0.00000000  1
  Au  Au1  1  0.50000002  0.00000000  0.50000002  1
  Au  Au2  1  0.00000000  0.50000002  0.50000002  1
  Au  Au3  1  0.00000000  0.00000000  0.00000000  1
  Au  Au4  1  0.10252200  0.89747803  0.39747801  1
  Au  Au5  1  0.89747803  0.39747801  0.10252200  1
  Au  Au6  1  0.39747801  0.10252200  0.89747803  1
  S  S7  1  0.60252202  0.60252202  0.60252202  1
  Au  Au8  1  0.89747803  0.10252200  0.60252202  1
  In  In9  1  0.10252200  0.60252202  0.89747803  1
  Au  Au10  1  0.60252202  0.89747803  0.10252200  1
  Au  Au11  1  0.39747801  0.39747801  0.39747801  1
