# generated using pymatgen
data_Mg3Hg
_symmetry_space_group_name_H-M   'P 1'
_cell_length_a   3.08818007
_cell_length_b   5.35520649
_cell_length_c   5.90261602
_cell_angle_alpha   116.16161346
_cell_angle_beta   105.16467285
_cell_angle_gamma   90.00000000
_symmetry_Int_Tables_number   1
_chemical_formula_structural   Mg3Hg
_chemical_formula_sum   'Mg3 Hg1'
_cell_volume   83.81228413
_cell_formula_units_Z   1
loop_
 _symmetry_equiv_pos_site_id
 _symmetry_equiv_pos_as_xyz
  1  'x, y, z'
loop_
 _atom_site_type_symbol
 _atom_site_label
 _atom_site_symmetry_multiplicity
 _atom_site_fract_x
 _atom_site_fract_y
 _atom_site_fract_z
 _atom_site_occupancy
  Mg  Mg0  1  0.37481898  0.70840504  0.74963804  1
  Hg  Hg1  1  0.62518097  0.29159502  0.25036200  1
  Mg  Mg2  1  0.12367698  0.79348305  0.24735404  1
  Mg  Mg3  1  0.87632297  0.20651701  0.75264600  1
