# generated using pymatgen
data_GaMo3
_symmetry_space_group_name_H-M   'P 1'
_cell_length_a   3.97443700
_cell_length_b   7.98070288
_cell_length_c   7.98070288
_cell_angle_alpha   90.00000000
_cell_angle_beta   90.00000000
_cell_angle_gamma   90.00000000
_symmetry_Int_Tables_number   1
_chemical_formula_structural   GaMo3
_chemical_formula_sum   'Ga4 Mo12'
_cell_volume   253.13832470
_cell_formula_units_Z   4
loop_
 _symmetry_equiv_pos_site_id
 _symmetry_equiv_pos_as_xyz
  1  'x, y, z'
loop_
 _atom_site_type_symbol
 _atom_site_label
 _atom_site_symmetry_multiplicity
 _atom_site_fract_x
 _atom_site_fract_y
 _atom_site_fract_z
 _atom_site_occupancy
  Ga  Ga0  1  0.50000000  0.00000000  0.24454500  1
  Ga  Ga1  1  0.50000000  0.00000000  0.75545501  1
  Mo  Mo2  1  0.50000000  0.24454500  -0.00000000  1
  Mo  Mo3  1  0.50000000  0.75545501  -0.00000000  1
  Mo  Mo4  1  0.00000000  0.50000001  -0.00000000  1
  Mo  Mo5  1  0.00000000  0.00000000  0.50000001  1
  Mo  Mo6  1  0.00000000  0.00000000  0.00000000  1
  Mo  Mo7  1  0.00000000  0.50000001  0.50000001  1
  Mo  Mo8  1  0.00000000  0.23966000  0.23966000  1
  Ga  Ga9  1  0.00000000  0.76034001  0.76034001  1
  Mo  Mo10  1  0.00000000  0.23966000  0.76034001  1
  Mo  Mo11  1  0.00000000  0.76034001  0.23966000  1
  Mo  Mo12  1  0.50000000  0.50000001  0.24113500  1
  Ga  Ga13  1  0.50000000  0.50000001  0.75886501  1
  Mo  Mo14  1  0.50000000  0.24113500  0.50000001  1
  Mo  Mo15  1  0.50000000  0.75886501  0.50000001  1
