# generated using pymatgen
data_PrMg3(WO6)2
_symmetry_space_group_name_H-M   'P 1'
_cell_length_a   5.28723192
_cell_length_b   5.28723192
_cell_length_c   10.51521683
_cell_angle_alpha   90.00000000
_cell_angle_beta   90.00000000
_cell_angle_gamma   120.00000000
_symmetry_Int_Tables_number   1
_chemical_formula_structural   PrMg3(WO6)2
_chemical_formula_sum   'Pr1 Mg3 W2 O12'
_cell_volume   254.56904072
_cell_formula_units_Z   1
loop_
 _symmetry_equiv_pos_site_id
 _symmetry_equiv_pos_as_xyz
  1  'x, y, z'
loop_
 _atom_site_type_symbol
 _atom_site_label
 _atom_site_symmetry_multiplicity
 _atom_site_fract_x
 _atom_site_fract_y
 _atom_site_fract_z
 _atom_site_occupancy
  Pr  Pr0  1  0.00000000  0.00000000  0.50000001  1
  Mg  Mg1  1  0.00000000  0.00000000  0.00000000  1
  Mg  Mg2  1  0.66666667  0.33333332  0.25000000  1
  Mg  Mg3  1  0.33333332  0.66666664  0.75000001  1
  W  W4  1  0.33333332  0.66666664  0.25000000  1
  W  W5  1  0.66666667  0.33333332  0.75000001  1
  O  O6  1  0.35567900  0.37374299  0.35463301  1
  O  O7  1  0.64432099  0.62625698  0.64536701  1
  O  O8  1  0.01806398  0.64432098  0.35463301  1
  O  O9  1  0.35567898  0.98193597  0.14536700  1
  O  O10  1  0.98193601  0.35567899  0.64536701  1
  O  O11  1  0.64432101  0.01806400  0.85463301  1
  O  O12  1  0.62625698  0.98193597  0.35463301  1
  O  O13  1  0.01806399  0.37374299  0.14536700  1
  O  O14  1  0.37374300  0.01806400  0.64536701  1
  O  O15  1  0.98193600  0.62625698  0.85463301  1
  O  O16  1  0.62625699  0.64432098  0.14536700  1
  O  O17  1  0.37374300  0.35567899  0.85463301  1
