# generated using pymatgen
data_Ba3(AgS2)2
_symmetry_space_group_name_H-M   'P 1'
_cell_length_a   6.56583118
_cell_length_b   8.21003914
_cell_length_c   8.21003914
_cell_angle_alpha   76.05965424
_cell_angle_beta   89.41304779
_cell_angle_gamma   89.41304779
_symmetry_Int_Tables_number   1
_chemical_formula_structural   Ba3(AgS2)2
_chemical_formula_sum   'Ba6 Ag4 S8'
_cell_volume   429.49691072
_cell_formula_units_Z   2
loop_
 _symmetry_equiv_pos_site_id
 _symmetry_equiv_pos_as_xyz
  1  'x, y, z'
loop_
 _atom_site_type_symbol
 _atom_site_label
 _atom_site_symmetry_multiplicity
 _atom_site_fract_x
 _atom_site_fract_y
 _atom_site_fract_z
 _atom_site_occupancy
  Ba  Ba0  1  0.96484802  0.50521500  0.25114502  1
  Ba  Ba1  1  0.53515201  0.74885500  0.49478502  1
  Ba  Ba2  1  0.03515200  0.49478500  0.74885502  1
  Ba  Ba3  1  0.46484801  0.25114500  0.50521501  1
  Ba  Ba4  1  0.75000001  0.10040800  0.89959201  1
  Ba  Ba5  1  0.25000001  0.89959200  0.10040803  1
  Ag  Ag6  1  0.58450801  0.67480300  0.91830602  1
  Ag  Ag7  1  0.91549201  0.08169400  0.32519701  1
  Ag  Ag8  1  0.41549201  0.32519700  0.08169401  1
  Ag  Ag9  1  0.08450801  0.91830600  0.67480303  1
  S  S10  1  0.52509601  0.44068300  0.78847402  1
  S  S11  1  0.97490402  0.21152600  0.55931701  1
  S  S12  1  0.47490401  0.55931700  0.21152602  1
  S  S13  1  0.02509600  0.78847400  0.44068302  1
  S  S14  1  0.93261002  0.75805800  0.93101503  1
  S  S15  1  0.56739001  0.06898500  0.24194200  1
  S  S16  1  0.06739000  0.24194200  0.06898501  1
  S  S17  1  0.43261001  0.93101500  0.75805803  1
