# generated using pymatgen
data_Li9F7
_symmetry_space_group_name_H-M   'P 1'
_cell_length_a   5.94984341
_cell_length_b   5.94984341
_cell_length_c   5.95117474
_cell_angle_alpha   60.00739288
_cell_angle_beta   60.00739288
_cell_angle_gamma   60.00000763
_symmetry_Int_Tables_number   1
_chemical_formula_structural   Li9F7
_chemical_formula_sum   'Li9 F7'
_cell_volume   148.98663839
_cell_formula_units_Z   1
loop_
 _symmetry_equiv_pos_site_id
 _symmetry_equiv_pos_as_xyz
  1  'x, y, z'
loop_
 _atom_site_type_symbol
 _atom_site_label
 _atom_site_symmetry_multiplicity
 _atom_site_fract_x
 _atom_site_fract_y
 _atom_site_fract_z
 _atom_site_occupancy
  Li  Li0  1  0.50000004  0.50000000  0.49999997  1
  Li  Li1  1  0.50000001  0.00000000  0.49999999  1
  Li  Li2  1  0.00000000  0.00000000  0.50000000  1
  Li  Li3  1  0.00000003  0.50000000  0.49999998  1
  Li  Li4  1  0.00000000  0.00000000  0.00000000  1
  Li  Li5  1  0.00000003  0.50000000  -0.00000002  1
  Li  Li6  1  0.50000004  0.50000000  -0.00000003  1
  Li  Li7  1  0.50000001  0.00000000  -0.00000001  1
  F  F8  1  0.26190702  0.26190700  0.21427899  1
  F  F9  1  0.24105705  0.75963900  0.23966497  1
  F  F10  1  0.75963906  0.75963900  0.23966496  1
  Li  Li11  1  0.73809306  0.73809300  0.78572096  1
  F  F12  1  0.75963903  0.24105700  0.23966498  1
  F  F13  1  0.75894303  0.24036100  0.76033498  1
  F  F14  1  0.24036102  0.24036100  0.76033499  1
  F  F15  1  0.24036105  0.75894300  0.76033497  1
