# generated using pymatgen
data_Cs2AuSe3
_symmetry_space_group_name_H-M   'P 1'
_cell_length_a   3.58707857
_cell_length_b   3.58707857
_cell_length_c   15.15597820
_cell_angle_alpha   83.20375824
_cell_angle_beta   83.20375824
_cell_angle_gamma   59.99998856
_symmetry_Int_Tables_number   1
_chemical_formula_structural   Cs2AuSe3
_chemical_formula_sum   'Cs2 Au1 Se3'
_cell_volume   167.30287531
_cell_formula_units_Z   1
loop_
 _symmetry_equiv_pos_site_id
 _symmetry_equiv_pos_as_xyz
  1  'x, y, z'
loop_
 _atom_site_type_symbol
 _atom_site_label
 _atom_site_symmetry_multiplicity
 _atom_site_fract_x
 _atom_site_fract_y
 _atom_site_fract_z
 _atom_site_occupancy
  Cs  Cs0  1  0.60184399  0.60184401  0.19446798  1
  Se  Se1  1  0.00000000  0.00000000  0.00000000  1
  Cs  Cs2  1  0.39815599  0.39815600  0.80553197  1
  Se  Se3  1  0.20028000  0.20028000  0.39915999  1
  Se  Se4  1  0.79971998  0.79972001  0.60083997  1
  Au  Au5  1  0.49999999  0.50000000  0.49999998  1
