# generated using pymatgen
data_LiGa7O12
_symmetry_space_group_name_H-M   'P 1'
_cell_length_a   5.02265406
_cell_length_b   5.14736509
_cell_length_c   8.63672066
_cell_angle_alpha   90.00000000
_cell_angle_beta   90.00000000
_cell_angle_gamma   89.62382507
_symmetry_Int_Tables_number   1
_chemical_formula_structural   LiGa7O12
_chemical_formula_sum   'Li1 Ga7 O12'
_cell_volume   223.28407643
_cell_formula_units_Z   1
loop_
 _symmetry_equiv_pos_site_id
 _symmetry_equiv_pos_as_xyz
  1  'x, y, z'
loop_
 _atom_site_type_symbol
 _atom_site_label
 _atom_site_symmetry_multiplicity
 _atom_site_fract_x
 _atom_site_fract_y
 _atom_site_fract_z
 _atom_site_occupancy
  Li  Li0  1  0.00000000  0.00000000  0.29935601  1
  Ga  Ga1  1  0.50000005  0.99999997  0.16124401  1
  Ga  Ga2  1  0.00000003  0.49999998  0.69238703  1
  Ga  Ga3  1  0.50000002  0.49999998  0.81608003  1
  Ga  Ga4  1  0.00000000  0.00000000  0.90380404  1
  Ga  Ga5  1  0.50000002  0.49999998  0.39256002  1
  Ga  Ga6  1  0.50000005  0.99999997  0.60434702  1
  Ga  Ga7  1  0.00000003  0.49999998  0.07456300  1
  O  O8  1  0.25801304  0.84967797  0.74125803  1
  O  O9  1  0.30037904  0.82252998  0.41748602  1
  O  O10  1  0.19879904  0.82024498  0.07545400  1
  O  O11  1  0.70713303  0.68535098  0.57235102  1
  O  O12  1  0.79589803  0.66933998  0.91398604  1
  O  O13  1  0.75471703  0.63867698  0.23675401  1
  O  O14  1  0.24528302  0.36132299  0.23675401  1
  O  O15  1  0.20410202  0.33065999  0.91398604  1
  O  O16  1  0.29286701  0.31464899  0.57235102  1
  O  O17  1  0.80120100  0.17975499  0.07545400  1
  O  O18  1  0.69962100  0.17746999  0.41748602  1
  O  O19  1  0.74198700  0.15032200  0.74125803  1
