# generated using pymatgen
data_HoGaCo4
_symmetry_space_group_name_H-M   'P 1'
_cell_length_a   4.01072121
_cell_length_b   4.93919134
_cell_length_c   8.46597099
_cell_angle_alpha   90.00000000
_cell_angle_beta   90.00000000
_cell_angle_gamma   90.00000000
_symmetry_Int_Tables_number   1
_chemical_formula_structural   HoGaCo4
_chemical_formula_sum   'Ho2 Ga2 Co8'
_cell_volume   167.70851030
_cell_formula_units_Z   2
loop_
 _symmetry_equiv_pos_site_id
 _symmetry_equiv_pos_as_xyz
  1  'x, y, z'
loop_
 _atom_site_type_symbol
 _atom_site_label
 _atom_site_symmetry_multiplicity
 _atom_site_fract_x
 _atom_site_fract_y
 _atom_site_fract_z
 _atom_site_occupancy
  Ho  Ho0  1  0.00000000  0.49997600  0.50000003  1
  Ho  Ho1  1  0.00000000  0.00001100  0.00000000  1
  Co  Co2  1  0.00000000  0.99999900  0.33050703  1
  Co  Co3  1  0.00000000  0.49995900  0.84552204  1
  Co  Co4  1  0.00000000  0.49995900  0.15447801  1
  Co  Co5  1  0.00000000  0.99999900  0.66949304  1
  Co  Co6  1  0.49999997  0.99998600  0.50000003  1
  Co  Co7  1  0.49999997  0.49998100  0.00000001  1
  Ga  Ga8  1  0.49999997  0.24780900  0.24659901  1
  Co  Co9  1  0.49999997  0.75215600  0.75340604  1
  Co  Co10  1  0.49999997  0.75215600  0.24659402  1
  Ga  Ga11  1  0.49999997  0.24780900  0.75340103  1
