# generated using pymatgen
data_NaGeBiF9
_symmetry_space_group_name_H-M   'P 1'
_cell_length_a   5.31071997
_cell_length_b   5.31071997
_cell_length_c   6.90823650
_cell_angle_alpha   112.60500336
_cell_angle_beta   112.60500336
_cell_angle_gamma   90.00000000
_symmetry_Int_Tables_number   1
_chemical_formula_structural   NaGeBiF9
_chemical_formula_sum   'Na1 Ge1 Bi1 F9'
_cell_volume   163.53761725
_cell_formula_units_Z   1
loop_
 _symmetry_equiv_pos_site_id
 _symmetry_equiv_pos_as_xyz
  1  'x, y, z'
loop_
 _atom_site_type_symbol
 _atom_site_label
 _atom_site_symmetry_multiplicity
 _atom_site_fract_x
 _atom_site_fract_y
 _atom_site_fract_z
 _atom_site_occupancy
  Bi  Bi0  1  0.25000000  0.75000000  0.50000000  1
  Na  Na1  1  0.50000000  0.50000000  1.00000001  1
  Ge  Ge2  1  0.75000000  0.25000000  0.50000000  1
  F  F3  1  0.00000000  0.00000000  0.00000000  1
  F  F4  1  0.81380300  0.92062700  0.33200299  1
  F  F5  1  0.51819900  0.41137500  0.33200100  1
  F  F6  1  0.67062600  0.76819900  0.83200201  1
  F  F7  1  0.16137600  0.06380300  0.83200202  1
  F  F8  1  0.93619700  0.32937300  0.16799700  1
  F  F9  1  0.23180099  0.83862500  0.16799900  1
  F  F10  1  0.07937400  0.48180100  0.66799801  1
  F  F11  1  0.58862400  0.18619700  0.66799801  1
