# generated using pymatgen
data_BaYAg3F10
_symmetry_space_group_name_H-M   'P 1'
_cell_length_a   3.96593404
_cell_length_b   6.99842072
_cell_length_c   9.59942245
_cell_angle_alpha   98.43193054
_cell_angle_beta   101.92150879
_cell_angle_gamma   90.00000000
_symmetry_Int_Tables_number   1
_chemical_formula_structural   BaYAg3F10
_chemical_formula_sum   'Ba1 Y1 Ag3 F10'
_cell_volume   257.74386029
_cell_formula_units_Z   1
loop_
 _symmetry_equiv_pos_site_id
 _symmetry_equiv_pos_as_xyz
  1  'x, y, z'
loop_
 _atom_site_type_symbol
 _atom_site_label
 _atom_site_symmetry_multiplicity
 _atom_site_fract_x
 _atom_site_fract_y
 _atom_site_fract_z
 _atom_site_occupancy
  Ba  Ba0  1  0.49237101  0.48952900  0.98474198  1
  Ag  Ag1  1  0.33552800  0.08747200  0.67105598  1
  Y  Y2  1  0.16277001  0.40230600  0.32554000  1
  Ag  Ag3  1  0.66936001  0.87446600  0.33872002  1
  Ag  Ag4  1  0.82619001  0.61483900  0.65238000  1
  F  F5  1  0.00324502  0.98178700  0.00649004  1
  F  F6  1  0.36028001  0.41043200  0.72055999  1
  F  F7  1  0.04517101  0.36050100  0.09034201  1
  F  F8  1  0.15449900  0.04068400  0.30899799  1
  F  F9  1  0.45065700  0.10969100  0.90131397  1
  F  F10  1  0.25514001  0.69072300  0.51028001  1
  F  F11  1  0.64265701  0.53920300  0.28531401  1
  F  F12  1  0.55398901  0.83619000  0.10797803  1
  F  F13  1  0.94665201  0.66822500  0.89330399  1
  F  F14  1  0.84985201  0.94065100  0.69970401  1
