# generated using pymatgen
data_Ag5PO7
_symmetry_space_group_name_H-M   'P 1'
_cell_length_a   5.87781000
_cell_length_b   5.87781000
_cell_length_c   5.87781096
_cell_angle_alpha   86.52274323
_cell_angle_beta   86.52274323
_cell_angle_gamma   86.52273560
_symmetry_Int_Tables_number   1
_chemical_formula_structural   Ag5PO7
_chemical_formula_sum   'Ag5 P1 O7'
_cell_volume   201.99232755
_cell_formula_units_Z   1
loop_
 _symmetry_equiv_pos_site_id
 _symmetry_equiv_pos_as_xyz
  1  'x, y, z'
loop_
 _atom_site_type_symbol
 _atom_site_label
 _atom_site_symmetry_multiplicity
 _atom_site_fract_x
 _atom_site_fract_y
 _atom_site_fract_z
 _atom_site_occupancy
  Ag  Ag0  1  0.48367401  0.00938800  0.74192499  1
  Ag  Ag1  1  0.74192498  0.48367401  0.00938803  1
  Ag  Ag2  1  0.00938795  0.74192502  0.48367400  1
  Ag  Ag3  1  0.98621095  0.98621102  0.98621102  1
  P  P4  1  0.51379498  0.51379501  0.51379501  1
  Ag  Ag5  1  0.12560599  0.12560600  0.12560600  1
  O  O6  1  0.78889501  0.13888200  0.87238299  1
  O  O7  1  0.36852898  0.36783201  0.68595200  1
  O  O8  1  0.68595199  0.36852901  0.36783202  1
  O  O9  1  0.36783196  0.68595202  0.36852902  1
  O  O10  1  0.66692797  0.66692802  0.66692801  1
  O  O11  1  0.13888194  0.87238302  0.78889500  1
  O  O12  1  0.87238296  0.78889502  0.13888204  1
