# generated using pymatgen
data_ZnCN2
_symmetry_space_group_name_H-M   'P 1'
_cell_length_a   3.23353195
_cell_length_b   3.23353219
_cell_length_c   9.06212616
_cell_angle_alpha   90.00000000
_cell_angle_beta   90.00000000
_cell_angle_gamma   120.00000000
_symmetry_Int_Tables_number   1
_chemical_formula_structural   ZnCN2
_chemical_formula_sum   'Zn2 C2 N4'
_cell_volume   82.05689534
_cell_formula_units_Z   2
loop_
 _symmetry_equiv_pos_site_id
 _symmetry_equiv_pos_as_xyz
  1  'x, y, z'
loop_
 _atom_site_type_symbol
 _atom_site_label
 _atom_site_symmetry_multiplicity
 _atom_site_fract_x
 _atom_site_fract_y
 _atom_site_fract_z
 _atom_site_occupancy
  Zn  Zn0  1  0.00000000  0.00000000  0.00000000  1
  Zn  Zn1  1  0.00000000  0.00000000  0.49999999  1
  C  C2  1  0.66666668  0.33333333  0.74999999  1
  C  C3  1  0.33333335  0.66666666  0.25000000  1
  N  N4  1  0.66666668  0.33333333  0.88441198  1
  N  N5  1  0.66666668  0.33333333  0.61558799  1
  N  N6  1  0.33333335  0.66666666  0.38441199  1
  N  N7  1  0.33333335  0.66666666  0.11558800  1
