# generated using pymatgen
data_Hg
_symmetry_space_group_name_H-M   'P 1'
_cell_length_a   6.42867756
_cell_length_b   6.42867756
_cell_length_c   6.42867756
_cell_angle_alpha   70.89830780
_cell_angle_beta   70.34369659
_cell_angle_gamma   109.65630341
_symmetry_Int_Tables_number   1
_chemical_formula_structural   Hg
_chemical_formula_sum   Hg8
_cell_volume   204.51702529
_cell_formula_units_Z   8
loop_
 _symmetry_equiv_pos_site_id
 _symmetry_equiv_pos_as_xyz
  1  'x, y, z'
loop_
 _atom_site_type_symbol
 _atom_site_label
 _atom_site_symmetry_multiplicity
 _atom_site_fract_x
 _atom_site_fract_y
 _atom_site_fract_z
 _atom_site_occupancy
  Hg  Hg0  1  0.50000011  1.00000004  0.49999989  1
  Hg  Hg1  1  0.50000005  0.50000002  -0.00000006  1
  Hg  Hg2  1  0.00000006  0.50000002  0.49999995  1
  Hg  Hg3  1  0.00000000  0.00000000  0.00000000  1
  Hg  Hg4  1  0.37779104  0.37359301  0.62640694  1
  Hg  Hg5  1  0.99999999  0.00419800  0.37359394  1
  Hg  Hg6  1  0.00000007  0.62640602  0.99580193  1
  Hg  Hg7  1  0.62220911  0.99580304  0.00419690  1
