# generated using pymatgen
data_Tb5Mg(GaAu5)2
_symmetry_space_group_name_H-M   'P 1'
_cell_length_a   6.47786808
_cell_length_b   8.49168015
_cell_length_c   8.49168015
_cell_angle_alpha   60.00000000
_cell_angle_beta   90.00000000
_cell_angle_gamma   90.00000000
_symmetry_Int_Tables_number   1
_chemical_formula_structural   Tb5Mg(GaAu5)2
_chemical_formula_sum   'Tb5 Mg1 Ga2 Au10'
_cell_volume   404.52930262
_cell_formula_units_Z   1
loop_
 _symmetry_equiv_pos_site_id
 _symmetry_equiv_pos_as_xyz
  1  'x, y, z'
loop_
 _atom_site_type_symbol
 _atom_site_label
 _atom_site_symmetry_multiplicity
 _atom_site_fract_x
 _atom_site_fract_y
 _atom_site_fract_z
 _atom_site_occupancy
  Mg  Mg0  1  0.00000000  0.66666666  0.66666666  1
  Au  Au1  1  0.99999999  0.33333333  0.33333333  1
  Au  Au2  1  0.49999999  0.33333333  0.33333333  1
  Au  Au3  1  0.49999999  0.66666666  0.66666666  1
  Au  Au4  1  0.25000000  0.22351800  -0.00000001  1
  Au  Au5  1  0.25000000  0.00000000  0.77648202  1
  Au  Au6  1  0.25000000  0.77648200  0.22351798  1
  Au  Au7  1  0.74999999  0.77648200  -0.00000002  1
  Au  Au8  1  0.74999999  0.00000000  0.22351801  1
  Au  Au9  1  0.74999999  0.22351800  0.77648201  1
  Au  Au10  1  0.25000000  0.58986100  1.00000001  1
  Tb  Tb11  1  0.25000000  0.00000000  0.41013901  1
  Tb  Tb12  1  0.25000000  0.41013900  0.58986100  1
  Tb  Tb13  1  0.74999999  0.41013900  -0.00000001  1
  Tb  Tb14  1  0.74999999  0.00000000  0.58986101  1
  Tb  Tb15  1  0.74999999  0.58986100  0.41013899  1
  Ga  Ga16  1  0.00000000  0.00000000  0.00000000  1
  Ga  Ga17  1  0.49999999  0.00000000  0.00000000  1
