# generated using pymatgen
data_Ba3In5S12
_symmetry_space_group_name_H-M   'P 1'
_cell_length_a   3.98428202
_cell_length_b   8.17356205
_cell_length_c   13.79698181
_cell_angle_alpha   90.00000000
_cell_angle_beta   90.00000000
_cell_angle_gamma   90.00000000
_symmetry_Int_Tables_number   1
_chemical_formula_structural   Ba3In5S12
_chemical_formula_sum   'Ba3 In5 S12'
_cell_volume   449.30942313
_cell_formula_units_Z   1
loop_
 _symmetry_equiv_pos_site_id
 _symmetry_equiv_pos_as_xyz
  1  'x, y, z'
loop_
 _atom_site_type_symbol
 _atom_site_label
 _atom_site_symmetry_multiplicity
 _atom_site_fract_x
 _atom_site_fract_y
 _atom_site_fract_z
 _atom_site_occupancy
  Ba  Ba0  1  0.25000000  0.90345799  0.32891300  1
  In  In1  1  0.75000000  0.59654200  0.82891301  1
  Ba  Ba2  1  0.25000000  0.40345800  0.17108700  1
  Ba  Ba3  1  0.75000000  0.09654200  0.67108701  1
  In  In4  1  0.25000000  0.66110800  0.55154101  1
  In  In5  1  0.75000000  0.83889199  0.05154100  1
  In  In6  1  0.25000000  0.16110800  0.94845901  1
  In  In7  1  0.75000000  0.33889200  0.44845901  1
  S  S8  1  0.75000000  0.98631599  0.89183801  1
  S  S9  1  0.25000000  0.01368400  0.10816200  1
  S  S10  1  0.75000000  0.48631600  0.60816201  1
  S  S11  1  0.25000000  0.81025800  0.71177901  1
  S  S12  1  0.75000000  0.68974200  0.21177900  1
  S  S13  1  0.25000000  0.31025800  0.78822101  1
  S  S14  1  0.75000000  0.18974200  0.28822100  1
  S  S15  1  0.25000000  0.65749000  0.99666301  1
  S  S16  1  0.75000000  0.84250999  0.49666301  1
  S  S17  1  0.25000000  0.15749000  0.50333701  1
  S  S18  1  0.75000000  0.34251000  0.00333700  1
  S  S19  1  0.25000000  0.51368400  0.39183801  1
