# generated using pymatgen
data_Ga17Co
_symmetry_space_group_name_H-M   'P 1'
_cell_length_a   6.08352423
_cell_length_b   7.41479921
_cell_length_c   8.51529026
_cell_angle_alpha   106.65830994
_cell_angle_beta   90.00000000
_cell_angle_gamma   114.21919250
_symmetry_Int_Tables_number   1
_chemical_formula_structural   Ga17Co
_chemical_formula_sum   'Ga17 Co1'
_cell_volume   332.54506595
_cell_formula_units_Z   1
loop_
 _symmetry_equiv_pos_site_id
 _symmetry_equiv_pos_as_xyz
  1  'x, y, z'
loop_
 _atom_site_type_symbol
 _atom_site_label
 _atom_site_symmetry_multiplicity
 _atom_site_fract_x
 _atom_site_fract_y
 _atom_site_fract_z
 _atom_site_occupancy
  Ga  Ga0  1  0.58417501  0.65513599  0.92333294  1
  Ga  Ga1  1  0.92903898  0.34486400  0.57666696  1
  Ga  Ga2  1  0.57332301  0.65765899  0.40363496  1
  Ga  Ga3  1  0.07096103  0.65513599  0.42333296  1
  Ga  Ga4  1  0.91566398  0.34234100  0.09636499  1
  Ga  Ga5  1  0.26939899  0.00000000  0.74999996  1
  Ga  Ga6  1  0.08433603  0.65765899  0.90363494  1
  Ga  Ga7  1  0.42667700  0.34234100  0.59636496  1
  Ga  Ga8  1  0.73060097  0.00000000  0.24999999  1
  Ga  Ga9  1  0.41582500  0.34486400  0.07666699  1
  Ga  Ga10  1  0.23472299  0.00000000  0.24999999  1
  Ga  Ga11  1  0.76527697  0.00000000  0.74999996  1
  Ga  Ga12  1  0.00000000  0.00000000  0.49999998  1
  Ga  Ga13  1  0.31276402  0.68944499  0.17310997  1
  Ga  Ga14  1  0.00000000  0.00000000  0.00000000  1
  Ga  Ga15  1  0.68723599  0.31055500  0.82688995  1
  Ga  Ga16  1  0.37668102  0.68944499  0.67310995  1
  Co  Co17  1  0.62331899  0.31055500  0.32688998  1
