# generated using pymatgen
data_GdMo3F10
_symmetry_space_group_name_H-M   'P 1'
_cell_length_a   5.84220886
_cell_length_b   5.84220886
_cell_length_c   7.97641850
_cell_angle_alpha   70.09494781
_cell_angle_beta   70.09494781
_cell_angle_gamma   72.13140869
_symmetry_Int_Tables_number   1
_chemical_formula_structural   GdMo3F10
_chemical_formula_sum   'Gd1 Mo3 F10'
_cell_volume   235.00969574
_cell_formula_units_Z   1
loop_
 _symmetry_equiv_pos_site_id
 _symmetry_equiv_pos_as_xyz
  1  'x, y, z'
loop_
 _atom_site_type_symbol
 _atom_site_label
 _atom_site_symmetry_multiplicity
 _atom_site_fract_x
 _atom_site_fract_y
 _atom_site_fract_z
 _atom_site_occupancy
  Mo  Mo0  1  0.53598199  0.46401799  0.74999998  1
  Gd  Gd1  1  0.46401799  0.53598199  0.24999997  1
  Mo  Mo2  1  0.00000000  0.00000000  0.50000001  1
  Mo  Mo3  1  0.00000000  0.00000000  0.00000000  1
  F  F4  1  0.10425199  0.89574799  0.24999997  1
  F  F5  1  0.89574798  0.10425200  0.74999998  1
  F  F6  1  0.73634598  0.78070399  0.12725795  1
  F  F7  1  0.21929599  0.26365400  0.37274199  1
  F  F8  1  0.68793198  0.29322100  0.46640997  1
  F  F9  1  0.70677898  0.31206800  0.03358996  1
  F  F10  1  0.31206799  0.70677899  0.53358997  1
  F  F11  1  0.29322099  0.68793199  0.96640998  1
  F  F12  1  0.78070398  0.73634599  0.62725796  1
  F  F13  1  0.26365399  0.21929600  0.87274200  1
