# generated using pymatgen
data_Cd2WO4
_symmetry_space_group_name_H-M   'P 1'
_cell_length_a   3.73607397
_cell_length_b   3.73607397
_cell_length_c   6.82553530
_cell_angle_alpha   105.88358307
_cell_angle_beta   105.88358307
_cell_angle_gamma   90.00000000
_symmetry_Int_Tables_number   1
_chemical_formula_structural   Cd2WO4
_chemical_formula_sum   'Cd2 W1 O4'
_cell_volume   87.84697328
_cell_formula_units_Z   1
loop_
 _symmetry_equiv_pos_site_id
 _symmetry_equiv_pos_as_xyz
  1  'x, y, z'
loop_
 _atom_site_type_symbol
 _atom_site_label
 _atom_site_symmetry_multiplicity
 _atom_site_fract_x
 _atom_site_fract_y
 _atom_site_fract_z
 _atom_site_occupancy
  Cd  Cd0  1  0.63838704  0.63838702  0.27677405  1
  Cd  Cd1  1  0.34958702  0.34958701  0.69917404  1
  W  W2  1  0.98753906  0.98753903  0.97507809  1
  O  O3  1  0.82678505  0.82678502  0.65357007  1
  O  O4  1  0.16001001  0.16001000  0.32002002  1
  O  O5  1  0.00019602  0.50019601  0.00039202  1
  O  O6  1  0.50019601  0.00019600  0.00039202  1
