# generated using pymatgen
data_SiPt
_symmetry_space_group_name_H-M   'P 1'
_cell_length_a   4.01390409
_cell_length_b   4.01390505
_cell_length_c   6.73929882
_cell_angle_alpha   90.00000000
_cell_angle_beta   90.00000000
_cell_angle_gamma   119.99999237
_symmetry_Int_Tables_number   1
_chemical_formula_structural   SiPt
_chemical_formula_sum   'Si3 Pt3'
_cell_volume   94.03282091
_cell_formula_units_Z   3
loop_
 _symmetry_equiv_pos_site_id
 _symmetry_equiv_pos_as_xyz
  1  'x, y, z'
loop_
 _atom_site_type_symbol
 _atom_site_label
 _atom_site_symmetry_multiplicity
 _atom_site_fract_x
 _atom_site_fract_y
 _atom_site_fract_z
 _atom_site_occupancy
  Pt  Pt0  1  0.00000000  0.00000000  0.50000001  1
  Si  Si1  1  0.00000000  0.00000000  0.00000000  1
  Si  Si2  1  0.33333333  0.66666667  0.66060102  1
  Si  Si3  1  0.66666666  0.33333333  0.33939901  1
  Pt  Pt4  1  0.33333333  0.66666667  0.26884401  1
  Pt  Pt5  1  0.66666666  0.33333333  0.73115602  1
