# generated using pymatgen
data_Tb(CoGe)2
_symmetry_space_group_name_H-M   'P 1'
_cell_length_a   3.99919796
_cell_length_b   3.99919796
_cell_length_c   5.85035610
_cell_angle_alpha   109.98603058
_cell_angle_beta   109.98603058
_cell_angle_gamma   90.00000000
_symmetry_Int_Tables_number   1
_chemical_formula_structural   Tb(CoGe)2
_chemical_formula_sum   'Tb1 Co2 Ge2'
_cell_volume   81.91131434
_cell_formula_units_Z   1
loop_
 _symmetry_equiv_pos_site_id
 _symmetry_equiv_pos_as_xyz
  1  'x, y, z'
loop_
 _atom_site_type_symbol
 _atom_site_label
 _atom_site_symmetry_multiplicity
 _atom_site_fract_x
 _atom_site_fract_y
 _atom_site_fract_z
 _atom_site_occupancy
  Tb  Tb0  1  0.00000000  0.00000000  0.00000000  1
  Co  Co1  1  0.75000003  0.25000001  0.50000004  1
  Co  Co2  1  0.25000003  0.75000002  0.50000004  1
  Ge  Ge3  1  0.63009304  0.63009302  0.26018605  1
  Ge  Ge4  1  0.36990702  0.36990701  0.73981403  1
