# generated using pymatgen
data_Ho(Co5Mo)2
_symmetry_space_group_name_H-M   'P 1'
_cell_length_a   4.73236513
_cell_length_b   6.36076736
_cell_length_c   6.36076736
_cell_angle_alpha   82.45128632
_cell_angle_beta   68.16120148
_cell_angle_gamma   68.16120911
_symmetry_Int_Tables_number   1
_chemical_formula_structural   Ho(Co5Mo)2
_chemical_formula_sum   'Ho1 Co10 Mo2'
_cell_volume   164.96734437
_cell_formula_units_Z   1
loop_
 _symmetry_equiv_pos_site_id
 _symmetry_equiv_pos_as_xyz
  1  'x, y, z'
loop_
 _atom_site_type_symbol
 _atom_site_label
 _atom_site_symmetry_multiplicity
 _atom_site_fract_x
 _atom_site_fract_y
 _atom_site_fract_z
 _atom_site_occupancy
  Ho  Ho0  1  0.00000000  0.00000000  0.00000000  1
  Mo  Mo1  1  -0.00000002  0.36148499  0.63851501  1
  Mo  Mo2  1  0.99999995  0.63851499  0.36148498  1
  Co  Co3  1  0.64514897  0.35485099  0.35485099  1
  Co  Co4  1  0.35485096  0.64514899  0.64514900  1
  Co  Co5  1  0.71121894  0.78878098  0.78878100  1
  Co  Co6  1  0.28878098  0.21121900  0.21121900  1
  Co  Co7  1  0.00000000  0.00000000  0.50000001  1
  Co  Co8  1  0.49999999  0.00000000  0.50000000  1
  Co  Co9  1  0.49999996  0.49999999  -0.00000001  1
  Co  Co10  1  0.99999995  0.49999999  -0.00000002  1
  Co  Co11  1  0.49999995  0.76295099  0.23704899  1
  Co  Co12  1  0.49999998  0.23704900  0.76295101  1
