# generated using pymatgen
data_Tb2Co7
_symmetry_space_group_name_H-M   'P 1'
_cell_length_a   4.96444654
_cell_length_b   4.96444654
_cell_length_c   12.36065388
_cell_angle_alpha   78.41529083
_cell_angle_beta   78.41529083
_cell_angle_gamma   59.99999237
_symmetry_Int_Tables_number   1
_chemical_formula_structural   Tb2Co7
_chemical_formula_sum   'Tb4 Co14'
_cell_volume   256.63279356
_cell_formula_units_Z   2
loop_
 _symmetry_equiv_pos_site_id
 _symmetry_equiv_pos_as_xyz
  1  'x, y, z'
loop_
 _atom_site_type_symbol
 _atom_site_label
 _atom_site_symmetry_multiplicity
 _atom_site_fract_x
 _atom_site_fract_y
 _atom_site_fract_z
 _atom_site_occupancy
  Tb  Tb0  1  0.94818398  0.94818400  0.15544904  1
  Tb  Tb1  1  0.05181600  0.05181600  0.84455100  1
  Tb  Tb2  1  0.85163398  0.85163400  0.44509703  1
  Tb  Tb3  1  0.14836600  0.14836600  0.55490300  1
  Co  Co4  1  0.49999999  0.50000000  0.50000002  1
  Co  Co5  1  0.72147898  0.72147900  0.83556403  1
  Co  Co6  1  0.27852099  0.27852100  0.16443601  1
  Co  Co7  1  0.61152298  0.61152300  0.16543003  1
  Co  Co8  1  0.38847699  0.38847700  0.83457001  1
  Co  Co9  1  0.49999999  0.50000000  0.00000002  1
  Co  Co10  1  -0.00000001  0.50000000  0.00000001  1
  Co  Co11  1  0.50000000  0.00000000  0.00000001  1
  Co  Co12  1  0.39102098  0.89051800  0.32744003  1
  Co  Co13  1  0.39102099  0.39102100  0.32744001  1
  Co  Co14  1  0.89051799  0.39102100  0.32744003  1
  Co  Co15  1  0.60897899  0.10948200  0.67256001  1
  Co  Co16  1  0.60897898  0.60897900  0.67256002  1
  Co  Co17  1  0.10948199  0.60897900  0.67256001  1
