# generated using pymatgen
data_BaMoO3
_symmetry_space_group_name_H-M   'P 1'
_cell_length_a   5.66008568
_cell_length_b   5.66045904
_cell_length_c   8.00663567
_cell_angle_alpha   89.99964905
_cell_angle_beta   90.00028992
_cell_angle_gamma   89.99993896
_symmetry_Int_Tables_number   1
_chemical_formula_structural   BaMoO3
_chemical_formula_sum   'Ba4 Mo4 O12'
_cell_volume   256.52206321
_cell_formula_units_Z   4
loop_
 _symmetry_equiv_pos_site_id
 _symmetry_equiv_pos_as_xyz
  1  'x, y, z'
loop_
 _atom_site_type_symbol
 _atom_site_label
 _atom_site_symmetry_multiplicity
 _atom_site_fract_x
 _atom_site_fract_y
 _atom_site_fract_z
 _atom_site_occupancy
  Ba  Ba0  1  0.49999900  0.00000200  0.25022699  1
  Ba  Ba1  1  0.50000094  0.99999801  0.74977305  1
  Ba  Ba2  1  0.99999898  0.50000200  0.25019799  1
  Ba  Ba3  1  0.00000197  0.49999800  0.74980205  1
  Mo  Mo4  1  0.00000000  0.00000000  0.50000002  1
  Mo  Mo5  1  0.00000000  0.00000000  0.00000000  1
  Mo  Mo6  1  0.49999997  0.50000000  0.50000002  1
  Mo  Mo7  1  0.49999997  0.50000000  -0.00000000  1
  O  O8  1  0.99999801  0.00000100  0.26051997  1
  O  O9  1  0.00000193  0.99999901  0.73948007  1
  O  O10  1  0.49999997  0.50000000  0.24165601  1
  O  O11  1  0.49999997  0.50000000  0.75834503  1
  O  O12  1  0.24852499  0.24849000  0.99999904  1
  O  O13  1  0.23944199  0.23940100  0.50000002  1
  O  O14  1  0.75147496  0.75151001  0.00000100  1
  O  O15  1  0.76055696  0.76059901  0.50000002  1
  O  O16  1  0.24852595  0.75152801  0.00000102  1
  O  O17  1  0.23946695  0.76057501  0.50000404  1
  O  O18  1  0.75147499  0.24847200  0.99999902  1
  O  O19  1  0.76053299  0.23942500  0.49999600  1
