# generated using pymatgen
data_BaGaHg15I
_symmetry_space_group_name_H-M   'P 1'
_cell_length_a   7.20573616
_cell_length_b   9.76709366
_cell_length_c   9.76709461
_cell_angle_alpha   120.00000000
_cell_angle_beta   90.00000000
_cell_angle_gamma   90.00000000
_symmetry_Int_Tables_number   1
_chemical_formula_structural   BaGaHg15I
_chemical_formula_sum   'Ba1 Ga1 Hg15 I1'
_cell_volume   595.30528058
_cell_formula_units_Z   1
loop_
 _symmetry_equiv_pos_site_id
 _symmetry_equiv_pos_as_xyz
  1  'x, y, z'
loop_
 _atom_site_type_symbol
 _atom_site_label
 _atom_site_symmetry_multiplicity
 _atom_site_fract_x
 _atom_site_fract_y
 _atom_site_fract_z
 _atom_site_occupancy
  Ba  Ba0  1  0.24999999  0.24877401  0.99999999  1
  Hg  Hg1  1  0.24999999  0.75122604  0.75122601  1
  Hg  Hg2  1  0.24999999  1.00000005  0.24877402  1
  Hg  Hg3  1  0.74999998  0.75122604  1.00000000  1
  Hg  Hg4  1  0.74999998  0.24877401  0.24877400  1
  Hg  Hg5  1  0.74999998  0.00000000  0.75122598  1
  Hg  Hg6  1  0.99999998  0.33333335  0.66666666  1
  Hg  Hg7  1  0.99999998  0.66666670  0.33333335  1
  Hg  Hg8  1  0.49999999  0.66666670  0.33333335  1
  Hg  Hg9  1  0.49999999  0.33333335  0.66666666  1
  Hg  Hg10  1  0.24999999  0.60292903  0.00000002  1
  Hg  Hg11  1  0.24999999  0.39707102  0.39707100  1
  Hg  Hg12  1  0.24999999  0.00000000  0.60292899  1
  Hg  Hg13  1  0.74999998  0.39707102  0.99999999  1
  Hg  Hg14  1  0.74999998  0.60292903  0.60292900  1
  Hg  Hg15  1  0.74999998  1.00000005  0.39707102  1
  I  I16  1  0.00000000  0.00000000  0.00000000  1
  Ga  Ga17  1  0.49999999  0.00000000  -0.00000000  1
