# generated using pymatgen
data_Ga16BS
_symmetry_space_group_name_H-M   'P 1'
_cell_length_a   5.34118080
_cell_length_b   7.46969795
_cell_length_c   7.46969795
_cell_angle_alpha   120.00000000
_cell_angle_beta   90.00000000
_cell_angle_gamma   90.00000000
_symmetry_Int_Tables_number   1
_chemical_formula_structural   Ga16BS
_chemical_formula_sum   'Ga16 B1 S1'
_cell_volume   258.09167294
_cell_formula_units_Z   1
loop_
 _symmetry_equiv_pos_site_id
 _symmetry_equiv_pos_as_xyz
  1  'x, y, z'
loop_
 _atom_site_type_symbol
 _atom_site_label
 _atom_site_symmetry_multiplicity
 _atom_site_fract_x
 _atom_site_fract_y
 _atom_site_fract_z
 _atom_site_occupancy
  Ga  Ga0  1  0.25000001  0.59632100  0.59632098  1
  Ga  Ga1  1  0.75000003  0.59632100  -0.00000001  1
  Ga  Ga2  1  0.75000003  0.00000000  0.59632099  1
  Ga  Ga3  1  0.25000001  0.00000000  0.40367899  1
  Ga  Ga4  1  0.25000001  0.40367900  -0.00000001  1
  Ga  Ga5  1  0.75000003  0.40367900  0.40367898  1
  Ga  Ga6  1  1.00000004  0.33333333  0.66666665  1
  Ga  Ga7  1  0.50000002  0.66666666  0.33333331  1
  Ga  Ga8  1  0.50000002  0.33333333  0.66666665  1
  Ga  Ga9  1  0.00000000  0.66666666  0.33333331  1
  Ga  Ga10  1  0.25000001  0.22594200  0.22594199  1
  Ga  Ga11  1  0.75000003  0.22594200  -0.00000000  1
  Ga  Ga12  1  0.75000003  0.00000000  0.22594200  1
  Ga  Ga13  1  0.25000001  1.00000000  0.77405797  1
  Ga  Ga14  1  0.25000001  0.77405800  -0.00000001  1
  Ga  Ga15  1  0.75000003  0.77405800  0.77405797  1
  B  B16  1  0.50000002  0.00000000  -0.00000000  1
  S  S17  1  0.00000000  0.00000000  0.00000000  1
