# generated using pymatgen
data_BaCuHg5O8
_symmetry_space_group_name_H-M   'P 1'
_cell_length_a   3.88878798
_cell_length_b   3.88878798
_cell_length_c   15.44888401
_cell_angle_alpha   97.23041534
_cell_angle_beta   97.23041534
_cell_angle_gamma   90.00000000
_symmetry_Int_Tables_number   1
_chemical_formula_structural   BaCuHg5O8
_chemical_formula_sum   'Ba1 Cu1 Hg5 O8'
_cell_volume   229.89778028
_cell_formula_units_Z   1
loop_
 _symmetry_equiv_pos_site_id
 _symmetry_equiv_pos_as_xyz
  1  'x, y, z'
loop_
 _atom_site_type_symbol
 _atom_site_label
 _atom_site_symmetry_multiplicity
 _atom_site_fract_x
 _atom_site_fract_y
 _atom_site_fract_z
 _atom_site_occupancy
  Ba  Ba0  1  0.11721200  0.11721200  0.23442400  1
  Hg  Hg1  1  0.88278802  0.88278801  0.76557600  1
  Hg  Hg2  1  0.00000000  0.00000000  0.00000000  1
  Hg  Hg3  1  0.28771601  0.28771600  0.57543200  1
  Hg  Hg4  1  0.71228401  0.71228401  0.42456801  1
  Cu  Cu5  1  0.55060101  0.55060101  0.10120201  1
  Hg  Hg6  1  0.44939901  0.44939900  0.89879799  1
  O  O7  1  0.78072502  0.78072501  0.56145001  1
  O  O8  1  0.44785501  0.94785501  0.89571000  1
  O  O9  1  0.05214501  0.55214501  0.10429000  1
  O  O10  1  0.64556201  0.64556201  0.29112401  1
  O  O11  1  0.55214501  0.05214500  0.10429000  1
  O  O12  1  0.94785501  0.44785500  0.89571000  1
  O  O13  1  0.35443801  0.35443800  0.70887599  1
  O  O14  1  0.21927500  0.21927500  0.43855000  1
