# generated using pymatgen
data_Rb2GeF6
_symmetry_space_group_name_H-M   'P 1'
_cell_length_a   6.07952976
_cell_length_b   6.07953072
_cell_length_c   9.90047836
_cell_angle_alpha   90.00000000
_cell_angle_beta   90.00000000
_cell_angle_gamma   120.00000000
_symmetry_Int_Tables_number   1
_chemical_formula_structural   Rb2GeF6
_chemical_formula_sum   'Rb4 Ge2 F12'
_cell_volume   316.90336928
_cell_formula_units_Z   2
loop_
 _symmetry_equiv_pos_site_id
 _symmetry_equiv_pos_as_xyz
  1  'x, y, z'
loop_
 _atom_site_type_symbol
 _atom_site_label
 _atom_site_symmetry_multiplicity
 _atom_site_fract_x
 _atom_site_fract_y
 _atom_site_fract_z
 _atom_site_occupancy
  Rb  Rb0  1  0.00000000  0.00000000  0.90439397  1
  Rb  Rb1  1  0.00000000  0.00000000  0.40439399  1
  Rb  Rb2  1  0.33333338  0.66666666  0.62771598  1
  Rb  Rb3  1  0.66666671  0.33333333  0.12771600  1
  Ge  Ge4  1  0.33333338  0.66666666  0.24298499  1
  Ge  Ge5  1  0.66666671  0.33333333  0.74298497  1
  F  F6  1  0.47502607  0.95005199  0.35186099  1
  F  F7  1  0.95005206  0.47502600  0.85186097  1
  F  F8  1  0.52497405  0.47502600  0.85186097  1
  F  F9  1  0.47502605  0.52497400  0.35186099  1
  F  F10  1  0.04994803  0.52497400  0.35186099  1
  F  F11  1  0.52497402  0.04994800  0.85186097  1
  F  F12  1  0.81159107  0.62318199  0.63977398  1
  F  F13  1  0.62318307  0.81159199  0.13977399  1
  F  F14  1  0.18840905  0.81159199  0.13977399  1
  F  F15  1  0.81159104  0.18840800  0.63977398  1
  F  F16  1  0.37681703  0.18840800  0.63977398  1
  F  F17  1  0.18840903  0.37681800  0.13977399  1
