# generated using pymatgen
data_EuAu2
_symmetry_space_group_name_H-M   'P 1'
_cell_length_a   4.71861219
_cell_length_b   6.01475573
_cell_length_c   6.01475573
_cell_angle_alpha   75.27540588
_cell_angle_beta   66.90523529
_cell_angle_gamma   66.90523529
_symmetry_Int_Tables_number   1
_chemical_formula_structural   EuAu2
_chemical_formula_sum   'Eu2 Au4'
_cell_volume   143.42263939
_cell_formula_units_Z   2
loop_
 _symmetry_equiv_pos_site_id
 _symmetry_equiv_pos_as_xyz
  1  'x, y, z'
loop_
 _atom_site_type_symbol
 _atom_site_label
 _atom_site_symmetry_multiplicity
 _atom_site_fract_x
 _atom_site_fract_y
 _atom_site_fract_z
 _atom_site_occupancy
  Eu  Eu0  1  0.54736597  0.20263400  0.70263398  1
  Eu  Eu1  1  0.45263390  0.79736600  0.29736603  1
  Au  Au2  1  0.83844092  0.61084400  0.71227399  1
  Au  Au3  1  0.16155895  0.38915600  0.28772602  1
  Au  Au4  1  0.16155891  0.78772600  0.88915604  1
  Au  Au5  1  0.83844096  0.21227400  0.11084397  1
