# generated using pymatgen
data_TbInCo2
_symmetry_space_group_name_H-M   'P 1'
_cell_length_a   4.08093596
_cell_length_b   5.17495394
_cell_length_c   7.15386915
_cell_angle_alpha   90.00000000
_cell_angle_beta   90.00000000
_cell_angle_gamma   90.00000000
_symmetry_Int_Tables_number   1
_chemical_formula_structural   TbInCo2
_chemical_formula_sum   'Tb2 In2 Co4'
_cell_volume   151.08009875
_cell_formula_units_Z   2
loop_
 _symmetry_equiv_pos_site_id
 _symmetry_equiv_pos_as_xyz
  1  'x, y, z'
loop_
 _atom_site_type_symbol
 _atom_site_label
 _atom_site_symmetry_multiplicity
 _atom_site_fract_x
 _atom_site_fract_y
 _atom_site_fract_z
 _atom_site_occupancy
  Tb  Tb0  1  0.50000001  0.75000001  0.72347998  1
  Tb  Tb1  1  0.50000001  0.25000000  0.27651999  1
  In  In2  1  0.00000000  0.75000001  0.34397999  1
  In  In3  1  0.00000000  0.25000000  0.65601999  1
  Co  Co4  1  0.00000000  0.00000000  0.00000000  1
  Co  Co5  1  0.00000000  0.50000001  -0.00000000  1
  Co  Co6  1  0.50000001  0.75000001  0.10551200  1
  Co  Co7  1  0.50000001  0.25000000  0.89448798  1
