# generated using pymatgen
data_BaF3
_symmetry_space_group_name_H-M   'P 1'
_cell_length_a   4.07412481
_cell_length_b   7.56146383
_cell_length_c   7.56146383
_cell_angle_alpha   120.00000000
_cell_angle_beta   90.00000000
_cell_angle_gamma   90.00000000
_symmetry_Int_Tables_number   1
_chemical_formula_structural   BaF3
_chemical_formula_sum   'Ba2 F6'
_cell_volume   201.73289449
_cell_formula_units_Z   2
loop_
 _symmetry_equiv_pos_site_id
 _symmetry_equiv_pos_as_xyz
  1  'x, y, z'
loop_
 _atom_site_type_symbol
 _atom_site_label
 _atom_site_symmetry_multiplicity
 _atom_site_fract_x
 _atom_site_fract_y
 _atom_site_fract_z
 _atom_site_occupancy
  Ba  Ba0  1  0.75000003  0.66666668  0.33333335  1
  Ba  Ba1  1  0.25000001  0.33333334  0.66666669  1
  F  F2  1  0.75000003  0.60421901  0.90866403  1
  F  F3  1  0.25000001  0.90866402  0.30444502  1
  F  F4  1  0.25000001  0.69555502  0.60421902  1
  F  F5  1  0.75000003  0.30444501  0.39578101  1
  F  F6  1  0.75000003  0.09133600  0.69555502  1
  F  F7  1  0.25000001  0.39578101  0.09133601  1
