# generated using pymatgen
data_MgBi4(SbO4)3
_symmetry_space_group_name_H-M   'P 1'
_cell_length_a   5.49757719
_cell_length_b   5.77946377
_cell_length_c   7.88117886
_cell_angle_alpha   89.99909973
_cell_angle_beta   90.27205658
_cell_angle_gamma   89.99703979
_symmetry_Int_Tables_number   1
_chemical_formula_structural   MgBi4(SbO4)3
_chemical_formula_sum   'Mg1 Bi4 Sb3 O12'
_cell_volume   250.40625229
_cell_formula_units_Z   1
loop_
 _symmetry_equiv_pos_site_id
 _symmetry_equiv_pos_as_xyz
  1  'x, y, z'
loop_
 _atom_site_type_symbol
 _atom_site_label
 _atom_site_symmetry_multiplicity
 _atom_site_fract_x
 _atom_site_fract_y
 _atom_site_fract_z
 _atom_site_occupancy
  Mg  Mg0  1  0.00000297  0.50000002  0.50000200  1
  Sb  Sb1  1  0.99999898  0.49999702  0.00000101  1
  Sb  Sb2  1  0.50000601  0.00000200  0.49999899  1
  Sb  Sb3  1  0.49999794  0.99999804  0.00000002  1
  Bi  Bi4  1  0.98809295  0.95572304  0.25153401  1
  Bi  Bi5  1  0.51190697  0.45571502  0.24846600  1
  Bi  Bi6  1  0.48809197  0.54428502  0.75153399  1
  Bi  Bi7  1  0.01190600  0.04427700  0.74846498  1
  O  O8  1  0.89979698  0.46875702  0.75191799  1
  O  O9  1  0.80786700  0.19988201  0.04915500  1
  O  O10  1  0.81239700  0.19932901  0.45177299  1
  O  O11  1  0.68760396  0.69933203  0.04822801  1
  O  O12  1  0.69213996  0.69988003  0.45084900  1
  O  O13  1  0.60019994  0.96875704  0.74808300  1
  O  O14  1  0.39979900  0.03124300  0.25191699  1
  O  O15  1  0.30785998  0.30012001  0.54915099  1
  O  O16  1  0.31239498  0.30066801  0.95177198  1
  O  O17  1  0.18760195  0.80067103  0.54822700  1
  O  O18  1  0.19213195  0.80011803  0.95084499  1
  O  O19  1  0.10020196  0.53124402  0.24808200  1
