# generated using pymatgen
data_Tb(HO)3
_symmetry_space_group_name_H-M   'P 1'
_cell_length_a   3.54362011
_cell_length_b   6.35839605
_cell_length_c   6.35839558
_cell_angle_alpha   120.00000000
_cell_angle_beta   90.00000000
_cell_angle_gamma   90.00000000
_symmetry_Int_Tables_number   1
_chemical_formula_structural   Tb(HO)3
_chemical_formula_sum   'Tb2 H6 O6'
_cell_volume   124.07175016
_cell_formula_units_Z   2
loop_
 _symmetry_equiv_pos_site_id
 _symmetry_equiv_pos_as_xyz
  1  'x, y, z'
loop_
 _atom_site_type_symbol
 _atom_site_label
 _atom_site_symmetry_multiplicity
 _atom_site_fract_x
 _atom_site_fract_y
 _atom_site_fract_z
 _atom_site_occupancy
  Tb  Tb0  1  0.24999999  0.33333332  0.66666666  1
  Tb  Tb1  1  0.74999998  0.66666665  0.33333331  1
  H  H2  1  0.24999999  0.28032699  0.14078999  1
  H  H3  1  0.74999998  0.14079000  0.86046300  1
  H  H4  1  0.24999999  0.85920997  0.13953696  1
  H  H5  1  0.74999998  0.71967298  0.85920997  1
  H  H6  1  0.74999998  0.13953700  0.28032700  1
  H  H7  1  0.24999999  0.86046297  0.71967297  1
  O  O8  1  0.74999998  0.08507000  0.68737600  1
  O  O9  1  0.24999999  0.39769399  0.08506998  1
  O  O10  1  0.24999999  0.91492997  0.31262396  1
  O  O11  1  0.74999998  0.60230598  0.91492998  1
  O  O12  1  0.74999998  0.31262399  0.39769399  1
  O  O13  1  0.24999999  0.68737598  0.60230597  1
