# generated using pymatgen
data_P8Os
_symmetry_space_group_name_H-M   'P 1'
_cell_length_a   5.45439386
_cell_length_b   5.45762491
_cell_length_c   8.85045719
_cell_angle_alpha   90.00000000
_cell_angle_beta   107.94728851
_cell_angle_gamma   90.00000000
_symmetry_Int_Tables_number   1
_chemical_formula_structural   P8Os
_chemical_formula_sum   'P16 Os2'
_cell_volume   250.64083480
_cell_formula_units_Z   2
loop_
 _symmetry_equiv_pos_site_id
 _symmetry_equiv_pos_as_xyz
  1  'x, y, z'
loop_
 _atom_site_type_symbol
 _atom_site_label
 _atom_site_symmetry_multiplicity
 _atom_site_fract_x
 _atom_site_fract_y
 _atom_site_fract_z
 _atom_site_occupancy
  P  P0  1  0.32680300  0.01109200  0.65360596  1
  Os  Os1  1  0.17319700  0.51109201  0.34639398  1
  P  P2  1  0.67319701  0.98890802  0.34639396  1
  Os  Os3  1  0.82680301  0.48890801  0.65360594  1
  P  P4  1  0.50000000  0.50000001  -0.00000002  1
  P  P5  1  0.00000000  0.00000000  0.00000000  1
  P  P6  1  0.39081900  0.41546801  0.78163795  1
  P  P7  1  0.10918100  0.91546801  0.21836199  1
  P  P8  1  0.60918101  0.58453201  0.21836197  1
  P  P9  1  0.89081901  0.08453200  0.78163793  1
  P  P10  1  0.78215501  0.25000000  0.06430997  1
  P  P11  1  0.71784501  0.75000001  0.93568993  1
  P  P12  1  0.49960200  0.75000001  0.49920396  1
  P  P13  1  0.00039800  0.25000000  0.50079598  1
  P  P14  1  0.50039800  0.25000000  0.50079596  1
  P  P15  1  0.99960201  0.75000001  0.49920394  1
  P  P16  1  0.28215500  0.25000000  0.06430999  1
  P  P17  1  0.21784500  0.75000001  0.93568995  1
