# generated using pymatgen
data_Li3MnF12
_symmetry_space_group_name_H-M   'P 1'
_cell_length_a   6.00447226
_cell_length_b   6.00447226
_cell_length_c   6.00447226
_cell_angle_alpha   60.00000000
_cell_angle_beta   60.00000000
_cell_angle_gamma   60.00000000
_symmetry_Int_Tables_number   1
_chemical_formula_structural   Li3MnF12
_chemical_formula_sum   'Li3 Mn1 F12'
_cell_volume   153.07685450
_cell_formula_units_Z   1
loop_
 _symmetry_equiv_pos_site_id
 _symmetry_equiv_pos_as_xyz
  1  'x, y, z'
loop_
 _atom_site_type_symbol
 _atom_site_label
 _atom_site_symmetry_multiplicity
 _atom_site_fract_x
 _atom_site_fract_y
 _atom_site_fract_z
 _atom_site_occupancy
  F  F0  1  0.49999999  0.00000000  -0.00000000  1
  Li  Li1  1  0.99999999  0.49999999  0.49999999  1
  F  F2  1  0.00000000  0.00000000  0.49999999  1
  F  F3  1  0.49999999  0.49999999  -0.00000000  1
  F  F4  1  0.00000000  0.49999999  -0.00000000  1
  F  F5  1  0.49999999  0.00000000  0.49999999  1
  Li  Li6  1  0.49999999  0.49999999  0.49999999  1
  Mn  Mn7  1  0.00000000  0.00000000  0.00000000  1
  F  F8  1  0.74999999  0.74999999  0.74999999  1
  Li  Li9  1  0.25000000  0.25000000  0.25000000  1
  F  F10  1  0.25000000  0.74999999  0.74999999  1
  F  F11  1  0.74999999  0.25000000  0.25000000  1
  F  F12  1  0.74999999  0.25000000  0.74999999  1
  F  F13  1  0.25000000  0.74999999  0.25000000  1
  F  F14  1  0.74999999  0.74999999  0.25000000  1
  F  F15  1  0.25000000  0.25000000  0.74999999  1
