# generated using pymatgen
data_Nd4Ge4C
_symmetry_space_group_name_H-M   'P 1'
_cell_length_a   6.46213293
_cell_length_b   8.52872944
_cell_length_c   8.52872944
_cell_angle_alpha   119.87163544
_cell_angle_beta   90.00000000
_cell_angle_gamma   90.00000000
_symmetry_Int_Tables_number   1
_chemical_formula_structural   Nd4Ge4C
_chemical_formula_sum   'Nd8 Ge8 C2'
_cell_volume   407.60123933
_cell_formula_units_Z   2
loop_
 _symmetry_equiv_pos_site_id
 _symmetry_equiv_pos_as_xyz
  1  'x, y, z'
loop_
 _atom_site_type_symbol
 _atom_site_label
 _atom_site_symmetry_multiplicity
 _atom_site_fract_x
 _atom_site_fract_y
 _atom_site_fract_z
 _atom_site_occupancy
  Nd  Nd0  1  0.50000001  0.33384002  0.66616902  1
  Nd  Nd1  1  0.50000001  0.66616904  0.33384005  1
  Ge  Ge2  1  -0.00000000  0.66616004  0.33383105  1
  Ge  Ge3  1  -0.00000000  0.33383102  0.66616002  1
  Nd  Nd4  1  0.75000001  0.77732505  0.77732505  1
  Nd  Nd5  1  0.75000101  0.00032800  0.22132200  1
  Nd  Nd6  1  0.75000101  0.22132201  0.00032802  1
  Nd  Nd7  1  0.25000000  0.22267501  0.22267501  1
  Nd  Nd8  1  0.25000100  0.99967206  0.77867807  1
  Nd  Nd9  1  0.25000100  0.77867805  0.99967205  1
  Ge  Ge10  1  0.75000801  0.40667103  0.40667103  1
  Ge  Ge11  1  0.74999001  0.99999006  0.59278607  1
  Ge  Ge12  1  0.74999001  0.59278604  0.99999003  1
  Ge  Ge13  1  0.25000800  0.59332904  0.59332904  1
  Ge  Ge14  1  0.24999000  0.00001000  0.40721400  1
  Ge  Ge15  1  0.24999000  0.40721403  0.00001003  1
  C  C16  1  0.50001101  0.00000600  0.00000600  1
  C  C17  1  0.00001100  0.99999406  0.99999406  1
