# generated using pymatgen
data_Ba5Pr2WO12
_symmetry_space_group_name_H-M   'P 1'
_cell_length_a   6.37397385
_cell_length_b   6.37397385
_cell_length_c   11.06308842
_cell_angle_alpha   73.25732422
_cell_angle_beta   73.25732422
_cell_angle_gamma   59.99999619
_symmetry_Int_Tables_number   1
_chemical_formula_structural   Ba5Pr2WO12
_chemical_formula_sum   'Ba5 Pr2 W1 O12'
_cell_volume   367.08295445
_cell_formula_units_Z   1
loop_
 _symmetry_equiv_pos_site_id
 _symmetry_equiv_pos_as_xyz
  1  'x, y, z'
loop_
 _atom_site_type_symbol
 _atom_site_label
 _atom_site_symmetry_multiplicity
 _atom_site_fract_x
 _atom_site_fract_y
 _atom_site_fract_z
 _atom_site_occupancy
  Ba  Ba0  1  0.71761698  0.71761701  0.84714902  1
  Ba  Ba1  1  0.28238299  0.28238301  0.15285101  1
  Ba  Ba2  1  0.12800000  0.12800000  0.61600000  1
  Ba  Ba3  1  0.87199998  0.87200002  0.38400003  1
  Pr  Pr4  1  0.59706999  0.59707001  0.20879002  1
  Pr  Pr5  1  0.40292999  0.40293001  0.79121000  1
  Ba  Ba6  1  0.00000000  0.00000000  0.00000000  1
  W  W7  1  0.49999999  0.50000001  0.50000001  1
  O  O8  1  0.73864800  0.18495100  0.89145000  1
  O  O9  1  0.60432798  0.60432801  0.61578102  1
  O  O10  1  0.81504899  0.26135201  0.10855002  1
  O  O11  1  0.60432800  0.17556300  0.61578100  1
  O  O12  1  0.26135198  0.81504902  0.10855003  1
  O  O13  1  0.17556298  0.60432801  0.61578101  1
  O  O14  1  0.18495098  0.73864802  0.89145001  1
  O  O15  1  0.18495100  0.18495100  0.89144999  1
  O  O16  1  0.39567198  0.82443702  0.38421903  1
  O  O17  1  0.81504898  0.81504902  0.10855003  1
  O  O18  1  0.39567199  0.39567201  0.38421901  1
  O  O19  1  0.82443699  0.39567201  0.38421902  1
