# generated using pymatgen
data_LuCo2(OF)2
_symmetry_space_group_name_H-M   'P 1'
_cell_length_a   3.60590196
_cell_length_b   3.60713220
_cell_length_c   8.49661255
_cell_angle_alpha   90.03509521
_cell_angle_beta   102.24262238
_cell_angle_gamma   119.92228699
_symmetry_Int_Tables_number   1
_chemical_formula_structural   LuCo2(OF)2
_chemical_formula_sum   'Lu1 Co2 O2 F2'
_cell_volume   92.86414344
_cell_formula_units_Z   1
loop_
 _symmetry_equiv_pos_site_id
 _symmetry_equiv_pos_as_xyz
  1  'x, y, z'
loop_
 _atom_site_type_symbol
 _atom_site_label
 _atom_site_symmetry_multiplicity
 _atom_site_fract_x
 _atom_site_fract_y
 _atom_site_fract_z
 _atom_site_occupancy
  Lu  Lu0  1  0.99994495  0.99988094  0.99998800  1
  Co  Co1  1  0.42291200  0.21184999  0.63383000  1
  Co  Co2  1  0.57718796  0.78825295  0.36616900  1
  F  F3  1  0.25454800  0.12785099  0.38178800  1
  O  O4  1  0.58002199  0.29018498  0.87026000  1
  O  O5  1  0.41989996  0.70964896  0.12974000  1
  F  F6  1  0.74548495  0.87233095  0.61822500  1
