# generated using pymatgen
data_TbLuCo9B2P5
_symmetry_space_group_name_H-M   'P 1'
_cell_length_a   5.39230394
_cell_length_b   5.39230394
_cell_length_c   7.62243605
_cell_angle_alpha   90.00000000
_cell_angle_beta   90.00000000
_cell_angle_gamma   90.00000000
_symmetry_Int_Tables_number   1
_chemical_formula_structural   TbLuCo9B2P5
_chemical_formula_sum   'Tb1 Lu1 Co9 B2 P5'
_cell_volume   221.63712946
_cell_formula_units_Z   1
loop_
 _symmetry_equiv_pos_site_id
 _symmetry_equiv_pos_as_xyz
  1  'x, y, z'
loop_
 _atom_site_type_symbol
 _atom_site_label
 _atom_site_symmetry_multiplicity
 _atom_site_fract_x
 _atom_site_fract_y
 _atom_site_fract_z
 _atom_site_occupancy
  Lu  Lu0  1  0.00000000  0.00000000  0.00000000  1
  Tb  Tb1  1  0.50000001  0.50000001  0.50000000  1
  P  P2  1  0.83387501  0.50000001  0.15209100  1
  P  P3  1  0.16612500  0.50000001  0.15209100  1
  B  B4  1  0.00000000  0.33387500  0.65209100  1
  P  P5  1  0.00000000  0.66612501  0.65209100  1
  B  B6  1  0.66612501  0.00000000  0.34790900  1
  P  P7  1  0.33387500  0.00000000  0.34790900  1
  P  P8  1  0.50000001  0.16612500  0.84790899  1
  Co  Co9  1  0.50000001  0.83387501  0.84790899  1
  Co  Co10  1  0.24953800  0.50000001  0.85521899  1
  Co  Co11  1  0.75046201  0.50000001  0.85521899  1
  Co  Co12  1  0.00000000  0.74953801  0.35521900  1
  Co  Co13  1  0.00000000  0.25046200  0.35521900  1
  Co  Co14  1  0.25046200  0.00000000  0.64478100  1
  Co  Co15  1  0.74953801  0.00000000  0.64478100  1
  Co  Co16  1  0.50000001  0.75046201  0.14478100  1
  Co  Co17  1  0.50000001  0.24953800  0.14478100  1
