# generated using pymatgen
data_CsF
_symmetry_space_group_name_H-M   'P 1'
_cell_length_a   4.37039185
_cell_length_b   4.37039232
_cell_length_c   11.89746571
_cell_angle_alpha   90.00000000
_cell_angle_beta   90.00000000
_cell_angle_gamma   120.00000000
_symmetry_Int_Tables_number   1
_chemical_formula_structural   CsF
_chemical_formula_sum   'Cs3 F3'
_cell_volume   196.80036298
_cell_formula_units_Z   3
loop_
 _symmetry_equiv_pos_site_id
 _symmetry_equiv_pos_as_xyz
  1  'x, y, z'
loop_
 _atom_site_type_symbol
 _atom_site_label
 _atom_site_symmetry_multiplicity
 _atom_site_fract_x
 _atom_site_fract_y
 _atom_site_fract_z
 _atom_site_occupancy
  Cs  Cs0  1  0.66666671  0.33333335  0.00071000  1
  F  F1  1  0.33333339  0.66666671  0.50071001  1
  F  F2  1  0.00000000  0.00000000  0.69498402  1
  F  F3  1  0.00000000  0.00000000  0.19498400  1
  Cs  Cs4  1  0.66666671  0.33333335  0.31980601  1
  Cs  Cs5  1  0.33333339  0.66666671  0.81980602  1
