# generated using pymatgen
data_GeMo4C3
_symmetry_space_group_name_H-M   'P 1'
_cell_length_a   3.16135192
_cell_length_b   3.19532394
_cell_length_c   8.97661209
_cell_angle_alpha   79.74784851
_cell_angle_beta   90.00000000
_cell_angle_gamma   90.00000000
_symmetry_Int_Tables_number   1
_chemical_formula_structural   GeMo4C3
_chemical_formula_sum   'Ge1 Mo4 C3'
_cell_volume   89.22987958
_cell_formula_units_Z   1
loop_
 _symmetry_equiv_pos_site_id
 _symmetry_equiv_pos_as_xyz
  1  'x, y, z'
loop_
 _atom_site_type_symbol
 _atom_site_label
 _atom_site_symmetry_multiplicity
 _atom_site_fract_x
 _atom_site_fract_y
 _atom_site_fract_z
 _atom_site_occupancy
  Mo  Mo0  1  0.50000001  0.31356301  0.37287402  1
  Ge  Ge1  1  0.50000001  0.47140401  0.05719200  1
  C  C2  1  1.00000003  0.52835301  0.94329404  1
  Mo  Mo3  1  0.00000000  0.68750101  0.62499803  1
  Mo  Mo4  1  0.50000001  0.07109200  0.85781604  1
  Mo  Mo5  1  0.00000000  0.93290102  0.13419801  1
  C  C6  1  0.50000001  0.18604700  0.62790603  1
  C  C7  1  0.00000000  0.80914001  0.38172002  1
