# generated using pymatgen
data_Ho3In3Au4
_symmetry_space_group_name_H-M   'P 1'
_cell_length_a   4.48573112
_cell_length_b   7.45522499
_cell_length_c   7.45522499
_cell_angle_alpha   90.00000000
_cell_angle_beta   90.00000000
_cell_angle_gamma   90.00000000
_symmetry_Int_Tables_number   1
_chemical_formula_structural   Ho3In3Au4
_chemical_formula_sum   'Ho3 In3 Au4'
_cell_volume   249.31863899
_cell_formula_units_Z   1
loop_
 _symmetry_equiv_pos_site_id
 _symmetry_equiv_pos_as_xyz
  1  'x, y, z'
loop_
 _atom_site_type_symbol
 _atom_site_label
 _atom_site_symmetry_multiplicity
 _atom_site_fract_x
 _atom_site_fract_y
 _atom_site_fract_z
 _atom_site_occupancy
  Ho  Ho0  1  0.49999999  0.67729900  0.17729900  1
  In  In1  1  0.49999999  0.32270100  0.82270100  1
  Ho  Ho2  1  0.49999999  0.17729900  0.32270100  1
  Ho  Ho3  1  0.49999999  0.82270100  0.67729900  1
  In  In4  1  0.00000000  0.50000000  0.50000000  1
  In  In5  1  0.00000000  0.00000000  0.00000000  1
  Au  Au6  1  0.00000000  0.11937300  0.61937300  1
  Au  Au7  1  0.00000000  0.88062700  0.38062700  1
  Au  Au8  1  0.00000000  0.61937300  0.88062700  1
  Au  Au9  1  0.00000000  0.38062700  0.11937300  1
