# generated using pymatgen
data_Tb(CoGe)2
_symmetry_space_group_name_H-M   'P 1'
_cell_length_a   4.02213812
_cell_length_b   4.02213812
_cell_length_c   5.79084301
_cell_angle_alpha   110.32130432
_cell_angle_beta   110.32130432
_cell_angle_gamma   90.00000000
_symmetry_Int_Tables_number   1
_chemical_formula_structural   Tb(CoGe)2
_chemical_formula_sum   'Tb1 Co2 Ge2'
_cell_volume   81.60480529
_cell_formula_units_Z   1
loop_
 _symmetry_equiv_pos_site_id
 _symmetry_equiv_pos_as_xyz
  1  'x, y, z'
loop_
 _atom_site_type_symbol
 _atom_site_label
 _atom_site_symmetry_multiplicity
 _atom_site_fract_x
 _atom_site_fract_y
 _atom_site_fract_z
 _atom_site_occupancy
  Tb  Tb0  1  0.00000000  0.00000000  0.00000000  1
  Ge  Ge1  1  0.61778700  0.61778699  0.23557402  1
  Ge  Ge2  1  0.38221300  0.38221299  0.76442599  1
  Co  Co3  1  0.74999999  0.25000000  0.50000001  1
  Co  Co4  1  0.25000001  0.74999999  0.50000001  1
