# generated using pymatgen
data_CsI7
_symmetry_space_group_name_H-M   'P 1'
_cell_length_a   7.21404600
_cell_length_b   8.86844635
_cell_length_c   8.86844635
_cell_angle_alpha   60.00000000
_cell_angle_beta   90.00000000
_cell_angle_gamma   90.00000000
_symmetry_Int_Tables_number   1
_chemical_formula_structural   CsI7
_chemical_formula_sum   'Cs1 I7'
_cell_volume   491.36546029
_cell_formula_units_Z   1
loop_
 _symmetry_equiv_pos_site_id
 _symmetry_equiv_pos_as_xyz
  1  'x, y, z'
loop_
 _atom_site_type_symbol
 _atom_site_label
 _atom_site_symmetry_multiplicity
 _atom_site_fract_x
 _atom_site_fract_y
 _atom_site_fract_z
 _atom_site_occupancy
  I  I0  1  0.75000000  0.66725798  0.16637098  1
  I  I1  1  0.75000000  0.16637100  0.16637100  1
  I  I2  1  0.75000000  0.16637100  0.66725800  1
  I  I3  1  0.25000000  0.33274199  0.83362900  1
  I  I4  1  0.25000000  0.83362898  0.83362898  1
  I  I5  1  0.25000000  0.83362898  0.33274198  1
  I  I6  1  0.25000000  0.33333333  0.33333333  1
  Cs  Cs7  1  0.75000000  0.66666665  0.66666665  1
