# generated using pymatgen
data_MnF2
_symmetry_space_group_name_H-M   'P 1'
_cell_length_a   3.12716293
_cell_length_b   6.67698193
_cell_length_c   10.54007053
_cell_angle_alpha   108.41313171
_cell_angle_beta   90.00000000
_cell_angle_gamma   90.00000000
_symmetry_Int_Tables_number   1
_chemical_formula_structural   MnF2
_chemical_formula_sum   'Mn6 F12'
_cell_volume   208.80965261
_cell_formula_units_Z   6
loop_
 _symmetry_equiv_pos_site_id
 _symmetry_equiv_pos_as_xyz
  1  'x, y, z'
loop_
 _atom_site_type_symbol
 _atom_site_label
 _atom_site_symmetry_multiplicity
 _atom_site_fract_x
 _atom_site_fract_y
 _atom_site_fract_z
 _atom_site_occupancy
  Mn  Mn0  1  -0.00000000  0.97633001  0.99298597  1
  Mn  Mn1  1  0.50000001  0.52245701  0.00609500  1
  Mn  Mn2  1  0.00000000  0.67399501  0.34959499  1
  Mn  Mn3  1  0.50000001  0.82722901  0.65313898  1
  Mn  Mn4  1  0.50000001  0.16592700  0.33166799  1
  Mn  Mn5  1  0.00000000  0.33396500  0.66862498  1
  F  F6  1  0.00000000  0.70480301  0.00309200  1
  F  F7  1  0.50000001  0.73319001  0.46674399  1
  F  F8  1  0.00000000  0.29556000  0.00069100  1
  F  F9  1  -0.00000000  0.96806501  0.32741800  1
  F  F10  1  0.50000001  0.60509101  0.21617900  1
  F  F11  1  0.50000001  0.06692100  0.12414300  1
  F  F12  1  1.00000002  0.35980301  0.33054799  1
  F  F13  1  0.00000000  0.63780501  0.66765498  1
  F  F14  1  0.50000001  0.93404701  0.85963098  1
  F  F15  1  0.50000001  0.26811000  0.53608498  1
  F  F16  1  0.50000001  0.39824901  0.80093697  1
  F  F17  1  -0.00000000  0.02845000  0.66476798  1
