# generated using pymatgen
data_CsMgSiO4
_symmetry_space_group_name_H-M   'P 1'
_cell_length_a   5.49776602
_cell_length_b   5.49776697
_cell_length_c   9.33317375
_cell_angle_alpha   90.00000000
_cell_angle_beta   90.00000000
_cell_angle_gamma   119.99999237
_symmetry_Int_Tables_number   1
_chemical_formula_structural   CsMgSiO4
_chemical_formula_sum   'Cs2 Mg2 Si2 O8'
_cell_volume   244.30513561
_cell_formula_units_Z   2
loop_
 _symmetry_equiv_pos_site_id
 _symmetry_equiv_pos_as_xyz
  1  'x, y, z'
loop_
 _atom_site_type_symbol
 _atom_site_label
 _atom_site_symmetry_multiplicity
 _atom_site_fract_x
 _atom_site_fract_y
 _atom_site_fract_z
 _atom_site_occupancy
  Cs  Cs0  1  0.00000000  0.00000000  0.50286101  1
  Cs  Cs1  1  0.00000000  0.00000000  0.00286100  1
  Mg  Mg2  1  0.33333330  0.66666663  0.31967601  1
  Mg  Mg3  1  0.66666665  0.33333332  0.81967602  1
  Si  Si4  1  0.66666665  0.33333332  0.20866901  1
  Si  Si5  1  0.33333330  0.66666663  0.70866902  1
  O  O6  1  0.38876298  0.35096898  0.26579801  1
  O  O7  1  0.96220597  0.61123697  0.26579801  1
  O  O8  1  0.64903100  0.03779400  0.26579801  1
  O  O9  1  0.03779397  0.64903097  0.76579802  1
  O  O10  1  0.33333330  0.66666663  0.52999801  1
  O  O11  1  0.66666665  0.33333332  0.02999800  1
  O  O12  1  0.61123695  0.96220595  0.76579802  1
  O  O13  1  0.35096898  0.38876298  0.76579802  1
