# generated using pymatgen
data_Pm3Nd
_symmetry_space_group_name_H-M   'P 1'
_cell_length_a   5.18474007
_cell_length_b   5.18474007
_cell_length_c   6.38994741
_cell_angle_alpha   113.93469238
_cell_angle_beta   113.93469238
_cell_angle_gamma   90.00000000
_symmetry_Int_Tables_number   1
_chemical_formula_structural   Pm3Nd
_chemical_formula_sum   'Pm3 Nd1'
_cell_volume   140.68740821
_cell_formula_units_Z   1
loop_
 _symmetry_equiv_pos_site_id
 _symmetry_equiv_pos_as_xyz
  1  'x, y, z'
loop_
 _atom_site_type_symbol
 _atom_site_label
 _atom_site_symmetry_multiplicity
 _atom_site_fract_x
 _atom_site_fract_y
 _atom_site_fract_z
 _atom_site_occupancy
  Pm  Pm0  1  0.75000002  0.25000000  0.50000005  1
  Pm  Pm1  1  0.25000004  0.75000001  0.50000006  1
  Pm  Pm2  1  0.50000003  0.50000001  0.00000005  1
  Nd  Nd3  1  0.00000000  0.00000000  0.00000000  1
