# generated using pymatgen
data_Ga
_symmetry_space_group_name_H-M   'P 1'
_cell_length_a   6.54674387
_cell_length_b   7.14005423
_cell_length_c   7.14005423
_cell_angle_alpha   90.00000000
_cell_angle_beta   90.00000000
_cell_angle_gamma   90.00000000
_symmetry_Int_Tables_number   1
_chemical_formula_structural   Ga
_chemical_formula_sum   Ga20
_cell_volume   333.75545325
_cell_formula_units_Z   20
loop_
 _symmetry_equiv_pos_site_id
 _symmetry_equiv_pos_as_xyz
  1  'x, y, z'
loop_
 _atom_site_type_symbol
 _atom_site_label
 _atom_site_symmetry_multiplicity
 _atom_site_fract_x
 _atom_site_fract_y
 _atom_site_fract_z
 _atom_site_occupancy
  Ga  Ga0  1  0.50000001  0.17415999  0.82583997  1
  Ga  Ga1  1  0.00000000  0.32583999  0.32583999  1
  Ga  Ga2  1  0.50000001  0.65938798  0.65938798  1
  Ga  Ga3  1  0.50000001  0.82583997  0.17415999  1
  Ga  Ga4  1  0.00000000  0.15938799  0.84061197  1
  Ga  Ga5  1  0.50000001  0.34061199  0.34061199  1
  Ga  Ga6  1  1.00000002  0.67415998  0.67415998  1
  Ga  Ga7  1  0.00000000  0.84061197  0.15938799  1
  Ga  Ga8  1  0.75000001  0.49999998  -0.00000000  1
  Ga  Ga9  1  0.25000000  0.00000000  0.49999998  1
  Ga  Ga10  1  0.75000001  0.00000000  0.49999998  1
  Ga  Ga11  1  0.25000000  0.49999998  -0.00000000  1
  Ga  Ga12  1  0.26753901  0.12625300  0.12625300  1
  Ga  Ga13  1  0.73246101  0.87374697  0.87374697  1
  Ga  Ga14  1  0.26753901  0.87374697  0.87374697  1
  Ga  Ga15  1  0.73246101  0.12625300  0.12625300  1
  Ga  Ga16  1  0.23246100  0.37374699  0.62625298  1
  Ga  Ga17  1  0.76753902  0.62625298  0.37374699  1
  Ga  Ga18  1  0.76753902  0.37374699  0.62625298  1
  Ga  Ga19  1  0.23246100  0.62625298  0.37374699  1
