# generated using pymatgen
data_BaIn5
_symmetry_space_group_name_H-M   'P 1'
_cell_length_a   6.24984217
_cell_length_b   6.24984312
_cell_length_c   9.97402000
_cell_angle_alpha   90.00000000
_cell_angle_beta   90.00000000
_cell_angle_gamma   119.99999237
_symmetry_Int_Tables_number   1
_chemical_formula_structural   BaIn5
_chemical_formula_sum   'Ba2 In10'
_cell_volume   337.39532912
_cell_formula_units_Z   2
loop_
 _symmetry_equiv_pos_site_id
 _symmetry_equiv_pos_as_xyz
  1  'x, y, z'
loop_
 _atom_site_type_symbol
 _atom_site_label
 _atom_site_symmetry_multiplicity
 _atom_site_fract_x
 _atom_site_fract_y
 _atom_site_fract_z
 _atom_site_occupancy
  Ba  Ba0  1  0.66666663  0.33333331  0.06149800  1
  Ba  Ba1  1  0.33333329  0.66666663  0.56149800  1
  In  In2  1  0.33333329  0.66666663  0.93850200  1
  In  In3  1  0.66666663  0.33333331  0.43850200  1
  In  In4  1  0.16880195  0.83119895  0.25000000  1
  In  In5  1  0.83119794  0.66239596  0.75000000  1
  In  In6  1  0.33760298  0.16880099  0.75000000  1
  In  In7  1  0.66239694  0.83119895  0.25000000  1
  In  In8  1  0.00000000  0.00000000  0.00000000  1
  In  In9  1  0.00000000  0.00000000  0.50000000  1
  In  In10  1  0.83119797  0.16880099  0.75000000  1
  In  In11  1  0.16880198  0.33760398  0.25000000  1
