# generated using pymatgen
data_Eu(GeRu)2
_symmetry_space_group_name_H-M   'P 1'
_cell_length_a   4.32956409
_cell_length_b   4.32956409
_cell_length_c   5.94535017
_cell_angle_alpha   111.35303497
_cell_angle_beta   111.35303497
_cell_angle_gamma   90.00000000
_symmetry_Int_Tables_number   1
_chemical_formula_structural   Eu(GeRu)2
_chemical_formula_sum   'Eu1 Ge2 Ru2'
_cell_volume   95.53510632
_cell_formula_units_Z   1
loop_
 _symmetry_equiv_pos_site_id
 _symmetry_equiv_pos_as_xyz
  1  'x, y, z'
loop_
 _atom_site_type_symbol
 _atom_site_label
 _atom_site_symmetry_multiplicity
 _atom_site_fract_x
 _atom_site_fract_y
 _atom_site_fract_z
 _atom_site_occupancy
  Eu  Eu0  1  0.00000000  0.00000000  0.00000000  1
  Ge  Ge1  1  0.63545302  0.63545300  0.27090605  1
  Ge  Ge2  1  0.36454701  0.36454700  0.72909404  1
  Ru  Ru3  1  0.25000002  0.75000000  0.50000005  1
  Ru  Ru4  1  0.75000000  0.25000000  0.50000004  1
