# generated using pymatgen
data_Mo5O7
_symmetry_space_group_name_H-M   'P 1'
_cell_length_a   3.11721420
_cell_length_b   4.72868633
_cell_length_c   9.47471905
_cell_angle_alpha   91.15140533
_cell_angle_beta   90.02574158
_cell_angle_gamma   90.03053284
_symmetry_Int_Tables_number   1
_chemical_formula_structural   Mo5O7
_chemical_formula_sum   'Mo5 O7'
_cell_volume   139.63223432
_cell_formula_units_Z   1
loop_
 _symmetry_equiv_pos_site_id
 _symmetry_equiv_pos_as_xyz
  1  'x, y, z'
loop_
 _atom_site_type_symbol
 _atom_site_label
 _atom_site_symmetry_multiplicity
 _atom_site_fract_x
 _atom_site_fract_y
 _atom_site_fract_z
 _atom_site_occupancy
  Mo  Mo0  1  0.99921005  0.50059799  0.75026704  1
  Mo  Mo1  1  0.99940405  0.49935599  0.24973902  1
  Mo  Mo2  1  0.49998200  0.00001400  0.00000900  1
  Mo  Mo3  1  0.49993710  0.99995098  0.50001904  1
  O  O4  1  0.00077008  0.80002498  0.89991605  1
  O  O5  1  0.00034208  0.80045598  0.40020203  1
  Mo  Mo6  1  0.00006802  0.19957300  0.59980203  1
  O  O7  1  0.99964402  0.20000500  0.10008501  1
  O  O8  1  0.50020507  0.69308899  0.65339204  1
  O  O9  1  0.50009807  0.69516699  0.15246802  1
  O  O10  1  0.50022403  0.30484699  0.84751004  1
  O  O11  1  0.50011603  0.30691699  0.34659202  1
