# generated using pymatgen
data_HoIn2
_symmetry_space_group_name_H-M   'P 1'
_cell_length_a   4.84045792
_cell_length_b   4.84045839
_cell_length_c   7.73562908
_cell_angle_alpha   90.00000000
_cell_angle_beta   90.00000000
_cell_angle_gamma   120.00000000
_symmetry_Int_Tables_number   1
_chemical_formula_structural   HoIn2
_chemical_formula_sum   'Ho2 In4'
_cell_volume   156.96369340
_cell_formula_units_Z   2
loop_
 _symmetry_equiv_pos_site_id
 _symmetry_equiv_pos_as_xyz
  1  'x, y, z'
loop_
 _atom_site_type_symbol
 _atom_site_label
 _atom_site_symmetry_multiplicity
 _atom_site_fract_x
 _atom_site_fract_y
 _atom_site_fract_z
 _atom_site_occupancy
  Ho  Ho0  1  0.00000000  0.00000000  0.24909300  1
  Ho  Ho1  1  0.00000000  0.00000000  0.74909299  1
  In  In2  1  0.33333337  0.66666668  0.44763400  1
  In  In3  1  0.66666669  0.33333334  0.94763399  1
  In  In4  1  0.66666669  0.33333334  0.52827299  1
  In  In5  1  0.33333337  0.66666668  0.02827300  1
