# generated using pymatgen
data_Mg8Ni
_symmetry_space_group_name_H-M   'P 1'
_cell_length_a   3.60393500
_cell_length_b   7.84791613
_cell_length_c   7.84791613
_cell_angle_alpha   120.00000000
_cell_angle_beta   90.00000000
_cell_angle_gamma   90.00000000
_symmetry_Int_Tables_number   1
_chemical_formula_structural   Mg8Ni
_chemical_formula_sum   'Mg8 Ni1'
_cell_volume   192.22784066
_cell_formula_units_Z   1
loop_
 _symmetry_equiv_pos_site_id
 _symmetry_equiv_pos_as_xyz
  1  'x, y, z'
loop_
 _atom_site_type_symbol
 _atom_site_label
 _atom_site_symmetry_multiplicity
 _atom_site_fract_x
 _atom_site_fract_y
 _atom_site_fract_z
 _atom_site_occupancy
  Mg  Mg0  1  0.50000000  0.23991700  0.00000001  1
  Mg  Mg1  1  0.00000000  0.00000000  0.59751302  1
  Mg  Mg2  1  0.50000000  0.76008300  0.76008304  1
  Mg  Mg3  1  0.50000000  0.00000000  0.23991701  1
  Mg  Mg4  1  1.00000000  0.40248700  0.40248702  1
  Mg  Mg5  1  1.00000000  0.59751300  0.00000002  1
  Ni  Ni6  1  0.00000000  0.00000000  0.00000000  1
  Mg  Mg7  1  0.50000000  0.33333333  0.66666669  1
  Mg  Mg8  1  0.50000000  0.66666667  0.33333336  1
