# generated using pymatgen
data_Ba5F9
_symmetry_space_group_name_H-M   'P 1'
_cell_length_a   3.54135609
_cell_length_b   9.69201756
_cell_length_c   10.17358494
_cell_angle_alpha   112.32619476
_cell_angle_beta   90.00000000
_cell_angle_gamma   90.00000000
_symmetry_Int_Tables_number   1
_chemical_formula_structural   Ba5F9
_chemical_formula_sum   'Ba5 F9'
_cell_volume   323.01039997
_cell_formula_units_Z   1
loop_
 _symmetry_equiv_pos_site_id
 _symmetry_equiv_pos_as_xyz
  1  'x, y, z'
loop_
 _atom_site_type_symbol
 _atom_site_label
 _atom_site_symmetry_multiplicity
 _atom_site_fract_x
 _atom_site_fract_y
 _atom_site_fract_z
 _atom_site_occupancy
  Ba  Ba0  1  0.49999999  0.54110002  0.91806002  1
  Ba  Ba1  1  0.00000000  0.71552502  0.62732800  1
  F  F2  1  0.49999999  0.28573001  0.36194300  1
  F  F3  1  0.99999998  0.45718901  0.10336698  1
  F  F4  1  0.49999999  0.93676503  0.75072099  1
  Ba  Ba5  1  0.00000000  0.06296800  0.23998401  1
  F  F6  1  0.49999999  0.51156801  0.63144901  1
  F  F7  1  0.00000000  0.48624701  0.35483999  1
  F  F8  1  0.49999999  0.83352502  0.49941498  1
  F  F9  1  0.99999998  0.17132000  0.49077901  1
  F  F10  1  -0.00000000  0.74204902  0.90814501  1
  Ba  Ba11  1  0.49999999  0.27617101  0.09139399  1
  F  F12  1  0.99999998  0.33569401  0.84603902  1
  Ba  Ba13  1  0.49999999  0.64414902  0.17653498  1
