# generated using pymatgen
data_BaLaCuIBrN2
_symmetry_space_group_name_H-M   'P 1'
_cell_length_a   4.05924177
_cell_length_b   4.05924177
_cell_length_c   10.73303795
_cell_angle_alpha   100.90028381
_cell_angle_beta   100.90028381
_cell_angle_gamma   90.00000000
_symmetry_Int_Tables_number   1
_chemical_formula_structural   BaLaCuIBrN2
_chemical_formula_sum   'Ba1 La1 Cu1 I1 Br1 N2'
_cell_volume   170.41165013
_cell_formula_units_Z   1
loop_
 _symmetry_equiv_pos_site_id
 _symmetry_equiv_pos_as_xyz
  1  'x, y, z'
loop_
 _atom_site_type_symbol
 _atom_site_label
 _atom_site_symmetry_multiplicity
 _atom_site_fract_x
 _atom_site_fract_y
 _atom_site_fract_z
 _atom_site_occupancy
  Ba  Ba0  1  0.41873202  0.41873202  0.83746401  1
  La  La1  1  0.58126803  0.58126803  0.16253599  1
  Cu  Cu2  1  0.00000000  0.00000000  0.00000000  1
  I  I3  1  0.16654201  0.16654201  0.33308400  1
  Br  Br4  1  0.83345804  0.83345804  0.66691600  1
  N  N5  1  -0.00000000  0.50000003  -0.00000000  1
  N  N6  1  0.50000003  0.00000000  -0.00000000  1
