# generated using pymatgen
data_Te4O9
_symmetry_space_group_name_H-M   'P 1'
_cell_length_a   5.38303089
_cell_length_b   5.80088186
_cell_length_c   6.12272549
_cell_angle_alpha   71.68380737
_cell_angle_beta   89.79731750
_cell_angle_gamma   63.22632599
_symmetry_Int_Tables_number   1
_chemical_formula_structural   Te4O9
_chemical_formula_sum   'Te4 O9'
_cell_volume   159.88217299
_cell_formula_units_Z   1
loop_
 _symmetry_equiv_pos_site_id
 _symmetry_equiv_pos_as_xyz
  1  'x, y, z'
loop_
 _atom_site_type_symbol
 _atom_site_label
 _atom_site_symmetry_multiplicity
 _atom_site_fract_x
 _atom_site_fract_y
 _atom_site_fract_z
 _atom_site_occupancy
  Te  Te0  1  0.56097101  0.90471899  0.74766098  1
  Te  Te1  1  0.43902901  0.09528100  0.25233900  1
  O  O2  1  0.00000000  0.00000000  0.00000000  1
  Te  Te3  1  0.76987002  0.46253000  0.35439199  1
  Te  Te4  1  0.23013001  0.53746999  0.64560799  1
  O  O5  1  0.78772002  0.75676499  0.05216999  1
  O  O6  1  0.78433002  0.72866399  0.54265499  1
  O  O7  1  0.68106801  0.23659300  0.68063399  1
  O  O8  1  0.71517201  0.22279500  0.18784900  1
  O  O9  1  0.28482801  0.77720499  0.81215098  1
  O  O10  1  0.31893201  0.76340699  0.31936599  1
  O  O11  1  0.21567000  0.27133600  0.45734499  1
  O  O12  1  0.21228000  0.24323500  0.94782999  1
