# generated using pymatgen
data_Ba3Nb2ClO6
_symmetry_space_group_name_H-M   'P 1'
_cell_length_a   4.11668682
_cell_length_b   7.25846291
_cell_length_c   8.95767117
_cell_angle_alpha   104.79392242
_cell_angle_beta   90.00000000
_cell_angle_gamma   90.00000000
_symmetry_Int_Tables_number   1
_chemical_formula_structural   Ba3Nb2ClO6
_chemical_formula_sum   'Ba3 Nb2 Cl1 O6'
_cell_volume   258.78966188
_cell_formula_units_Z   1
loop_
 _symmetry_equiv_pos_site_id
 _symmetry_equiv_pos_as_xyz
  1  'x, y, z'
loop_
 _atom_site_type_symbol
 _atom_site_label
 _atom_site_symmetry_multiplicity
 _atom_site_fract_x
 _atom_site_fract_y
 _atom_site_fract_z
 _atom_site_occupancy
  Ba  Ba0  1  0.75000003  0.14058800  0.75528502  1
  Ba  Ba1  1  0.25000001  0.85941202  0.24471505  1
  Nb  Nb2  1  0.75000003  0.38716301  0.32730803  1
  Nb  Nb3  1  0.25000001  0.61283702  0.67269205  1
  Cl  Cl4  1  0.75000003  0.77021102  0.91025606  1
  Ba  Ba5  1  0.25000001  0.22978901  0.08974401  1
  O  O6  1  0.75000003  0.54840602  0.58348204  1
  O  O7  1  0.25000001  0.45159401  0.41651803  1
  O  O8  1  0.75000003  0.15150500  0.37190702  1
  O  O9  1  0.25000001  0.84849502  0.62809306  1
  O  O10  1  0.75000003  0.61066102  0.26420804  1
  O  O11  1  0.25000001  0.38933901  0.73579204  1
