# generated using pymatgen
data_MgMoO3F
_symmetry_space_group_name_H-M   'P 1'
_cell_length_a   4.25928497
_cell_length_b   6.56826830
_cell_length_c   6.59766865
_cell_angle_alpha   104.74638367
_cell_angle_beta   90.00000000
_cell_angle_gamma   108.91904449
_symmetry_Int_Tables_number   1
_chemical_formula_structural   MgMoO3F
_chemical_formula_sum   'Mg2 Mo2 O6 F2'
_cell_volume   168.16621264
_cell_formula_units_Z   2
loop_
 _symmetry_equiv_pos_site_id
 _symmetry_equiv_pos_as_xyz
  1  'x, y, z'
loop_
 _atom_site_type_symbol
 _atom_site_label
 _atom_site_symmetry_multiplicity
 _atom_site_fract_x
 _atom_site_fract_y
 _atom_site_fract_z
 _atom_site_occupancy
  Mg  Mg0  1  0.09566700  0.19133401  0.22039600  1
  Mg  Mg1  1  0.90433300  0.80866602  0.77960399  1
  Mo  Mo2  1  0.20168900  0.40337701  0.80375000  1
  Mo  Mo3  1  0.79831100  0.59662302  0.19624999  1
  O  O4  1  0.06463900  0.12927900  0.86673501  1
  O  O5  1  0.13890300  0.27780701  0.51939900  1
  F  F6  1  0.73404600  0.46809301  0.88093000  1
  O  O7  1  0.65311000  0.30622001  0.22139200  1
  O  O8  1  0.34689000  0.69378002  0.77860799  1
  F  F9  1  0.26595400  0.53190701  0.11906999  1
  O  O10  1  0.86109700  0.72219302  0.48060099  1
  O  O11  1  0.93536100  0.87072102  0.13326499  1
