# generated using pymatgen
data_Ga8P2SO9
_symmetry_space_group_name_H-M   'P 1'
_cell_length_a   6.54025698
_cell_length_b   6.54679203
_cell_length_c   6.54679203
_cell_angle_alpha   70.50856018
_cell_angle_beta   70.54900360
_cell_angle_gamma   109.45099640
_symmetry_Int_Tables_number   1
_chemical_formula_structural   Ga8P2SO9
_chemical_formula_sum   'Ga8 P2 S1 O9'
_cell_volume   215.84318216
_cell_formula_units_Z   1
loop_
 _symmetry_equiv_pos_site_id
 _symmetry_equiv_pos_as_xyz
  1  'x, y, z'
loop_
 _atom_site_type_symbol
 _atom_site_label
 _atom_site_symmetry_multiplicity
 _atom_site_fract_x
 _atom_site_fract_y
 _atom_site_fract_z
 _atom_site_occupancy
  Ga  Ga0  1  0.49999998  0.00000000  0.50000002  1
  P  P1  1  0.49999994  0.49999998  1.00000001  1
  P  P2  1  0.99999992  0.49999998  0.50000005  1
  Ga  Ga3  1  0.00000000  0.00000000  0.49999999  1
  Ga  Ga4  1  0.99999992  0.49999998  0.00000005  1
  Ga  Ga5  1  0.49999994  0.49999998  0.50000002  1
  Ga  Ga6  1  0.49999990  0.99999997  0.00000002  1
  Ga  Ga7  1  0.00000000  0.00000000  0.00000000  1
  O  O8  1  0.69001591  0.82226197  0.50220303  1
  Ga  Ga9  1  0.86775391  0.67553498  0.82226203  1
  O  O10  1  0.19221895  0.50220298  0.67553500  1
  O  O11  1  0.30998397  0.17773799  0.49779701  1
  S  S12  1  0.13224597  0.32446499  0.17773800  1
  O  O13  1  0.80778093  0.49779698  0.32446504  1
  O  O14  1  0.31666492  0.82805497  0.86483500  1
  O  O15  1  0.48860996  0.30710999  0.82805502  1
  O  O16  1  0.18149992  0.86483497  0.30711000  1
  O  O17  1  0.68333496  0.17194499  0.13516504  1
  O  O18  1  0.51138992  0.69288998  0.17194502  1
  Ga  Ga19  1  0.81849996  0.13516500  0.69289004  1
