# generated using pymatgen
data_Al11Mo5
_symmetry_space_group_name_H-M   'P 1'
_cell_length_a   4.93748188
_cell_length_b   5.62018919
_cell_length_c   9.41488361
_cell_angle_alpha   90.00000000
_cell_angle_beta   79.41375732
_cell_angle_gamma   90.00000000
_symmetry_Int_Tables_number   1
_chemical_formula_structural   Al11Mo5
_chemical_formula_sum   'Al11 Mo5'
_cell_volume   256.81232452
_cell_formula_units_Z   1
loop_
 _symmetry_equiv_pos_site_id
 _symmetry_equiv_pos_as_xyz
  1  'x, y, z'
loop_
 _atom_site_type_symbol
 _atom_site_label
 _atom_site_symmetry_multiplicity
 _atom_site_fract_x
 _atom_site_fract_y
 _atom_site_fract_z
 _atom_site_occupancy
  Al  Al0  1  0.62073501  0.24999999  0.62226000  1
  Mo  Mo1  1  0.37926500  0.74999997  0.37774000  1
  Mo  Mo2  1  0.78680001  0.24999999  0.12742302  1
  Al  Al3  1  0.21320000  0.74999997  0.87257697  1
  Al  Al4  1  0.20784800  0.24999999  0.87183897  1
  Mo  Mo5  1  0.79215201  0.74999997  0.12816102  1
  Al  Al6  1  0.39095000  0.24999999  0.37562900  1
  Al  Al7  1  0.60905001  0.74999997  0.62437100  1
  Al  Al8  1  0.11955700  0.00093300  0.62590698  1
  Al  Al9  1  0.88044301  0.50093298  0.37409302  1
  Al  Al10  1  0.88044301  0.99906697  0.37409302  1
  Al  Al11  1  0.11955700  0.49906698  0.62590698  1
  Al  Al12  1  0.70851501  0.00144800  0.87719699  1
  Mo  Mo13  1  0.29148500  0.50144798  0.12280301  1
  Mo  Mo14  1  0.29148500  0.99855197  0.12280301  1
  Al  Al15  1  0.70851501  0.49855198  0.87719699  1
