# generated using pymatgen
data_Lu3Co13B2
_symmetry_space_group_name_H-M   'P 1'
_cell_length_a   4.92600775
_cell_length_b   4.92600775
_cell_length_c   10.99245644
_cell_angle_alpha   90.00000000
_cell_angle_beta   90.00000000
_cell_angle_gamma   120.00000000
_symmetry_Int_Tables_number   1
_chemical_formula_structural   Lu3Co13B2
_chemical_formula_sum   'Lu3 Co13 B2'
_cell_volume   231.00190744
_cell_formula_units_Z   1
loop_
 _symmetry_equiv_pos_site_id
 _symmetry_equiv_pos_as_xyz
  1  'x, y, z'
loop_
 _atom_site_type_symbol
 _atom_site_label
 _atom_site_symmetry_multiplicity
 _atom_site_fract_x
 _atom_site_fract_y
 _atom_site_fract_z
 _atom_site_occupancy
  Lu  Lu0  1  0.00000000  0.00000000  0.00000000  1
  Lu  Lu1  1  0.00000000  0.00000000  0.33087999  1
  Lu  Lu2  1  0.00000000  0.00000000  0.66911997  1
  Co  Co3  1  0.50000002  0.00000000  0.49999998  1
  Co  Co4  1  0.50000003  0.50000002  0.49999998  1
  Co  Co5  1  0.00000001  0.50000002  0.49999998  1
  Co  Co6  1  0.33333336  0.66666670  0.31793599  1
  Co  Co7  1  0.66666670  0.33333335  0.31793599  1
  Co  Co8  1  0.66666670  0.33333335  0.68206397  1
  Co  Co9  1  0.33333336  0.66666670  0.68206397  1
  Co  Co10  1  0.50000002  0.00000000  0.13287899  1
  Co  Co11  1  0.50000003  0.50000002  0.13287899  1
  Co  Co12  1  0.00000001  0.50000002  0.13287899  1
  Co  Co13  1  0.50000002  0.00000000  0.86712097  1
  Co  Co14  1  0.50000003  0.50000002  0.86712097  1
  Co  Co15  1  0.00000001  0.50000002  0.86712097  1
  B  B16  1  0.33333336  0.66666670  -0.00000000  1
  B  B17  1  0.66666670  0.33333335  0.99999996  1
