# generated using pymatgen
data_HgI2
_symmetry_space_group_name_H-M   'P 1'
_cell_length_a   3.69228911
_cell_length_b   5.64196491
_cell_length_c   7.94313717
_cell_angle_alpha   78.19197845
_cell_angle_beta   76.56040192
_cell_angle_gamma   70.90008545
_symmetry_Int_Tables_number   1
_chemical_formula_structural   HgI2
_chemical_formula_sum   'Hg2 I4'
_cell_volume   150.58285000
_cell_formula_units_Z   2
loop_
 _symmetry_equiv_pos_site_id
 _symmetry_equiv_pos_as_xyz
  1  'x, y, z'
loop_
 _atom_site_type_symbol
 _atom_site_label
 _atom_site_symmetry_multiplicity
 _atom_site_fract_x
 _atom_site_fract_y
 _atom_site_fract_z
 _atom_site_occupancy
  Hg  Hg0  1  0.15475300  0.87971003  0.81078501  1
  Hg  Hg1  1  0.84498398  0.12316600  0.18686599  1
  I  I2  1  0.85413098  0.76322003  0.52851700  1
  I  I3  1  0.14556600  0.23820101  0.47066701  1
  I  I4  1  0.59256299  0.69893002  0.11594399  1
  I  I5  1  0.40800299  0.29677401  0.88722102  1
