# generated using pymatgen
data_Ba7Pb3S10
_symmetry_space_group_name_H-M   'P 1'
_cell_length_a   7.38233995
_cell_length_b   7.73976994
_cell_length_c   11.00401211
_cell_angle_alpha   90.00000000
_cell_angle_beta   90.76010895
_cell_angle_gamma   90.00000000
_symmetry_Int_Tables_number   1
_chemical_formula_structural   Ba7Pb3S10
_chemical_formula_sum   'Ba7 Pb3 S10'
_cell_volume   628.68765566
_cell_formula_units_Z   1
loop_
 _symmetry_equiv_pos_site_id
 _symmetry_equiv_pos_as_xyz
  1  'x, y, z'
loop_
 _atom_site_type_symbol
 _atom_site_label
 _atom_site_symmetry_multiplicity
 _atom_site_fract_x
 _atom_site_fract_y
 _atom_site_fract_z
 _atom_site_occupancy
  Ba  Ba0  1  0.50000000  0.50000000  -0.00000002  1
  Pb  Pb1  1  0.00000000  0.00000000  0.50000001  1
  Ba  Ba2  1  0.51347600  0.93370001  0.24168599  1
  Ba  Ba3  1  0.48652400  0.06630000  0.75831400  1
  Ba  Ba4  1  0.98652401  0.43370000  0.25831397  1
  S  S5  1  0.01347600  0.56630000  0.74168601  1
  Pb  Pb6  1  0.50000000  0.50000000  0.49999999  1
  Ba  Ba7  1  0.00000000  0.00000000  0.00000000  1
  S  S8  1  0.66540500  0.19240100  0.42135998  1
  S  S9  1  0.33459500  0.80759901  0.57864000  1
  S  S10  1  0.83459500  0.69240101  0.07863997  1
  Ba  Ba11  1  0.16540500  0.30759900  0.92136001  1
  S  S12  1  0.36334100  0.57142200  0.26242799  1
  S  S13  1  0.63665900  0.42857800  0.73757199  1
  S  S14  1  0.13665900  0.07142200  0.23757200  1
  Pb  Pb15  1  0.86334100  0.92857801  0.76242798  1
  S  S16  1  0.81622200  0.67818101  0.43436598  1
  S  S17  1  0.18377800  0.32181900  0.56563400  1
  S  S18  1  0.68377800  0.17818100  0.06563398  1
  Ba  Ba19  1  0.31622200  0.82181901  0.93436601  1
