# generated using pymatgen
data_NaCuF3
_symmetry_space_group_name_H-M   'P 1'
_cell_length_a   5.45194006
_cell_length_b   5.63625717
_cell_length_c   7.76178217
_cell_angle_alpha   90.00000000
_cell_angle_beta   89.99485016
_cell_angle_gamma   90.00000000
_symmetry_Int_Tables_number   1
_chemical_formula_structural   NaCuF3
_chemical_formula_sum   'Na4 Cu4 F12'
_cell_volume   238.50820387
_cell_formula_units_Z   4
loop_
 _symmetry_equiv_pos_site_id
 _symmetry_equiv_pos_as_xyz
  1  'x, y, z'
loop_
 _atom_site_type_symbol
 _atom_site_label
 _atom_site_symmetry_multiplicity
 _atom_site_fract_x
 _atom_site_fract_y
 _atom_site_fract_z
 _atom_site_occupancy
  Na  Na0  1  0.48642899  0.55683498  0.25020601  1
  Na  Na1  1  0.01357100  0.05683500  0.24979400  1
  Na  Na2  1  0.51357099  0.44316499  0.74979400  1
  Na  Na3  1  0.98642899  0.94316497  0.75020602  1
  Cu  Cu4  1  0.00000000  0.49999998  0.49999999  1
  Cu  Cu5  1  0.49999999  0.00000000  0.00000002  1
  Cu  Cu6  1  0.00000000  0.49999998  0.99999998  1
  Cu  Cu7  1  0.49999999  0.00000000  0.50000001  1
  F  F8  1  0.91360499  0.47793799  0.25716302  1
  F  F9  1  0.80323099  0.21490999  0.54684402  1
  F  F10  1  0.69676899  0.71490998  0.95315601  1
  F  F11  1  0.78617599  0.19882899  0.95542301  1
  F  F12  1  0.08639500  0.52206198  0.74283699  1
  F  F13  1  0.19676900  0.78508998  0.45315600  1
  F  F14  1  0.28617600  0.30117099  0.45542300  1
  F  F15  1  0.41360500  0.02206200  0.75716300  1
  F  F16  1  0.58639499  0.97793797  0.24283701  1
  F  F17  1  0.21382400  0.80117098  0.04457701  1
  F  F18  1  0.71382399  0.69882898  0.54457701  1
  F  F19  1  0.30323100  0.28508999  0.04684401  1
