# generated using pymatgen
data_Li5CuAgF11
_symmetry_space_group_name_H-M   'P 1'
_cell_length_a   5.14207888
_cell_length_b   5.57080841
_cell_length_c   7.85229349
_cell_angle_alpha   103.68135071
_cell_angle_beta   100.97711182
_cell_angle_gamma   106.23197174
_symmetry_Int_Tables_number   1
_chemical_formula_structural   Li5CuAgF11
_chemical_formula_sum   'Li5 Cu1 Ag1 F11'
_cell_volume   201.74949319
_cell_formula_units_Z   1
loop_
 _symmetry_equiv_pos_site_id
 _symmetry_equiv_pos_as_xyz
  1  'x, y, z'
loop_
 _atom_site_type_symbol
 _atom_site_label
 _atom_site_symmetry_multiplicity
 _atom_site_fract_x
 _atom_site_fract_y
 _atom_site_fract_z
 _atom_site_occupancy
  F  F0  1  0.21084598  0.89952899  0.35266000  1
  Ag  Ag1  1  0.41160200  0.29767000  0.80985101  1
  Li  Li2  1  0.59352700  0.70689699  0.21713800  1
  Li  Li3  1  0.77076002  0.09582600  0.60554601  1
  Cu  Cu4  1  0.01648599  0.51178199  0.00617700  1
  Li  Li5  1  0.69753599  0.90744599  0.90981800  1
  Li  Li6  1  0.08984698  0.68595899  0.69201700  1
  Li  Li7  1  0.89045101  0.29740700  0.29926500  1
  F  F8  1  0.00845300  0.00993900  0.81188001  1
  F  F9  1  0.33562599  0.65508099  0.92021801  1
  F  F10  1  0.13518699  0.34512700  0.54898000  1
  F  F11  1  0.21204499  0.52369599  0.22925800  1
  F  F12  1  0.46292499  0.92423199  0.70227700  1
  F  F13  1  0.57997101  0.08125800  0.35783500  1
  F  F14  1  0.79534901  0.47499799  0.77879300  1
  F  F15  1  0.88915600  0.66895799  0.44512300  1
  F  F16  1  0.69608601  0.35157300  0.06858900  1
  F  F17  1  0.90728600  0.95289399  0.14571299  1
