# generated using pymatgen
data_GeTe
_symmetry_space_group_name_H-M   'P 1'
_cell_length_a   6.65548992
_cell_length_b   6.74533081
_cell_length_c   7.04204559
_cell_angle_alpha   89.27903748
_cell_angle_beta   87.74604797
_cell_angle_gamma   78.36107635
_symmetry_Int_Tables_number   1
_chemical_formula_structural   GeTe
_chemical_formula_sum   'Ge6 Te6'
_cell_volume   309.39851268
_cell_formula_units_Z   6
loop_
 _symmetry_equiv_pos_site_id
 _symmetry_equiv_pos_as_xyz
  1  'x, y, z'
loop_
 _atom_site_type_symbol
 _atom_site_label
 _atom_site_symmetry_multiplicity
 _atom_site_fract_x
 _atom_site_fract_y
 _atom_site_fract_z
 _atom_site_occupancy
  Ge  Ge0  1  0.23145302  0.19776900  0.53538100  1
  Ge  Ge1  1  0.76854706  0.80223098  0.46461899  1
  Ge  Ge2  1  0.78908703  0.29994099  0.05492101  1
  Ge  Ge3  1  0.21091305  0.70005898  0.94507898  1
  Te  Te4  1  0.61241302  0.20753299  0.36441101  1
  Ge  Ge5  1  0.38758706  0.79246698  0.63558898  1
  Te  Te6  1  0.09649100  0.00169200  0.20464000  1
  Te  Te7  1  0.90350908  0.99830798  0.79535999  1
  Te  Te8  1  0.04658703  0.50296899  0.24000298  1
  Ge  Ge9  1  0.95341304  0.49703099  0.75999701  1
  Te  Te10  1  0.56507505  0.68580598  0.11800299  1
  Te  Te11  1  0.43492503  0.31419399  0.88199701  1
