# generated using pymatgen
data_La2CuO4
_symmetry_space_group_name_H-M   'P 1'
_cell_length_a   5.45021200
_cell_length_b   5.61068916
_cell_length_c   6.59461355
_cell_angle_alpha   90.00000000
_cell_angle_beta   114.40803528
_cell_angle_gamma   90.00000000
_symmetry_Int_Tables_number   1
_chemical_formula_structural   La2CuO4
_chemical_formula_sum   'La4 Cu2 O8'
_cell_volume   183.63644079
_cell_formula_units_Z   2
loop_
 _symmetry_equiv_pos_site_id
 _symmetry_equiv_pos_as_xyz
  1  'x, y, z'
loop_
 _atom_site_type_symbol
 _atom_site_label
 _atom_site_symmetry_multiplicity
 _atom_site_fract_x
 _atom_site_fract_y
 _atom_site_fract_z
 _atom_site_occupancy
  La  La0  1  0.89637102  0.51861098  0.79274207  1
  La  La1  1  0.10362900  0.01861100  0.20725801  1
  La  La2  1  0.61200002  0.48329499  0.22400004  1
  La  La3  1  0.38800001  0.98329497  0.77600004  1
  Cu  Cu4  1  0.24904501  0.49874999  0.49809003  1
  Cu  Cu5  1  0.75095502  0.99874997  0.50191005  1
  O  O6  1  0.08159100  0.44230399  0.16318201  1
  O  O7  1  0.42138201  0.55382998  0.84276404  1
  O  O8  1  0.91840902  0.94230397  0.83681807  1
  O  O9  1  0.57861801  0.05383000  0.15723603  1
  O  O10  1  0.52135401  0.25160499  0.53703004  1
  O  O11  1  0.47864601  0.75160498  0.46297004  1
  O  O12  1  0.98432403  0.75160498  0.46297006  1
  O  O13  1  0.01567600  0.25160499  0.53703001  1
