# generated using pymatgen
data_Ba2O3
_symmetry_space_group_name_H-M   'P 1'
_cell_length_a   6.51551294
_cell_length_b   7.17013407
_cell_length_c   9.60943317
_cell_angle_alpha   90.00000000
_cell_angle_beta   90.00000000
_cell_angle_gamma   90.00000000
_symmetry_Int_Tables_number   1
_chemical_formula_structural   Ba2O3
_chemical_formula_sum   'Ba8 O12'
_cell_volume   448.92486324
_cell_formula_units_Z   4
loop_
 _symmetry_equiv_pos_site_id
 _symmetry_equiv_pos_as_xyz
  1  'x, y, z'
loop_
 _atom_site_type_symbol
 _atom_site_label
 _atom_site_symmetry_multiplicity
 _atom_site_fract_x
 _atom_site_fract_y
 _atom_site_fract_z
 _atom_site_occupancy
  Ba  Ba0  1  0.53786700  0.40260700  0.74999999  1
  Ba  Ba1  1  0.46213300  0.59739299  0.25000000  1
  Ba  Ba2  1  0.03786700  0.09739300  0.25000000  1
  Ba  Ba3  1  0.96213301  0.90260699  0.74999999  1
  Ba  Ba4  1  0.00000000  0.50000000  -0.00000000  1
  Ba  Ba5  1  0.00000000  0.50000000  0.49999999  1
  Ba  Ba6  1  0.50000000  0.00000000  0.49999999  1
  Ba  Ba7  1  0.50000000  0.00000000  0.00000000  1
  O  O8  1  0.82185001  0.18844000  0.56251499  1
  O  O9  1  0.17815000  0.81155999  0.06251500  1
  O  O10  1  0.32185000  0.31156000  0.06251500  1
  O  O11  1  0.67815001  0.68843999  0.56251499  1
  O  O12  1  0.82185001  0.18844000  0.93748498  1
  O  O13  1  0.17815000  0.81155999  0.43748499  1
  O  O14  1  0.32185000  0.31156000  0.43748499  1
  O  O15  1  0.67815001  0.68843999  0.93748498  1
  O  O16  1  0.87129801  0.46269800  0.25000000  1
  O  O17  1  0.12870200  0.53730199  0.74999999  1
  O  O18  1  0.37129800  0.03730200  0.74999999  1
  O  O19  1  0.62870201  0.96269799  0.25000000  1
