# generated using pymatgen
data_Mn3P
_symmetry_space_group_name_H-M   'P 1'
_cell_length_a   4.38764000
_cell_length_b   6.76178885
_cell_length_c   6.76178885
_cell_angle_alpha   83.95764160
_cell_angle_beta   71.06812286
_cell_angle_gamma   71.06812286
_symmetry_Int_Tables_number   1
_chemical_formula_structural   Mn3P
_chemical_formula_sum   'Mn12 P4'
_cell_volume   179.49371081
_cell_formula_units_Z   4
loop_
 _symmetry_equiv_pos_site_id
 _symmetry_equiv_pos_as_xyz
  1  'x, y, z'
loop_
 _atom_site_type_symbol
 _atom_site_label
 _atom_site_symmetry_multiplicity
 _atom_site_fract_x
 _atom_site_fract_y
 _atom_site_fract_z
 _atom_site_occupancy
  Mn  Mn0  1  0.97914099  0.39336600  0.66874203  1
  Mn  Mn1  1  0.35211697  0.66874201  0.60663405  1
  Mn  Mn2  1  0.62749299  0.33125800  0.39336502  1
  Mn  Mn3  1  0.04124998  0.60663401  0.33125704  1
  Mn  Mn4  1  0.02229598  0.39001500  0.04994802  1
  Mn  Mn5  1  0.92775600  0.04994800  0.60998501  1
  Mn  Mn6  1  0.58768896  0.95005201  0.39001506  1
  Mn  Mn7  1  0.46225898  0.60998501  0.95005205  1
  Mn  Mn8  1  0.87140397  0.81522601  0.97273806  1
  Mn  Mn9  1  0.15585796  0.97273801  0.18477406  1
  Mn  Mn10  1  0.31337000  0.02726200  0.81522601  1
  Mn  Mn11  1  0.65936799  0.18477400  0.02726201  1
  P  P12  1  0.55163597  0.66377301  0.24620804  1
  P  P13  1  0.20215599  0.24620800  0.33622702  1
  P  P14  1  0.78459097  0.75379201  0.66377305  1
  P  P15  1  0.46161699  0.33622700  0.75379203  1
