# generated using pymatgen
data_Li2Co5O8
_symmetry_space_group_name_H-M   'P 1'
_cell_length_a   5.84270000
_cell_length_b   5.86698771
_cell_length_c   5.90658760
_cell_angle_alpha   119.28916931
_cell_angle_beta   119.56925201
_cell_angle_gamma   90.06625366
_symmetry_Int_Tables_number   1
_chemical_formula_structural   Li2Co5O8
_chemical_formula_sum   'Li2 Co5 O8'
_cell_volume   145.52509152
_cell_formula_units_Z   1
loop_
 _symmetry_equiv_pos_site_id
 _symmetry_equiv_pos_as_xyz
  1  'x, y, z'
loop_
 _atom_site_type_symbol
 _atom_site_label
 _atom_site_symmetry_multiplicity
 _atom_site_fract_x
 _atom_site_fract_y
 _atom_site_fract_z
 _atom_site_occupancy
  Li  Li0  1  0.00000004  0.50000002  0.49999999  1
  Li  Li1  1  0.50000005  0.50000002  0.00000003  1
  Co  Co2  1  0.00000000  0.00000000  0.49999999  1
  Co  Co3  1  0.50000002  0.00000000  0.00000003  1
  Co  Co4  1  0.00000000  0.00000000  0.00000000  1
  Co  Co5  1  0.50000005  0.50000002  0.50000002  1
  Co  Co6  1  0.50000002  0.00000000  0.50000002  1
  O  O7  1  0.71063804  0.21316201  0.45181004  1
  O  O8  1  0.26305107  0.76924603  0.98855099  1
  O  O9  1  0.25934903  0.22335101  0.47833001  1
  O  O10  1  0.72856408  0.77166603  0.99385402  1
  O  O11  1  0.27143603  0.22833401  0.00614602  1
  O  O12  1  0.74065108  0.77664903  0.52167003  1
  O  O13  1  0.73694904  0.23075401  0.01144905  1
  O  O14  1  0.28936207  0.78683803  0.54819000  1
