# generated using pymatgen
data_Nb4Ge3Mo
_symmetry_space_group_name_H-M   'P 1'
_cell_length_a   5.10205889
_cell_length_b   7.55555248
_cell_length_c   7.56537199
_cell_angle_alpha   83.41034698
_cell_angle_beta   70.29373169
_cell_angle_gamma   70.26706696
_symmetry_Int_Tables_number   1
_chemical_formula_structural   Nb4Ge3Mo
_chemical_formula_sum   'Nb8 Ge6 Mo2'
_cell_volume   258.43346551
_cell_formula_units_Z   2
loop_
 _symmetry_equiv_pos_site_id
 _symmetry_equiv_pos_as_xyz
  1  'x, y, z'
loop_
 _atom_site_type_symbol
 _atom_site_label
 _atom_site_symmetry_multiplicity
 _atom_site_fract_x
 _atom_site_fract_y
 _atom_site_fract_z
 _atom_site_occupancy
  Nb  Nb0  1  0.42456299  0.29542901  0.85544500  1
  Nb  Nb1  1  0.07543599  0.14450701  0.70462000  1
  Nb  Nb2  1  0.92449595  0.85541403  0.29559505  1
  Mo  Mo3  1  0.75004898  0.49975402  0.50035002  1
  Mo  Mo4  1  0.24984696  0.49975402  0.50035003  1
  Nb  Nb5  1  0.71939894  0.85703003  0.70417204  1
  Nb  Nb6  1  0.28032600  0.14363301  0.29571400  1
  Nb  Nb7  1  0.78070900  0.29499201  0.14359101  1
  Nb  Nb8  1  0.21948194  0.70473803  0.85629704  1
  Nb  Nb9  1  0.57553895  0.70468103  0.14424204  1
  Ge  Ge10  1  0.24986001  0.00008700  0.99987298  1
  Ge  Ge11  1  0.75018002  0.00008700  0.99987297  1
  Ge  Ge12  1  0.16466996  0.50001502  0.17064404  1
  Ge  Ge13  1  0.83570698  0.49972102  0.82886401  1
  Ge  Ge14  1  0.33513393  0.82963103  0.50010105  1
  Ge  Ge15  1  0.66460301  0.17052601  0.50026799  1
