# generated using pymatgen
data_Mn14Al2Si
_symmetry_space_group_name_H-M   'P 1'
_cell_length_a   4.11791945
_cell_length_b   5.22473145
_cell_length_c   9.03777504
_cell_angle_alpha   89.99453735
_cell_angle_beta   90.04131317
_cell_angle_gamma   89.98768616
_symmetry_Int_Tables_number   1
_chemical_formula_structural   Mn14Al2Si
_chemical_formula_sum   'Mn14 Al2 Si1'
_cell_volume   194.44788385
_cell_formula_units_Z   1
loop_
 _symmetry_equiv_pos_site_id
 _symmetry_equiv_pos_as_xyz
  1  'x, y, z'
loop_
 _atom_site_type_symbol
 _atom_site_label
 _atom_site_symmetry_multiplicity
 _atom_site_fract_x
 _atom_site_fract_y
 _atom_site_fract_z
 _atom_site_occupancy
  Al  Al0  1  0.76331498  0.99995803  0.17037999  1
  Mn  Mn1  1  0.75156897  0.49992601  0.65796398  1
  Mn  Mn2  1  0.75050498  0.73352702  0.42163798  1
  Mn  Mn3  1  0.76443897  0.25812201  0.91350797  1
  Mn  Mn4  1  0.75051497  0.26664701  0.42175099  1
  Mn  Mn5  1  0.76425598  0.74210602  0.91367097  1
  Mn  Mn6  1  0.24843099  0.50007401  0.34203599  1
  Mn  Mn7  1  0.23668499  0.00004200  0.82961998  1
  Mn  Mn8  1  0.23556100  0.74187802  0.08649199  1
  Mn  Mn9  1  0.24949499  0.26647301  0.57836198  1
  Si  Si10  1  0.23574399  0.25789401  0.08632900  1
  Mn  Mn11  1  0.24948500  0.73335302  0.57824898  1
  Mn  Mn12  1  0.74431898  0.49996601  0.17182199  1
  Mn  Mn13  1  0.74837598  0.99976703  0.66216397  1
  Mn  Mn14  1  0.25162399  0.00023300  0.33783599  1
  Mn  Mn15  1  0.25568099  0.50003401  0.82817797  1
  Al  Al16  1  0.49999998  0.00000000  0.00000000  1
