# generated using pymatgen
data_PrGe3
_symmetry_space_group_name_H-M   'P 1'
_cell_length_a   4.33714008
_cell_length_b   4.33714008
_cell_length_c   10.02484894
_cell_angle_alpha   90.00000000
_cell_angle_beta   90.00000000
_cell_angle_gamma   90.00000000
_symmetry_Int_Tables_number   1
_chemical_formula_structural   PrGe3
_chemical_formula_sum   'Pr2 Ge6'
_cell_volume   188.57526903
_cell_formula_units_Z   2
loop_
 _symmetry_equiv_pos_site_id
 _symmetry_equiv_pos_as_xyz
  1  'x, y, z'
loop_
 _atom_site_type_symbol
 _atom_site_label
 _atom_site_symmetry_multiplicity
 _atom_site_fract_x
 _atom_site_fract_y
 _atom_site_fract_z
 _atom_site_occupancy
  Pr  Pr0  1  0.00000000  0.49999999  0.75058000  1
  Pr  Pr1  1  0.49999999  0.00000000  0.24942000  1
  Ge  Ge2  1  0.49999999  0.49999999  0.50000000  1
  Ge  Ge3  1  0.00000000  0.00000000  0.50000000  1
  Ge  Ge4  1  0.49999999  0.49999999  -0.00000000  1
  Ge  Ge5  1  0.00000000  0.00000000  0.00000000  1
  Ge  Ge6  1  0.00000000  0.49999999  0.34368900  1
  Ge  Ge7  1  0.49999999  0.00000000  0.65631100  1
