# generated using pymatgen
data_MoCl4
_symmetry_space_group_name_H-M   'P 1'
_cell_length_a   6.37788582
_cell_length_b   6.44957495
_cell_length_c   7.41377974
_cell_angle_alpha   80.23136902
_cell_angle_beta   69.93083191
_cell_angle_gamma   60.36701584
_symmetry_Int_Tables_number   1
_chemical_formula_structural   MoCl4
_chemical_formula_sum   'Mo2 Cl8'
_cell_volume   248.98149849
_cell_formula_units_Z   2
loop_
 _symmetry_equiv_pos_site_id
 _symmetry_equiv_pos_as_xyz
  1  'x, y, z'
loop_
 _atom_site_type_symbol
 _atom_site_label
 _atom_site_symmetry_multiplicity
 _atom_site_fract_x
 _atom_site_fract_y
 _atom_site_fract_z
 _atom_site_occupancy
  Mo  Mo0  1  0.12967500  0.74065002  0.00000001  1
  Mo  Mo1  1  0.87032504  0.25935001  -0.00000004  1
  Cl  Cl2  1  0.14204301  0.00000000  0.70720998  1
  Cl  Cl3  1  0.85795703  1.00000003  0.29278997  1
  Cl  Cl4  1  0.66297703  0.00000000  0.12862497  1
  Cl  Cl5  1  0.33702302  0.00000000  0.87137497  1
  Cl  Cl6  1  0.98272204  0.58554302  0.79193095  1
  Cl  Cl7  1  0.43173501  0.58554302  0.20806899  1
  Cl  Cl8  1  0.01727800  0.41445701  0.20806900  1
  Cl  Cl9  1  0.56826502  0.41445701  0.79193097  1
