# generated using pymatgen
data_Ga7Co6
_symmetry_space_group_name_H-M   'P 1'
_cell_length_a   5.02516222
_cell_length_b   5.02516127
_cell_length_c   8.04969406
_cell_angle_alpha   90.00000000
_cell_angle_beta   90.00000000
_cell_angle_gamma   120.00000763
_symmetry_Int_Tables_number   1
_chemical_formula_structural   Ga7Co6
_chemical_formula_sum   'Ga7 Co6'
_cell_volume   176.03947419
_cell_formula_units_Z   1
loop_
 _symmetry_equiv_pos_site_id
 _symmetry_equiv_pos_as_xyz
  1  'x, y, z'
loop_
 _atom_site_type_symbol
 _atom_site_label
 _atom_site_symmetry_multiplicity
 _atom_site_fract_x
 _atom_site_fract_y
 _atom_site_fract_z
 _atom_site_occupancy
  Ga  Ga0  1  0.00000000  0.00000000  0.00000000  1
  Co  Co1  1  0.50000000  0.50000000  0.75157099  1
  Co  Co2  1  0.49999998  0.00000000  0.75157099  1
  Co  Co3  1  0.00000002  0.50000000  0.75157099  1
  Co  Co4  1  0.50000000  0.50000000  0.24842900  1
  Co  Co5  1  0.49999998  0.00000000  0.24842900  1
  Co  Co6  1  0.00000002  0.50000000  0.24842900  1
  Ga  Ga7  1  0.66666665  0.33333334  0.50000000  1
  Ga  Ga8  1  0.33333335  0.66666667  0.50000000  1
  Ga  Ga9  1  0.66666665  0.33333334  -0.00000000  1
  Ga  Ga10  1  0.33333335  0.66666667  -0.00000000  1
  Ga  Ga11  1  0.00000000  0.00000000  0.33714400  1
  Ga  Ga12  1  0.00000000  0.00000000  0.66285599  1
