# generated using pymatgen
data_EuGaAu
_symmetry_space_group_name_H-M   'P 1'
_cell_length_a   4.69120407
_cell_length_b   5.84914064
_cell_length_c   6.10215759
_cell_angle_alpha   78.69644928
_cell_angle_beta   67.39418793
_cell_angle_gamma   66.35826111
_symmetry_Int_Tables_number   1
_chemical_formula_structural   EuGaAu
_chemical_formula_sum   'Eu2 Ga2 Au2'
_cell_volume   141.42898957
_cell_formula_units_Z   2
loop_
 _symmetry_equiv_pos_site_id
 _symmetry_equiv_pos_as_xyz
  1  'x, y, z'
loop_
 _atom_site_type_symbol
 _atom_site_label
 _atom_site_symmetry_multiplicity
 _atom_site_fract_x
 _atom_site_fract_y
 _atom_site_fract_z
 _atom_site_occupancy
  Eu  Eu0  1  0.54120401  0.21379599  0.70379599  1
  Eu  Eu1  1  0.45879605  0.78620397  0.29620398  1
  Au  Au2  1  0.83541901  0.21735699  0.11180498  1
  Ga  Ga3  1  0.16458106  0.78264297  0.88819499  1
  Ga  Ga4  1  0.17696703  0.37335999  0.27270599  1
  Au  Au5  1  0.82303304  0.62663998  0.72729398  1
