# generated using pymatgen
data_NaCdTe2
_symmetry_space_group_name_H-M   'P 1'
_cell_length_a   3.30926204
_cell_length_b   3.30926204
_cell_length_c   6.96687889
_cell_angle_alpha   90.00000000
_cell_angle_beta   90.00000000
_cell_angle_gamma   90.00000000
_symmetry_Int_Tables_number   1
_chemical_formula_structural   NaCdTe2
_chemical_formula_sum   'Na1 Cd1 Te2'
_cell_volume   76.29579023
_cell_formula_units_Z   1
loop_
 _symmetry_equiv_pos_site_id
 _symmetry_equiv_pos_as_xyz
  1  'x, y, z'
loop_
 _atom_site_type_symbol
 _atom_site_label
 _atom_site_symmetry_multiplicity
 _atom_site_fract_x
 _atom_site_fract_y
 _atom_site_fract_z
 _atom_site_occupancy
  Te  Te0  1  0.49999999  0.49999999  0.00000000  1
  Te  Te1  1  0.49999999  0.49999999  0.50000001  1
  Na  Na2  1  0.00000000  0.00000000  0.76043701  1
  Cd  Cd3  1  0.00000000  0.00000000  0.23956300  1
