# generated using pymatgen
data_Ba2LiBr4
_symmetry_space_group_name_H-M   'P 1'
_cell_length_a   4.57146311
_cell_length_b   4.65295506
_cell_length_c   9.19193840
_cell_angle_alpha   104.66101074
_cell_angle_beta   90.00000000
_cell_angle_gamma   90.00000000
_symmetry_Int_Tables_number   1
_chemical_formula_structural   Ba2LiBr4
_chemical_formula_sum   'Ba2 Li1 Br4'
_cell_volume   189.15390682
_cell_formula_units_Z   1
loop_
 _symmetry_equiv_pos_site_id
 _symmetry_equiv_pos_as_xyz
  1  'x, y, z'
loop_
 _atom_site_type_symbol
 _atom_site_label
 _atom_site_symmetry_multiplicity
 _atom_site_fract_x
 _atom_site_fract_y
 _atom_site_fract_z
 _atom_site_occupancy
  Ba  Ba0  1  0.24999999  0.09478200  0.18956500  1
  Ba  Ba1  1  0.74999998  0.88916098  0.77832201  1
  Li  Li2  1  0.24999999  0.30617399  0.61234901  1
  Br  Br3  1  0.24999999  0.73180698  0.46361400  1
  Br  Br4  1  0.74999998  0.23169399  0.46338801  1
  Br  Br5  1  0.24999999  0.44990299  0.89980602  1
  Br  Br6  1  0.74999998  0.55647799  0.11295599  1
