# generated using pymatgen
data_PrGePt
_symmetry_space_group_name_H-M   'P 1'
_cell_length_a   4.27151203
_cell_length_b   4.27151203
_cell_length_c   7.97813082
_cell_angle_alpha   105.52752686
_cell_angle_beta   105.52752686
_cell_angle_gamma   90.00000000
_symmetry_Int_Tables_number   1
_chemical_formula_structural   PrGePt
_chemical_formula_sum   'Pr2 Ge2 Pt2'
_cell_volume   134.73229660
_cell_formula_units_Z   2
loop_
 _symmetry_equiv_pos_site_id
 _symmetry_equiv_pos_as_xyz
  1  'x, y, z'
loop_
 _atom_site_type_symbol
 _atom_site_label
 _atom_site_symmetry_multiplicity
 _atom_site_fract_x
 _atom_site_fract_y
 _atom_site_fract_z
 _atom_site_occupancy
  Pr  Pr0  1  0.50000000  0.50000000  1.00000001  1
  Pr  Pr1  1  0.25000000  0.75000000  0.50000001  1
  Ge  Ge2  1  0.83321100  0.33321100  0.66642201  1
  Ge  Ge3  1  0.08321100  0.08321100  0.16642200  1
  Pt  Pt4  1  0.66678900  0.16678900  0.33357801  1
  Pt  Pt5  1  0.91678900  0.91678900  0.83357801  1
