# generated using pymatgen
data_Mg
_symmetry_space_group_name_H-M   'P 1'
_cell_length_a   5.14836216
_cell_length_b   5.72501278
_cell_length_c   6.12814808
_cell_angle_alpha   90.00000000
_cell_angle_beta   90.00000000
_cell_angle_gamma   90.00000000
_symmetry_Int_Tables_number   1
_chemical_formula_structural   Mg
_chemical_formula_sum   Mg8
_cell_volume   180.62372769
_cell_formula_units_Z   8
loop_
 _symmetry_equiv_pos_site_id
 _symmetry_equiv_pos_as_xyz
  1  'x, y, z'
loop_
 _atom_site_type_symbol
 _atom_site_label
 _atom_site_symmetry_multiplicity
 _atom_site_fract_x
 _atom_site_fract_y
 _atom_site_fract_z
 _atom_site_occupancy
  Mg  Mg0  1  0.00000000  0.64844103  0.24999700  1
  Mg  Mg1  1  0.00000000  0.13415301  0.49999999  1
  Mg  Mg2  1  0.00000000  0.64844103  0.75000299  1
  Mg  Mg3  1  0.49999998  0.86584703  -0.00000000  1
  Mg  Mg4  1  0.49999998  0.35155901  0.25000300  1
  Mg  Mg5  1  0.49999998  0.35155901  0.74999699  1
  Mg  Mg6  1  0.00000000  0.16669301  -0.00000000  1
  Mg  Mg7  1  0.49999998  0.83330703  0.49999999  1
