# generated using pymatgen
data_HoAu2
_symmetry_space_group_name_H-M   'P 1'
_cell_length_a   4.66858006
_cell_length_b   4.66858101
_cell_length_c   7.53536415
_cell_angle_alpha   90.00000000
_cell_angle_beta   90.00000000
_cell_angle_gamma   119.99999237
_symmetry_Int_Tables_number   1
_chemical_formula_structural   HoAu2
_chemical_formula_sum   'Ho2 Au4'
_cell_volume   142.23439152
_cell_formula_units_Z   2
loop_
 _symmetry_equiv_pos_site_id
 _symmetry_equiv_pos_as_xyz
  1  'x, y, z'
loop_
 _atom_site_type_symbol
 _atom_site_label
 _atom_site_symmetry_multiplicity
 _atom_site_fract_x
 _atom_site_fract_y
 _atom_site_fract_z
 _atom_site_occupancy
  Ho  Ho0  1  0.00000000  0.00000000  0.00662300  1
  Ho  Ho1  1  0.00000000  0.00000000  0.50662299  1
  Au  Au2  1  0.33333332  0.66666666  0.68642899  1
  Au  Au3  1  0.66666665  0.33333333  0.18642900  1
  Au  Au4  1  0.66666665  0.33333333  0.77594798  1
  Au  Au5  1  0.33333332  0.66666666  0.27594799  1
