# generated using pymatgen
data_Ba3Se5
_symmetry_space_group_name_H-M   'P 1'
_cell_length_a   6.70998240
_cell_length_b   6.70998240
_cell_length_c   6.70998240
_cell_angle_alpha   103.23378754
_cell_angle_beta   112.67711639
_cell_angle_gamma   112.67711639
_symmetry_Int_Tables_number   1
_chemical_formula_structural   Ba3Se5
_chemical_formula_sum   'Ba3 Se5'
_cell_volume   230.52753630
_cell_formula_units_Z   1
loop_
 _symmetry_equiv_pos_site_id
 _symmetry_equiv_pos_as_xyz
  1  'x, y, z'
loop_
 _atom_site_type_symbol
 _atom_site_label
 _atom_site_symmetry_multiplicity
 _atom_site_fract_x
 _atom_site_fract_y
 _atom_site_fract_z
 _atom_site_occupancy
  Ba  Ba0  1  0.50000010  0.75000005  0.25000004  1
  Ba  Ba1  1  0.50000005  0.25000002  0.75000005  1
  Ba  Ba2  1  0.00000006  0.71006005  0.71006002  1
  Se  Se3  1  0.00000003  0.28994002  0.28994001  1
  Se  Se4  1  0.44217004  0.22108501  0.22108503  1
  Se  Se5  1  1.00000007  0.22108501  0.77891509  1
  Se  Se6  1  1.00000013  0.77891505  0.22108507  1
  Se  Se7  1  0.55783010  0.77891505  0.77891506  1
