# generated using pymatgen
data_Na2H2PbNF12
_symmetry_space_group_name_H-M   'P 1'
_cell_length_a   4.97384214
_cell_length_b   7.29338217
_cell_length_c   7.29338264
_cell_angle_alpha   120.00000000
_cell_angle_beta   90.00000000
_cell_angle_gamma   90.00000000
_symmetry_Int_Tables_number   1
_chemical_formula_structural   Na2H2PbNF12
_chemical_formula_sum   'Na2 H2 Pb1 N1 F12'
_cell_volume   229.12928489
_cell_formula_units_Z   1
loop_
 _symmetry_equiv_pos_site_id
 _symmetry_equiv_pos_as_xyz
  1  'x, y, z'
loop_
 _atom_site_type_symbol
 _atom_site_label
 _atom_site_symmetry_multiplicity
 _atom_site_fract_x
 _atom_site_fract_y
 _atom_site_fract_z
 _atom_site_occupancy
  Pb  Pb0  1  -0.00000000  0.32820400  0.00000002  1
  Na  Na1  1  0.00000000  0.67179601  0.67179606  1
  Na  Na2  1  0.00000000  0.00000000  0.32820401  1
  H  H3  1  0.49999999  0.40025401  0.40025404  1
  N  N4  1  0.49999999  0.00000000  0.59974601  1
  H  H5  1  0.49999999  0.59974601  1.00000006  1
  F  F6  1  0.72858398  0.00000000  0.68384901  1
  F  F7  1  0.27141599  0.68384901  1.00000007  1
  F  F8  1  0.72858398  0.31615100  0.31615103  1
  F  F9  1  0.49999999  0.57957001  0.57957005  1
  F  F10  1  0.27141599  0.00000000  0.68384901  1
  F  F11  1  0.27141599  0.31615100  0.31615103  1
  F  F12  1  0.72858398  0.68384901  1.00000007  1
  F  F13  1  0.49999999  0.42043001  0.00000003  1
  F  F14  1  0.49999999  0.00000000  0.42043001  1
  F  F15  1  0.00000000  0.00000000  0.00000000  1
  F  F16  1  -0.00000000  0.33333334  0.66666670  1
  F  F17  1  -0.00000000  0.66666668  0.33333339  1
