# generated using pymatgen
data_Ba2Mg6O9
_symmetry_space_group_name_H-M   'P 1'
_cell_length_a   5.62677383
_cell_length_b   5.62677383
_cell_length_c   8.52346134
_cell_angle_alpha   90.00000000
_cell_angle_beta   90.00000000
_cell_angle_gamma   120.00000000
_symmetry_Int_Tables_number   1
_chemical_formula_structural   Ba2Mg6O9
_chemical_formula_sum   'Ba2 Mg6 O9'
_cell_volume   233.70367723
_cell_formula_units_Z   1
loop_
 _symmetry_equiv_pos_site_id
 _symmetry_equiv_pos_as_xyz
  1  'x, y, z'
loop_
 _atom_site_type_symbol
 _atom_site_label
 _atom_site_symmetry_multiplicity
 _atom_site_fract_x
 _atom_site_fract_y
 _atom_site_fract_z
 _atom_site_occupancy
  Ba  Ba0  1  0.00000000  0.00000000  0.29643799  1
  Ba  Ba1  1  0.00000000  0.00000000  0.70356197  1
  Mg  Mg2  1  0.33333333  0.66666665  0.99999996  1
  Mg  Mg3  1  0.66666668  0.33333333  -0.00000000  1
  Mg  Mg4  1  0.33333333  0.66666665  0.33237399  1
  Mg  Mg5  1  0.66666668  0.33333333  0.33237399  1
  Mg  Mg6  1  0.66666668  0.33333333  0.66762597  1
  Mg  Mg7  1  0.33333333  0.66666665  0.66762597  1
  O  O8  1  0.50000001  0.00000000  0.16486299  1
  O  O9  1  0.50000000  0.49999999  0.16486299  1
  O  O10  1  -0.00000001  0.49999999  0.16486299  1
  O  O11  1  0.50000001  0.00000000  0.83513697  1
  O  O12  1  0.50000000  0.49999999  0.83513697  1
  O  O13  1  -0.00000001  0.49999999  0.83513697  1
  O  O14  1  0.50000001  0.00000000  0.49999998  1
  O  O15  1  0.50000000  0.49999999  0.49999998  1
  O  O16  1  -0.00000001  0.49999999  0.49999998  1
