# generated using pymatgen
data_Ba(Mo3Se4)2
_symmetry_space_group_name_H-M   'P 1'
_cell_length_a   3.58754206
_cell_length_b   9.95255375
_cell_length_c   9.95255375
_cell_angle_alpha   120.00000000
_cell_angle_beta   90.00000000
_cell_angle_gamma   90.00000000
_symmetry_Int_Tables_number   1
_chemical_formula_structural   Ba(Mo3Se4)2
_chemical_formula_sum   'Ba1 Mo6 Se8'
_cell_volume   307.74903238
_cell_formula_units_Z   1
loop_
 _symmetry_equiv_pos_site_id
 _symmetry_equiv_pos_as_xyz
  1  'x, y, z'
loop_
 _atom_site_type_symbol
 _atom_site_label
 _atom_site_symmetry_multiplicity
 _atom_site_fract_x
 _atom_site_fract_y
 _atom_site_fract_z
 _atom_site_occupancy
  Ba  Ba0  1  0.49999999  0.00000000  -0.00000000  1
  Mo  Mo1  1  0.74951399  0.87050901  0.50779896  1
  Mo  Mo2  1  0.74951399  0.49220000  0.36270897  1
  Mo  Mo3  1  0.74951399  0.63729000  0.12948997  1
  Mo  Mo4  1  0.25048600  0.12949100  0.49220098  1
  Mo  Mo5  1  0.25048600  0.50780000  0.63729097  1
  Mo  Mo6  1  0.25048600  0.36271000  0.87050996  1
  Se  Se7  1  0.75010399  0.33333334  0.66666664  1
  Se  Se8  1  0.24989600  0.66666667  0.33333330  1
  Se  Se9  1  0.75175399  0.70009501  0.64948096  1
  Se  Se10  1  0.75175399  0.35051900  0.05061399  1
  Se  Se11  1  0.75175399  0.94938601  0.29990496  1
  Se  Se12  1  0.24824600  0.29990500  0.35051898  1
  Se  Se13  1  0.24824600  0.64948100  0.94938595  1
  Se  Se14  1  0.24824600  0.05061400  0.70009498  1
