# generated using pymatgen
data_Nd5USe8
_symmetry_space_group_name_H-M   'P 1'
_cell_length_a   7.58828449
_cell_length_b   7.58828449
_cell_length_c   7.58828449
_cell_angle_alpha   109.47122192
_cell_angle_beta   109.47122192
_cell_angle_gamma   109.47122192
_symmetry_Int_Tables_number   1
_chemical_formula_structural   Nd5USe8
_chemical_formula_sum   'Nd5 U1 Se8'
_cell_volume   336.36353072
_cell_formula_units_Z   1
loop_
 _symmetry_equiv_pos_site_id
 _symmetry_equiv_pos_as_xyz
  1  'x, y, z'
loop_
 _atom_site_type_symbol
 _atom_site_label
 _atom_site_symmetry_multiplicity
 _atom_site_fract_x
 _atom_site_fract_y
 _atom_site_fract_z
 _atom_site_occupancy
  Nd  Nd0  1  0.12500001  0.25000000  0.37500001  1
  Nd  Nd1  1  0.75000003  0.62500001  0.87500003  1
  Nd  Nd2  1  0.37500004  0.75000001  0.12500005  1
  Nd  Nd3  1  0.87500000  0.12500000  0.75000001  1
  Nd  Nd4  1  0.62500002  0.37500001  0.25000003  1
  U  U5  1  0.25000005  0.87500002  0.62500004  1
  Se  Se6  1  0.00000003  0.50000001  0.14795302  1
  Se  Se7  1  0.64795305  1.00000002  0.00000007  1
  Se  Se8  1  1.00000002  0.50000001  0.64795304  1
  Se  Se9  1  0.35204702  0.35204701  0.85204701  1
  Se  Se10  1  0.85204704  0.85204702  0.35204706  1
  Se  Se11  1  0.50000000  0.14795300  0.50000001  1
  Se  Se12  1  0.14795300  0.00000000  0.00000000  1
  Se  Se13  1  0.50000003  0.64795301  0.50000004  1
