# generated using pymatgen
data_Ba2GeS4
_symmetry_space_group_name_H-M   'P 1'
_cell_length_a   6.69026995
_cell_length_b   6.72289324
_cell_length_c   8.11873341
_cell_angle_alpha   90.00000000
_cell_angle_beta   71.99609375
_cell_angle_gamma   90.00000000
_symmetry_Int_Tables_number   1
_chemical_formula_structural   Ba2GeS4
_chemical_formula_sum   'Ba4 Ge2 S8'
_cell_volume   347.28405259
_cell_formula_units_Z   2
loop_
 _symmetry_equiv_pos_site_id
 _symmetry_equiv_pos_as_xyz
  1  'x, y, z'
loop_
 _atom_site_type_symbol
 _atom_site_label
 _atom_site_symmetry_multiplicity
 _atom_site_fract_x
 _atom_site_fract_y
 _atom_site_fract_z
 _atom_site_occupancy
  Ba  Ba0  1  0.27865000  0.74999997  0.05289100  1
  Ba  Ba1  1  0.72135000  0.24999999  0.94710898  1
  Ba  Ba2  1  0.23574500  0.74999997  0.56715699  1
  Ba  Ba3  1  0.76425500  0.24999999  0.43284299  1
  Ge  Ge4  1  0.72752000  0.74999997  0.20064500  1
  Ge  Ge5  1  0.27248000  0.24999999  0.79935498  1
  S  S6  1  0.90804100  0.74999997  0.91874998  1
  S  S7  1  0.09195900  0.24999999  0.08125000  1
  S  S8  1  0.92719900  0.74999997  0.37517800  1
  S  S9  1  0.07280100  0.24999999  0.62482198  1
  S  S10  1  0.50388400  0.49540398  0.26040100  1
  S  S11  1  0.49611600  0.99540396  0.73959898  1
  S  S12  1  0.49611600  0.50459598  0.73959898  1
  S  S13  1  0.50388400  0.00459600  0.26040100  1
