# generated using pymatgen
data_MnO2
_symmetry_space_group_name_H-M   'P 1'
_cell_length_a   4.72961378
_cell_length_b   4.72961378
_cell_length_c   9.10812759
_cell_angle_alpha   90.00000000
_cell_angle_beta   90.00000000
_cell_angle_gamma   90.93187714
_symmetry_Int_Tables_number   1
_chemical_formula_structural   MnO2
_chemical_formula_sum   'Mn6 O12'
_cell_volume   203.71500430
_cell_formula_units_Z   6
loop_
 _symmetry_equiv_pos_site_id
 _symmetry_equiv_pos_as_xyz
  1  'x, y, z'
loop_
 _atom_site_type_symbol
 _atom_site_label
 _atom_site_symmetry_multiplicity
 _atom_site_fract_x
 _atom_site_fract_y
 _atom_site_fract_z
 _atom_site_occupancy
  Mn  Mn0  1  0.00000000  0.00000000  0.00000000  1
  Mn  Mn1  1  0.00000000  0.00000000  0.67240103  1
  Mn  Mn2  1  0.00000000  0.00000000  0.32759901  1
  Mn  Mn3  1  0.50000000  0.50000002  0.83644804  1
  Mn  Mn4  1  0.50000000  0.50000002  0.50000002  1
  Mn  Mn5  1  0.50000000  0.50000002  0.16355201  1
  O  O6  1  0.19165500  0.19165501  0.50000002  1
  O  O7  1  0.19808600  0.19808601  0.82897704  1
  O  O8  1  0.19808600  0.19808601  0.17102301  1
  O  O9  1  0.30798798  0.69201202  0.66787803  1
  O  O10  1  0.30798798  0.69201202  0.33212201  1
  O  O11  1  0.31002698  0.68997302  1.00000004  1
  O  O12  1  0.68997301  0.31002701  1.00000004  1
  O  O13  1  0.69201201  0.30798801  0.66787803  1
  O  O14  1  0.69201201  0.30798801  0.33212201  1
  O  O15  1  0.80191399  0.80191402  0.82897704  1
  O  O16  1  0.80191399  0.80191402  0.17102301  1
  O  O17  1  0.80834499  0.80834502  0.50000002  1
