# generated using pymatgen
data_Tb(Co2B)6
_symmetry_space_group_name_H-M   'P 1'
_cell_length_a   5.98043489
_cell_length_b   5.98043489
_cell_length_c   5.98043489
_cell_angle_alpha   104.12181091
_cell_angle_beta   104.12181091
_cell_angle_gamma   104.12180328
_symmetry_Int_Tables_number   1
_chemical_formula_structural   Tb(Co2B)6
_chemical_formula_sum   'Tb1 Co12 B6'
_cell_volume   190.39764385
_cell_formula_units_Z   1
loop_
 _symmetry_equiv_pos_site_id
 _symmetry_equiv_pos_as_xyz
  1  'x, y, z'
loop_
 _atom_site_type_symbol
 _atom_site_label
 _atom_site_symmetry_multiplicity
 _atom_site_fract_x
 _atom_site_fract_y
 _atom_site_fract_z
 _atom_site_occupancy
  Tb  Tb0  1  0.00000000  0.00000000  0.00000000  1
  Co  Co1  1  0.13410296  0.86589698  0.49999995  1
  Co  Co2  1  0.86589697  0.49999999  0.13410295  1
  Co  Co3  1  0.49999999  0.13410300  0.86589697  1
  Co  Co4  1  0.13410298  0.49999999  0.86589696  1
  Co  Co5  1  0.49999996  0.86589698  0.13410295  1
  Co  Co6  1  0.86589698  0.13410300  0.49999996  1
  Co  Co7  1  0.18630398  0.45585299  0.45585297  1
  Co  Co8  1  0.45585298  0.45585299  0.18630396  1
  Co  Co9  1  0.45585299  0.18630400  0.45585297  1
  Co  Co10  1  0.81369597  0.54414699  0.54414695  1
  Co  Co11  1  0.54414697  0.54414699  0.81369595  1
  Co  Co12  1  0.54414696  0.81369598  0.54414694  1
  B  B13  1  0.66964698  0.23036199  0.23036197  1
  B  B14  1  0.23036199  0.23036199  0.66964697  1
  B  B15  1  0.23036197  0.66964698  0.23036196  1
  B  B16  1  0.33035296  0.76963798  0.76963795  1
  B  B17  1  0.76963796  0.76963798  0.33035294  1
  B  B18  1  0.76963798  0.33035299  0.76963795  1
