# generated using pymatgen
data_LuAu
_symmetry_space_group_name_H-M   'P 1'
_cell_length_a   4.98559093
_cell_length_b   4.98559093
_cell_length_c   4.98559093
_cell_angle_alpha   60.00000000
_cell_angle_beta   60.00000000
_cell_angle_gamma   60.00000000
_symmetry_Int_Tables_number   1
_chemical_formula_structural   LuAu
_chemical_formula_sum   'Lu2 Au2'
_cell_volume   87.62639161
_cell_formula_units_Z   2
loop_
 _symmetry_equiv_pos_site_id
 _symmetry_equiv_pos_as_xyz
  1  'x, y, z'
loop_
 _atom_site_type_symbol
 _atom_site_label
 _atom_site_symmetry_multiplicity
 _atom_site_fract_x
 _atom_site_fract_y
 _atom_site_fract_z
 _atom_site_occupancy
  Au  Au0  1  0.49999998  0.49999998  0.49999998  1
  Au  Au1  1  0.00000000  0.00000000  0.00000000  1
  Lu  Lu2  1  0.74999997  0.74999997  0.74999997  1
  Lu  Lu3  1  0.24999999  0.24999999  0.24999999  1
