# generated using pymatgen
data_Ga3Au
_symmetry_space_group_name_H-M   'P 1'
_cell_length_a   3.84396601
_cell_length_b   3.84396601
_cell_length_c   5.08788729
_cell_angle_alpha   112.19479370
_cell_angle_beta   112.19479370
_cell_angle_gamma   90.00000000
_symmetry_Int_Tables_number   1
_chemical_formula_structural   Ga3Au
_chemical_formula_sum   'Ga3 Au1'
_cell_volume   63.55182259
_cell_formula_units_Z   1
loop_
 _symmetry_equiv_pos_site_id
 _symmetry_equiv_pos_as_xyz
  1  'x, y, z'
loop_
 _atom_site_type_symbol
 _atom_site_label
 _atom_site_symmetry_multiplicity
 _atom_site_fract_x
 _atom_site_fract_y
 _atom_site_fract_z
 _atom_site_occupancy
  Ga  Ga0  1  0.00000000  0.00000000  0.00000000  1
  Ga  Ga1  1  0.50000003  0.50000001  0.00000004  1
  Au  Au2  1  0.75000002  0.25000001  0.50000002  1
  Ga  Ga3  1  0.25000004  0.75000002  0.50000003  1
