# generated using pymatgen
data_Ga17P
_symmetry_space_group_name_H-M   'P 1'
_cell_length_a   5.37184811
_cell_length_b   7.77997208
_cell_length_c   7.77997160
_cell_angle_alpha   120.00000000
_cell_angle_beta   90.00000000
_cell_angle_gamma   90.00000000
_symmetry_Int_Tables_number   1
_chemical_formula_structural   Ga17P
_chemical_formula_sum   'Ga17 P1'
_cell_volume   281.58557667
_cell_formula_units_Z   1
loop_
 _symmetry_equiv_pos_site_id
 _symmetry_equiv_pos_as_xyz
  1  'x, y, z'
loop_
 _atom_site_type_symbol
 _atom_site_label
 _atom_site_symmetry_multiplicity
 _atom_site_fract_x
 _atom_site_fract_y
 _atom_site_fract_z
 _atom_site_occupancy
  Ga  Ga0  1  0.49999999  0.33333333  0.66666666  1
  Ga  Ga1  1  0.49999999  0.66666665  0.33333332  1
  Ga  Ga2  1  0.00000000  0.66666665  0.33333332  1
  Ga  Ga3  1  0.99999998  0.33333333  0.66666666  1
  Ga  Ga4  1  0.74999999  0.24357599  1.00000000  1
  Ga  Ga5  1  0.74999999  0.75642398  0.75642398  1
  Ga  Ga6  1  0.74999999  0.00000000  0.24357600  1
  Ga  Ga7  1  0.25000000  0.75642398  0.99999999  1
  Ga  Ga8  1  0.25000000  0.24357599  0.24357599  1
  Ga  Ga9  1  0.25000000  0.99999998  0.75642398  1
  Ga  Ga10  1  0.74999999  0.59937599  0.99999999  1
  Ga  Ga11  1  0.74999999  0.40062399  0.40062399  1
  Ga  Ga12  1  0.74999999  0.00000000  0.59937600  1
  Ga  Ga13  1  0.25000000  0.40062399  1.00000000  1
  Ga  Ga14  1  0.25000000  0.59937599  0.59937599  1
  Ga  Ga15  1  0.25000000  0.00000000  0.40062400  1
  P  P16  1  0.49999999  0.00000000  -0.00000000  1
  Ga  Ga17  1  0.00000000  0.00000000  0.00000000  1
