# generated using pymatgen
data_Lu4Ga7Pd
_symmetry_space_group_name_H-M   'P 1'
_cell_length_a   4.26130295
_cell_length_b   6.95269585
_cell_length_c   7.16638613
_cell_angle_alpha   90.00000000
_cell_angle_beta   90.00000000
_cell_angle_gamma   90.00000000
_symmetry_Int_Tables_number   1
_chemical_formula_structural   Lu4Ga7Pd
_chemical_formula_sum   'Lu4 Ga7 Pd1'
_cell_volume   212.32241535
_cell_formula_units_Z   1
loop_
 _symmetry_equiv_pos_site_id
 _symmetry_equiv_pos_as_xyz
  1  'x, y, z'
loop_
 _atom_site_type_symbol
 _atom_site_label
 _atom_site_symmetry_multiplicity
 _atom_site_fract_x
 _atom_site_fract_y
 _atom_site_fract_z
 _atom_site_occupancy
  Lu  Lu0  1  0.25000000  0.48695801  0.69595999  1
  Lu  Lu1  1  0.75000001  0.51304201  0.30403999  1
  Lu  Lu2  1  0.25000000  0.98695802  0.80403999  1
  Lu  Lu3  1  0.75000001  0.01304200  0.19596000  1
  Ga  Ga4  1  0.75000001  0.34614501  0.93125698  1
  Ga  Ga5  1  0.25000000  0.15385500  0.43125699  1
  Pd  Pd6  1  0.75000001  0.84614502  0.56874299  1
  Ga  Ga7  1  0.25000000  0.65385501  0.06874300  1
  Ga  Ga8  1  0.25000000  0.79993502  0.39919599  1
  Ga  Ga9  1  0.75000001  0.70006502  0.89919598  1
  Ga  Ga10  1  0.25000000  0.29993501  0.10080400  1
  Ga  Ga11  1  0.75000001  0.20006500  0.60080399  1
