# generated using pymatgen
data_Co3B
_symmetry_space_group_name_H-M   'P 1'
_cell_length_a   4.40348816
_cell_length_b   5.33304596
_cell_length_c   6.61849689
_cell_angle_alpha   90.00000000
_cell_angle_beta   90.00000000
_cell_angle_gamma   90.00000000
_symmetry_Int_Tables_number   1
_chemical_formula_structural   Co3B
_chemical_formula_sum   'Co12 B4'
_cell_volume   155.42881242
_cell_formula_units_Z   4
loop_
 _symmetry_equiv_pos_site_id
 _symmetry_equiv_pos_as_xyz
  1  'x, y, z'
loop_
 _atom_site_type_symbol
 _atom_site_label
 _atom_site_symmetry_multiplicity
 _atom_site_fract_x
 _atom_site_fract_y
 _atom_site_fract_z
 _atom_site_occupancy
  Co  Co0  1  0.35332599  0.68079501  0.06069600  1
  Co  Co1  1  0.14667399  0.18079500  0.43930401  1
  Co  Co2  1  0.64667398  0.31920500  0.56069601  1
  Co  Co3  1  0.85332597  0.81920501  0.93930401  1
  Co  Co4  1  0.64667398  0.31920500  0.93930401  1
  Co  Co5  1  0.85332597  0.81920501  0.56069601  1
  Co  Co6  1  0.35332599  0.68079501  0.43930401  1
  Co  Co7  1  0.14667399  0.18079500  0.06069600  1
  Co  Co8  1  0.86660497  0.53020100  0.25000000  1
  Co  Co9  1  0.63339498  0.03020100  0.25000000  1
  Co  Co10  1  0.13339500  0.46979900  0.75000001  1
  Co  Co11  1  0.36660499  0.96979901  0.75000001  1
  B  B12  1  0.05579400  0.87754701  0.25000000  1
  B  B13  1  0.44420598  0.37754700  0.25000000  1
  B  B14  1  0.94420597  0.12245300  0.75000001  1
  B  B15  1  0.55579398  0.62245300  0.75000001  1
