# generated using pymatgen
data_Tb3Bi4
_symmetry_space_group_name_H-M   'P 1'
_cell_length_a   8.41266441
_cell_length_b   8.41266441
_cell_length_c   8.41266441
_cell_angle_alpha   109.47122192
_cell_angle_beta   109.47122192
_cell_angle_gamma   109.47122192
_symmetry_Int_Tables_number   1
_chemical_formula_structural   Tb3Bi4
_chemical_formula_sum   'Tb6 Bi8'
_cell_volume   458.33052611
_cell_formula_units_Z   2
loop_
 _symmetry_equiv_pos_site_id
 _symmetry_equiv_pos_as_xyz
  1  'x, y, z'
loop_
 _atom_site_type_symbol
 _atom_site_label
 _atom_site_symmetry_multiplicity
 _atom_site_fract_x
 _atom_site_fract_y
 _atom_site_fract_z
 _atom_site_occupancy
  Bi  Bi0  1  0.35099706  1.00000003  1.00000005  1
  Tb  Tb1  1  1.00000003  0.50000001  0.85099704  1
  Tb  Tb2  1  0.14900301  0.14900300  0.64900300  1
  Tb  Tb3  1  0.64900304  0.64900302  0.14900305  1
  Tb  Tb4  1  0.00000003  0.50000001  0.35099702  1
  Tb  Tb5  1  0.50000005  0.85099702  0.50000005  1
  Bi  Bi6  1  0.85099706  1.00000003  0.00000008  1
  Tb  Tb7  1  0.50000002  0.35099701  0.50000002  1
  Bi  Bi8  1  0.87500004  0.75000002  0.62500005  1
  Bi  Bi9  1  0.37500004  0.62500002  0.75000003  1
  Bi  Bi10  1  0.62500001  0.25000001  0.87500002  1
  Bi  Bi11  1  0.25000002  0.37500001  0.12500003  1
  Bi  Bi12  1  0.75000000  0.12500000  0.37500002  1
  Bi  Bi13  1  0.12500005  0.87500002  0.25000005  1
