# generated using pymatgen
data_Sr3Co2O7
_symmetry_space_group_name_H-M   'P 1'
_cell_length_a   3.85840106
_cell_length_b   3.85840106
_cell_length_c   10.48183250
_cell_angle_alpha   100.60585785
_cell_angle_beta   100.60585785
_cell_angle_gamma   90.00000000
_symmetry_Int_Tables_number   1
_chemical_formula_structural   Sr3Co2O7
_chemical_formula_sum   'Sr3 Co2 O7'
_cell_volume   150.66698935
_cell_formula_units_Z   1
loop_
 _symmetry_equiv_pos_site_id
 _symmetry_equiv_pos_as_xyz
  1  'x, y, z'
loop_
 _atom_site_type_symbol
 _atom_site_label
 _atom_site_symmetry_multiplicity
 _atom_site_fract_x
 _atom_site_fract_y
 _atom_site_fract_z
 _atom_site_occupancy
  Sr  Sr0  1  0.31669599  0.31669600  0.63339202  1
  Sr  Sr1  1  0.68339399  0.68339500  0.36678901  1
  Sr  Sr2  1  0.49518299  0.49518200  0.99036503  1
  Co  Co3  1  0.09629900  0.09629800  0.19259701  1
  Co  Co4  1  0.90281998  0.90282000  0.80564003  1
  O  O5  1  0.19068300  0.19068300  0.38136601  1
  O  O6  1  0.80396899  0.80397000  0.60793902  1
  O  O7  1  0.58998399  0.08998400  0.17996800  1
  O  O8  1  0.08998400  0.58998400  0.17996802  1
  O  O9  1  0.41366800  0.91366800  0.82733603  1
  O  O10  1  0.91366798  0.41366800  0.82733602  1
  O  O11  1  0.00365100  0.00365200  0.00730300  1
