# generated using pymatgen
data_Li2Ag4OF13
_symmetry_space_group_name_H-M   'P 1'
_cell_length_a   5.49420166
_cell_length_b   5.64040232
_cell_length_c   8.38114452
_cell_angle_alpha   89.90245819
_cell_angle_beta   87.43362427
_cell_angle_gamma   89.77959442
_symmetry_Int_Tables_number   1
_chemical_formula_structural   Li2Ag4OF13
_chemical_formula_sum   'Li2 Ag4 O1 F13'
_cell_volume   259.46481748
_cell_formula_units_Z   1
loop_
 _symmetry_equiv_pos_site_id
 _symmetry_equiv_pos_as_xyz
  1  'x, y, z'
loop_
 _atom_site_type_symbol
 _atom_site_label
 _atom_site_symmetry_multiplicity
 _atom_site_fract_x
 _atom_site_fract_y
 _atom_site_fract_z
 _atom_site_occupancy
  Ag  Ag0  1  0.97243000  0.98165803  0.27001005  1
  Li  Li1  1  0.52690400  0.48304901  0.22935402  1
  Li  Li2  1  0.47309600  0.51695101  0.77064600  1
  Ag  Ag3  1  0.02757000  0.01834200  0.72998998  1
  Ag  Ag4  1  -0.00000000  0.50000001  0.50000000  1
  F  F5  1  -0.00000000  0.50000001  0.00000002  1
  Ag  Ag6  1  0.50000000  0.00000000  0.50000000  1
  F  F7  1  0.50000000  0.00000000  0.00000001  1
  F  F8  1  0.84661700  0.83804302  0.55185703  1
  F  F9  1  0.81873400  0.86327602  0.89036102  1
  F  F10  1  0.83445300  0.66135502  0.21580304  1
  F  F11  1  0.68358000  0.36191401  0.61087301  1
  F  F12  1  0.65451900  0.33744401  0.94947700  1
  F  F13  1  0.66336500  0.16130200  0.28425701  1
  F  F14  1  0.33663500  0.83869802  0.71574301  1
  F  F15  1  0.34548100  0.66255602  0.05052303  1
  F  F16  1  0.31642000  0.63808602  0.38912702  1
  F  F17  1  0.16554700  0.33864501  0.78419699  1
  O  O18  1  0.18126600  0.13672400  0.10963901  1
  F  F19  1  0.15338300  0.16195700  0.44814299  1
