# generated using pymatgen
data_Ba4CuO4
_symmetry_space_group_name_H-M   'P 1'
_cell_length_a   5.60577774
_cell_length_b   5.60577774
_cell_length_c   11.55507660
_cell_angle_alpha   90.00000000
_cell_angle_beta   90.00000000
_cell_angle_gamma   112.51763153
_symmetry_Int_Tables_number   1
_chemical_formula_structural   Ba4CuO4
_chemical_formula_sum   'Ba8 Cu2 O8'
_cell_volume   335.43203936
_cell_formula_units_Z   2
loop_
 _symmetry_equiv_pos_site_id
 _symmetry_equiv_pos_as_xyz
  1  'x, y, z'
loop_
 _atom_site_type_symbol
 _atom_site_label
 _atom_site_symmetry_multiplicity
 _atom_site_fract_x
 _atom_site_fract_y
 _atom_site_fract_z
 _atom_site_occupancy
  Ba  Ba0  1  0.64901399  0.35098600  0.43180401  1
  Ba  Ba1  1  0.35098599  0.64901399  0.93180403  1
  Ba  Ba2  1  0.71012599  0.28987400  0.75000003  1
  Ba  Ba3  1  0.35098599  0.64901399  0.56819602  1
  Ba  Ba4  1  0.28987399  0.71012599  0.25000001  1
  Ba  Ba5  1  0.64901399  0.35098600  0.06819600  1
  Ba  Ba6  1  0.92520100  0.07479900  0.25000001  1
  Cu  Cu7  1  0.00000000  0.00000000  0.00000000  1
  Ba  Ba8  1  0.07479898  0.92520099  0.75000003  1
  Cu  Cu9  1  0.00000000  0.00000000  0.50000002  1
  O  O10  1  0.29115300  0.13397000  0.61607302  1
  O  O11  1  0.86602999  0.70884699  0.61607302  1
  O  O12  1  0.13396999  0.29115300  0.38392701  1
  O  O13  1  0.86602999  0.70884699  0.88392703  1
  O  O14  1  0.70884698  0.86602999  0.38392701  1
  O  O15  1  0.13396999  0.29115300  0.11607300  1
  O  O16  1  0.29115300  0.13397000  0.88392703  1
  O  O17  1  0.70884698  0.86602999  0.11607300  1
