# generated using pymatgen
data_CsTe3
_symmetry_space_group_name_H-M   'P 1'
_cell_length_a   5.39034081
_cell_length_b   8.33743954
_cell_length_c   8.33743954
_cell_angle_alpha   120.00000000
_cell_angle_beta   90.00000000
_cell_angle_gamma   90.00000000
_symmetry_Int_Tables_number   1
_chemical_formula_structural   CsTe3
_chemical_formula_sum   'Cs2 Te6'
_cell_volume   324.49816926
_cell_formula_units_Z   2
loop_
 _symmetry_equiv_pos_site_id
 _symmetry_equiv_pos_as_xyz
  1  'x, y, z'
loop_
 _atom_site_type_symbol
 _atom_site_label
 _atom_site_symmetry_multiplicity
 _atom_site_fract_x
 _atom_site_fract_y
 _atom_site_fract_z
 _atom_site_occupancy
  Cs  Cs0  1  0.25000001  0.66666668  0.33333328  1
  Cs  Cs1  1  0.75000003  0.33333334  0.66666663  1
  Te  Te2  1  0.75000003  0.86455902  0.13543995  1
  Te  Te3  1  0.75000003  0.27088101  0.13543998  1
  Te  Te4  1  0.75000003  0.86455902  0.72911793  1
  Te  Te5  1  0.25000001  0.13544100  0.86455996  1
  Te  Te6  1  0.25000001  0.72911902  0.86455993  1
  Te  Te7  1  0.25000001  0.13544100  0.27088198  1
