# generated using pymatgen
data_Ba4La(BiO4)3
_symmetry_space_group_name_H-M   'P 1'
_cell_length_a   6.06614733
_cell_length_b   6.15107727
_cell_length_c   8.63198757
_cell_angle_alpha   90.02909088
_cell_angle_beta   89.93292236
_cell_angle_gamma   89.86668396
_symmetry_Int_Tables_number   1
_chemical_formula_structural   Ba4La(BiO4)3
_chemical_formula_sum   'Ba4 La1 Bi3 O12'
_cell_volume   322.08716071
_cell_formula_units_Z   1
loop_
 _symmetry_equiv_pos_site_id
 _symmetry_equiv_pos_as_xyz
  1  'x, y, z'
loop_
 _atom_site_type_symbol
 _atom_site_label
 _atom_site_symmetry_multiplicity
 _atom_site_fract_x
 _atom_site_fract_y
 _atom_site_fract_z
 _atom_site_occupancy
  Ba  Ba0  1  0.49393390  0.52593251  0.74776121  1
  Ba  Ba1  1  0.50606604  0.47406749  0.25223878  1
  Ba  Ba2  1  0.00911464  0.03536382  0.74564303  1
  Ba  Ba3  1  0.99088530  0.96463618  0.25435696  1
  La  La4  1  -0.00000001  0.50000000  0.99999997  1
  Bi  Bi5  1  0.49999998  0.00000000  0.50000001  1
  Bi  Bi6  1  0.49999998  0.00000000  0.00000001  1
  Bi  Bi7  1  -0.00000001  0.50000000  0.49999998  1
  O  O8  1  0.76513150  0.19933265  0.04293442  1
  O  O9  1  0.71423189  0.71967701  0.46586020  1
  O  O10  1  0.23486845  0.80066735  0.95706556  1
  O  O11  1  0.28576805  0.28032299  0.53413979  1
  O  O12  1  0.70437548  0.73808462  0.03417554  1
  O  O13  1  0.79047241  0.20566989  0.45646229  1
  O  O14  1  0.29562446  0.26191538  0.96582445  1
  O  O15  1  0.20952754  0.79433011  0.54353770  1
  O  O16  1  0.58073077  0.99457866  0.77186734  1
  O  O17  1  0.93853218  0.46490758  0.75682024  1
  O  O18  1  0.41926917  0.00542134  0.22813265  1
  O  O19  1  0.06146776  0.53509242  0.24317975  1
