# generated using pymatgen
data_Co3P
_symmetry_space_group_name_H-M   'P 1'
_cell_length_a   3.24784803
_cell_length_b   3.24784803
_cell_length_c   4.30312014
_cell_angle_alpha   112.17166901
_cell_angle_beta   112.17166901
_cell_angle_gamma   90.00000000
_symmetry_Int_Tables_number   1
_chemical_formula_structural   Co3P
_chemical_formula_sum   'Co3 P1'
_cell_volume   38.38643421
_cell_formula_units_Z   1
loop_
 _symmetry_equiv_pos_site_id
 _symmetry_equiv_pos_as_xyz
  1  'x, y, z'
loop_
 _atom_site_type_symbol
 _atom_site_label
 _atom_site_symmetry_multiplicity
 _atom_site_fract_x
 _atom_site_fract_y
 _atom_site_fract_z
 _atom_site_occupancy
  Co  Co0  1  0.74999999  0.25000000  0.49999998  1
  P  P1  1  0.25000000  0.74999999  0.49999998  1
  Co  Co2  1  0.49999999  0.49999999  -0.00000000  1
  Co  Co3  1  0.00000000  0.00000000  0.00000000  1
