# generated using pymatgen
data_Nd3Ga5Co2
_symmetry_space_group_name_H-M   'P 1'
_cell_length_a   3.69734311
_cell_length_b   7.70944214
_cell_length_c   7.70944214
_cell_angle_alpha   90.00000000
_cell_angle_beta   90.00000000
_cell_angle_gamma   90.00000000
_symmetry_Int_Tables_number   1
_chemical_formula_structural   Nd3Ga5Co2
_chemical_formula_sum   'Nd3 Ga5 Co2'
_cell_volume   219.75342941
_cell_formula_units_Z   1
loop_
 _symmetry_equiv_pos_site_id
 _symmetry_equiv_pos_as_xyz
  1  'x, y, z'
loop_
 _atom_site_type_symbol
 _atom_site_label
 _atom_site_symmetry_multiplicity
 _atom_site_fract_x
 _atom_site_fract_y
 _atom_site_fract_z
 _atom_site_occupancy
  Nd  Nd0  1  0.49999998  0.32996699  0.82996699  1
  Nd  Nd1  1  0.49999998  0.82996699  0.67003299  1
  Nd  Nd2  1  0.49999998  0.17003300  0.32996699  1
  Ga  Ga3  1  0.49999998  0.67003299  0.17003300  1
  Ga  Ga4  1  0.00000000  0.00000000  0.00000000  1
  Ga  Ga5  1  0.00000000  0.49999999  0.49999999  1
  Ga  Ga6  1  0.00000000  0.36801799  0.13198200  1
  Ga  Ga7  1  0.00000000  0.86801798  0.36801799  1
  Co  Co8  1  0.99999997  0.13198200  0.63198199  1
  Co  Co9  1  0.99999997  0.63198199  0.86801798  1
