# generated using pymatgen
data_BaCoO3
_symmetry_space_group_name_H-M   'P 1'
_cell_length_a   5.67929363
_cell_length_b   5.67966509
_cell_length_c   8.07000732
_cell_angle_alpha   90.00000000
_cell_angle_beta   90.08535004
_cell_angle_gamma   90.00000000
_symmetry_Int_Tables_number   1
_chemical_formula_structural   BaCoO3
_chemical_formula_sum   'Ba4 Co4 O12'
_cell_volume   260.30978762
_cell_formula_units_Z   4
loop_
 _symmetry_equiv_pos_site_id
 _symmetry_equiv_pos_as_xyz
  1  'x, y, z'
loop_
 _atom_site_type_symbol
 _atom_site_label
 _atom_site_symmetry_multiplicity
 _atom_site_fract_x
 _atom_site_fract_y
 _atom_site_fract_z
 _atom_site_occupancy
  Ba  Ba0  1  0.99771998  0.49901499  0.25005596  1
  Ba  Ba1  1  0.00228000  0.50098499  0.74994399  1
  Ba  Ba2  1  0.50227999  0.99901498  0.24994398  1
  Ba  Ba3  1  0.49771999  0.00098500  0.75005597  1
  Co  Co4  1  0.00000000  0.00000000  0.49999999  1
  Co  Co5  1  0.49999999  0.49999999  -0.00000002  1
  Co  Co6  1  0.00000000  0.00000000  0.00000000  1
  Co  Co7  1  0.49999999  0.49999999  0.49999997  1
  O  O8  1  0.25681299  0.22355100  0.00411699  1
  O  O9  1  0.74318699  0.77644899  0.99588295  1
  O  O10  1  0.24318700  0.72355099  0.49588298  1
  O  O11  1  0.75681298  0.27644900  0.50411696  1
  O  O12  1  0.22392300  0.74359399  0.00328699  1
  O  O13  1  0.77607698  0.25640600  0.99671295  1
  O  O14  1  0.27607699  0.24359400  0.49671298  1
  O  O15  1  0.72392299  0.75640599  0.50328696  1
  O  O16  1  0.99131098  0.00010300  0.23944096  1
  O  O17  1  0.00868900  0.99989698  0.76055899  1
  O  O18  1  0.50868899  0.50010299  0.26055897  1
  O  O19  1  0.49131099  0.49989699  0.73944097  1
