# generated using pymatgen
data_HoMgCo4
_symmetry_space_group_name_H-M   'P 1'
_cell_length_a   4.96875858
_cell_length_b   4.96875858
_cell_length_c   4.96875858
_cell_angle_alpha   60.00000000
_cell_angle_beta   60.00000000
_cell_angle_gamma   60.00000000
_symmetry_Int_Tables_number   1
_chemical_formula_structural   HoMgCo4
_chemical_formula_sum   'Ho1 Mg1 Co4'
_cell_volume   86.74185207
_cell_formula_units_Z   1
loop_
 _symmetry_equiv_pos_site_id
 _symmetry_equiv_pos_as_xyz
  1  'x, y, z'
loop_
 _atom_site_type_symbol
 _atom_site_label
 _atom_site_symmetry_multiplicity
 _atom_site_fract_x
 _atom_site_fract_y
 _atom_site_fract_z
 _atom_site_occupancy
  Mg  Mg0  1  0.00000000  0.00000000  0.00000000  1
  Ho  Ho1  1  0.25000001  0.25000001  0.25000001  1
  Co  Co2  1  0.62438602  0.62438702  0.12684000  1
  Co  Co3  1  0.62438602  0.62438702  0.62438702  1
  Co  Co4  1  0.62438602  0.12684000  0.62438702  1
  Co  Co5  1  0.12683900  0.62438702  0.62438702  1
