# generated using pymatgen
data_BiMoO4
_symmetry_space_group_name_H-M   'P 1'
_cell_length_a   5.52981615
_cell_length_b   5.52981615
_cell_length_c   6.47470665
_cell_angle_alpha   115.27935791
_cell_angle_beta   115.27935791
_cell_angle_gamma   90.00000000
_symmetry_Int_Tables_number   1
_chemical_formula_structural   BiMoO4
_chemical_formula_sum   'Bi2 Mo2 O8'
_cell_volume   157.80709057
_cell_formula_units_Z   2
loop_
 _symmetry_equiv_pos_site_id
 _symmetry_equiv_pos_as_xyz
  1  'x, y, z'
loop_
 _atom_site_type_symbol
 _atom_site_label
 _atom_site_symmetry_multiplicity
 _atom_site_fract_x
 _atom_site_fract_y
 _atom_site_fract_z
 _atom_site_occupancy
  Bi  Bi0  1  0.49999993  0.49999996  -0.00000008  1
  Bi  Bi1  1  0.00000000  0.00000000  0.00000000  1
  Mo  Mo2  1  0.74999994  0.24999998  0.49999991  1
  Mo  Mo3  1  0.24999993  0.74999994  0.49999990  1
  O  O4  1  0.44507290  0.95305093  0.24872987  1
  O  O5  1  0.80365693  0.29567898  0.24873091  1
  O  O6  1  0.29567895  0.44507397  0.24873093  1
  O  O7  1  0.19634298  0.04694800  0.75126896  1
  O  O8  1  0.95305188  0.80365694  0.24872985  1
  O  O9  1  0.55492691  0.70432195  0.75126987  1
  O  O10  1  0.04694795  0.55492596  0.75126892  1
  O  O11  1  0.70432094  0.19634299  0.75126991  1
