# generated using pymatgen
data_LiAgF8
_symmetry_space_group_name_H-M   'P 1'
_cell_length_a   5.26689005
_cell_length_b   5.99931717
_cell_length_c   7.58228922
_cell_angle_alpha   90.00000000
_cell_angle_beta   90.00000000
_cell_angle_gamma   90.00000000
_symmetry_Int_Tables_number   1
_chemical_formula_structural   LiAgF8
_chemical_formula_sum   'Li2 Ag2 F16'
_cell_volume   239.58323291
_cell_formula_units_Z   2
loop_
 _symmetry_equiv_pos_site_id
 _symmetry_equiv_pos_as_xyz
  1  'x, y, z'
loop_
 _atom_site_type_symbol
 _atom_site_label
 _atom_site_symmetry_multiplicity
 _atom_site_fract_x
 _atom_site_fract_y
 _atom_site_fract_z
 _atom_site_occupancy
  F  F0  1  0.00000000  0.00000000  0.00000000  1
  Ag  Ag1  1  0.50000000  0.49999999  -0.00000000  1
  F  F2  1  0.00000000  0.00000000  0.49999999  1
  Ag  Ag3  1  0.50000000  0.49999999  0.49999999  1
  F  F4  1  0.51482400  0.98553897  0.24999999  1
  F  F5  1  0.48517600  0.01446100  0.74999998  1
  F  F6  1  0.01482400  0.51446099  0.74999998  1
  Li  Li7  1  0.98517599  0.48553899  0.24999999  1
  Li  Li8  1  0.15731300  0.06087600  0.24999999  1
  F  F9  1  0.84268699  0.93912397  0.74999998  1
  F  F10  1  0.65731299  0.43912399  0.74999998  1
  F  F11  1  0.34268700  0.56087598  0.24999999  1
  F  F12  1  0.64500099  0.18291999  0.06422300  1
  F  F13  1  0.35499900  0.81707998  0.93577697  1
  F  F14  1  0.14500100  0.31707999  0.93577697  1
  F  F15  1  0.35499900  0.81707998  0.56422298  1
  F  F16  1  0.85499899  0.68291998  0.06422300  1
  F  F17  1  0.64500099  0.18291999  0.43577699  1
  F  F18  1  0.85499899  0.68291998  0.43577699  1
  F  F19  1  0.14500100  0.31707999  0.56422298  1
