# generated using pymatgen
data_Al2HNF14
_symmetry_space_group_name_H-M   'P 1'
_cell_length_a   6.04644012
_cell_length_b   6.10420465
_cell_length_c   7.43015194
_cell_angle_alpha   66.83984375
_cell_angle_beta   68.31110382
_cell_angle_gamma   89.40077209
_symmetry_Int_Tables_number   1
_chemical_formula_structural   Al2HNF14
_chemical_formula_sum   'Al2 H1 N1 F14'
_cell_volume   231.34714922
_cell_formula_units_Z   1
loop_
 _symmetry_equiv_pos_site_id
 _symmetry_equiv_pos_as_xyz
  1  'x, y, z'
loop_
 _atom_site_type_symbol
 _atom_site_label
 _atom_site_symmetry_multiplicity
 _atom_site_fract_x
 _atom_site_fract_y
 _atom_site_fract_z
 _atom_site_occupancy
  N  N0  1  0.87540097  0.13395500  0.74911805  1
  F  F1  1  0.11871802  0.86632601  0.25489204  1
  F  F2  1  0.26792400  0.59802201  0.85513405  1
  F  F3  1  0.52984899  0.62647301  0.66049205  1
  F  F4  1  0.64906598  0.28247500  0.34542404  1
  F  F5  1  0.51924499  0.47957901  0.22356904  1
  F  F6  1  0.30103601  0.77857901  0.56911305  1
  F  F7  1  0.67084098  0.30127900  0.05542404  1
  F  F8  1  0.36476500  0.66234301  0.70205505  1
  H  H9  1  0.64376298  0.37720201  0.20553204  1
  Al  Al10  1  0.74354197  0.10793700  0.58383305  1
  F  F11  1  0.15594400  0.31417401  0.59184403  1
  F  F12  1  0.30748101  0.72898101  0.10177404  1
  F  F13  1  0.08915200  0.14907400  0.08883001  1
  F  F14  1  0.25144201  0.90846401  0.42000905  1
  F  F15  1  0.83636698  0.68488301  0.41282406  1
  Al  Al16  1  0.67732398  0.26632500  0.91699805  1
  F  F17  1  0.91704298  0.85020501  0.89926208  1
