# generated using pymatgen
data_HoCo3Ge2
_symmetry_space_group_name_H-M   'P 1'
_cell_length_a   4.02031088
_cell_length_b   4.94140387
_cell_length_c   4.94140434
_cell_angle_alpha   60.00000381
_cell_angle_beta   90.00000000
_cell_angle_gamma   90.00000000
_symmetry_Int_Tables_number   1
_chemical_formula_structural   HoCo3Ge2
_chemical_formula_sum   'Ho1 Co3 Ge2'
_cell_volume   85.01411315
_cell_formula_units_Z   1
loop_
 _symmetry_equiv_pos_site_id
 _symmetry_equiv_pos_as_xyz
  1  'x, y, z'
loop_
 _atom_site_type_symbol
 _atom_site_label
 _atom_site_symmetry_multiplicity
 _atom_site_fract_x
 _atom_site_fract_y
 _atom_site_fract_z
 _atom_site_occupancy
  Ho  Ho0  1  0.00000000  0.00000000  0.00000000  1
  Ge  Ge1  1  1.00000003  0.33333334  0.33333335  1
  Ge  Ge2  1  0.00000000  0.66666668  0.66666669  1
  Co  Co3  1  0.50000002  0.00000000  0.50000002  1
  Co  Co4  1  0.50000002  0.50000001  0.00000000  1
  Co  Co5  1  0.50000002  0.50000001  0.50000002  1
