# generated using pymatgen
data_Cu3Sb
_symmetry_space_group_name_H-M   'P 1'
_cell_length_a   4.71022987
_cell_length_b   4.72646618
_cell_length_c   4.73886967
_cell_angle_alpha   89.91324615
_cell_angle_beta   90.00000000
_cell_angle_gamma   90.00000000
_symmetry_Int_Tables_number   1
_chemical_formula_structural   Cu3Sb
_chemical_formula_sum   'Cu6 Sb2'
_cell_volume   105.50011275
_cell_formula_units_Z   2
loop_
 _symmetry_equiv_pos_site_id
 _symmetry_equiv_pos_as_xyz
  1  'x, y, z'
loop_
 _atom_site_type_symbol
 _atom_site_label
 _atom_site_symmetry_multiplicity
 _atom_site_fract_x
 _atom_site_fract_y
 _atom_site_fract_z
 _atom_site_occupancy
  Cu  Cu0  1  0.63674602  0.63089598  0.89080591  1
  Cu  Cu1  1  0.13674600  0.36910399  0.10919397  1
  Sb  Sb2  1  0.36486401  0.86184997  0.38436792  1
  Sb  Sb3  1  0.86486402  0.13814999  0.61563196  1
  Cu  Cu4  1  0.34259901  0.33980299  0.58995595  1
  Cu  Cu5  1  0.84259902  0.66019698  0.41004394  1
  Cu  Cu6  1  0.65579102  0.15417899  0.09627399  1
  Cu  Cu7  1  0.15579100  0.84582097  0.90372590  1
