# generated using pymatgen
data_Cs(CuS)2
_symmetry_space_group_name_H-M   'P 1'
_cell_length_a   3.90730190
_cell_length_b   3.90730190
_cell_length_c   7.07985306
_cell_angle_alpha   106.01834869
_cell_angle_beta   106.01834869
_cell_angle_gamma   90.00000000
_symmetry_Int_Tables_number   1
_chemical_formula_structural   Cs(CuS)2
_chemical_formula_sum   'Cs1 Cu2 S2'
_cell_volume   99.51795756
_cell_formula_units_Z   1
loop_
 _symmetry_equiv_pos_site_id
 _symmetry_equiv_pos_as_xyz
  1  'x, y, z'
loop_
 _atom_site_type_symbol
 _atom_site_label
 _atom_site_symmetry_multiplicity
 _atom_site_fract_x
 _atom_site_fract_y
 _atom_site_fract_z
 _atom_site_occupancy
  Cs  Cs0  1  0.00000000  0.00000000  0.00000000  1
  Cu  Cu1  1  0.75000004  0.25000001  0.50000004  1
  Cu  Cu2  1  0.25000003  0.75000003  0.50000004  1
  S  S3  1  0.65958205  0.65958203  0.31916405  1
  S  S4  1  0.34041802  0.34041801  0.68083603  1
