# generated using pymatgen
data_Bi2IO2
_symmetry_space_group_name_H-M   'P 1'
_cell_length_a   5.71098614
_cell_length_b   5.71493387
_cell_length_c   7.32330275
_cell_angle_alpha   112.96621704
_cell_angle_beta   90.00000000
_cell_angle_gamma   90.00000000
_symmetry_Int_Tables_number   1
_chemical_formula_structural   Bi2IO2
_chemical_formula_sum   'Bi4 I2 O4'
_cell_volume   220.07159589
_cell_formula_units_Z   2
loop_
 _symmetry_equiv_pos_site_id
 _symmetry_equiv_pos_as_xyz
  1  'x, y, z'
loop_
 _atom_site_type_symbol
 _atom_site_label
 _atom_site_symmetry_multiplicity
 _atom_site_fract_x
 _atom_site_fract_y
 _atom_site_fract_z
 _atom_site_occupancy
  Bi  Bi0  1  0.49999999  0.66174202  0.32348403  1
  Bi  Bi1  1  0.00000000  0.16678801  0.33357601  1
  Bi  Bi2  1  0.00000000  0.83160603  0.66321204  1
  Bi  Bi3  1  0.49999999  0.33235801  0.66471603  1
  I  I4  1  0.00000000  0.50256002  0.00512001  1
  I  I5  1  0.49999999  0.99750304  0.99500605  1
  O  O6  1  0.24185399  0.49320702  0.50372203  1
  O  O7  1  0.75814598  0.01051500  0.50372201  1
  O  O8  1  0.24185399  0.01051500  0.50372201  1
  O  O9  1  0.75814598  0.49320702  0.50372203  1
