# generated using pymatgen
data_Ba2GaAu7
_symmetry_space_group_name_H-M   'P 1'
_cell_length_a   4.78457594
_cell_length_b   4.78457594
_cell_length_c   11.36558533
_cell_angle_alpha   90.00000000
_cell_angle_beta   90.00000000
_cell_angle_gamma   90.00000000
_symmetry_Int_Tables_number   1
_chemical_formula_structural   Ba2GaAu7
_chemical_formula_sum   'Ba2 Ga1 Au7'
_cell_volume   260.18287643
_cell_formula_units_Z   1
loop_
 _symmetry_equiv_pos_site_id
 _symmetry_equiv_pos_as_xyz
  1  'x, y, z'
loop_
 _atom_site_type_symbol
 _atom_site_label
 _atom_site_symmetry_multiplicity
 _atom_site_fract_x
 _atom_site_fract_y
 _atom_site_fract_z
 _atom_site_occupancy
  Ba  Ba0  1  0.00000000  0.50000001  0.25967799  1
  Ba  Ba1  1  0.50000001  0.00000000  0.74032198  1
  Au  Au2  1  0.00000000  0.00000000  0.00000000  1
  Au  Au3  1  0.50000001  0.50000001  -0.00000000  1
  Au  Au4  1  0.00000000  0.50000001  0.62791098  1
  Ga  Ga5  1  0.50000001  0.00000000  0.37208899  1
  Au  Au6  1  0.00000000  0.00000000  0.49999999  1
  Au  Au7  1  0.50000001  0.50000001  0.49999999  1
  Au  Au8  1  0.00000000  0.50000001  0.86298198  1
  Au  Au9  1  0.50000001  0.00000000  0.13701800  1
