# generated using pymatgen
data_NaHg3(GeO3)4
_symmetry_space_group_name_H-M   'P 1'
_cell_length_a   5.34825706
_cell_length_b   6.07806921
_cell_length_c   7.55432463
_cell_angle_alpha   90.47283173
_cell_angle_beta   91.02590942
_cell_angle_gamma   91.27336121
_symmetry_Int_Tables_number   1
_chemical_formula_structural   NaHg3(GeO3)4
_chemical_formula_sum   'Na1 Hg3 Ge4 O12'
_cell_volume   245.45981955
_cell_formula_units_Z   1
loop_
 _symmetry_equiv_pos_site_id
 _symmetry_equiv_pos_as_xyz
  1  'x, y, z'
loop_
 _atom_site_type_symbol
 _atom_site_label
 _atom_site_symmetry_multiplicity
 _atom_site_fract_x
 _atom_site_fract_y
 _atom_site_fract_z
 _atom_site_occupancy
  Na  Na0  1  0.49999999  0.00000000  -0.00000001  1
  Hg  Hg1  1  -0.00000000  0.49999998  0.00000000  1
  Hg  Hg2  1  0.49999999  0.00000000  0.50000000  1
  Hg  Hg3  1  -0.00000000  0.49999998  0.50000001  1
  Ge  Ge4  1  0.49847399  0.53568998  0.25307599  1
  Ge  Ge5  1  0.99782999  0.04077100  0.25456998  1
  Ge  Ge6  1  0.50152599  0.46430998  0.74692400  1
  Ge  Ge7  1  0.00217000  0.95922896  0.74543002  1
  O  O8  1  0.16676500  0.57508098  0.24756000  1
  O  O9  1  0.32645400  0.07548100  0.25550800  1
  O  O10  1  0.83323499  0.42491898  0.75243999  1
  O  O11  1  0.67354599  0.92451896  0.74449200  1
  O  O12  1  0.60874099  0.69029697  0.07840399  1
  O  O13  1  0.89748099  0.20444999  0.42856999  1
  O  O14  1  0.39870999  0.29467899  0.57189000  1
  O  O15  1  0.10850600  0.80298797  0.92662502  1
  O  O16  1  0.39125899  0.30970299  0.92159601  1
  O  O17  1  0.10251900  0.79554997  0.57143001  1
  O  O18  1  0.60128999  0.70532097  0.42810999  1
  O  O19  1  0.89149399  0.19701199  0.07337498  1
