# generated using pymatgen
data_Ho(Fe2Mo)4
_symmetry_space_group_name_H-M   'P 1'
_cell_length_a   4.70644999
_cell_length_b   6.43641663
_cell_length_c   6.43641663
_cell_angle_alpha   81.89343262
_cell_angle_beta   68.55480957
_cell_angle_gamma   68.55480957
_symmetry_Int_Tables_number   1
_chemical_formula_structural   Ho(Fe2Mo)4
_chemical_formula_sum   'Ho1 Fe8 Mo4'
_cell_volume   168.90744265
_cell_formula_units_Z   1
loop_
 _symmetry_equiv_pos_site_id
 _symmetry_equiv_pos_as_xyz
  1  'x, y, z'
loop_
 _atom_site_type_symbol
 _atom_site_label
 _atom_site_symmetry_multiplicity
 _atom_site_fract_x
 _atom_site_fract_y
 _atom_site_fract_z
 _atom_site_occupancy
  Ho  Ho0  1  0.00000000  0.00000000  0.00000000  1
  Mo  Mo1  1  0.64105102  0.35894899  0.35894899  1
  Mo  Mo2  1  0.35894905  0.64105099  0.64105097  1
  Fe  Fe3  1  0.50000006  0.77423198  0.22576797  1
  Fe  Fe4  1  0.50000001  0.22576800  0.77423199  1
  Fe  Fe5  1  0.72780105  0.77219898  0.77219897  1
  Fe  Fe6  1  0.27219902  0.22780100  0.22780099  1
  Fe  Fe7  1  0.99999999  0.00000000  0.50000002  1
  Fe  Fe8  1  0.49999999  0.00000000  0.50000001  1
  Fe  Fe9  1  0.50000003  0.49999999  -0.00000002  1
  Fe  Fe10  1  0.00000004  0.49999999  -0.00000003  1
  Mo  Mo11  1  1.00000002  0.35957799  0.64042200  1
  Mo  Mo12  1  0.00000005  0.64042199  0.35957796  1
