# generated using pymatgen
data_Ga
_symmetry_space_group_name_H-M   'P 1'
_cell_length_a   6.70290470
_cell_length_b   6.70290470
_cell_length_c   7.22932482
_cell_angle_alpha   62.38091278
_cell_angle_beta   62.38091278
_cell_angle_gamma   59.99999237
_symmetry_Int_Tables_number   1
_chemical_formula_structural   Ga
_chemical_formula_sum   Ga10
_cell_volume   237.59344014
_cell_formula_units_Z   10
loop_
 _symmetry_equiv_pos_site_id
 _symmetry_equiv_pos_as_xyz
  1  'x, y, z'
loop_
 _atom_site_type_symbol
 _atom_site_label
 _atom_site_symmetry_multiplicity
 _atom_site_fract_x
 _atom_site_fract_y
 _atom_site_fract_z
 _atom_site_occupancy
  Ga  Ga0  1  0.84299998  0.84300000  0.47100005  1
  Ga  Ga1  1  0.65699998  0.65700000  0.02900003  1
  Ga  Ga2  1  0.34299999  0.34300000  0.97100004  1
  Ga  Ga3  1  0.15700000  0.15700000  0.52900002  1
  Ga  Ga4  1  0.56763499  0.25000000  0.25000002  1
  Ga  Ga5  1  0.93236498  0.56763500  0.25000004  1
  Ga  Ga6  1  0.24999998  0.93236500  0.25000003  1
  Ga  Ga7  1  0.75000000  0.06763500  0.75000004  1
  Ga  Ga8  1  0.06763499  0.43236500  0.75000003  1
  Ga  Ga9  1  0.43236498  0.75000000  0.75000005  1
