# generated using pymatgen
data_EuMg2
_symmetry_space_group_name_H-M   'P 1'
_cell_length_a   4.90645599
_cell_length_b   4.90645647
_cell_length_c   7.84293699
_cell_angle_alpha   90.00000000
_cell_angle_beta   90.00000000
_cell_angle_gamma   120.00000000
_symmetry_Int_Tables_number   1
_chemical_formula_structural   EuMg2
_chemical_formula_sum   'Eu2 Mg4'
_cell_volume   163.51033786
_cell_formula_units_Z   2
loop_
 _symmetry_equiv_pos_site_id
 _symmetry_equiv_pos_as_xyz
  1  'x, y, z'
loop_
 _atom_site_type_symbol
 _atom_site_label
 _atom_site_symmetry_multiplicity
 _atom_site_fract_x
 _atom_site_fract_y
 _atom_site_fract_z
 _atom_site_occupancy
  Eu  Eu0  1  0.00000000  0.00000000  0.97715200  1
  Eu  Eu1  1  0.00000000  0.00000000  0.47715200  1
  Mg  Mg2  1  0.66666669  0.33333334  0.66190200  1
  Mg  Mg3  1  0.33333337  0.66666668  0.16190200  1
  Mg  Mg4  1  0.33333337  0.66666668  0.76127600  1
  Mg  Mg5  1  0.66666669  0.33333334  0.26127600  1
