# generated using pymatgen
data_BaLa5O8
_symmetry_space_group_name_H-M   'P 1'
_cell_length_a   7.35405445
_cell_length_b   7.47872257
_cell_length_c   7.35424566
_cell_angle_alpha   119.31728363
_cell_angle_beta   119.83600616
_cell_angle_gamma   60.67951965
_symmetry_Int_Tables_number   1
_chemical_formula_structural   BaLa5O8
_chemical_formula_sum   'Ba1 La5 O8'
_cell_volume   289.28026113
_cell_formula_units_Z   1
loop_
 _symmetry_equiv_pos_site_id
 _symmetry_equiv_pos_as_xyz
  1  'x, y, z'
loop_
 _atom_site_type_symbol
 _atom_site_label
 _atom_site_symmetry_multiplicity
 _atom_site_fract_x
 _atom_site_fract_y
 _atom_site_fract_z
 _atom_site_occupancy
  Ba  Ba0  1  0.50001596  0.50001101  0.50002795  1
  La  La1  1  0.12455297  0.62590201  0.87545198  1
  La  La2  1  0.87545594  0.37408100  0.12455993  1
  La  La3  1  0.49998398  0.00002300  0.00002597  1
  La  La4  1  0.50000798  0.00002900  0.50006397  1
  La  La5  1  0.00001596  0.99979801  0.49982696  1
  O  O6  1  0.26324498  0.20999600  0.73678898  1
  O  O7  1  0.75849396  0.20491400  0.72201895  1
  O  O8  1  0.27795998  0.20494400  0.24147298  1
  O  O9  1  0.75846096  0.20432800  0.24155094  1
  O  O10  1  0.72199293  0.79511201  0.75848893  1
  O  O11  1  0.24154795  0.79570201  0.75847196  1
  O  O12  1  0.73679593  0.79005901  0.26325892  1
  O  O13  1  0.24147195  0.79510401  0.27799095  1
