# generated using pymatgen
data_La3H9O8
_symmetry_space_group_name_H-M   'P 1'
_cell_length_a   3.95947289
_cell_length_b   6.07934999
_cell_length_c   10.02662468
_cell_angle_alpha   90.00000000
_cell_angle_beta   90.00000000
_cell_angle_gamma   90.00000000
_symmetry_Int_Tables_number   1
_chemical_formula_structural   La3H9O8
_chemical_formula_sum   'La3 H9 O8'
_cell_volume   241.35109845
_cell_formula_units_Z   1
loop_
 _symmetry_equiv_pos_site_id
 _symmetry_equiv_pos_as_xyz
  1  'x, y, z'
loop_
 _atom_site_type_symbol
 _atom_site_label
 _atom_site_symmetry_multiplicity
 _atom_site_fract_x
 _atom_site_fract_y
 _atom_site_fract_z
 _atom_site_occupancy
  La  La0  1  0.75000002  0.59971700  0.34096501  1
  La  La1  1  0.25000001  0.40028300  0.65903502  1
  La  La2  1  0.25000001  0.09971700  0.15903501  1
  H  H3  1  0.75000002  0.90028300  0.84096503  1
  H  H4  1  0.75000002  0.37255400  0.03200800  1
  H  H5  1  0.25000001  0.62744600  0.96799203  1
  H  H6  1  0.25000001  0.87255400  0.46799201  1
  H  H7  1  0.75000002  0.12744600  0.53200802  1
  H  H8  1  0.25000001  0.18667400  0.40717701  1
  H  H9  1  0.75000002  0.81332600  0.59282302  1
  O  O10  1  0.75000002  0.68667400  0.09282300  1
  O  O11  1  0.25000001  0.31332600  0.90717703  1
  O  O12  1  0.75000002  0.12962700  0.62920002  1
  O  O13  1  0.25000001  0.87037300  0.37080001  1
  O  O14  1  0.25000001  0.62962700  0.87080003  1
  O  O15  1  0.75000002  0.37037300  0.12920000  1
  O  O16  1  0.25000001  0.34752800  0.39576401  1
  O  O17  1  0.75000002  0.65247200  0.60423602  1
  H  H18  1  0.75000002  0.84752800  0.10423600  1
  H  H19  1  0.25000001  0.15247200  0.89576403  1
