# generated using pymatgen
data_Tb2Co7
_symmetry_space_group_name_H-M   'P 1'
_cell_length_a   4.92911148
_cell_length_b   4.92911148
_cell_length_c   12.33071613
_cell_angle_alpha   78.47057343
_cell_angle_beta   78.47057343
_cell_angle_gamma   60.00000763
_symmetry_Int_Tables_number   1
_chemical_formula_structural   Tb2Co7
_chemical_formula_sum   'Tb4 Co14'
_cell_volume   252.44718988
_cell_formula_units_Z   2
loop_
 _symmetry_equiv_pos_site_id
 _symmetry_equiv_pos_as_xyz
  1  'x, y, z'
loop_
 _atom_site_type_symbol
 _atom_site_label
 _atom_site_symmetry_multiplicity
 _atom_site_fract_x
 _atom_site_fract_y
 _atom_site_fract_z
 _atom_site_occupancy
  Tb  Tb0  1  0.94908200  0.94908199  0.15275404  1
  Tb  Tb1  1  0.05091800  0.05091800  0.84724600  1
  Tb  Tb2  1  0.85230000  0.85229999  0.44310004  1
  Tb  Tb3  1  0.14770000  0.14770000  0.55690001  1
  Co  Co4  1  0.89012099  0.39010900  0.32966103  1
  Co  Co5  1  0.39010900  0.39010900  0.32966102  1
  Co  Co6  1  0.39010900  0.89012099  0.32966103  1
  Co  Co7  1  0.10987900  0.60989099  0.67033902  1
  Co  Co8  1  0.60989100  0.60989099  0.67033903  1
  Co  Co9  1  0.60989100  0.10987900  0.67033902  1
  Co  Co10  1  0.50000000  0.50000000  0.00000002  1
  Co  Co11  1  0.50000000  0.00000000  0.00000001  1
  Co  Co12  1  0.00000000  0.50000000  0.00000001  1
  Co  Co13  1  0.72199100  0.72199099  0.83402703  1
  Co  Co14  1  0.27800900  0.27800900  0.16597301  1
  Co  Co15  1  0.61194700  0.61194699  0.16415903  1
  Co  Co16  1  0.38805300  0.38805300  0.83584102  1
  Co  Co17  1  0.50000000  0.50000000  0.50000002  1
