# generated using pymatgen
data_LuAu
_symmetry_space_group_name_H-M   'P 1'
_cell_length_a   4.18269539
_cell_length_b   4.18269539
_cell_length_c   7.39979935
_cell_angle_alpha   73.58322906
_cell_angle_beta   73.58322906
_cell_angle_gamma   60.00001144
_symmetry_Int_Tables_number   1
_chemical_formula_structural   LuAu
_chemical_formula_sum   'Lu2 Au2'
_cell_volume   105.97666979
_cell_formula_units_Z   2
loop_
 _symmetry_equiv_pos_site_id
 _symmetry_equiv_pos_as_xyz
  1  'x, y, z'
loop_
 _atom_site_type_symbol
 _atom_site_label
 _atom_site_symmetry_multiplicity
 _atom_site_fract_x
 _atom_site_fract_y
 _atom_site_fract_z
 _atom_site_occupancy
  Au  Au0  1  0.49999999  0.49999999  0.49999998  1
  Au  Au1  1  0.00000000  0.00000000  0.00000000  1
  Lu  Lu2  1  0.24611200  0.24611199  0.26166399  1
  Lu  Lu3  1  0.75388799  0.75388798  0.73833597  1
