# generated using pymatgen
data_P2Pt3
_symmetry_space_group_name_H-M   'P 1'
_cell_length_a   3.99884391
_cell_length_b   3.99884439
_cell_length_c   5.12577105
_cell_angle_alpha   90.00000000
_cell_angle_beta   90.00000000
_cell_angle_gamma   120.00000000
_symmetry_Int_Tables_number   1
_chemical_formula_structural   P2Pt3
_chemical_formula_sum   'P2 Pt3'
_cell_volume   70.98372586
_cell_formula_units_Z   1
loop_
 _symmetry_equiv_pos_site_id
 _symmetry_equiv_pos_as_xyz
  1  'x, y, z'
loop_
 _atom_site_type_symbol
 _atom_site_label
 _atom_site_symmetry_multiplicity
 _atom_site_fract_x
 _atom_site_fract_y
 _atom_site_fract_z
 _atom_site_occupancy
  P  P0  1  0.66666671  0.33333335  0.80015799  1
  P  P1  1  0.33333339  0.66666670  0.19984200  1
  Pt  Pt2  1  0.66666671  0.33333335  0.32678300  1
  Pt  Pt3  1  0.33333339  0.66666670  0.67321699  1
  Pt  Pt4  1  0.00000000  0.00000000  0.00000000  1
