# generated using pymatgen
data_Ba3(GaS2)4
_symmetry_space_group_name_H-M   'P 1'
_cell_length_a   3.71796799
_cell_length_b   7.50520611
_cell_length_c   12.94508743
_cell_angle_alpha   81.84658051
_cell_angle_beta   81.74346924
_cell_angle_gamma   75.65898895
_symmetry_Int_Tables_number   1
_chemical_formula_structural   Ba3(GaS2)4
_chemical_formula_sum   'Ba3 Ga4 S8'
_cell_volume   344.20443055
_cell_formula_units_Z   1
loop_
 _symmetry_equiv_pos_site_id
 _symmetry_equiv_pos_as_xyz
  1  'x, y, z'
loop_
 _atom_site_type_symbol
 _atom_site_label
 _atom_site_symmetry_multiplicity
 _atom_site_fract_x
 _atom_site_fract_y
 _atom_site_fract_z
 _atom_site_occupancy
  Ba  Ba0  1  0.00000000  0.00000000  0.00000000  1
  Ga  Ga1  1  0.84525513  0.92806000  0.38142997  1
  Ga  Ga2  1  0.15474501  0.07194000  0.61857001  1
  Ba  Ba3  1  0.82671308  0.54496800  0.80160600  1
  Ba  Ba4  1  0.17328706  0.45503200  0.19839399  1
  Ga  Ga5  1  0.45912412  0.88565200  0.19609998  1
  Ga  Ga6  1  0.54087602  0.11434800  0.80390001  1
  S  S7  1  0.86114402  0.08666400  0.19104799  1
  S  S8  1  0.13885612  0.91333600  0.80895200  1
  S  S9  1  0.79155611  0.83539200  0.58149598  1
  S  S10  1  0.20844402  0.16460800  0.41850400  1
  S  S11  1  0.47728109  0.69443600  0.35100199  1
  S  S12  1  0.52271904  0.30556400  0.64899800  1
  S  S13  1  0.60261710  0.75271400  0.04205197  1
  S  S14  1  0.39738304  0.24728600  0.95794801  1
