# generated using pymatgen
data_Mn3OF5
_symmetry_space_group_name_H-M   'P 1'
_cell_length_a   4.90478086
_cell_length_b   5.87099648
_cell_length_c   8.14827156
_cell_angle_alpha   86.58875275
_cell_angle_beta   88.57727051
_cell_angle_gamma   87.89434814
_symmetry_Int_Tables_number   1
_chemical_formula_structural   Mn3OF5
_chemical_formula_sum   'Mn6 O2 F10'
_cell_volume   234.00303701
_cell_formula_units_Z   2
loop_
 _symmetry_equiv_pos_site_id
 _symmetry_equiv_pos_as_xyz
  1  'x, y, z'
loop_
 _atom_site_type_symbol
 _atom_site_label
 _atom_site_symmetry_multiplicity
 _atom_site_fract_x
 _atom_site_fract_y
 _atom_site_fract_z
 _atom_site_occupancy
  Mn  Mn0  1  0.51460604  0.49113798  0.99316501  1
  Mn  Mn1  1  0.49628302  0.16956899  0.33557099  1
  Mn  Mn2  1  0.51661105  0.82177897  0.66185798  1
  Mn  Mn3  1  0.98739906  0.66771698  0.34504896  1
  Mn  Mn4  1  0.97635504  0.34762099  0.67536498  1
  Mn  Mn5  1  0.99492103  0.01250500  0.99246100  1
  O  O6  1  0.80272805  0.61810598  0.57527197  1
  O  O7  1  0.81083104  0.30281799  0.88672300  1
  F  F8  1  0.80664806  0.96631496  0.22978495  1
  F  F9  1  0.69150805  0.80331197  0.90048598  1
  F  F10  1  0.69604304  0.46596698  0.23007797  1
  F  F11  1  0.70174003  0.11778600  0.56347199  1
  F  F12  1  0.30706805  0.86394897  0.43364498  1
  F  F13  1  0.30617803  0.54264398  0.76817600  1
  F  F14  1  0.30377002  0.20258199  0.10188999  1
  F  F15  1  0.18441502  0.35879999  0.45350500  1
  F  F16  1  0.20473901  0.04530700  0.75216402  1
  F  F17  1  0.19815304  0.70208597  0.10133397  1
