# generated using pymatgen
data_Cs8AuBr3
_symmetry_space_group_name_H-M   'P 1'
_cell_length_a   7.55555296
_cell_length_b   7.55555296
_cell_length_c   8.15482140
_cell_angle_alpha   62.40254211
_cell_angle_beta   62.40254211
_cell_angle_gamma   60.00000763
_symmetry_Int_Tables_number   1
_chemical_formula_structural   Cs8AuBr3
_chemical_formula_sum   'Cs8 Au1 Br3'
_cell_volume   340.63041239
_cell_formula_units_Z   1
loop_
 _symmetry_equiv_pos_site_id
 _symmetry_equiv_pos_as_xyz
  1  'x, y, z'
loop_
 _atom_site_type_symbol
 _atom_site_label
 _atom_site_symmetry_multiplicity
 _atom_site_fract_x
 _atom_site_fract_y
 _atom_site_fract_z
 _atom_site_occupancy
  Cs  Cs0  1  0.80045202  0.80045202  0.59864398  1
  Br  Br1  1  0.19954800  0.19954800  0.40135600  1
  Cs  Cs2  1  0.00000000  0.00000000  0.00000000  1
  Au  Au3  1  0.50000001  0.50000001  -0.00000002  1
  Cs  Cs4  1  0.00000000  0.50000001  -0.00000001  1
  Cs  Cs5  1  0.50000001  0.00000000  -0.00000001  1
  Cs  Cs6  1  0.76963002  0.76963002  0.17785397  1
  Br  Br7  1  0.76963002  0.28288601  0.17785398  1
  Br  Br8  1  0.28288601  0.76963002  0.17785398  1
  Cs  Cs9  1  0.23037001  0.71711402  0.82214601  1
  Cs  Cs10  1  0.23037001  0.23037001  0.82214602  1
  Cs  Cs11  1  0.71711402  0.23037001  0.82214601  1
