# generated using pymatgen
data_PRh2
_symmetry_space_group_name_H-M   'P 1'
_cell_length_a   3.90688992
_cell_length_b   3.90688920
_cell_length_c   9.54012299
_cell_angle_alpha   90.00000000
_cell_angle_beta   90.00000000
_cell_angle_gamma   120.00000763
_symmetry_Int_Tables_number   1
_chemical_formula_structural   PRh2
_chemical_formula_sum   'P3 Rh6'
_cell_volume   126.10922035
_cell_formula_units_Z   3
loop_
 _symmetry_equiv_pos_site_id
 _symmetry_equiv_pos_as_xyz
  1  'x, y, z'
loop_
 _atom_site_type_symbol
 _atom_site_label
 _atom_site_symmetry_multiplicity
 _atom_site_fract_x
 _atom_site_fract_y
 _atom_site_fract_z
 _atom_site_occupancy
  P  P0  1  0.66666668  0.33333333  0.33717400  1
  P  P1  1  0.33333335  0.66666666  0.66282600  1
  P  P2  1  0.00000000  0.00000000  0.00000000  1
  Rh  Rh3  1  0.00000000  0.00000000  0.74467300  1
  Rh  Rh4  1  0.66666668  0.33333333  0.08723000  1
  Rh  Rh5  1  0.33333335  0.66666666  0.41788500  1
  Rh  Rh6  1  0.33333335  0.66666666  0.91277000  1
  Rh  Rh7  1  0.00000000  0.00000000  0.25532700  1
  Rh  Rh8  1  0.66666668  0.33333333  0.58211500  1
