# generated using pymatgen
data_AcHg7
_symmetry_space_group_name_H-M   'P 1'
_cell_length_a   4.82799196
_cell_length_b   6.75436592
_cell_length_c   6.75436544
_cell_angle_alpha   120.00000000
_cell_angle_beta   90.00000000
_cell_angle_gamma   90.00000000
_symmetry_Int_Tables_number   1
_chemical_formula_structural   AcHg7
_chemical_formula_sum   'Ac1 Hg7'
_cell_volume   190.75077431
_cell_formula_units_Z   1
loop_
 _symmetry_equiv_pos_site_id
 _symmetry_equiv_pos_as_xyz
  1  'x, y, z'
loop_
 _atom_site_type_symbol
 _atom_site_label
 _atom_site_symmetry_multiplicity
 _atom_site_fract_x
 _atom_site_fract_y
 _atom_site_fract_z
 _atom_site_occupancy
  Ac  Ac0  1  0.25000000  0.66666666  0.33333331  1
  Hg  Hg1  1  0.75000001  0.33333333  0.66666666  1
  Hg  Hg2  1  0.75000001  0.85608099  0.14391896  1
  Hg  Hg3  1  0.75000001  0.28783800  0.14391899  1
  Hg  Hg4  1  0.75000001  0.85608099  0.71216197  1
  Hg  Hg5  1  0.25000000  0.14391900  0.85608100  1
  Hg  Hg6  1  0.25000000  0.71216199  0.85608098  1
  Hg  Hg7  1  0.25000000  0.14391900  0.28783800  1
