# generated using pymatgen
data_CoSi2
_symmetry_space_group_name_H-M   'P 1'
_cell_length_a   3.11322308
_cell_length_b   3.22755003
_cell_length_c   7.19784164
_cell_angle_alpha   102.95599365
_cell_angle_beta   90.00000000
_cell_angle_gamma   90.00000000
_symmetry_Int_Tables_number   1
_chemical_formula_structural   CoSi2
_chemical_formula_sum   'Co2 Si4'
_cell_volume   70.48331445
_cell_formula_units_Z   2
loop_
 _symmetry_equiv_pos_site_id
 _symmetry_equiv_pos_as_xyz
  1  'x, y, z'
loop_
 _atom_site_type_symbol
 _atom_site_label
 _atom_site_symmetry_multiplicity
 _atom_site_fract_x
 _atom_site_fract_y
 _atom_site_fract_z
 _atom_site_occupancy
  Si  Si0  1  0.24999999  0.30151000  0.60302000  1
  Si  Si1  1  0.74999998  0.69848999  0.39698000  1
  Co  Co2  1  0.74999998  0.53334599  0.06669200  1
  Co  Co3  1  0.24999999  0.46665399  0.93330800  1
  Si  Si4  1  0.74999998  0.91059799  0.82119600  1
  Si  Si5  1  0.24999999  0.08940200  0.17880400  1
