# generated using pymatgen
data_GaS
_symmetry_space_group_name_H-M   'P 1'
_cell_length_a   3.87599993
_cell_length_b   6.34926558
_cell_length_c   16.89362335
_cell_angle_alpha   89.96230316
_cell_angle_beta   96.58734894
_cell_angle_gamma   90.00000000
_symmetry_Int_Tables_number   1
_chemical_formula_structural   GaS
_chemical_formula_sum   'Ga10 S10'
_cell_volume   413.00308807
_cell_formula_units_Z   10
loop_
 _symmetry_equiv_pos_site_id
 _symmetry_equiv_pos_as_xyz
  1  'x, y, z'
loop_
 _atom_site_type_symbol
 _atom_site_label
 _atom_site_symmetry_multiplicity
 _atom_site_fract_x
 _atom_site_fract_y
 _atom_site_fract_z
 _atom_site_occupancy
  S  S0  1  0.13272400  0.99862497  0.26544798  1
  S  S1  1  0.73373901  0.99889097  0.46747797  1
  S  S2  1  0.06642100  0.50028599  0.13284199  1
  S  S3  1  0.66670401  0.50061999  0.33340798  1
  S  S4  1  0.26699700  0.50014599  0.53399397  1
  Ga  Ga5  1  0.86669201  0.50015099  0.73338396  1
  Ga  Ga6  1  0.46664700  0.50017799  0.93329396  1
  S  S7  1  0.53302001  0.00038100  0.06603999  1
  Ga  Ga8  1  0.33369300  0.00054000  0.66738597  1
  Ga  Ga9  1  0.93333801  0.00064700  0.86667596  1
  Ga  Ga10  1  0.06546800  0.12723400  0.13093499  1
  Ga  Ga11  1  0.66666668  0.13223000  0.33333331  1
  S  S12  1  0.26809400  0.12946000  0.53618798  1
  S  S13  1  0.86682201  0.12559600  0.73364397  1
  S  S14  1  0.46655101  0.12560700  0.93310196  1
  Ga  Ga15  1  0.53339900  0.62603698  0.06679799  1
  Ga  Ga16  1  0.13328500  0.62080498  0.26656998  1
  Ga  Ga17  1  0.73333501  0.62073998  0.46666997  1
  Ga  Ga18  1  0.33333334  0.62620298  0.66666663  1
  S  S19  1  0.93336401  0.62562298  0.86672796  1
