# generated using pymatgen
data_TbGa4Co
_symmetry_space_group_name_H-M   'P 1'
_cell_length_a   4.11533594
_cell_length_b   6.55987501
_cell_length_c   7.90346670
_cell_angle_alpha   90.00000000
_cell_angle_beta   105.09083557
_cell_angle_gamma   90.00000000
_symmetry_Int_Tables_number   1
_chemical_formula_structural   TbGa4Co
_chemical_formula_sum   'Tb2 Ga8 Co2'
_cell_volume   206.00472887
_cell_formula_units_Z   2
loop_
 _symmetry_equiv_pos_site_id
 _symmetry_equiv_pos_as_xyz
  1  'x, y, z'
loop_
 _atom_site_type_symbol
 _atom_site_label
 _atom_site_symmetry_multiplicity
 _atom_site_fract_x
 _atom_site_fract_y
 _atom_site_fract_z
 _atom_site_occupancy
  Tb  Tb0  1  0.38179301  0.75000000  0.76358600  1
  Tb  Tb1  1  0.61820701  0.25000000  0.23641401  1
  Ga  Ga2  1  0.00000000  0.00000000  0.00000000  1
  Ga  Ga3  1  0.00000000  0.50000000  -0.00000000  1
  Ga  Ga4  1  0.57177701  0.75000000  0.14355401  1
  Ga  Ga5  1  0.42822301  0.25000000  0.85644600  1
  Ga  Ga6  1  0.18631100  0.94855400  0.37262200  1
  Ga  Ga7  1  0.81368902  0.05144600  0.62737801  1
  Ga  Ga8  1  0.18631100  0.55144600  0.37262200  1
  Ga  Ga9  1  0.81368902  0.44855400  0.62737801  1
  Co  Co10  1  0.72477201  0.75000000  0.44954401  1
  Co  Co11  1  0.27522801  0.25000000  0.55045600  1
