# generated using pymatgen
data_CsBaWN2F
_symmetry_space_group_name_H-M   'P 1'
_cell_length_a   4.33032274
_cell_length_b   4.33032274
_cell_length_c   9.92846584
_cell_angle_alpha   77.40393066
_cell_angle_beta   77.40393066
_cell_angle_gamma   59.99998856
_symmetry_Int_Tables_number   1
_chemical_formula_structural   CsBaWN2F
_chemical_formula_sum   'Cs1 Ba1 W1 N2 F1'
_cell_volume   156.03717933
_cell_formula_units_Z   1
loop_
 _symmetry_equiv_pos_site_id
 _symmetry_equiv_pos_as_xyz
  1  'x, y, z'
loop_
 _atom_site_type_symbol
 _atom_site_label
 _atom_site_symmetry_multiplicity
 _atom_site_fract_x
 _atom_site_fract_y
 _atom_site_fract_z
 _atom_site_occupancy
  Ba  Ba0  1  0.74513399  0.74513400  0.76459803  1
  F  F1  1  0.25486600  0.25486600  0.23540201  1
  W  W2  1  0.49999999  0.50000000  0.50000002  1
  Cs  Cs3  1  0.00000000  0.00000000  0.00000000  1
  N  N4  1  0.56301599  0.56301600  0.31095201  1
  N  N5  1  0.43698399  0.43698400  0.68904803  1
