# generated using pymatgen
data_TaB2
_symmetry_space_group_name_H-M   'P 1'
_cell_length_a   3.14032197
_cell_length_b   3.14032221
_cell_length_c   6.85749292
_cell_angle_alpha   90.00000000
_cell_angle_beta   90.00000000
_cell_angle_gamma   120.00000000
_symmetry_Int_Tables_number   1
_chemical_formula_structural   TaB2
_chemical_formula_sum   'Ta2 B4'
_cell_volume   58.56584152
_cell_formula_units_Z   2
loop_
 _symmetry_equiv_pos_site_id
 _symmetry_equiv_pos_as_xyz
  1  'x, y, z'
loop_
 _atom_site_type_symbol
 _atom_site_label
 _atom_site_symmetry_multiplicity
 _atom_site_fract_x
 _atom_site_fract_y
 _atom_site_fract_z
 _atom_site_occupancy
  Ta  Ta0  1  0.00000000  0.00000000  0.50000001  1
  Ta  Ta1  1  0.00000000  0.00000000  0.00000000  1
  B  B2  1  0.33333338  0.66666671  0.24064000  1
  B  B3  1  0.33333338  0.66666671  0.75936001  1
  B  B4  1  0.66666670  0.33333336  0.24064000  1
  B  B5  1  0.66666670  0.33333336  0.75936001  1
