# generated using pymatgen
data_Ba2EuBiO6
_symmetry_space_group_name_H-M   'P 1'
_cell_length_a   6.06130505
_cell_length_b   6.06130505
_cell_length_c   6.06130457
_cell_angle_alpha   60.00000000
_cell_angle_beta   60.00000000
_cell_angle_gamma   60.00000381
_symmetry_Int_Tables_number   1
_chemical_formula_structural   Ba2EuBiO6
_chemical_formula_sum   'Ba2 Eu1 Bi1 O6'
_cell_volume   157.46477036
_cell_formula_units_Z   1
loop_
 _symmetry_equiv_pos_site_id
 _symmetry_equiv_pos_as_xyz
  1  'x, y, z'
loop_
 _atom_site_type_symbol
 _atom_site_label
 _atom_site_symmetry_multiplicity
 _atom_site_fract_x
 _atom_site_fract_y
 _atom_site_fract_z
 _atom_site_occupancy
  Ba  Ba0  1  0.75000004  0.75000000  0.74999998  1
  Ba  Ba1  1  0.25000001  0.25000000  0.24999999  1
  Bi  Bi2  1  0.00000000  0.00000000  0.00000000  1
  Eu  Eu3  1  0.50000003  0.50000000  0.49999999  1
  O  O4  1  0.22696103  0.77303900  0.77303900  1
  O  O5  1  0.77303904  0.77303900  0.22696098  1
  O  O6  1  0.77303903  0.22696100  0.22696098  1
  O  O7  1  0.22696103  0.77303900  0.22696099  1
  O  O8  1  0.77303903  0.22696100  0.77303899  1
  O  O9  1  0.22696101  0.22696100  0.77303900  1
