# generated using pymatgen
data_Mn5CoSi2B
_symmetry_space_group_name_H-M   'P 1'
_cell_length_a   2.95628595
_cell_length_b   6.20211220
_cell_length_c   6.20211172
_cell_angle_alpha   120.00000000
_cell_angle_beta   90.00000000
_cell_angle_gamma   90.00000000
_symmetry_Int_Tables_number   1
_chemical_formula_structural   Mn5CoSi2B
_chemical_formula_sum   'Mn5 Co1 Si2 B1'
_cell_volume   98.48186742
_cell_formula_units_Z   1
loop_
 _symmetry_equiv_pos_site_id
 _symmetry_equiv_pos_as_xyz
  1  'x, y, z'
loop_
 _atom_site_type_symbol
 _atom_site_label
 _atom_site_symmetry_multiplicity
 _atom_site_fract_x
 _atom_site_fract_y
 _atom_site_fract_z
 _atom_site_occupancy
  Co  Co0  1  0.00000000  0.23517199  -0.00000001  1
  Mn  Mn1  1  -0.00000000  0.76482796  0.76482794  1
  Mn  Mn2  1  0.00000000  0.99999994  0.23517194  1
  Mn  Mn3  1  0.50000001  0.61950796  0.99999994  1
  Mn  Mn4  1  0.50000001  0.38049198  0.38049197  1
  Mn  Mn5  1  0.50000001  0.00000000  0.61950798  1
  Si  Si6  1  0.00000000  0.33333331  0.66666663  1
  Si  Si7  1  0.00000000  0.66666663  0.33333329  1
  B  B8  1  0.50000001  0.00000000  -0.00000000  1
