# generated using pymatgen
data_Mg2Te3Au
_symmetry_space_group_name_H-M   'P 1'
_cell_length_a   3.88536692
_cell_length_b   4.04295206
_cell_length_c   8.01138973
_cell_angle_alpha   75.38484955
_cell_angle_beta   90.00000000
_cell_angle_gamma   90.00000000
_symmetry_Int_Tables_number   1
_chemical_formula_structural   Mg2Te3Au
_chemical_formula_sum   'Mg2 Te3 Au1'
_cell_volume   121.77367601
_cell_formula_units_Z   1
loop_
 _symmetry_equiv_pos_site_id
 _symmetry_equiv_pos_as_xyz
  1  'x, y, z'
loop_
 _atom_site_type_symbol
 _atom_site_label
 _atom_site_symmetry_multiplicity
 _atom_site_fract_x
 _atom_site_fract_y
 _atom_site_fract_z
 _atom_site_occupancy
  Mg  Mg0  1  0.75000002  0.89765198  0.20469601  1
  Mg  Mg1  1  0.25000001  0.10234800  0.79530400  1
  Au  Au2  1  0.75000002  0.25253099  0.49493800  1
  Te  Te3  1  0.25000001  0.74746898  0.50506201  1
  Te  Te4  1  0.75000002  0.55612799  0.88774401  1
  Te  Te5  1  0.25000001  0.44387199  0.11225601  1
