# generated using pymatgen
data_NaMoO3
_symmetry_space_group_name_H-M   'P 1'
_cell_length_a   3.59485006
_cell_length_b   6.01453018
_cell_length_c   6.13573980
_cell_angle_alpha   90.00000000
_cell_angle_beta   90.00000000
_cell_angle_gamma   90.00000000
_symmetry_Int_Tables_number   1
_chemical_formula_structural   NaMoO3
_chemical_formula_sum   'Na2 Mo2 O6'
_cell_volume   132.66288088
_cell_formula_units_Z   2
loop_
 _symmetry_equiv_pos_site_id
 _symmetry_equiv_pos_as_xyz
  1  'x, y, z'
loop_
 _atom_site_type_symbol
 _atom_site_label
 _atom_site_symmetry_multiplicity
 _atom_site_fract_x
 _atom_site_fract_y
 _atom_site_fract_z
 _atom_site_occupancy
  Na  Na0  1  0.00000000  0.15279000  0.28853001  1
  Na  Na1  1  0.00000000  0.84720997  0.78853003  1
  Mo  Mo2  1  0.49999999  0.69083998  0.31856001  1
  Mo  Mo3  1  0.49999999  0.30915999  0.81856003  1
  O  O4  1  0.49999999  0.10670000  0.58558002  1
  O  O5  1  0.49999999  0.58515998  0.69503002  1
  O  O6  1  0.00000000  0.77204998  0.41683001  1
  O  O7  1  0.49999999  0.89329997  0.08558000  1
  O  O8  1  0.00000000  0.22794999  0.91683003  1
  O  O9  1  0.49999999  0.41483999  0.19503001  1
