# generated using pymatgen
data_I
_symmetry_space_group_name_H-M   'P 1'
_cell_length_a   4.60958624
_cell_length_b   4.60958624
_cell_length_c   4.79764748
_cell_angle_alpha   61.28842926
_cell_angle_beta   61.28842926
_cell_angle_gamma   59.99999619
_symmetry_Int_Tables_number   1
_chemical_formula_structural   I
_chemical_formula_sum   I2
_cell_volume   73.45577156
_cell_formula_units_Z   2
loop_
 _symmetry_equiv_pos_site_id
 _symmetry_equiv_pos_as_xyz
  1  'x, y, z'
loop_
 _atom_site_type_symbol
 _atom_site_label
 _atom_site_symmetry_multiplicity
 _atom_site_fract_x
 _atom_site_fract_y
 _atom_site_fract_z
 _atom_site_occupancy
  I  I0  1  0.73278401  0.73278401  0.80164796  1
  I  I1  1  0.26721600  0.26721600  0.19835199  1
