# generated using pymatgen
data_BaLu2(Cu2S5)2
_symmetry_space_group_name_H-M   'P 1'
_cell_length_a   7.24225855
_cell_length_b   7.24225855
_cell_length_c   7.24225855
_cell_angle_alpha   109.47122192
_cell_angle_beta   109.47122192
_cell_angle_gamma   109.47122192
_symmetry_Int_Tables_number   1
_chemical_formula_structural   BaLu2(Cu2S5)2
_chemical_formula_sum   'Ba1 Lu2 Cu4 S10'
_cell_volume   292.41534804
_cell_formula_units_Z   1
loop_
 _symmetry_equiv_pos_site_id
 _symmetry_equiv_pos_as_xyz
  1  'x, y, z'
loop_
 _atom_site_type_symbol
 _atom_site_label
 _atom_site_symmetry_multiplicity
 _atom_site_fract_x
 _atom_site_fract_y
 _atom_site_fract_z
 _atom_site_occupancy
  Ba  Ba0  1  0.00000000  0.00000000  0.00000000  1
  Cu  Cu1  1  0.50000001  0.00000000  0.00000001  1
  Cu  Cu2  1  0.00000000  0.00000000  0.50000001  1
  Cu  Cu3  1  0.00000003  0.50000003  0.00000003  1
  Cu  Cu4  1  0.50000004  0.50000003  0.50000005  1
  S  S5  1  0.49864602  0.15630901  0.34233803  1
  S  S6  1  0.50135407  0.84369105  0.65766207  1
  S  S7  1  0.18602906  0.84369205  0.34233706  1
  S  S8  1  0.81397103  0.15630801  0.65766304  1
  Lu  Lu9  1  0.15630805  0.65766204  0.81397106  1
  S  S10  1  0.84369204  0.34233802  0.18602904  1
  S  S11  1  0.84369206  0.65766304  0.50135507  1
  S  S12  1  0.15630803  0.34233702  0.49864503  1
  S  S13  1  0.34233702  0.18602901  0.84369103  1
  Lu  Lu14  1  0.65766307  0.81397105  0.15630906  1
  S  S15  1  0.65766305  0.50135503  0.84369206  1
  S  S16  1  0.34233704  0.49864503  0.15630804  1
