# generated using pymatgen
data_Mg7F13
_symmetry_space_group_name_H-M   'P 1'
_cell_length_a   4.75226879
_cell_length_b   7.49202824
_cell_length_c   7.49202824
_cell_angle_alpha   60.11396408
_cell_angle_beta   89.87718964
_cell_angle_gamma   89.87718964
_symmetry_Int_Tables_number   1
_chemical_formula_structural   Mg7F13
_chemical_formula_sum   'Mg7 F13'
_cell_volume   231.27393891
_cell_formula_units_Z   1
loop_
 _symmetry_equiv_pos_site_id
 _symmetry_equiv_pos_as_xyz
  1  'x, y, z'
loop_
 _atom_site_type_symbol
 _atom_site_label
 _atom_site_symmetry_multiplicity
 _atom_site_fract_x
 _atom_site_fract_y
 _atom_site_fract_z
 _atom_site_occupancy
  F  F0  1  0.00455603  0.90767299  0.54993899  1
  F  F1  1  0.00455602  0.54993900  0.90767299  1
  Mg  Mg2  1  0.25881101  0.81168699  0.81168700  1
  Mg  Mg3  1  0.26004900  0.37643500  0.81515600  1
  Mg  Mg4  1  0.26004901  0.81515599  0.37643500  1
  Mg  Mg5  1  0.75934497  0.18957900  0.18957902  1
  Mg  Mg6  1  0.76089898  0.62030900  0.18825301  1
  Mg  Mg7  1  0.76089897  0.18825300  0.62030901  1
  Mg  Mg8  1  0.16579900  0.12734400  0.12734400  1
  F  F9  1  0.16647501  0.74874899  0.12200600  1
  F  F10  1  0.16647500  0.12200600  0.74874900  1
  F  F11  1  0.67876499  0.87206299  0.87206300  1
  F  F12  1  0.67115098  0.25038400  0.87665601  1
  F  F13  1  0.67115099  0.87665599  0.25038401  1
  F  F14  1  0.49294600  0.66728200  0.66728200  1
  F  F15  1  0.98895496  0.33177500  0.33177502  1
  F  F16  1  0.50970199  0.45667900  0.45667901  1
  F  F17  1  0.50179598  0.07763100  0.46010401  1
  F  F18  1  0.50179599  0.46010400  0.07763101  1
  F  F19  1  0.00896702  0.55029500  0.55029499  1
