# generated using pymatgen
data_Bi5SeS7
_symmetry_space_group_name_H-M   'P 1'
_cell_length_a   4.16146803
_cell_length_b   4.16146803
_cell_length_c   17.18022346
_cell_angle_alpha   83.04370880
_cell_angle_beta   83.04370880
_cell_angle_gamma   60.00000381
_symmetry_Int_Tables_number   1
_chemical_formula_structural   Bi5SeS7
_chemical_formula_sum   'Bi5 Se1 S7'
_cell_volume   255.13123952
_cell_formula_units_Z   1
loop_
 _symmetry_equiv_pos_site_id
 _symmetry_equiv_pos_as_xyz
  1  'x, y, z'
loop_
 _atom_site_type_symbol
 _atom_site_label
 _atom_site_symmetry_multiplicity
 _atom_site_fract_x
 _atom_site_fract_y
 _atom_site_fract_z
 _atom_site_occupancy
  Se  Se0  1  0.43362498  0.43362497  0.69912497  1
  S  S1  1  0.56637498  0.56637497  0.30087499  1
  S  S2  1  0.68162598  0.68162596  0.95512195  1
  S  S3  1  0.95035297  0.95035294  0.14894100  1
  Bi  Bi4  1  0.04964700  0.04964700  0.85105895  1
  Bi  Bi5  1  0.31837399  0.31837398  0.04487800  1
  S  S6  1  0.18513199  0.18513199  0.44460398  1
  S  S7  1  0.81486797  0.81486795  0.55539598  1
  Bi  Bi8  1  0.13524000  0.13523999  0.59427997  1
  Bi  Bi9  1  0.73347897  0.73347896  0.79956296  1
  Bi  Bi10  1  0.86475997  0.86475995  0.40571999  1
  S  S11  1  0.26652099  0.26652098  0.20043699  1
  S  S12  1  0.00000000  0.00000000  0.00000000  1
