# generated using pymatgen
data_Cs2GeF4
_symmetry_space_group_name_H-M   'P 1'
_cell_length_a   6.35799503
_cell_length_b   6.35799408
_cell_length_c   8.02292728
_cell_angle_alpha   90.00444794
_cell_angle_beta   90.00444031
_cell_angle_gamma   60.00237656
_symmetry_Int_Tables_number   1
_chemical_formula_structural   Cs2GeF4
_chemical_formula_sum   'Cs4 Ge2 F8'
_cell_volume   280.87571393
_cell_formula_units_Z   2
loop_
 _symmetry_equiv_pos_site_id
 _symmetry_equiv_pos_as_xyz
  1  'x, y, z'
loop_
 _atom_site_type_symbol
 _atom_site_label
 _atom_site_symmetry_multiplicity
 _atom_site_fract_x
 _atom_site_fract_y
 _atom_site_fract_z
 _atom_site_occupancy
  Cs  Cs0  1  0.00000000  0.00000000  0.49999998  1
  Cs  Cs1  1  0.33333334  0.33328165  0.16861300  1
  Cs  Cs2  1  0.66666668  0.66666664  0.83138697  1
  Cs  Cs3  1  0.00000000  0.00000000  0.00000000  1
  Ge  Ge4  1  0.33333334  0.33333332  0.72365398  1
  Ge  Ge5  1  0.66666668  0.66666664  0.27634599  1
  F  F6  1  0.17847802  0.64301397  0.80462099  1
  F  F7  1  0.64301400  0.17847799  0.80462096  1
  F  F8  1  0.17848600  0.17848499  0.80463597  1
  F  F9  1  0.82152201  0.35698598  0.19537898  1
  F  F10  1  0.35698602  0.82152196  0.19537901  1
  F  F11  1  0.82151402  0.82151496  0.19536400  1
  F  F12  1  0.33333334  0.33327265  0.49864098  1
  F  F13  1  0.66666668  0.66666664  0.50135899  1
