# generated using pymatgen
data_Cs13BiBrF5
_symmetry_space_group_name_H-M   'P 1'
_cell_length_a   7.75510693
_cell_length_b   8.81433105
_cell_length_c   11.48856354
_cell_angle_alpha   90.00000000
_cell_angle_beta   91.37527466
_cell_angle_gamma   90.00000000
_symmetry_Int_Tables_number   1
_chemical_formula_structural   Cs13BiBrF5
_chemical_formula_sum   'Cs13 Bi1 Br1 F5'
_cell_volume   785.08694886
_cell_formula_units_Z   1
loop_
 _symmetry_equiv_pos_site_id
 _symmetry_equiv_pos_as_xyz
  1  'x, y, z'
loop_
 _atom_site_type_symbol
 _atom_site_label
 _atom_site_symmetry_multiplicity
 _atom_site_fract_x
 _atom_site_fract_y
 _atom_site_fract_z
 _atom_site_occupancy
  Bi  Bi0  1  0.56915600  0.40284900  0.44232197  1
  Cs  Cs1  1  0.54647400  0.12818700  0.76853297  1
  Cs  Cs2  1  0.95352601  0.62818700  0.73146695  1
  Cs  Cs3  1  0.06915600  0.09715100  0.94232199  1
  Cs  Cs4  1  0.93084401  0.90284899  0.05767796  1
  Cs  Cs5  1  0.45352600  0.87181299  0.23146698  1
  Cs  Cs6  1  0.04647400  0.37181300  0.26853300  1
  F  F7  1  0.43084400  0.59715100  0.55767798  1
  Cs  Cs8  1  0.14645400  0.99139399  0.73486699  1
  Cs  Cs9  1  0.35354600  0.49139400  0.76513298  1
  Cs  Cs10  1  0.14543100  0.69940200  0.45600499  1
  Cs  Cs11  1  0.64543101  0.80059800  0.95600496  1
  F  F12  1  0.64645401  0.50860600  0.23486697  1
  F  F13  1  0.85477701  0.33002100  0.91911096  1
  Cs  Cs14  1  0.85354601  0.00860600  0.26513296  1
  Cs  Cs15  1  0.64522301  0.83002099  0.58088897  1
  F  F16  1  0.35477700  0.16997900  0.41911098  1
  F  F17  1  0.85456901  0.30059800  0.54399496  1
  Cs  Cs18  1  0.35456900  0.19940200  0.04399499  1
  Br  Br19  1  0.14522300  0.66997900  0.08088899  1
