# generated using pymatgen
data_HoCo3
_symmetry_space_group_name_H-M   'P 1'
_cell_length_a   5.01168966
_cell_length_b   5.01168966
_cell_length_c   8.69435024
_cell_angle_alpha   73.24886322
_cell_angle_beta   73.24886322
_cell_angle_gamma   60.00000381
_symmetry_Int_Tables_number   1
_chemical_formula_structural   HoCo3
_chemical_formula_sum   'Ho3 Co9'
_cell_volume   178.33896949
_cell_formula_units_Z   3
loop_
 _symmetry_equiv_pos_site_id
 _symmetry_equiv_pos_as_xyz
  1  'x, y, z'
loop_
 _atom_site_type_symbol
 _atom_site_label
 _atom_site_symmetry_multiplicity
 _atom_site_fract_x
 _atom_site_fract_y
 _atom_site_fract_z
 _atom_site_occupancy
  Ho  Ho0  1  0.86108596  0.86108600  0.41674203  1
  Ho  Ho1  1  0.13891399  0.13891400  0.58325800  1
  Ho  Ho2  1  0.00000000  0.00000000  0.00000000  1
  Co  Co3  1  0.91778997  0.41922700  0.24375602  1
  Co  Co4  1  0.41922698  0.41922700  0.24375601  1
  Co  Co5  1  0.41922696  0.91779000  0.24375602  1
  Co  Co6  1  0.08220998  0.58077300  0.75624401  1
  Co  Co7  1  0.58077297  0.58077300  0.75624402  1
  Co  Co8  1  0.58077299  0.08221000  0.75624401  1
  Co  Co9  1  0.66705997  0.66706000  0.99882002  1
  Co  Co10  1  0.33293998  0.33294000  0.00118001  1
  Co  Co11  1  0.49999998  0.50000000  0.50000001  1
