# generated using pymatgen
data_NaCu3Hg3O7
_symmetry_space_group_name_H-M   'P 1'
_cell_length_a   5.33513212
_cell_length_b   5.33841801
_cell_length_c   6.84592581
_cell_angle_alpha   90.00000000
_cell_angle_beta   112.93318939
_cell_angle_gamma   90.00000000
_symmetry_Int_Tables_number   1
_chemical_formula_structural   NaCu3Hg3O7
_chemical_formula_sum   'Na1 Cu3 Hg3 O7'
_cell_volume   179.56870018
_cell_formula_units_Z   1
loop_
 _symmetry_equiv_pos_site_id
 _symmetry_equiv_pos_as_xyz
  1  'x, y, z'
loop_
 _atom_site_type_symbol
 _atom_site_label
 _atom_site_symmetry_multiplicity
 _atom_site_fract_x
 _atom_site_fract_y
 _atom_site_fract_z
 _atom_site_occupancy
  O  O0  1  0.34637800  0.00000000  0.69275602  1
  O  O1  1  0.15362200  0.50000000  0.30724401  1
  O  O2  1  0.84637800  0.50000000  0.69275605  1
  O  O3  1  0.65362200  0.00000000  0.30724403  1
  O  O4  1  0.00000000  0.00000000  0.00000000  1
  O  O5  1  0.50000000  0.50000000  0.00000002  1
  Hg  Hg6  1  0.66593800  0.50000000  0.33187603  1
  Hg  Hg7  1  0.83406200  0.00000000  0.66812405  1
  Hg  Hg8  1  0.33406200  0.50000000  0.66812402  1
  Na  Na9  1  0.16593800  0.00000000  0.33187601  1
  Cu  Cu10  1  0.81888100  0.31869600  0.00000004  1
  Cu  Cu11  1  0.68111900  0.81869600  0.00000003  1
  O  O12  1  0.18111900  0.68130400  1.00000002  1
  Cu  Cu13  1  0.31888100  0.18130400  0.00000001  1
