# generated using pymatgen
data_Hg
_symmetry_space_group_name_H-M   'P 1'
_cell_length_a   3.70719409
_cell_length_b   6.27503777
_cell_length_c   6.87942696
_cell_angle_alpha   117.13397980
_cell_angle_beta   105.63098145
_cell_angle_gamma   90.00000000
_symmetry_Int_Tables_number   1
_chemical_formula_structural   Hg
_chemical_formula_sum   Hg4
_cell_volume   135.73722452
_cell_formula_units_Z   4
loop_
 _symmetry_equiv_pos_site_id
 _symmetry_equiv_pos_as_xyz
  1  'x, y, z'
loop_
 _atom_site_type_symbol
 _atom_site_label
 _atom_site_symmetry_multiplicity
 _atom_site_fract_x
 _atom_site_fract_y
 _atom_site_fract_z
 _atom_site_occupancy
  Hg  Hg0  1  0.49999998  0.85048705  0.00000003  1
  Hg  Hg1  1  0.73339897  0.72608704  0.46679800  1
  Hg  Hg2  1  0.26659999  0.25928801  0.53320099  1
  Hg  Hg3  1  -0.00000000  0.33080302  0.00000001  1
