# generated using pymatgen
data_HoCrO3
_symmetry_space_group_name_H-M   'P 1'
_cell_length_a   5.33250904
_cell_length_b   5.62406397
_cell_length_c   7.69540882
_cell_angle_alpha   89.99987030
_cell_angle_beta   90.07292938
_cell_angle_gamma   89.99988556
_symmetry_Int_Tables_number   1
_chemical_formula_structural   HoCrO3
_chemical_formula_sum   'Ho4 Cr4 O12'
_cell_volume   230.78798596
_cell_formula_units_Z   4
loop_
 _symmetry_equiv_pos_site_id
 _symmetry_equiv_pos_as_xyz
  1  'x, y, z'
loop_
 _atom_site_type_symbol
 _atom_site_label
 _atom_site_symmetry_multiplicity
 _atom_site_fract_x
 _atom_site_fract_y
 _atom_site_fract_z
 _atom_site_occupancy
  Ho  Ho0  1  0.51833601  0.56702300  0.24997200  1
  Ho  Ho1  1  0.98165200  0.06702800  0.25002102  1
  Ho  Ho2  1  0.48165100  0.43295600  0.75002698  1
  Ho  Ho3  1  0.01833801  0.93297001  0.74997196  1
  Cr  Cr4  1  0.99998701  0.50000300  0.50004100  1
  Cr  Cr5  1  0.50003200  0.00006700  0.99999398  1
  Cr  Cr6  1  0.00001800  0.50004300  0.00001599  1
  Cr  Cr7  1  0.50003001  0.99999801  0.49999198  1
  O  O8  1  0.38800601  0.95952001  0.24869598  1
  O  O9  1  0.11198800  0.45952500  0.25129599  1
  O  O10  1  0.61198700  0.04046300  0.75129799  1
  O  O11  1  0.88800701  0.54046900  0.74869399  1
  O  O12  1  0.80585501  0.80436600  0.05786900  1
  O  O13  1  0.69414200  0.30437600  0.44212800  1
  O  O14  1  0.19414800  0.19560700  0.94213097  1
  O  O15  1  0.30584701  0.69561600  0.55786698  1
  O  O16  1  0.19146000  0.19754700  0.55765598  1
  O  O17  1  0.30852901  0.69753200  0.94233797  1
  O  O18  1  0.80852701  0.80245200  0.44233599  1
  O  O19  1  0.69146100  0.30243900  0.05765701  1
