# generated using pymatgen
data_Zr2CuF12
_symmetry_space_group_name_H-M   'P 1'
_cell_length_a   5.75233746
_cell_length_b   5.75233746
_cell_length_c   7.89395571
_cell_angle_alpha   69.25351715
_cell_angle_beta   69.25351715
_cell_angle_gamma   72.86421967
_symmetry_Int_Tables_number   1
_chemical_formula_structural   Zr2CuF12
_chemical_formula_sum   'Zr2 Cu1 F12'
_cell_volume   224.11564020
_cell_formula_units_Z   1
loop_
 _symmetry_equiv_pos_site_id
 _symmetry_equiv_pos_as_xyz
  1  'x, y, z'
loop_
 _atom_site_type_symbol
 _atom_site_label
 _atom_site_symmetry_multiplicity
 _atom_site_fract_x
 _atom_site_fract_y
 _atom_site_fract_z
 _atom_site_occupancy
  F  F0  1  0.00000000  0.00000000  0.00000000  1
  Zr  Zr1  1  0.49337300  0.49337301  0.23655098  1
  Zr  Zr2  1  0.50662700  0.50662701  0.76344897  1
  Cu  Cu3  1  0.00000000  0.00000000  0.49999999  1
  F  F4  1  0.18906799  0.77858502  0.31239398  1
  F  F5  1  0.22141500  0.81093202  0.68760597  1
  F  F6  1  0.81093201  0.22141500  0.68760597  1
  F  F7  1  0.77858501  0.18906800  0.31239398  1
  F  F8  1  0.50000000  0.50000001  0.49999997  1
  F  F9  1  0.67114101  0.32885901  -0.00000001  1
  F  F10  1  0.32885900  0.67114101  0.99999996  1
  F  F11  1  0.75382001  0.75382002  0.64840796  1
  F  F12  1  0.24618000  0.24618000  0.35159198  1
  F  F13  1  0.73178600  0.73178601  0.11006898  1
  F  F14  1  0.26821400  0.26821401  0.88993097  1
