# generated using pymatgen
data_Bi
_symmetry_space_group_name_H-M   'P 1'
_cell_length_a   8.20592213
_cell_length_b   8.20592213
_cell_length_c   8.20592213
_cell_angle_alpha   109.72898865
_cell_angle_beta   109.34249115
_cell_angle_gamma   109.34249115
_symmetry_Int_Tables_number   1
_chemical_formula_structural   Bi
_chemical_formula_sum   Bi14
_cell_volume   425.35709453
_cell_formula_units_Z   14
loop_
 _symmetry_equiv_pos_site_id
 _symmetry_equiv_pos_as_xyz
  1  'x, y, z'
loop_
 _atom_site_type_symbol
 _atom_site_label
 _atom_site_symmetry_multiplicity
 _atom_site_fract_x
 _atom_site_fract_y
 _atom_site_fract_z
 _atom_site_occupancy
  Bi  Bi0  1  0.87542399  0.25042400  0.87499999  1
  Bi  Bi1  1  0.12457600  0.99957602  0.37500006  1
  Bi  Bi2  1  0.37542399  0.12500000  0.00042400  1
  Bi  Bi3  1  0.62457599  0.62500001  0.74957602  1
  Bi  Bi4  1  0.49999999  0.75000001  0.25000004  1
  Bi  Bi5  1  -0.00000000  0.50000001  0.50000003  1
  Bi  Bi6  1  0.24945000  0.37897201  0.77934802  1
  Bi  Bi7  1  0.25055000  0.37952201  0.27989802  1
  Bi  Bi8  1  0.59962499  0.22065300  0.47010300  1
  Bi  Bi9  1  0.74944999  0.02934800  0.12897198  1
  Bi  Bi10  1  0.40037499  0.87047701  0.62102705  1
  Bi  Bi11  1  0.09962500  0.72010301  0.97065304  1
  Bi  Bi12  1  0.75054999  0.52989801  0.12952202  1
  Bi  Bi13  1  0.90037499  0.87102701  0.62047703  1
