# generated using pymatgen
data_BaS3
_symmetry_space_group_name_H-M   'P 1'
_cell_length_a   4.39163303
_cell_length_b   4.39483213
_cell_length_c   13.09417057
_cell_angle_alpha   99.66088104
_cell_angle_beta   90.00000000
_cell_angle_gamma   90.00000000
_symmetry_Int_Tables_number   1
_chemical_formula_structural   BaS3
_chemical_formula_sum   'Ba2 S6'
_cell_volume   249.13984722
_cell_formula_units_Z   2
loop_
 _symmetry_equiv_pos_site_id
 _symmetry_equiv_pos_as_xyz
  1  'x, y, z'
loop_
 _atom_site_type_symbol
 _atom_site_label
 _atom_site_symmetry_multiplicity
 _atom_site_fract_x
 _atom_site_fract_y
 _atom_site_fract_z
 _atom_site_occupancy
  Ba  Ba0  1  0.00000000  0.83085297  0.66170602  1
  Ba  Ba1  1  0.50000000  0.16658099  0.33316201  1
  S  S2  1  0.00000000  0.42904599  0.85809202  1
  S  S3  1  0.50000000  0.57617998  0.15236000  1
  S  S4  1  0.00000000  0.70155898  0.40311801  1
  S  S5  1  0.50000000  0.29031999  0.58064002  1
  S  S6  1  0.00000000  0.07623100  0.15246200  1
  S  S7  1  0.50000000  0.92922997  0.85846002  1
