# generated using pymatgen
data_Tb(SiRh)2
_symmetry_space_group_name_H-M   'P 1'
_cell_length_a   4.17889977
_cell_length_b   4.17889977
_cell_length_c   5.61613035
_cell_angle_alpha   111.84175873
_cell_angle_beta   111.84175873
_cell_angle_gamma   90.00000000
_symmetry_Int_Tables_number   1
_chemical_formula_structural   Tb(SiRh)2
_chemical_formula_sum   'Tb1 Si2 Rh2'
_cell_volume   83.40268788
_cell_formula_units_Z   1
loop_
 _symmetry_equiv_pos_site_id
 _symmetry_equiv_pos_as_xyz
  1  'x, y, z'
loop_
 _atom_site_type_symbol
 _atom_site_label
 _atom_site_symmetry_multiplicity
 _atom_site_fract_x
 _atom_site_fract_y
 _atom_site_fract_z
 _atom_site_occupancy
  Tb  Tb0  1  0.00000000  0.00000000  0.00000000  1
  Rh  Rh1  1  0.37224203  0.37224202  0.74448399  1
  Rh  Rh2  1  0.62775804  0.62775804  0.25551601  1
  Si  Si3  1  0.25000002  0.75000005  0.50000000  1
  Si  Si4  1  0.75000005  0.25000002  0.50000000  1
