# generated using pymatgen
data_Sr4HoLu(MoO6)2
_symmetry_space_group_name_H-M   'P 1'
_cell_length_a   5.86665583
_cell_length_b   5.93425512
_cell_length_c   8.33181858
_cell_angle_alpha   90.00000000
_cell_angle_beta   89.76809692
_cell_angle_gamma   90.00000000
_symmetry_Int_Tables_number   1
_chemical_formula_structural   Sr4HoLu(MoO6)2
_chemical_formula_sum   'Sr4 Ho1 Lu1 Mo2 O12'
_cell_volume   290.06349240
_cell_formula_units_Z   1
loop_
 _symmetry_equiv_pos_site_id
 _symmetry_equiv_pos_as_xyz
  1  'x, y, z'
loop_
 _atom_site_type_symbol
 _atom_site_label
 _atom_site_symmetry_multiplicity
 _atom_site_fract_x
 _atom_site_fract_y
 _atom_site_fract_z
 _atom_site_occupancy
  Sr  Sr0  1  0.50838201  0.53498599  0.25035200  1
  Sr  Sr1  1  0.99161803  0.03498600  0.24964801  1
  Sr  Sr2  1  0.49161801  0.46501399  0.74964798  1
  Sr  Sr3  1  0.00838200  0.96501398  0.75035197  1
  Ho  Ho4  1  0.50000001  0.00000000  0.99999997  1
  Lu  Lu5  1  0.00000000  0.49999999  0.49999998  1
  Mo  Mo6  1  0.00000000  0.49999999  -0.00000000  1
  Mo  Mo7  1  0.50000001  0.00000000  0.49999999  1
  O  O8  1  0.42142501  0.97715698  0.26475300  1
  O  O9  1  0.07857500  0.47715699  0.23524699  1
  O  O10  1  0.57857502  0.02284300  0.73524698  1
  O  O11  1  0.92142503  0.52284299  0.76475299  1
  O  O12  1  0.72718802  0.30041799  0.04025802  1
  O  O13  1  0.77281202  0.80041798  0.45974200  1
  O  O14  1  0.27281201  0.69958199  0.95974197  1
  O  O15  1  0.22718801  0.19958200  0.54025798  1
  O  O16  1  0.30367901  0.72622398  0.54318899  1
  O  O17  1  0.19632101  0.22622400  0.95681097  1
  O  O18  1  0.69632102  0.27377599  0.45681100  1
  O  O19  1  0.80367902  0.77377598  0.04318902  1
