# generated using pymatgen
data_TbB4Mo
_symmetry_space_group_name_H-M   'P 1'
_cell_length_a   3.78482604
_cell_length_b   6.10494757
_cell_length_c   6.10494757
_cell_angle_alpha   104.06830597
_cell_angle_beta   90.00000000
_cell_angle_gamma   90.00000000
_symmetry_Int_Tables_number   1
_chemical_formula_structural   TbB4Mo
_chemical_formula_sum   'Tb2 B8 Mo2'
_cell_volume   136.83099993
_cell_formula_units_Z   2
loop_
 _symmetry_equiv_pos_site_id
 _symmetry_equiv_pos_as_xyz
  1  'x, y, z'
loop_
 _atom_site_type_symbol
 _atom_site_label
 _atom_site_symmetry_multiplicity
 _atom_site_fract_x
 _atom_site_fract_y
 _atom_site_fract_z
 _atom_site_occupancy
  Tb  Tb0  1  -0.00000000  0.69807703  0.30192304  1
  Tb  Tb1  1  -0.00000000  0.30192301  0.69807704  1
  B  B2  1  0.49999999  0.90987104  0.09012905  1
  B  B3  1  0.49999999  0.09012900  0.90987104  1
  B  B4  1  0.49999999  0.62917903  0.62917905  1
  B  B5  1  0.49999999  0.37082102  0.37082103  1
  B  B6  1  0.49999999  0.37686002  0.06492302  1
  B  B7  1  0.49999999  0.62314003  0.93507706  1
  B  B8  1  0.49999999  0.06492300  0.37686002  1
  B  B9  1  0.49999999  0.93507705  0.62314007  1
  Mo  Mo10  1  -0.00000000  0.82748304  0.82748307  1
  Mo  Mo11  1  -0.00000000  0.17251701  0.17251701  1
