# generated using pymatgen
data_Cs2AuSe
_symmetry_space_group_name_H-M   'P 1'
_cell_length_a   6.25840282
_cell_length_b   6.63151836
_cell_length_c   6.63151836
_cell_angle_alpha   106.19837189
_cell_angle_beta   90.00000000
_cell_angle_gamma   90.00000000
_symmetry_Int_Tables_number   1
_chemical_formula_structural   Cs2AuSe
_chemical_formula_sum   'Cs4 Au2 Se2'
_cell_volume   264.29997669
_cell_formula_units_Z   2
loop_
 _symmetry_equiv_pos_site_id
 _symmetry_equiv_pos_as_xyz
  1  'x, y, z'
loop_
 _atom_site_type_symbol
 _atom_site_label
 _atom_site_symmetry_multiplicity
 _atom_site_fract_x
 _atom_site_fract_y
 _atom_site_fract_z
 _atom_site_occupancy
  Cs  Cs0  1  0.25000001  0.32419600  0.98519299  1
  Cs  Cs1  1  0.75000002  0.67580399  0.01480697  1
  Cs  Cs2  1  0.75000002  0.01480700  0.67580400  1
  Cs  Cs3  1  0.25000001  0.98519299  0.32419596  1
  Se  Se4  1  0.50000001  0.50000000  0.49999998  1
  Se  Se5  1  -0.00000000  0.50000000  0.49999998  1
  Au  Au6  1  0.25000001  0.74943999  0.74943997  1
  Au  Au7  1  0.75000002  0.25056000  0.25055999  1
