# generated using pymatgen
data_Cs3Ag3HgF13
_symmetry_space_group_name_H-M   'P 1'
_cell_length_a   8.13244247
_cell_length_b   8.13244247
_cell_length_c   8.13244247
_cell_angle_alpha   60.00000000
_cell_angle_beta   60.00000000
_cell_angle_gamma   60.00000000
_symmetry_Int_Tables_number   1
_chemical_formula_structural   Cs3Ag3HgF13
_chemical_formula_sum   'Cs3 Ag3 Hg1 F13'
_cell_volume   380.31898207
_cell_formula_units_Z   1
loop_
 _symmetry_equiv_pos_site_id
 _symmetry_equiv_pos_as_xyz
  1  'x, y, z'
loop_
 _atom_site_type_symbol
 _atom_site_label
 _atom_site_symmetry_multiplicity
 _atom_site_fract_x
 _atom_site_fract_y
 _atom_site_fract_z
 _atom_site_occupancy
  Hg  Hg0  1  0.11930100  0.64209698  0.11930100  1
  F  F1  1  0.11930100  0.11930100  0.11930100  1
  F  F2  1  0.11930100  0.11930100  0.64209698  1
  F  F3  1  0.64209698  0.11930100  0.11930100  1
  F  F4  1  0.63069898  0.10790300  0.63069898  1
  F  F5  1  0.63069898  0.63069898  0.63069898  1
  F  F6  1  0.63069898  0.63069898  0.10790300  1
  F  F7  1  0.10790300  0.63069898  0.63069898  1
  Ag  Ag8  1  0.55090598  0.55090598  0.94909396  1
  Ag  Ag9  1  0.94909396  0.55090598  0.55090598  1
  Cs  Cs10  1  0.94909396  0.55090598  0.94909396  1
  F  F11  1  0.94909396  0.94909396  0.55090598  1
  F  F12  1  0.55090598  0.94909396  0.94909396  1
  Ag  Ag13  1  0.55090598  0.94909396  0.55090598  1
  F  F14  1  0.19909399  0.19909399  0.80090597  1
  F  F15  1  0.80090597  0.19909399  0.19909399  1
  F  F16  1  0.80090597  0.19909399  0.80090597  1
  Cs  Cs17  1  0.80090597  0.80090597  0.19909399  1
  Cs  Cs18  1  0.19909399  0.80090597  0.80090597  1
  F  F19  1  0.19909399  0.80090597  0.19909399  1
