# generated using pymatgen
data_LiCo4OF7
_symmetry_space_group_name_H-M   'P 1'
_cell_length_a   5.62145948
_cell_length_b   5.62145948
_cell_length_c   5.86955261
_cell_angle_alpha   61.38862610
_cell_angle_beta   61.38862610
_cell_angle_gamma   60.00000763
_symmetry_Int_Tables_number   1
_chemical_formula_structural   LiCo4OF7
_chemical_formula_sum   'Li1 Co4 O1 F7'
_cell_volume   133.84176505
_cell_formula_units_Z   1
loop_
 _symmetry_equiv_pos_site_id
 _symmetry_equiv_pos_as_xyz
  1  'x, y, z'
loop_
 _atom_site_type_symbol
 _atom_site_label
 _atom_site_symmetry_multiplicity
 _atom_site_fract_x
 _atom_site_fract_y
 _atom_site_fract_z
 _atom_site_occupancy
  Li  Li0  1  0.50000002  0.49999999  0.49999999  1
  Co  Co1  1  0.50000000  0.00000000  0.00000000  1
  Co  Co2  1  0.00000002  0.49999999  -0.00000000  1
  Co  Co3  1  0.50000002  0.49999999  0.00000000  1
  Co  Co4  1  0.00000000  0.00000000  0.00000000  1
  F  F5  1  0.76132701  0.27229900  0.20504700  1
  F  F6  1  0.23867301  0.23867300  0.79495298  1
  F  F7  1  0.23867302  0.72770099  0.79495298  1
  F  F8  1  0.72770101  0.23867300  0.79495298  1
  O  O9  1  0.27079801  0.27079800  0.18760600  1
  F  F10  1  0.72920202  0.72920199  0.81239398  1
  F  F11  1  0.27229902  0.76132699  0.20504699  1
  F  F12  1  0.76132702  0.76132699  0.20504700  1
