# generated using pymatgen
data_Ba2LiGa3(PN)2
_symmetry_space_group_name_H-M   'P 1'
_cell_length_a   3.97705007
_cell_length_b   5.91668558
_cell_length_c   7.21446085
_cell_angle_alpha   90.00000000
_cell_angle_beta   90.00000000
_cell_angle_gamma   109.63869476
_symmetry_Int_Tables_number   1
_chemical_formula_structural   Ba2LiGa3(PN)2
_chemical_formula_sum   'Ba2 Li1 Ga3 P2 N2'
_cell_volume   159.88814668
_cell_formula_units_Z   1
loop_
 _symmetry_equiv_pos_site_id
 _symmetry_equiv_pos_as_xyz
  1  'x, y, z'
loop_
 _atom_site_type_symbol
 _atom_site_label
 _atom_site_symmetry_multiplicity
 _atom_site_fract_x
 _atom_site_fract_y
 _atom_site_fract_z
 _atom_site_occupancy
  Ba  Ba0  1  0.45101206  0.90202399  0.75000002  1
  Ba  Ba1  1  0.54898800  0.09797600  0.25000001  1
  P  P2  1  0.72950002  0.45899999  0.75000002  1
  P  P3  1  0.27050004  0.54099999  0.25000001  1
  Ga  Ga4  1  0.16591102  0.33182200  0.94012502  1
  Ga  Ga5  1  0.83408904  0.66817799  0.05987500  1
  Li  Li6  1  0.83408904  0.66817799  0.44012501  1
  Ga  Ga7  1  0.16591102  0.33182200  0.55987501  1
  N  N8  1  0.00000000  0.00000000  0.00000000  1
  N  N9  1  0.00000000  0.00000000  0.50000001  1
