# generated using pymatgen
data_NaGeN2
_symmetry_space_group_name_H-M   'P 1'
_cell_length_a   4.59788990
_cell_length_b   5.27788019
_cell_length_c   6.91504908
_cell_angle_alpha   109.01904297
_cell_angle_beta   90.00000000
_cell_angle_gamma   115.82228088
_symmetry_Int_Tables_number   1
_chemical_formula_structural   NaGeN2
_chemical_formula_sum   'Na2 Ge2 N4'
_cell_volume   140.80600945
_cell_formula_units_Z   2
loop_
 _symmetry_equiv_pos_site_id
 _symmetry_equiv_pos_as_xyz
  1  'x, y, z'
loop_
 _atom_site_type_symbol
 _atom_site_label
 _atom_site_symmetry_multiplicity
 _atom_site_fract_x
 _atom_site_fract_y
 _atom_site_fract_z
 _atom_site_occupancy
  Na  Na0  1  0.40245006  0.76660001  0.17180001  1
  Na  Na1  1  0.63585003  0.23340000  0.82820001  1
  Ge  Ge2  1  0.41029005  0.66922001  0.66777002  1
  Ge  Ge3  1  0.74107004  0.33078000  0.33223001  1
  N  N4  1  0.24882003  0.45190001  0.81975002  1
  N  N5  1  0.79692005  0.54810001  0.18025001  1
  N  N6  1  0.74614005  0.57442001  0.59694002  1
  N  N7  1  0.17172003  0.42558001  0.40306001  1
