# generated using pymatgen
data_Tb2NiGe5Rh2
_symmetry_space_group_name_H-M   'P 1'
_cell_length_a   4.15815306
_cell_length_b   4.15815306
_cell_length_c   9.59667969
_cell_angle_alpha   90.00000000
_cell_angle_beta   90.00000000
_cell_angle_gamma   90.00000000
_symmetry_Int_Tables_number   1
_chemical_formula_structural   Tb2NiGe5Rh2
_chemical_formula_sum   'Tb2 Ni1 Ge5 Rh2'
_cell_volume   165.92886473
_cell_formula_units_Z   1
loop_
 _symmetry_equiv_pos_site_id
 _symmetry_equiv_pos_as_xyz
  1  'x, y, z'
loop_
 _atom_site_type_symbol
 _atom_site_label
 _atom_site_symmetry_multiplicity
 _atom_site_fract_x
 _atom_site_fract_y
 _atom_site_fract_z
 _atom_site_occupancy
  Tb  Tb0  1  0.00000000  0.49999999  0.24252501  1
  Tb  Tb1  1  0.49999999  0.00000000  0.75747502  1
  Ge  Ge2  1  0.00000000  0.00000000  0.00000000  1
  Ge  Ge3  1  0.49999999  0.49999999  -0.00000000  1
  Ge  Ge4  1  0.00000000  0.49999999  0.63995902  1
  Ge  Ge5  1  0.49999999  0.00000000  0.36004101  1
  Rh  Rh6  1  0.00000000  0.00000000  0.50000002  1
  Rh  Rh7  1  0.49999999  0.49999999  0.50000002  1
  Ge  Ge8  1  0.00000000  0.49999999  0.88575003  1
  Ni  Ni9  1  0.49999999  0.00000000  0.11425000  1
