# generated using pymatgen
data_Ga4Se3
_symmetry_space_group_name_H-M   'P 1'
_cell_length_a   5.56351185
_cell_length_b   5.56351185
_cell_length_c   7.05358648
_cell_angle_alpha   113.22698212
_cell_angle_beta   113.22698212
_cell_angle_gamma   90.00000000
_symmetry_Int_Tables_number   1
_chemical_formula_structural   Ga4Se3
_chemical_formula_sum   'Ga4 Se3'
_cell_volume   181.21654238
_cell_formula_units_Z   1
loop_
 _symmetry_equiv_pos_site_id
 _symmetry_equiv_pos_as_xyz
  1  'x, y, z'
loop_
 _atom_site_type_symbol
 _atom_site_label
 _atom_site_symmetry_multiplicity
 _atom_site_fract_x
 _atom_site_fract_y
 _atom_site_fract_z
 _atom_site_occupancy
  Se  Se0  1  0.00000000  0.00000000  0.00000000  1
  Se  Se1  1  0.75000004  0.25000001  0.50000003  1
  Se  Se2  1  0.25000003  0.75000003  0.50000004  1
  Ga  Ga3  1  0.85757606  0.85757604  0.24626805  1
  Ga  Ga4  1  0.38869203  0.38869202  0.24626803  1
  Ga  Ga5  1  0.14242402  0.61130803  0.75373204  1
  Ga  Ga6  1  0.61130803  0.14242401  0.75373203  1
