# generated using pymatgen
data_HoMg3(Ga3Pd)2
_symmetry_space_group_name_H-M   'P 1'
_cell_length_a   5.29972219
_cell_length_b   5.29972124
_cell_length_c   8.01122570
_cell_angle_alpha   90.00000000
_cell_angle_beta   90.00000000
_cell_angle_gamma   120.00000763
_symmetry_Int_Tables_number   1
_chemical_formula_structural   HoMg3(Ga3Pd)2
_chemical_formula_sum   'Ho1 Mg3 Ga6 Pd2'
_cell_volume   194.86583259
_cell_formula_units_Z   1
loop_
 _symmetry_equiv_pos_site_id
 _symmetry_equiv_pos_as_xyz
  1  'x, y, z'
loop_
 _atom_site_type_symbol
 _atom_site_label
 _atom_site_symmetry_multiplicity
 _atom_site_fract_x
 _atom_site_fract_y
 _atom_site_fract_z
 _atom_site_occupancy
  Ho  Ho0  1  0.66666666  0.33333334  0.93997304  1
  Mg  Mg1  1  0.33333336  0.66666668  0.43997302  1
  Mg  Mg2  1  0.33333336  0.66666668  0.06002700  1
  Mg  Mg3  1  0.66666666  0.33333334  0.56002702  1
  Ga  Ga4  1  0.00000000  0.00000000  0.00000000  1
  Ga  Ga5  1  0.00000000  0.00000000  0.50000002  1
  Ga  Ga6  1  0.16826704  0.83173302  0.75000003  1
  Ga  Ga7  1  0.83173301  0.66346602  0.25000001  1
  Pd  Pd8  1  0.33653400  0.16826700  0.25000001  1
  Ga  Ga9  1  0.66346602  0.83173302  0.75000003  1
  Pd  Pd10  1  0.16826701  0.33653401  0.75000003  1
  Ga  Ga11  1  0.83173298  0.16826700  0.25000001  1
