# generated using pymatgen
data_MoPSe2
_symmetry_space_group_name_H-M   'P 1'
_cell_length_a   3.63272500
_cell_length_b   5.17874098
_cell_length_c   9.23402977
_cell_angle_alpha   96.38290405
_cell_angle_beta   90.00000000
_cell_angle_gamma   90.00000000
_symmetry_Int_Tables_number   1
_chemical_formula_structural   MoPSe2
_chemical_formula_sum   'Mo2 P2 Se4'
_cell_volume   172.64240259
_cell_formula_units_Z   2
loop_
 _symmetry_equiv_pos_site_id
 _symmetry_equiv_pos_as_xyz
  1  'x, y, z'
loop_
 _atom_site_type_symbol
 _atom_site_label
 _atom_site_symmetry_multiplicity
 _atom_site_fract_x
 _atom_site_fract_y
 _atom_site_fract_z
 _atom_site_occupancy
  Mo  Mo0  1  0.50000000  0.27805400  0.65118698  1
  Mo  Mo1  1  0.00000000  0.72226801  0.34949400  1
  P  P2  1  0.50000000  0.48436800  0.17886700  1
  Se  Se3  1  0.00000000  0.51523100  0.81873998  1
  Se  Se4  1  0.50000000  0.88301701  0.17439001  1
  P  P5  1  0.00000000  0.11464500  0.82266998  1
  Se  Se6  1  0.50000000  0.76078401  0.55560799  1
  Se  Se7  1  0.00000000  0.24163200  0.44904499  1
