# generated using pymatgen
data_MgO
_symmetry_space_group_name_H-M   'P 1'
_cell_length_a   2.91235995
_cell_length_b   2.91235924
_cell_length_c   14.42929077
_cell_angle_alpha   90.00000000
_cell_angle_beta   90.00000000
_cell_angle_gamma   120.00000763
_symmetry_Int_Tables_number   1
_chemical_formula_structural   MgO
_chemical_formula_sum   'Mg6 O6'
_cell_volume   105.99016736
_cell_formula_units_Z   6
loop_
 _symmetry_equiv_pos_site_id
 _symmetry_equiv_pos_as_xyz
  1  'x, y, z'
loop_
 _atom_site_type_symbol
 _atom_site_label
 _atom_site_symmetry_multiplicity
 _atom_site_fract_x
 _atom_site_fract_y
 _atom_site_fract_z
 _atom_site_occupancy
  Mg  Mg0  1  0.66666668  0.33333335  0.83610301  1
  Mg  Mg1  1  0.00000000  0.00000000  0.50000001  1
  Mg  Mg2  1  0.33333334  0.66666669  0.16389700  1
  Mg  Mg3  1  0.33333334  0.66666669  0.66619801  1
  Mg  Mg4  1  0.66666668  0.33333335  0.33380201  1
  Mg  Mg5  1  0.00000000  0.00000000  0.00000000  1
  O  O6  1  0.33333334  0.66666669  0.92407301  1
  O  O7  1  0.66666668  0.33333335  0.59116701  1
  O  O8  1  0.00000000  0.00000000  0.26075700  1
  O  O9  1  0.00000000  0.00000000  0.73924301  1
  O  O10  1  0.33333334  0.66666669  0.40883301  1
  O  O11  1  0.66666668  0.33333335  0.07592700  1
