# generated using pymatgen
data_Co2Bi4O9
_symmetry_space_group_name_H-M   'P 1'
_cell_length_a   3.52521992
_cell_length_b   7.00946569
_cell_length_c   8.88945770
_cell_angle_alpha   74.92283630
_cell_angle_beta   78.56354523
_cell_angle_gamma   75.43599701
_symmetry_Int_Tables_number   1
_chemical_formula_structural   Co2Bi4O9
_chemical_formula_sum   'Co2 Bi4 O9'
_cell_volume   203.19567262
_cell_formula_units_Z   1
loop_
 _symmetry_equiv_pos_site_id
 _symmetry_equiv_pos_as_xyz
  1  'x, y, z'
loop_
 _atom_site_type_symbol
 _atom_site_label
 _atom_site_symmetry_multiplicity
 _atom_site_fract_x
 _atom_site_fract_y
 _atom_site_fract_z
 _atom_site_occupancy
  Co  Co0  1  0.19136715  0.88101401  0.73625194  1
  Co  Co1  1  0.80863305  0.11898600  0.26374797  1
  O  O2  1  0.50000019  1.00000002  -0.00000006  1
  Bi  Bi3  1  0.60928906  0.21512200  0.56629996  1
  Bi  Bi4  1  0.39071115  0.78487801  0.43369994  1
  Bi  Bi5  1  0.16718309  0.47987401  0.18575997  1
  Bi  Bi6  1  0.83281712  0.52012601  0.81423994  1
  O  O7  1  0.04039103  0.14547900  0.77373898  1
  O  O8  1  0.95960918  0.85452101  0.22626093  1
  O  O9  1  0.23571803  0.14666400  0.38189998  1
  O  O10  1  0.76428217  0.85333601  0.61809993  1
  O  O11  1  0.82233708  0.29221600  0.06310996  1
  O  O12  1  0.17766312  0.70778401  0.93688994  1
  O  O13  1  0.58214510  0.49259401  0.34311595  1
  O  O14  1  0.41785510  0.50740601  0.65688395  1
