# generated using pymatgen
data_CsKH2(CO3)2
_symmetry_space_group_name_H-M   'P 1'
_cell_length_a   4.41724682
_cell_length_b   5.63077259
_cell_length_c   7.02280378
_cell_angle_alpha   109.73117065
_cell_angle_beta   104.78502655
_cell_angle_gamma   94.50125885
_symmetry_Int_Tables_number   1
_chemical_formula_structural   CsKH2(CO3)2
_chemical_formula_sum   'Cs1 K1 H2 C2 O6'
_cell_volume   156.35250077
_cell_formula_units_Z   1
loop_
 _symmetry_equiv_pos_site_id
 _symmetry_equiv_pos_as_xyz
  1  'x, y, z'
loop_
 _atom_site_type_symbol
 _atom_site_label
 _atom_site_symmetry_multiplicity
 _atom_site_fract_x
 _atom_site_fract_y
 _atom_site_fract_z
 _atom_site_occupancy
  Cs  Cs0  1  0.29163000  0.14086299  0.30448899  1
  K  K1  1  0.70836993  0.85913696  0.69551093  1
  H  H2  1  0.45452998  0.29799199  0.92627497  1
  H  H3  1  0.54546994  0.70200797  0.07372495  1
  C  C4  1  0.09991696  0.42690798  0.77334796  1
  C  C5  1  0.90008297  0.57309198  0.22665196  1
  O  O6  1  0.16622794  0.63747397  0.36683395  1
  O  O7  1  0.83377199  0.36252598  0.63316596  1
  O  O8  1  0.24797398  0.23099699  0.79974697  1
  O  O9  1  0.75202594  0.76900297  0.20025294  1
  O  O10  1  0.24160494  0.65867897  0.89093695  1
  O  O11  1  0.75839499  0.34132099  0.10906297  1
