# generated using pymatgen
data_BaCo2P2N
_symmetry_space_group_name_H-M   'P 1'
_cell_length_a   3.89374208
_cell_length_b   3.89374208
_cell_length_c   5.93394661
_cell_angle_alpha   109.15291595
_cell_angle_beta   109.15291595
_cell_angle_gamma   90.00000000
_symmetry_Int_Tables_number   1
_chemical_formula_structural   BaCo2P2N
_chemical_formula_sum   'Ba1 Co2 P2 N1'
_cell_volume   79.69544471
_cell_formula_units_Z   1
loop_
 _symmetry_equiv_pos_site_id
 _symmetry_equiv_pos_as_xyz
  1  'x, y, z'
loop_
 _atom_site_type_symbol
 _atom_site_label
 _atom_site_symmetry_multiplicity
 _atom_site_fract_x
 _atom_site_fract_y
 _atom_site_fract_z
 _atom_site_occupancy
  Ba  Ba0  1  0.00000000  0.00000000  0.00000000  1
  P  P1  1  0.35567302  0.35567300  0.71134602  1
  P  P2  1  0.64432703  0.64432700  0.28865405  1
  Co  Co3  1  0.75000001  0.25000000  0.50000003  1
  Co  Co4  1  0.25000003  0.75000000  0.50000004  1
  N  N5  1  0.50000002  0.50000000  0.00000004  1
