# generated using pymatgen
data_BaCu2H2(SeO5)2
_symmetry_space_group_name_H-M   'P 1'
_cell_length_a   5.68401194
_cell_length_b   5.68401194
_cell_length_c   7.53105259
_cell_angle_alpha   99.59895325
_cell_angle_beta   107.82128906
_cell_angle_gamma   111.93547821
_symmetry_Int_Tables_number   1
_chemical_formula_structural   BaCu2H2(SeO5)2
_chemical_formula_sum   'Ba1 Cu2 H2 Se2 O10'
_cell_volume   203.69408171
_cell_formula_units_Z   1
loop_
 _symmetry_equiv_pos_site_id
 _symmetry_equiv_pos_as_xyz
  1  'x, y, z'
loop_
 _atom_site_type_symbol
 _atom_site_label
 _atom_site_symmetry_multiplicity
 _atom_site_fract_x
 _atom_site_fract_y
 _atom_site_fract_z
 _atom_site_occupancy
  Ba  Ba0  1  1.00000003  0.50000002  0.50000002  1
  Cu  Cu1  1  0.50000006  1.00000003  0.00000004  1
  Cu  Cu2  1  0.00000003  0.50000002  0.00000002  1
  H  H3  1  0.50764402  0.28868401  0.79632801  1
  H  H4  1  0.49235604  0.71131602  0.20367203  1
  Se  Se5  1  0.78500406  0.91552503  0.70052904  1
  Se  Se6  1  0.21499601  0.08447500  0.29947100  1
  O  O7  1  0.00861705  0.81713403  0.82575104  1
  O  O8  1  0.99138301  0.18286601  0.17424900  1
  O  O9  1  0.69024605  0.77329403  0.46354003  1
  O  O10  1  0.30975401  0.22670601  0.53646001  1
  O  O11  1  0.93714101  0.25640201  0.75208701  1
  O  O12  1  0.49568505  0.81494603  0.75208704  1
  O  O13  1  0.06285905  0.74359802  0.24791303  1
  O  O14  1  0.50431501  0.18505401  0.24791301  1
  O  O15  1  0.61431902  0.32397601  0.93829502  1
  O  O16  1  0.38568104  0.67602402  0.06170503  1
