# generated using pymatgen
data_Cd(GaS2)4
_symmetry_space_group_name_H-M   'P 1'
_cell_length_a   6.72199869
_cell_length_b   6.72199869
_cell_length_c   7.24212694
_cell_angle_alpha   62.34864807
_cell_angle_beta   62.34864807
_cell_angle_gamma   59.99999237
_symmetry_Int_Tables_number   1
_chemical_formula_structural   Cd(GaS2)4
_chemical_formula_sum   'Cd1 Ga4 S8'
_cell_volume   239.26859615
_cell_formula_units_Z   1
loop_
 _symmetry_equiv_pos_site_id
 _symmetry_equiv_pos_as_xyz
  1  'x, y, z'
loop_
 _atom_site_type_symbol
 _atom_site_label
 _atom_site_symmetry_multiplicity
 _atom_site_fract_x
 _atom_site_fract_y
 _atom_site_fract_z
 _atom_site_occupancy
  Ga  Ga0  1  0.49999998  0.00000000  0.00000002  1
  Ga  Ga1  1  -0.00000003  0.50000000  0.00000003  1
  Ga  Ga2  1  0.49999995  0.50000000  0.00000004  1
  Ga  Ga3  1  0.00000000  0.00000000  0.00000000  1
  Cd  Cd4  1  0.49999995  0.50000000  0.50000006  1
  S  S5  1  0.75539496  0.26932900  0.21988105  1
  S  S6  1  0.24460498  0.24460500  0.78011904  1
  S  S7  1  0.24460494  0.73067099  0.78011907  1
  S  S8  1  0.73067096  0.24460500  0.78011906  1
  S  S9  1  0.26162697  0.26162700  0.21511903  1
  S  S10  1  0.73837293  0.73837299  0.78488109  1
  S  S11  1  0.26932894  0.75539499  0.21988106  1
  S  S12  1  0.75539493  0.75539499  0.21988107  1
