# generated using pymatgen
data_TbLuCo9BP6
_symmetry_space_group_name_H-M   'P 1'
_cell_length_a   5.36654615
_cell_length_b   5.36654615
_cell_length_c   7.51952124
_cell_angle_alpha   90.00000000
_cell_angle_beta   90.00000000
_cell_angle_gamma   90.00000000
_symmetry_Int_Tables_number   1
_chemical_formula_structural   TbLuCo9BP6
_chemical_formula_sum   'Tb1 Lu1 Co9 B1 P6'
_cell_volume   216.56084022
_cell_formula_units_Z   1
loop_
 _symmetry_equiv_pos_site_id
 _symmetry_equiv_pos_as_xyz
  1  'x, y, z'
loop_
 _atom_site_type_symbol
 _atom_site_label
 _atom_site_symmetry_multiplicity
 _atom_site_fract_x
 _atom_site_fract_y
 _atom_site_fract_z
 _atom_site_occupancy
  Lu  Lu0  1  0.00000000  0.00000000  0.00000000  1
  Tb  Tb1  1  0.49999999  0.49999999  0.49999998  1
  Co  Co2  1  0.49999999  0.83141398  0.84922997  1
  P  P3  1  0.49999999  0.16858600  0.84922997  1
  P  P4  1  0.83141398  0.49999999  0.15077000  1
  P  P5  1  0.16858600  0.49999999  0.15077000  1
  P  P6  1  0.33141399  0.00000000  0.34922999  1
  P  P7  1  0.66858598  0.00000000  0.34922999  1
  P  P8  1  0.00000000  0.33141399  0.65076998  1
  B  B9  1  0.00000000  0.66858598  0.65076998  1
  Co  Co10  1  0.25112899  0.49999999  0.85601697  1
  Co  Co11  1  0.74887098  0.49999999  0.85601697  1
  Co  Co12  1  0.49999999  0.74887098  0.14398300  1
  Co  Co13  1  0.49999999  0.25112899  0.14398300  1
  Co  Co14  1  0.00000000  0.75112898  0.35601699  1
  Co  Co15  1  0.00000000  0.24887099  0.35601699  1
  Co  Co16  1  0.24887099  0.00000000  0.64398298  1
  Co  Co17  1  0.75112898  0.00000000  0.64398298  1
