# generated using pymatgen
data_Ho2GaP4
_symmetry_space_group_name_H-M   'P 1'
_cell_length_a   3.81197309
_cell_length_b   3.83685803
_cell_length_c   16.88874054
_cell_angle_alpha   83.47756958
_cell_angle_beta   90.00000000
_cell_angle_gamma   90.00000000
_symmetry_Int_Tables_number   1
_chemical_formula_structural   Ho2GaP4
_chemical_formula_sum   'Ho4 Ga2 P8'
_cell_volume   245.41590024
_cell_formula_units_Z   2
loop_
 _symmetry_equiv_pos_site_id
 _symmetry_equiv_pos_as_xyz
  1  'x, y, z'
loop_
 _atom_site_type_symbol
 _atom_site_label
 _atom_site_symmetry_multiplicity
 _atom_site_fract_x
 _atom_site_fract_y
 _atom_site_fract_z
 _atom_site_occupancy
  Ho  Ho0  1  0.74999998  0.32239000  0.35521999  1
  Ho  Ho1  1  0.24999999  0.67760999  0.64477998  1
  Ho  Ho2  1  0.74999998  0.04720300  0.90559397  1
  Ho  Ho3  1  0.24999999  0.95279699  0.09440600  1
  Ga  Ga4  1  0.24999999  0.25009400  0.49981199  1
  Ga  Ga5  1  0.74999998  0.74990599  0.50018799  1
  P  P6  1  0.74999998  0.88680099  0.22639800  1
  P  P7  1  0.24999999  0.11319900  0.77360198  1
  P  P8  1  0.74999998  0.20244000  0.59511998  1
  P  P9  1  0.24999999  0.79755999  0.40487999  1
  P  P10  1  0.24999999  0.52717599  0.94564797  1
  P  P11  1  0.74999998  0.47282399  0.05435200  1
  P  P12  1  0.24999999  0.38714800  0.22570399  1
  P  P13  1  0.74999998  0.61285199  0.77429598  1
