# generated using pymatgen
data_Cu2AgF9
_symmetry_space_group_name_H-M   'P 1'
_cell_length_a   5.29192591
_cell_length_b   5.53528595
_cell_length_c   5.92812157
_cell_angle_alpha   116.21502686
_cell_angle_beta   90.00000000
_cell_angle_gamma   90.00000000
_symmetry_Int_Tables_number   1
_chemical_formula_structural   Cu2AgF9
_chemical_formula_sum   'Cu2 Ag1 F9'
_cell_volume   155.78741471
_cell_formula_units_Z   1
loop_
 _symmetry_equiv_pos_site_id
 _symmetry_equiv_pos_as_xyz
  1  'x, y, z'
loop_
 _atom_site_type_symbol
 _atom_site_label
 _atom_site_symmetry_multiplicity
 _atom_site_fract_x
 _atom_site_fract_y
 _atom_site_fract_z
 _atom_site_occupancy
  Ag  Ag0  1  0.17818700  0.21454101  0.97410598  1
  F  F1  1  0.67818701  0.78545902  0.02589403  1
  Cu  Cu2  1  0.00042900  0.74492902  0.49568201  1
  Cu  Cu3  1  0.50042901  0.25507101  0.50431799  1
  F  F4  1  0.08149300  0.58436802  0.14708802  1
  F  F5  1  0.20448200  0.09291500  0.59367998  1
  F  F6  1  0.30214901  0.58934002  0.56631201  1
  F  F7  1  0.41200701  0.08350200  0.14870300  1
  F  F8  1  0.58149301  0.41563201  0.85291199  1
  F  F9  1  0.70448201  0.90708503  0.40632002  1
  F  F10  1  0.80214901  0.41066001  0.43368800  1
  F  F11  1  0.91200702  0.91649803  0.85129701  1
