# generated using pymatgen
data_La2Ge5Ir3
_symmetry_space_group_name_H-M   'P 1'
_cell_length_a   6.09302187
_cell_length_b   8.50885677
_cell_length_c   8.50885677
_cell_angle_alpha   73.60415649
_cell_angle_beta   69.02012634
_cell_angle_gamma   69.02012634
_symmetry_Int_Tables_number   1
_chemical_formula_structural   La2Ge5Ir3
_chemical_formula_sum   'La4 Ge10 Ir6'
_cell_volume   378.53394229
_cell_formula_units_Z   2
loop_
 _symmetry_equiv_pos_site_id
 _symmetry_equiv_pos_as_xyz
  1  'x, y, z'
loop_
 _atom_site_type_symbol
 _atom_site_label
 _atom_site_symmetry_multiplicity
 _atom_site_fract_x
 _atom_site_fract_y
 _atom_site_fract_z
 _atom_site_occupancy
  La  La0  1  0.63330603  0.59827798  0.13510999  1
  La  La1  1  0.36669402  0.40172198  0.86488997  1
  La  La2  1  0.86669404  0.86488997  0.40172198  1
  La  La3  1  0.13330601  0.13510999  0.59827798  1
  Ge  Ge4  1  0.25000002  0.49999998  0.49999998  1
  Ge  Ge5  1  0.75000003  0.49999998  0.49999998  1
  Ge  Ge6  1  0.47175703  0.77824297  0.77824296  1
  Ge  Ge7  1  0.02824301  0.22175699  0.22175699  1
  Ge  Ge8  1  0.52824301  0.22175699  0.22175699  1
  Ge  Ge9  1  0.97175704  0.77824297  0.77824297  1
  Ge  Ge10  1  0.90060902  0.26041199  0.93836897  1
  Ge  Ge11  1  0.09939102  0.73958797  0.06163098  1
  Ge  Ge12  1  0.59939001  0.06163200  0.73958798  1
  Ge  Ge13  1  0.40061003  0.93836796  0.26041198  1
  Ir  Ir14  1  0.85922103  0.53558298  0.74597497  1
  Ir  Ir15  1  0.14077902  0.46441698  0.25402498  1
  Ir  Ir16  1  0.64078002  0.25402499  0.46441599  1
  Ir  Ir17  1  0.35922003  0.74597497  0.53558397  1
  Ir  Ir18  1  0.25000000  0.00000000  0.00000000  1
  Ir  Ir19  1  0.75000001  0.00000000  0.00000001  1
