# generated using pymatgen
data_HoP
_symmetry_space_group_name_H-M   'P 1'
_cell_length_a   4.69252777
_cell_length_b   4.69252825
_cell_length_c   17.08968925
_cell_angle_alpha   90.00000000
_cell_angle_beta   90.00000000
_cell_angle_gamma   120.00000000
_symmetry_Int_Tables_number   1
_chemical_formula_structural   HoP
_chemical_formula_sum   'Ho9 P9'
_cell_volume   325.89563587
_cell_formula_units_Z   9
loop_
 _symmetry_equiv_pos_site_id
 _symmetry_equiv_pos_as_xyz
  1  'x, y, z'
loop_
 _atom_site_type_symbol
 _atom_site_label
 _atom_site_symmetry_multiplicity
 _atom_site_fract_x
 _atom_site_fract_y
 _atom_site_fract_z
 _atom_site_occupancy
  Ho  Ho0  1  0.00000000  0.00000000  0.50000002  1
  P  P1  1  0.00000000  0.00000000  0.32835901  1
  P  P2  1  0.00000000  0.00000000  0.67164103  1
  Ho  Ho3  1  0.00000000  0.00000000  0.16352801  1
  Ho  Ho4  1  0.00000000  0.00000000  0.83647204  1
  Ho  Ho5  1  0.66666672  0.33333336  0.05330500  1
  Ho  Ho6  1  0.33333339  0.66666672  0.94669504  1
  P  P7  1  0.66666672  0.33333336  0.55377202  1
  P  P8  1  0.33333339  0.66666672  0.44622802  1
  Ho  Ho9  1  0.66666672  0.33333336  0.71628203  1
  Ho  Ho10  1  0.33333339  0.66666672  0.28371801  1
  P  P11  1  0.66666672  0.33333336  0.88796104  1
  P  P12  1  0.33333339  0.66666672  0.11203900  1
  P  P13  1  0.00000000  0.00000000  0.00000000  1
  P  P14  1  0.66666672  0.33333336  0.22172801  1
  P  P15  1  0.33333339  0.66666672  0.77827203  1
  Ho  Ho16  1  0.66666672  0.33333336  0.39196302  1
  Ho  Ho17  1  0.33333339  0.66666672  0.60803703  1
