# generated using pymatgen
data_CoBMo
_symmetry_space_group_name_H-M   'P 1'
_cell_length_a   4.16026402
_cell_length_b   4.16026402
_cell_length_c   4.16026402
_cell_angle_alpha   105.02434540
_cell_angle_beta   105.02434540
_cell_angle_gamma   118.78610229
_symmetry_Int_Tables_number   1
_chemical_formula_structural   CoBMo
_chemical_formula_sum   'Co2 B2 Mo2'
_cell_volume   54.31484553
_cell_formula_units_Z   2
loop_
 _symmetry_equiv_pos_site_id
 _symmetry_equiv_pos_as_xyz
  1  'x, y, z'
loop_
 _atom_site_type_symbol
 _atom_site_label
 _atom_site_symmetry_multiplicity
 _atom_site_fract_x
 _atom_site_fract_y
 _atom_site_fract_z
 _atom_site_occupancy
  Co  Co0  1  0.33385100  0.16614800  0.50000000  1
  Co  Co1  1  0.66614902  0.83385201  0.50000000  1
  Mo  Mo2  1  0.16614901  0.66614901  0.83229801  1
  Mo  Mo3  1  0.83385101  0.33385100  0.16770200  1
  B  B4  1  0.25000000  0.25000000  1.00000001  1
  B  B5  1  0.75000001  0.75000001  -0.00000000  1
