# generated using pymatgen
data_Li3VF6
_symmetry_space_group_name_H-M   'P 1'
_cell_length_a   5.11380434
_cell_length_b   5.11380434
_cell_length_c   5.53855896
_cell_angle_alpha   62.50605774
_cell_angle_beta   62.50605774
_cell_angle_gamma   59.99999619
_symmetry_Int_Tables_number   1
_chemical_formula_structural   Li3VF6
_chemical_formula_sum   'Li3 V1 F6'
_cell_volume   106.12592828
_cell_formula_units_Z   1
loop_
 _symmetry_equiv_pos_site_id
 _symmetry_equiv_pos_as_xyz
  1  'x, y, z'
loop_
 _atom_site_type_symbol
 _atom_site_label
 _atom_site_symmetry_multiplicity
 _atom_site_fract_x
 _atom_site_fract_y
 _atom_site_fract_z
 _atom_site_occupancy
  Li  Li0  1  0.35627199  0.35627199  0.93118401  1
  Li  Li1  1  0.14459899  0.14459900  0.56620300  1
  Li  Li2  1  0.85428997  0.85428999  0.43713002  1
  V  V3  1  0.63982998  0.63982999  0.08051001  1
  F  F4  1  0.22390898  0.95358699  0.25926601  1
  F  F5  1  0.56323799  0.22390900  0.25926601  1
  F  F6  1  0.95358697  0.56323799  0.25926602  1
  F  F7  1  0.77465898  0.05224900  0.73572401  1
  F  F8  1  0.43736798  0.77465899  0.73572401  1
  F  F9  1  0.05224899  0.43736799  0.73572401  1
