# generated using pymatgen
data_Tb5Au3
_symmetry_space_group_name_H-M   'P 1'
_cell_length_a   7.71345377
_cell_length_b   8.73795891
_cell_length_c   7.71345377
_cell_angle_alpha   116.19171906
_cell_angle_beta   90.00000000
_cell_angle_gamma   116.19171906
_symmetry_Int_Tables_number   1
_chemical_formula_structural   Tb5Au3
_chemical_formula_sum   'Tb10 Au6'
_cell_volume   406.16811622
_cell_formula_units_Z   2
loop_
 _symmetry_equiv_pos_site_id
 _symmetry_equiv_pos_as_xyz
  1  'x, y, z'
loop_
 _atom_site_type_symbol
 _atom_site_label
 _atom_site_symmetry_multiplicity
 _atom_site_fract_x
 _atom_site_fract_y
 _atom_site_fract_z
 _atom_site_occupancy
  Tb  Tb0  1  0.00000000  0.00000000  0.00000000  1
  Tb  Tb1  1  0.50000001  0.00000000  0.50000001  1
  Tb  Tb2  1  0.98124003  0.27242501  0.79118502  1
  Tb  Tb3  1  0.29118601  0.27242701  0.48124101  1
  Tb  Tb4  1  0.48124001  0.27242601  0.98124003  1
  Tb  Tb5  1  0.79118602  0.27242601  0.29118601  1
  Tb  Tb6  1  0.01876000  0.72757503  0.20881500  1
  Tb  Tb7  1  0.70881402  0.72757303  0.51875901  1
  Tb  Tb8  1  0.51876001  0.72757403  0.01876000  1
  Tb  Tb9  1  0.20881400  0.72757403  0.70881402  1
  Au  Au10  1  0.63194201  0.99999904  0.86805702  1
  Au  Au11  1  0.36805801  0.00000100  0.13194300  1
  Au  Au12  1  0.13194200  0.00000000  0.63194202  1
  Au  Au13  1  0.86805802  1.00000004  0.36805801  1
  Au  Au14  1  0.25000000  0.50000002  0.25000000  1
  Au  Au15  1  0.75000002  0.50000002  0.75000002  1
