# generated using pymatgen
data_Nb4Ga12B3P
_symmetry_space_group_name_H-M   'P 1'
_cell_length_a   3.01969290
_cell_length_b   9.48621941
_cell_length_c   9.48621941
_cell_angle_alpha   90.00000000
_cell_angle_beta   90.00000000
_cell_angle_gamma   90.00000000
_symmetry_Int_Tables_number   1
_chemical_formula_structural   Nb4Ga12B3P
_chemical_formula_sum   'Nb4 Ga12 B3 P1'
_cell_volume   271.73720741
_cell_formula_units_Z   1
loop_
 _symmetry_equiv_pos_site_id
 _symmetry_equiv_pos_as_xyz
  1  'x, y, z'
loop_
 _atom_site_type_symbol
 _atom_site_label
 _atom_site_symmetry_multiplicity
 _atom_site_fract_x
 _atom_site_fract_y
 _atom_site_fract_z
 _atom_site_occupancy
  Nb  Nb0  1  0.00000000  0.82380096  0.67619897  1
  Nb  Nb1  1  0.00000000  0.17619899  0.32380099  1
  Nb  Nb2  1  0.00000000  0.32380099  0.82380096  1
  Nb  Nb3  1  0.00000000  0.67619897  0.17619899  1
  Ga  Ga4  1  1.00000003  0.49999998  0.49999998  1
  Ga  Ga5  1  0.00000000  0.00000000  0.00000000  1
  B  B6  1  0.00000000  0.62177197  0.87822796  1
  P  P7  1  0.00000000  0.37822798  0.12177199  1
  B  B8  1  0.00000000  0.12177199  0.62177197  1
  B  B9  1  0.00000000  0.87822796  0.37822798  1
  Ga  Ga10  1  0.50000002  0.57103898  0.71897797  1
  Ga  Ga11  1  0.50000002  0.42896098  0.28102199  1
  Ga  Ga12  1  0.50000002  0.07103900  0.78102197  1
  Ga  Ga13  1  0.50000002  0.92896096  0.21897799  1
  Ga  Ga14  1  0.50000002  0.28102199  0.57103898  1
  Ga  Ga15  1  0.50000002  0.71897797  0.42896098  1
  Ga  Ga16  1  0.50000002  0.21897799  0.07103900  1
  Ga  Ga17  1  0.50000002  0.78102197  0.92896096  1
  Ga  Ga18  1  0.50000002  0.49999998  -0.00000000  1
  Ga  Ga19  1  0.50000002  0.99999996  0.49999998  1
