# generated using pymatgen
data_NaMo7Se12
_symmetry_space_group_name_H-M   'P 1'
_cell_length_a   6.25345278
_cell_length_b   6.25345278
_cell_length_c   10.03062057
_cell_angle_alpha   90.00000000
_cell_angle_beta   90.00000000
_cell_angle_gamma   90.00000000
_symmetry_Int_Tables_number   1
_chemical_formula_structural   NaMo7Se12
_chemical_formula_sum   'Na1 Mo7 Se12'
_cell_volume   392.25415460
_cell_formula_units_Z   1
loop_
 _symmetry_equiv_pos_site_id
 _symmetry_equiv_pos_as_xyz
  1  'x, y, z'
loop_
 _atom_site_type_symbol
 _atom_site_label
 _atom_site_symmetry_multiplicity
 _atom_site_fract_x
 _atom_site_fract_y
 _atom_site_fract_z
 _atom_site_occupancy
  Se  Se0  1  0.22039901  0.34361401  0.58407402  1
  Se  Se1  1  0.34361401  0.22039901  0.91592604  1
  Se  Se2  1  0.34361401  0.77960103  0.41592602  1
  Se  Se3  1  0.65638602  0.22039901  0.41592602  1
  Se  Se4  1  0.22039901  0.65638602  0.08407400  1
  Se  Se5  1  0.82134903  0.82134903  0.25000001  1
  Se  Se6  1  0.65638602  0.77960103  0.91592604  1
  Se  Se7  1  0.17865101  0.82134903  0.75000003  1
  Se  Se8  1  0.82134903  0.17865101  0.75000003  1
  Se  Se9  1  0.77960103  0.34361401  0.08407400  1
  Se  Se10  1  0.77960103  0.65638602  0.58407402  1
  Se  Se11  1  0.17865101  0.17865101  0.25000001  1
  Mo  Mo12  1  0.50000002  0.00000000  0.62552103  1
  Mo  Mo13  1  0.00000000  0.50000002  0.37447902  1
  Na  Na14  1  0.00000000  0.00000000  0.00000000  1
  Mo  Mo15  1  0.00000000  0.50000002  0.87447904  1
  Mo  Mo16  1  0.50000002  0.00000000  0.12552101  1
  Mo  Mo17  1  0.00000000  0.00000000  0.50000002  1
  Mo  Mo18  1  0.50000002  0.50000002  0.75000003  1
  Mo  Mo19  1  0.50000002  0.50000002  0.25000001  1
