# generated using pymatgen
data_Na6MoF13
_symmetry_space_group_name_H-M   'P 1'
_cell_length_a   5.72602081
_cell_length_b   5.87370586
_cell_length_c   8.10296249
_cell_angle_alpha   90.00000000
_cell_angle_beta   90.76194763
_cell_angle_gamma   90.00000000
_symmetry_Int_Tables_number   1
_chemical_formula_structural   Na6MoF13
_chemical_formula_sum   'Na6 Mo1 F13'
_cell_volume   272.50253205
_cell_formula_units_Z   1
loop_
 _symmetry_equiv_pos_site_id
 _symmetry_equiv_pos_as_xyz
  1  'x, y, z'
loop_
 _atom_site_type_symbol
 _atom_site_label
 _atom_site_symmetry_multiplicity
 _atom_site_fract_x
 _atom_site_fract_y
 _atom_site_fract_z
 _atom_site_occupancy
  Na  Na0  1  0.50000002  0.50000001  0.00000000  1
  Na  Na1  1  0.00000000  0.00000000  0.50000000  1
  Na  Na2  1  0.51305602  0.94899302  0.24783700  1
  Na  Na3  1  0.48694402  0.05100700  0.75216300  1
  Na  Na4  1  0.98694403  0.44899301  0.25216300  1
  Na  Na5  1  0.01305600  0.55100701  0.74783700  1
  Mo  Mo6  1  0.50000002  0.50000001  0.50000000  1
  F  F7  1  0.00000000  0.00000000  0.00000000  1
  F  F8  1  0.67691402  0.21602801  0.43237600  1
  F  F9  1  0.32308601  0.78397202  0.56762400  1
  F  F10  1  0.82308603  0.71602802  0.06762400  1
  F  F11  1  0.17691401  0.28397201  0.93237600  1
  F  F12  1  0.38687601  0.54747601  0.27104700  1
  F  F13  1  0.61312402  0.45252401  0.72895300  1
  F  F14  1  0.11312400  0.04747600  0.22895300  1
  F  F15  1  0.88687603  0.95252402  0.77104700  1
  F  F16  1  0.78845403  0.67892902  0.45427800  1
  F  F17  1  0.21154601  0.32107101  0.54572200  1
  F  F18  1  0.71154602  0.17892900  0.04572200  1
  F  F19  1  0.28845401  0.82107102  0.95427800  1
