# generated using pymatgen
data_Mn5OF11
_symmetry_space_group_name_H-M   'P 1'
_cell_length_a   5.11780977
_cell_length_b   5.34960032
_cell_length_c   7.40888309
_cell_angle_alpha   86.70108032
_cell_angle_beta   89.99568939
_cell_angle_gamma   89.97421265
_symmetry_Int_Tables_number   1
_chemical_formula_structural   Mn5OF11
_chemical_formula_sum   'Mn5 O1 F11'
_cell_volume   202.50600546
_cell_formula_units_Z   1
loop_
 _symmetry_equiv_pos_site_id
 _symmetry_equiv_pos_as_xyz
  1  'x, y, z'
loop_
 _atom_site_type_symbol
 _atom_site_label
 _atom_site_symmetry_multiplicity
 _atom_site_fract_x
 _atom_site_fract_y
 _atom_site_fract_z
 _atom_site_occupancy
  Mn  Mn0  1  0.00158703  0.43930502  0.21961498  1
  Mn  Mn1  1  0.99838404  0.00485300  0.99766398  1
  Mn  Mn2  1  0.49867405  0.50935202  0.99796098  1
  Mn  Mn3  1  0.00026500  0.00170200  0.50639301  1
  Mn  Mn4  1  0.50167205  0.50607902  0.50645197  1
  F  F5  1  0.68828704  0.19436101  0.57260198  1
  F  F6  1  0.88046504  0.02556300  0.25935797  1
  F  F7  1  0.67201408  0.82401304  0.94106395  1
  F  F8  1  0.81533208  0.68868203  0.56886495  1
  O  O9  1  0.18878005  0.69027503  0.06963796  1
  F  F10  1  0.62991106  0.51321202  0.25581896  1
  F  F11  1  0.36643605  0.50350202  0.75082698  1
  F  F12  1  0.82045006  0.33706902  0.95504397  1
  F  F13  1  0.18960303  0.31898101  0.43872999  1
  F  F14  1  0.30617103  0.21113401  0.07219598  1
  F  F15  1  0.13362901  0.00601000  0.74664601  1
  F  F16  1  0.30833806  0.81151104  0.43392696  1
