# generated using pymatgen
data_Li4MnO5
_symmetry_space_group_name_H-M   'P 1'
_cell_length_a   3.01505995
_cell_length_b   4.25151014
_cell_length_c   7.95811987
_cell_angle_alpha   105.49282837
_cell_angle_beta   100.91969299
_cell_angle_gamma   90.00000000
_symmetry_Int_Tables_number   1
_chemical_formula_structural   Li4MnO5
_chemical_formula_sum   'Li4 Mn1 O5'
_cell_volume   96.38685358
_cell_formula_units_Z   1
loop_
 _symmetry_equiv_pos_site_id
 _symmetry_equiv_pos_as_xyz
  1  'x, y, z'
loop_
 _atom_site_type_symbol
 _atom_site_label
 _atom_site_symmetry_multiplicity
 _atom_site_fract_x
 _atom_site_fract_y
 _atom_site_fract_z
 _atom_site_occupancy
  Li  Li0  1  0.40093001  0.40092999  0.80185999  1
  Li  Li1  1  0.79975702  0.79975698  0.59951399  1
  Mn  Mn2  1  0.20024300  0.20024299  0.40048599  1
  Li  Li3  1  0.59907001  0.59906998  0.19814000  1
  Li  Li4  1  0.00000000  0.00000000  0.00000000  1
  O  O5  1  0.60211801  0.10211800  0.20423600  1
  O  O6  1  0.80012401  0.30012399  0.60024799  1
  O  O7  1  0.19987601  0.69987598  0.39975200  1
  O  O8  1  0.00000000  0.49999998  0.00000000  1
  O  O9  1  0.39788201  0.89788197  0.79576399  1
