# generated using pymatgen
data_PrAu2
_symmetry_space_group_name_H-M   'P 1'
_cell_length_a   4.27330494
_cell_length_b   7.60923386
_cell_length_c   7.60923386
_cell_angle_alpha   120.00000000
_cell_angle_beta   90.00000000
_cell_angle_gamma   90.00000000
_symmetry_Int_Tables_number   1
_chemical_formula_structural   PrAu2
_chemical_formula_sum   'Pr3 Au6'
_cell_volume   214.27740569
_cell_formula_units_Z   3
loop_
 _symmetry_equiv_pos_site_id
 _symmetry_equiv_pos_as_xyz
  1  'x, y, z'
loop_
 _atom_site_type_symbol
 _atom_site_label
 _atom_site_symmetry_multiplicity
 _atom_site_fract_x
 _atom_site_fract_y
 _atom_site_fract_z
 _atom_site_occupancy
  Pr  Pr0  1  0.50000001  0.58579501  0.00000000  1
  Pr  Pr1  1  0.50000001  0.41420501  0.41420501  1
  Pr  Pr2  1  0.50000001  0.00000000  0.58579501  1
  Au  Au3  1  1.00000001  0.24399001  1.00000003  1
  Au  Au4  1  1.00000001  0.75601002  0.75601002  1
  Au  Au5  1  0.00000000  0.00000000  0.24399001  1
  Au  Au6  1  1.00000001  0.33333334  0.66666668  1
  Au  Au7  1  1.00000001  0.66666668  0.33333334  1
  Au  Au8  1  0.50000001  0.00000000  -0.00000000  1
