# generated using pymatgen
data_Cd3Te5Au
_symmetry_space_group_name_H-M   'P 1'
_cell_length_a   3.78323793
_cell_length_b   7.84586620
_cell_length_c   7.84586620
_cell_angle_alpha   86.66763306
_cell_angle_beta   76.04867554
_cell_angle_gamma   76.04867554
_symmetry_Int_Tables_number   1
_chemical_formula_structural   Cd3Te5Au
_chemical_formula_sum   'Cd3 Te5 Au1'
_cell_volume   219.34984737
_cell_formula_units_Z   1
loop_
 _symmetry_equiv_pos_site_id
 _symmetry_equiv_pos_as_xyz
  1  'x, y, z'
loop_
 _atom_site_type_symbol
 _atom_site_label
 _atom_site_symmetry_multiplicity
 _atom_site_fract_x
 _atom_site_fract_y
 _atom_site_fract_z
 _atom_site_occupancy
  Au  Au0  1  0.68938206  0.67914698  0.94208901  1
  Cd  Cd1  1  0.36852908  0.94208897  0.32085302  1
  Cd  Cd2  1  0.63147101  0.05791100  0.67914700  1
  Cd  Cd3  1  0.31061803  0.32085299  0.05791101  1
  Te  Te4  1  0.00000000  0.00000000  0.00000000  1
  Te  Te5  1  0.94812704  0.33746399  0.76628301  1
  Te  Te6  1  0.28559107  0.76628298  0.66253501  1
  Te  Te7  1  0.71440902  0.23371699  0.33746502  1
  Te  Te8  1  0.05187306  0.66253598  0.23371701  1
