# generated using pymatgen
data_ZnSiH5O2
_symmetry_space_group_name_H-M   'P 1'
_cell_length_a   3.37746620
_cell_length_b   5.00769234
_cell_length_c   5.00769234
_cell_angle_alpha   94.21635437
_cell_angle_beta   104.02747345
_cell_angle_gamma   104.02747345
_symmetry_Int_Tables_number   1
_chemical_formula_structural   ZnSiH5O2
_chemical_formula_sum   'Zn1 Si1 H5 O2'
_cell_volume   78.92948092
_cell_formula_units_Z   1
loop_
 _symmetry_equiv_pos_site_id
 _symmetry_equiv_pos_as_xyz
  1  'x, y, z'
loop_
 _atom_site_type_symbol
 _atom_site_label
 _atom_site_symmetry_multiplicity
 _atom_site_fract_x
 _atom_site_fract_y
 _atom_site_fract_z
 _atom_site_occupancy
  Zn  Zn0  1  0.00000000  0.00000000  0.00000000  1
  H  H1  1  0.79725004  0.22893100  0.55141603  1
  H  H2  1  0.79725007  0.55141601  0.22893102  1
  O  O3  1  0.20275008  0.77106901  0.44858398  1
  O  O4  1  0.20275005  0.44858400  0.77106899  1
  H  H5  1  0.00000003  0.26043100  0.73956899  1
  H  H6  1  0.00000007  0.73956901  0.26043098  1
  Si  Si7  1  0.45513909  0.76670201  0.76670199  1
  H  H8  1  0.54486104  0.23329800  0.23329802  1
