# generated using pymatgen
data_EuP2
_symmetry_space_group_name_H-M   'P 1'
_cell_length_a   3.83660793
_cell_length_b   3.83660793
_cell_length_c   9.01674175
_cell_angle_alpha   90.00000000
_cell_angle_beta   90.00000000
_cell_angle_gamma   120.00000000
_symmetry_Int_Tables_number   1
_chemical_formula_structural   EuP2
_chemical_formula_sum   'Eu2 P4'
_cell_volume   114.94103511
_cell_formula_units_Z   2
loop_
 _symmetry_equiv_pos_site_id
 _symmetry_equiv_pos_as_xyz
  1  'x, y, z'
loop_
 _atom_site_type_symbol
 _atom_site_label
 _atom_site_symmetry_multiplicity
 _atom_site_fract_x
 _atom_site_fract_y
 _atom_site_fract_z
 _atom_site_occupancy
  Eu  Eu0  1  0.00000000  0.00000000  0.00000000  1
  Eu  Eu1  1  0.00000000  0.00000000  0.50000001  1
  P  P2  1  0.33333334  0.66666668  0.75000002  1
  P  P3  1  0.66666668  0.33333334  0.25000001  1
  P  P4  1  0.66666668  0.33333334  0.75000002  1
  P  P5  1  0.33333334  0.66666668  0.25000001  1
