# generated using pymatgen
data_UCo3B2
_symmetry_space_group_name_H-M   'P 1'
_cell_length_a   3.02725601
_cell_length_b   4.95676422
_cell_length_c   4.95676422
_cell_angle_alpha   120.00000000
_cell_angle_beta   90.00000000
_cell_angle_gamma   90.00000000
_symmetry_Int_Tables_number   1
_chemical_formula_structural   UCo3B2
_chemical_formula_sum   'U1 Co3 B2'
_cell_volume   64.41341202
_cell_formula_units_Z   1
loop_
 _symmetry_equiv_pos_site_id
 _symmetry_equiv_pos_as_xyz
  1  'x, y, z'
loop_
 _atom_site_type_symbol
 _atom_site_label
 _atom_site_symmetry_multiplicity
 _atom_site_fract_x
 _atom_site_fract_y
 _atom_site_fract_z
 _atom_site_occupancy
  U  U0  1  0.00000000  0.00000000  0.00000000  1
  Co  Co1  1  0.50000000  0.49999999  0.50000004  1
  Co  Co2  1  0.50000000  0.49999999  0.00000003  1
  Co  Co3  1  0.50000000  0.00000000  0.50000002  1
  B  B4  1  0.00000000  0.66666665  0.33333338  1
  B  B5  1  0.00000000  0.33333333  0.66666671  1
