# generated using pymatgen
data_CsAgBr2
_symmetry_space_group_name_H-M   'P 1'
_cell_length_a   4.66612387
_cell_length_b   6.04444599
_cell_length_c   10.43640614
_cell_angle_alpha   90.00000000
_cell_angle_beta   102.91764832
_cell_angle_gamma   90.00000000
_symmetry_Int_Tables_number   1
_chemical_formula_structural   CsAgBr2
_chemical_formula_sum   'Cs2 Ag2 Br4'
_cell_volume   286.90050194
_cell_formula_units_Z   2
loop_
 _symmetry_equiv_pos_site_id
 _symmetry_equiv_pos_as_xyz
  1  'x, y, z'
loop_
 _atom_site_type_symbol
 _atom_site_label
 _atom_site_symmetry_multiplicity
 _atom_site_fract_x
 _atom_site_fract_y
 _atom_site_fract_z
 _atom_site_occupancy
  Cs  Cs0  1  0.58456602  0.75000000  0.16913202  1
  Cs  Cs1  1  0.41543402  0.25000000  0.83086804  1
  Ag  Ag2  1  0.20089801  0.25000000  0.40179602  1
  Ag  Ag3  1  0.79910203  0.75000000  0.59820403  1
  Br  Br4  1  0.93069903  0.75000000  0.86139805  1
  Br  Br5  1  0.06930100  0.25000000  0.13860201  1
  Br  Br6  1  0.77469503  0.25000000  0.54939003  1
  Br  Br7  1  0.22530501  0.75000000  0.45061002  1
