# generated using pymatgen
data_NdAg19
_symmetry_space_group_name_H-M   'P 1'
_cell_length_a   4.53606987
_cell_length_b   10.37298203
_cell_length_c   10.39315987
_cell_angle_alpha   116.79383850
_cell_angle_beta   90.00000000
_cell_angle_gamma   90.00000000
_symmetry_Int_Tables_number   1
_chemical_formula_structural   NdAg19
_chemical_formula_sum   'Nd1 Ag19'
_cell_volume   436.52039470
_cell_formula_units_Z   1
loop_
 _symmetry_equiv_pos_site_id
 _symmetry_equiv_pos_as_xyz
  1  'x, y, z'
loop_
 _atom_site_type_symbol
 _atom_site_label
 _atom_site_symmetry_multiplicity
 _atom_site_fract_x
 _atom_site_fract_y
 _atom_site_fract_z
 _atom_site_occupancy
  Nd  Nd0  1  0.75000002  0.04778300  0.78984298  1
  Ag  Ag1  1  0.25000001  0.95221703  0.21015706  1
  Ag  Ag2  1  0.75000002  0.40130301  0.70998601  1
  Ag  Ag3  1  0.25000001  0.59869702  0.29001403  1
  Ag  Ag4  1  0.75000002  0.64515202  0.55253203  1
  Ag  Ag5  1  0.25000001  0.35484801  0.44746801  1
  Ag  Ag6  1  0.75000002  0.88112803  0.42468505  1
  Ag  Ag7  1  0.25000001  0.11887200  0.57531499  1
  Ag  Ag8  1  0.75000002  0.77347702  0.89626003  1
  Ag  Ag9  1  0.25000001  0.22652301  0.10374001  1
  Ag  Ag10  1  0.75000002  0.40566101  0.04087303  1
  Ag  Ag11  1  0.25000001  0.59433902  0.95912701  1
  Ag  Ag12  1  0.75000002  0.37375801  0.29667402  1
  Ag  Ag13  1  0.25000001  0.62624202  0.70332602  1
  Ag  Ag14  1  0.75000002  0.15721600  0.41857300  1
  Ag  Ag15  1  0.25000001  0.84278402  0.58142704  1
  Ag  Ag16  1  0.75000002  0.70542402  0.13165905  1
  Ag  Ag17  1  0.25000001  0.29457601  0.86834100  1
  Ag  Ag18  1  0.75000002  0.06982900  0.09956400  1
  Ag  Ag19  1  0.25000001  0.93017103  0.90043604  1
