# generated using pymatgen
data_LaCoO3
_symmetry_space_group_name_H-M   'P 1'
_cell_length_a   5.48885250
_cell_length_b   5.50655508
_cell_length_c   7.71662235
_cell_angle_alpha   90.00016022
_cell_angle_beta   89.95320129
_cell_angle_gamma   90.00008392
_symmetry_Int_Tables_number   1
_chemical_formula_structural   LaCoO3
_chemical_formula_sum   'La4 Co4 O12'
_cell_volume   233.23227571
_cell_formula_units_Z   4
loop_
 _symmetry_equiv_pos_site_id
 _symmetry_equiv_pos_as_xyz
  1  'x, y, z'
loop_
 _atom_site_type_symbol
 _atom_site_label
 _atom_site_symmetry_multiplicity
 _atom_site_fract_x
 _atom_site_fract_y
 _atom_site_fract_z
 _atom_site_occupancy
  La  La0  1  0.50974601  0.53624999  0.75011702  1
  La  La1  1  0.00974301  0.96375099  0.25012204  1
  La  La2  1  0.99374901  0.02647400  0.75003099  1
  La  La3  1  0.49374201  0.47352099  0.25003501  1
  Co  Co4  1  0.49958100  0.00000700  0.00059299  1
  Co  Co5  1  0.99957801  0.49998899  0.50059200  1
  Co  Co6  1  0.99960701  0.50003099  0.99928502  1
  Co  Co7  1  0.49960601  0.99996899  0.49928703  1
  O  O8  1  0.57965901  0.01320900  0.24360499  1
  O  O9  1  0.07966101  0.48679099  0.74360403  1
  O  O10  1  0.22289500  0.21398200  0.04120900  1
  O  O11  1  0.72289301  0.28601800  0.54120900  1
  O  O12  1  0.21231600  0.22261500  0.45834401  1
  O  O13  1  0.71231601  0.27738600  0.95834301  1
  O  O14  1  0.92864601  0.51682299  0.25622400  1
  O  O15  1  0.42864201  0.98318499  0.75622404  1
  O  O16  1  0.27185401  0.71880399  0.46204103  1
  O  O17  1  0.77185501  0.78119999  0.96203803  1
  O  O18  1  0.28195601  0.72675899  0.03854802  1
  O  O19  1  0.78195201  0.77323399  0.53855002  1
