# generated using pymatgen
data_LiBr2
_symmetry_space_group_name_H-M   'P 1'
_cell_length_a   4.74763584
_cell_length_b   4.74763584
_cell_length_c   4.92155790
_cell_angle_alpha   104.05812073
_cell_angle_beta   104.05812073
_cell_angle_gamma   119.76150513
_symmetry_Int_Tables_number   1
_chemical_formula_structural   LiBr2
_chemical_formula_sum   'Li2 Br4'
_cell_volume   84.26550529
_cell_formula_units_Z   2
loop_
 _symmetry_equiv_pos_site_id
 _symmetry_equiv_pos_as_xyz
  1  'x, y, z'
loop_
 _atom_site_type_symbol
 _atom_site_label
 _atom_site_symmetry_multiplicity
 _atom_site_fract_x
 _atom_site_fract_y
 _atom_site_fract_z
 _atom_site_occupancy
  Br  Br0  1  0.07786087  0.92213894  0.49999990  1
  Li  Li1  1  0.42213893  0.57786096  0.49999991  1
  Br  Br2  1  0.74999998  0.24999998  0.49999993  1
  Br  Br3  1  0.00000000  0.00000000  0.00000000  1
  Li  Li4  1  0.66934297  0.33065698  -0.00000007  1
  Br  Br5  1  0.33065691  0.66934296  0.99999991  1
