# generated using pymatgen
data_Na9Se11
_symmetry_space_group_name_H-M   'P 1'
_cell_length_a   7.33799601
_cell_length_b   7.44746017
_cell_length_c   11.28289700
_cell_angle_alpha   70.72920990
_cell_angle_beta   83.72541809
_cell_angle_gamma   70.66088104
_symmetry_Int_Tables_number   1
_chemical_formula_structural   Na9Se11
_chemical_formula_sum   'Na9 Se11'
_cell_volume   549.21276884
_cell_formula_units_Z   1
loop_
 _symmetry_equiv_pos_site_id
 _symmetry_equiv_pos_as_xyz
  1  'x, y, z'
loop_
 _atom_site_type_symbol
 _atom_site_label
 _atom_site_symmetry_multiplicity
 _atom_site_fract_x
 _atom_site_fract_y
 _atom_site_fract_z
 _atom_site_occupancy
  Se  Se0  1  0.25504398  0.75656100  0.99999998  1
  Na  Na1  1  0.25052699  0.34799300  0.79967599  1
  Na  Na2  1  0.74495598  0.24343900  -0.00000001  1
  Na  Na3  1  0.23799097  0.94969500  0.60516397  1
  Na  Na4  1  0.74947296  0.85233100  0.79967597  1
  Na  Na5  1  0.23799098  0.55485900  0.39483598  1
  Na  Na6  1  0.76200897  0.44514100  0.60516399  1
  Na  Na7  1  0.25052699  0.14766900  0.20032400  1
  Na  Na8  1  0.76200898  0.05030500  0.39483600  1
  Na  Na9  1  0.74947297  0.65200700  0.20032397  1
  Se  Se10  1  -0.00000001  0.50000000  -0.00000002  1
  Se  Se11  1  0.49999998  0.20225100  0.59549800  1
  Se  Se12  1  0.49999997  0.79774900  0.40450197  1
  Se  Se13  1  -0.00000002  0.90237900  0.19524197  1
  Se  Se14  1  0.49999998  0.40034900  0.19930198  1
  Se  Se15  1  0.49999999  0.00000000  -0.00000000  1
  Se  Se16  1  0.49999998  0.59965100  0.80069798  1
  Se  Se17  1  -0.00000000  0.09762100  0.80475801  1
  Se  Se18  1  -0.00000002  0.69978800  0.60042398  1
  Se  Se19  1  -0.00000001  0.30021200  0.39957599  1
