# generated using pymatgen
data_Li3F4
_symmetry_space_group_name_H-M   'P 1'
_cell_length_a   4.15698624
_cell_length_b   4.15698624
_cell_length_c   5.04240084
_cell_angle_alpha   114.34329987
_cell_angle_beta   114.34329987
_cell_angle_gamma   90.00000000
_symmetry_Int_Tables_number   1
_chemical_formula_structural   Li3F4
_chemical_formula_sum   'Li3 F4'
_cell_volume   70.79862952
_cell_formula_units_Z   1
loop_
 _symmetry_equiv_pos_site_id
 _symmetry_equiv_pos_as_xyz
  1  'x, y, z'
loop_
 _atom_site_type_symbol
 _atom_site_label
 _atom_site_symmetry_multiplicity
 _atom_site_fract_x
 _atom_site_fract_y
 _atom_site_fract_z
 _atom_site_occupancy
  Li  Li0  1  0.24999995  0.74999994  0.49999995  1
  Li  Li1  1  0.49999994  0.49999996  -0.00000004  1
  Li  Li2  1  0.74999993  0.24999998  0.49999996  1
  F  F3  1  0.99999990  0.49999996  -0.00000006  1
  F  F4  1  0.24123197  0.24123198  0.48246398  1
  F  F5  1  0.49999996  0.00000000  -0.00000002  1
  F  F6  1  0.75876791  0.75876794  0.51753593  1
