# generated using pymatgen
data_Ba2Sr2PrSm(BiO6)2
_symmetry_space_group_name_H-M   'P 1'
_cell_length_a   6.05209970
_cell_length_b   6.21867752
_cell_length_c   8.67374802
_cell_angle_alpha   89.99961853
_cell_angle_beta   89.69085693
_cell_angle_gamma   89.99888611
_symmetry_Int_Tables_number   1
_chemical_formula_structural   Ba2Sr2PrSm(BiO6)2
_chemical_formula_sum   'Ba2 Sr2 Pr1 Sm1 Bi2 O12'
_cell_volume   326.44091761
_cell_formula_units_Z   1
loop_
 _symmetry_equiv_pos_site_id
 _symmetry_equiv_pos_as_xyz
  1  'x, y, z'
loop_
 _atom_site_type_symbol
 _atom_site_label
 _atom_site_symmetry_multiplicity
 _atom_site_fract_x
 _atom_site_fract_y
 _atom_site_fract_z
 _atom_site_occupancy
  Sr  Sr0  1  0.51263477  0.54819407  0.25054801  1
  Ba  Ba1  1  0.98733622  0.04819190  0.24941459  1
  Sr  Sr2  1  0.48736525  0.45180593  0.74945198  1
  Ba  Ba3  1  0.01266380  0.95180811  0.75058540  1
  Pr  Pr4  1  0.50000002  0.00000000  -0.00000000  1
  Sm  Sm5  1  -0.00000001  0.50000000  0.50000000  1
  Bi  Bi6  1  -0.00000001  0.50000000  0.00000002  1
  Bi  Bi7  1  0.50000002  0.00000000  0.49999997  1
  O  O8  1  0.18243540  0.21324146  0.94183160  1
  O  O9  1  0.31757307  0.71319835  0.55818401  1
  O  O10  1  0.81756462  0.78675855  0.05816840  1
  O  O11  1  0.68242695  0.28680166  0.44181598  1
  O  O12  1  0.28686677  0.68918161  0.94625391  1
  O  O13  1  0.21309150  0.18917151  0.55376612  1
  O  O14  1  0.71313325  0.31081840  0.05374609  1
  O  O15  1  0.78690852  0.81082850  0.44623387  1
  O  O16  1  0.39458009  0.95581016  0.26462313  1
  O  O17  1  0.10537013  0.45579421  0.23539799  1
  O  O18  1  0.60541993  0.04418985  0.73537686  1
  O  O19  1  0.89462989  0.54420579  0.76460200  1
