# generated using pymatgen
data_Ho(SiNi)2
_symmetry_space_group_name_H-M   'P 1'
_cell_length_a   4.05506420
_cell_length_b   4.05506420
_cell_length_c   5.57622433
_cell_angle_alpha   111.32163239
_cell_angle_beta   111.32163239
_cell_angle_gamma   90.00000000
_symmetry_Int_Tables_number   1
_chemical_formula_structural   Ho(SiNi)2
_chemical_formula_sum   'Ho1 Si2 Ni2'
_cell_volume   78.64160389
_cell_formula_units_Z   1
loop_
 _symmetry_equiv_pos_site_id
 _symmetry_equiv_pos_as_xyz
  1  'x, y, z'
loop_
 _atom_site_type_symbol
 _atom_site_label
 _atom_site_symmetry_multiplicity
 _atom_site_fract_x
 _atom_site_fract_y
 _atom_site_fract_z
 _atom_site_occupancy
  Ho  Ho0  1  0.00000000  0.00000000  0.00000000  1
  Si  Si1  1  0.37521796  0.37521797  0.75043599  1
  Si  Si2  1  0.62478193  0.62478195  0.24956396  1
  Ni  Ni3  1  0.24999995  0.74999995  0.49999997  1
  Ni  Ni4  1  0.74999994  0.24999998  0.49999997  1
