# generated using pymatgen
data_LuGe2
_symmetry_space_group_name_H-M   'P 1'
_cell_length_a   4.32435608
_cell_length_b   7.05811119
_cell_length_c   7.47116899
_cell_angle_alpha   90.00000000
_cell_angle_beta   90.00000000
_cell_angle_gamma   90.00000000
_symmetry_Int_Tables_number   1
_chemical_formula_structural   LuGe2
_chemical_formula_sum   'Lu4 Ge8'
_cell_volume   228.03342149
_cell_formula_units_Z   4
loop_
 _symmetry_equiv_pos_site_id
 _symmetry_equiv_pos_as_xyz
  1  'x, y, z'
loop_
 _atom_site_type_symbol
 _atom_site_label
 _atom_site_symmetry_multiplicity
 _atom_site_fract_x
 _atom_site_fract_y
 _atom_site_fract_z
 _atom_site_occupancy
  Lu  Lu0  1  0.25000000  0.02075100  0.81063400  1
  Lu  Lu1  1  0.25000000  0.52075099  0.68936600  1
  Lu  Lu2  1  0.74999999  0.97924897  0.18936600  1
  Lu  Lu3  1  0.74999999  0.47924899  0.31063400  1
  Ge  Ge4  1  0.25000000  0.16611500  0.42243100  1
  Ge  Ge5  1  0.25000000  0.66611498  0.07756900  1
  Ge  Ge6  1  0.74999999  0.83388498  0.57756900  1
  Ge  Ge7  1  0.74999999  0.33388499  0.92243100  1
  Ge  Ge8  1  0.25000000  0.80324698  0.39671700  1
  Ge  Ge9  1  0.25000000  0.30324699  0.10328300  1
  Ge  Ge10  1  0.74999999  0.19675299  0.60328300  1
  Ge  Ge11  1  0.74999999  0.69675298  0.89671700  1
