# generated using pymatgen
data_TbGe3
_symmetry_space_group_name_H-M   'P 1'
_cell_length_a   4.33556509
_cell_length_b   8.76915359
_cell_length_c   9.49433613
_cell_angle_alpha   117.50395203
_cell_angle_beta   103.19841003
_cell_angle_gamma   90.00000000
_symmetry_Int_Tables_number   1
_chemical_formula_structural   TbGe3
_chemical_formula_sum   'Tb4 Ge12'
_cell_volume   309.38085300
_cell_formula_units_Z   4
loop_
 _symmetry_equiv_pos_site_id
 _symmetry_equiv_pos_as_xyz
  1  'x, y, z'
loop_
 _atom_site_type_symbol
 _atom_site_label
 _atom_site_symmetry_multiplicity
 _atom_site_fract_x
 _atom_site_fract_y
 _atom_site_fract_z
 _atom_site_occupancy
  Tb  Tb0  1  1.00000000  0.26351902  0.00000003  1
  Tb  Tb1  1  0.00000004  0.73648105  0.00000003  1
  Tb  Tb2  1  0.20308004  0.70308005  0.40616002  1
  Tb  Tb3  1  0.79692001  0.29692002  0.59384000  1
  Ge  Ge4  1  0.57380500  0.07380600  0.14761101  1
  Ge  Ge5  1  0.42619504  0.92619406  0.85238901  1
  Ge  Ge6  1  0.57427802  0.57427804  0.14855603  1
  Ge  Ge7  1  0.42572202  0.42572203  0.85144399  1
  Ge  Ge8  1  0.80055502  0.64984804  0.60110902  1
  Ge  Ge9  1  0.19944502  0.35015202  0.39889100  1
  Ge  Ge10  1  0.80055504  0.95126106  0.60110903  1
  Ge  Ge11  1  0.19944500  0.04873900  0.39889099  1
  Ge  Ge12  1  0.64733501  0.39778703  0.29467002  1
  Ge  Ge13  1  0.35266503  0.60221304  0.70533000  1
  Ge  Ge14  1  0.64733504  0.89688306  0.29467003  1
  Ge  Ge15  1  0.35266500  0.10311701  0.70532998  1
