# generated using pymatgen
data_Ge4P3Se
_symmetry_space_group_name_H-M   'P 1'
_cell_length_a   5.59604216
_cell_length_b   5.59604216
_cell_length_c   6.86404800
_cell_angle_alpha   113.82117462
_cell_angle_beta   113.82117462
_cell_angle_gamma   90.52722168
_symmetry_Int_Tables_number   1
_chemical_formula_structural   Ge4P3Se
_chemical_formula_sum   'Ge4 P3 Se1'
_cell_volume   176.03402720
_cell_formula_units_Z   1
loop_
 _symmetry_equiv_pos_site_id
 _symmetry_equiv_pos_as_xyz
  1  'x, y, z'
loop_
 _atom_site_type_symbol
 _atom_site_label
 _atom_site_symmetry_multiplicity
 _atom_site_fract_x
 _atom_site_fract_y
 _atom_site_fract_z
 _atom_site_occupancy
  Se  Se0  1  0.00906900  0.00906900  0.01813800  1
  P  P1  1  0.23933807  0.73933803  0.47867604  1
  P  P2  1  0.73933803  0.23933801  0.47867602  1
  P  P3  1  0.50559805  0.50559802  0.01119604  1
  Ge  Ge4  1  0.10646606  0.62781902  0.73428502  1
  Ge  Ge5  1  0.62781902  0.10646600  0.73428501  1
  Ge  Ge6  1  0.37936504  0.37936501  0.27237202  1
  Ge  Ge7  1  0.89300710  0.89300703  0.27237206  1
