# generated using pymatgen
data_GeBiO4
_symmetry_space_group_name_H-M   'P 1'
_cell_length_a   5.01711178
_cell_length_b   5.01711178
_cell_length_c   6.56302023
_cell_angle_alpha   112.47162628
_cell_angle_beta   112.47162628
_cell_angle_gamma   90.00000000
_symmetry_Int_Tables_number   1
_chemical_formula_structural   GeBiO4
_chemical_formula_sum   'Ge2 Bi2 O8'
_cell_volume   138.98523127
_cell_formula_units_Z   2
loop_
 _symmetry_equiv_pos_site_id
 _symmetry_equiv_pos_as_xyz
  1  'x, y, z'
loop_
 _atom_site_type_symbol
 _atom_site_label
 _atom_site_symmetry_multiplicity
 _atom_site_fract_x
 _atom_site_fract_y
 _atom_site_fract_z
 _atom_site_occupancy
  Bi  Bi0  1  0.50000002  0.50000002  0.00000000  1
  Bi  Bi1  1  0.25000001  0.75000003  0.49999999  1
  Ge  Ge2  1  0.00000000  0.00000000  0.00000000  1
  Ge  Ge3  1  0.75000004  0.25000001  0.49999999  1
  O  O4  1  0.65941303  0.07167600  0.83639798  1
  O  O5  1  0.82167604  0.42698502  0.33639799  1
  O  O6  1  0.51472203  0.90941304  0.33639799  1
  O  O7  1  0.17698501  0.76472204  0.83639798  1
  O  O8  1  0.57301503  0.48527802  0.66360198  1
  O  O9  1  0.23527801  0.34058702  0.16360200  1
  O  O10  1  0.92832405  0.82301504  0.16360200  1
  O  O11  1  0.09058700  0.17832401  0.66360198  1
