# generated using pymatgen
data_TaGa12Co6Se
_symmetry_space_group_name_H-M   'P 1'
_cell_length_a   3.51448107
_cell_length_b   6.49518204
_cell_length_c   16.55313683
_cell_angle_alpha   90.00000000
_cell_angle_beta   90.00000000
_cell_angle_gamma   90.00000000
_symmetry_Int_Tables_number   1
_chemical_formula_structural   TaGa12Co6Se
_chemical_formula_sum   'Ta1 Ga12 Co6 Se1'
_cell_volume   377.86167061
_cell_formula_units_Z   1
loop_
 _symmetry_equiv_pos_site_id
 _symmetry_equiv_pos_as_xyz
  1  'x, y, z'
loop_
 _atom_site_type_symbol
 _atom_site_label
 _atom_site_symmetry_multiplicity
 _atom_site_fract_x
 _atom_site_fract_y
 _atom_site_fract_z
 _atom_site_occupancy
  Ta  Ta0  1  0.25000000  0.90816099  0.72129596  1
  Ga  Ga1  1  0.74999999  0.09183900  0.27870399  1
  Ga  Ga2  1  0.25000000  0.40816100  0.77870396  1
  Ga  Ga3  1  0.74999999  0.59183900  0.22129599  1
  Co  Co4  1  0.74999999  0.60333900  0.68044997  1
  Co  Co5  1  0.25000000  0.39666100  0.31954998  1
  Co  Co6  1  0.25000000  0.89666099  0.18044999  1
  Ga  Ga7  1  0.25000000  0.78562900  0.32071398  1
  Ga  Ga8  1  0.74999999  0.71437100  0.82071396  1
  Ga  Ga9  1  0.74999999  0.10333900  0.81954996  1
  Co  Co10  1  0.74999999  0.21437100  0.67928597  1
  Co  Co11  1  0.25000000  0.28562900  0.17928599  1
  Ga  Ga12  1  0.25000000  0.90965099  0.90291095  1
  Ga  Ga13  1  0.74999999  0.59034900  0.40291098  1
  Ga  Ga14  1  0.74999999  0.09034900  0.09708900  1
  Ga  Ga15  1  0.25000000  0.40965100  0.59708897  1
  Se  Se16  1  0.74999999  0.90895399  0.59988697  1
  Ga  Ga17  1  0.25000000  0.59104600  0.09988700  1
  Co  Co18  1  0.74999999  0.40895400  0.90011296  1
  Ga  Ga19  1  0.25000000  0.09104600  0.40011298  1
