# generated using pymatgen
data_BaSr3Bi2(TeO6)2
_symmetry_space_group_name_H-M   'P 1'
_cell_length_a   5.84812880
_cell_length_b   5.93686581
_cell_length_c   8.30897617
_cell_angle_alpha   90.00000000
_cell_angle_beta   89.78751373
_cell_angle_gamma   90.00000000
_symmetry_Int_Tables_number   1
_chemical_formula_structural   BaSr3Bi2(TeO6)2
_chemical_formula_sum   'Ba1 Sr3 Bi2 Te2 O12'
_cell_volume   288.48197871
_cell_formula_units_Z   1
loop_
 _symmetry_equiv_pos_site_id
 _symmetry_equiv_pos_as_xyz
  1  'x, y, z'
loop_
 _atom_site_type_symbol
 _atom_site_label
 _atom_site_symmetry_multiplicity
 _atom_site_fract_x
 _atom_site_fract_y
 _atom_site_fract_z
 _atom_site_occupancy
  Sr  Sr0  1  0.49083302  0.53875402  0.25056598  1
  Sr  Sr1  1  0.00916700  0.03875400  0.24943400  1
  Ba  Ba2  1  0.99083303  0.96124603  0.75056596  1
  Sr  Sr3  1  0.50916702  0.46124602  0.74943398  1
  Bi  Bi4  1  0.50000002  0.00000000  0.49999998  1
  Bi  Bi5  1  0.00000000  0.50000002  -0.00000000  1
  Te  Te6  1  0.50000002  0.00000000  -0.00000002  1
  Te  Te7  1  0.00000000  0.50000002  0.50000000  1
  O  O8  1  0.08039000  0.52653302  0.72772299  1
  O  O9  1  0.41961001  0.02653300  0.77227698  1
  O  O10  1  0.91961003  0.47346702  0.27227696  1
  O  O11  1  0.58039002  0.97346703  0.22772298  1
  O  O12  1  0.18701101  0.76676002  0.45348299  1
  O  O13  1  0.31298901  0.26676001  0.04651699  1
  O  O14  1  0.81298903  0.23324001  0.54651697  1
  O  O15  1  0.68701102  0.73324002  0.95348297  1
  O  O16  1  0.76686403  0.19154001  0.96084197  1
  O  O17  1  0.73313603  0.69154002  0.53915797  1
  O  O18  1  0.23313601  0.80846003  0.03915799  1
  O  O19  1  0.26686401  0.30846001  0.46084199  1
