# generated using pymatgen
data_V7O11
_symmetry_space_group_name_H-M   'P 1'
_cell_length_a   3.01623511
_cell_length_b   6.42920685
_cell_length_c   10.17295170
_cell_angle_alpha   108.37853241
_cell_angle_beta   90.00000000
_cell_angle_gamma   90.00000000
_symmetry_Int_Tables_number   1
_chemical_formula_structural   V7O11
_chemical_formula_sum   'V7 O11'
_cell_volume   187.21176440
_cell_formula_units_Z   1
loop_
 _symmetry_equiv_pos_site_id
 _symmetry_equiv_pos_as_xyz
  1  'x, y, z'
loop_
 _atom_site_type_symbol
 _atom_site_label
 _atom_site_symmetry_multiplicity
 _atom_site_fract_x
 _atom_site_fract_y
 _atom_site_fract_z
 _atom_site_occupancy
  V  V0  1  -0.00000000  0.00701300  0.01432500  1
  V  V1  1  0.49999998  0.18680900  0.33954699  1
  V  V2  1  0.49999998  0.49898400  0.99946797  1
  V  V3  1  0.99999996  0.33517300  0.66796698  1
  V  V4  1  0.00000000  0.65208700  0.32841497  1
  V  V5  1  0.49999998  0.82629600  0.65221996  1
  O  O6  1  0.49999998  0.06681400  0.13671800  1
  O  O7  1  0.00000000  0.69447900  0.99889696  1
  O  O8  1  0.00000000  0.30318100  0.99854398  1
  O  O9  1  -0.00000000  0.64085400  0.66607297  1
  O  O10  1  0.49999998  0.26478500  0.53895198  1
  O  O11  1  0.49999998  0.60249900  0.20180697  1
  O  O12  1  0.49999998  0.73111100  0.45704597  1
  O  O13  1  0.49999998  0.39770700  0.79539098  1
  V  V14  1  -0.00000000  0.02543300  0.66677899  1
  O  O15  1  -0.00000000  0.36451700  0.33510998  1
  O  O16  1  -0.00000000  0.96810200  0.33384896  1
  O  O17  1  0.49999998  0.93415400  0.86889195  1
