# generated using pymatgen
data_Ho3In4Au3
_symmetry_space_group_name_H-M   'P 1'
_cell_length_a   4.41918898
_cell_length_b   7.39105320
_cell_length_c   7.39105320
_cell_angle_alpha   90.00000000
_cell_angle_beta   90.00000000
_cell_angle_gamma   90.00000000
_symmetry_Int_Tables_number   1
_chemical_formula_structural   Ho3In4Au3
_chemical_formula_sum   'Ho3 In4 Au3'
_cell_volume   241.40998558
_cell_formula_units_Z   1
loop_
 _symmetry_equiv_pos_site_id
 _symmetry_equiv_pos_as_xyz
  1  'x, y, z'
loop_
 _atom_site_type_symbol
 _atom_site_label
 _atom_site_symmetry_multiplicity
 _atom_site_fract_x
 _atom_site_fract_y
 _atom_site_fract_z
 _atom_site_occupancy
  Ho  Ho0  1  0.50000000  0.67768498  0.17768500  1
  Ho  Ho1  1  0.50000000  0.82231498  0.67768498  1
  Ho  Ho2  1  0.50000000  0.17768500  0.32231499  1
  In  In3  1  0.50000000  0.32231499  0.82231498  1
  In  In4  1  0.00000000  0.49999999  0.49999999  1
  In  In5  1  0.00000000  0.00000000  0.00000000  1
  Au  Au6  1  0.00000000  0.61806898  0.88193098  1
  Au  Au7  1  0.00000000  0.88193098  0.38193099  1
  In  In8  1  1.00000001  0.11806900  0.61806898  1
  Au  Au9  1  0.00000000  0.38193099  0.11806900  1
