# generated using pymatgen
data_BaTe11
_symmetry_space_group_name_H-M   'P 1'
_cell_length_a   4.63322783
_cell_length_b   4.63322878
_cell_length_c   18.79750824
_cell_angle_alpha   90.00000000
_cell_angle_beta   90.00000000
_cell_angle_gamma   119.99999237
_symmetry_Int_Tables_number   1
_chemical_formula_structural   BaTe11
_chemical_formula_sum   'Ba1 Te11'
_cell_volume   349.46070609
_cell_formula_units_Z   1
loop_
 _symmetry_equiv_pos_site_id
 _symmetry_equiv_pos_as_xyz
  1  'x, y, z'
loop_
 _atom_site_type_symbol
 _atom_site_label
 _atom_site_symmetry_multiplicity
 _atom_site_fract_x
 _atom_site_fract_y
 _atom_site_fract_z
 _atom_site_occupancy
  Ba  Ba0  1  0.00000000  0.00000000  0.00000000  1
  Te  Te1  1  0.00000000  0.00000000  0.75000003  1
  Te  Te2  1  0.00000000  0.00000000  0.50000002  1
  Te  Te3  1  0.00000000  0.00000000  0.25000001  1
  Te  Te4  1  0.33333331  0.66666665  0.16154701  1
  Te  Te5  1  0.66666668  0.33333332  0.66154703  1
  Te  Te6  1  0.33333331  0.66666665  0.33845301  1
  Te  Te7  1  0.66666668  0.33333332  0.83845303  1
  Te  Te8  1  0.66666668  0.33333332  0.38395302  1
  Te  Te9  1  0.33333331  0.66666665  0.88395304  1
  Te  Te10  1  0.33333331  0.66666665  0.61604702  1
  Te  Te11  1  0.66666668  0.33333332  0.11604700  1
