# generated using pymatgen
data_MoS
_symmetry_space_group_name_H-M   'P 1'
_cell_length_a   2.89428401
_cell_length_b   2.89428401
_cell_length_c   14.57079220
_cell_angle_alpha   90.00000000
_cell_angle_beta   90.00000000
_cell_angle_gamma   90.00000000
_symmetry_Int_Tables_number   1
_chemical_formula_structural   MoS
_chemical_formula_sum   'Mo5 S5'
_cell_volume   122.05777673
_cell_formula_units_Z   5
loop_
 _symmetry_equiv_pos_site_id
 _symmetry_equiv_pos_as_xyz
  1  'x, y, z'
loop_
 _atom_site_type_symbol
 _atom_site_label
 _atom_site_symmetry_multiplicity
 _atom_site_fract_x
 _atom_site_fract_y
 _atom_site_fract_z
 _atom_site_occupancy
  Mo  Mo0  1  0.00000000  0.00000000  0.20242000  1
  Mo  Mo1  1  0.00000000  0.00000000  0.40025499  1
  Mo  Mo2  1  0.00000000  0.00000000  0.59974499  1
  Mo  Mo3  1  0.00000000  0.00000000  0.79757999  1
  S  S4  1  0.50000000  0.50000000  0.09710300  1
  S  S5  1  0.50000000  0.50000000  0.30083900  1
  S  S6  1  0.50000000  0.50000000  0.49999999  1
  S  S7  1  0.50000000  0.50000000  0.69916099  1
  S  S8  1  0.50000000  0.50000000  0.90289699  1
  Mo  Mo9  1  0.00000000  0.00000000  0.00000000  1
