# generated using pymatgen
data_Se11S9
_symmetry_space_group_name_H-M   'P 1'
_cell_length_a   6.40302706
_cell_length_b   6.74996424
_cell_length_c   10.31235409
_cell_angle_alpha   70.89325714
_cell_angle_beta   89.99561310
_cell_angle_gamma   89.94505310
_symmetry_Int_Tables_number   1
_chemical_formula_structural   Se11S9
_chemical_formula_sum   'Se11 S9'
_cell_volume   421.14828816
_cell_formula_units_Z   1
loop_
 _symmetry_equiv_pos_site_id
 _symmetry_equiv_pos_as_xyz
  1  'x, y, z'
loop_
 _atom_site_type_symbol
 _atom_site_label
 _atom_site_symmetry_multiplicity
 _atom_site_fract_x
 _atom_site_fract_y
 _atom_site_fract_z
 _atom_site_occupancy
  Se  Se0  1  0.50563597  0.52911698  0.59839203  1
  Se  Se1  1  0.49915199  0.13536099  0.40146602  1
  Se  Se2  1  0.49654296  0.73348797  0.20110804  1
  S  S3  1  0.00106996  0.66942697  0.00022503  1
  Se  Se4  1  0.99931998  0.26457699  0.79759903  1
  Se  Se5  1  0.00301198  0.46557598  0.40244102  1
  Se  Se6  1  0.50088895  0.93695696  0.79951605  1
  Se  Se7  1  0.00189800  0.06905400  0.19960400  1
  Se  Se8  1  0.50252098  0.33223199  0.99992002  1
  Se  Se9  1  0.00192695  0.86538996  0.60026403  1
  Se  Se10  1  0.90039197  0.33227199  0.00182304  1
  S  S11  1  0.86118694  0.93319696  0.81306506  1
  S  S12  1  0.86954497  0.51080298  0.59990304  1
  S  S13  1  0.86905998  0.14842399  0.38338103  1
  Se  Se14  1  0.87370195  0.74118897  0.20144905  1
  S  S15  1  0.36258199  0.05222400  0.21385901  1
  S  S16  1  0.37026396  0.69082397  0.99640103  1
  S  S17  1  0.36806798  0.25976599  0.78731901  1
  S  S18  1  0.39947295  0.86327896  0.60470904  1
  S  S19  1  0.37375797  0.46684398  0.39755503  1
