# generated using pymatgen
data_EuAu2
_symmetry_space_group_name_H-M   'P 1'
_cell_length_a   4.72787189
_cell_length_b   7.46090317
_cell_length_c   7.99922323
_cell_angle_alpha   90.00000000
_cell_angle_beta   90.00000000
_cell_angle_gamma   90.00000000
_symmetry_Int_Tables_number   1
_chemical_formula_structural   EuAu2
_chemical_formula_sum   'Eu4 Au8'
_cell_volume   282.16615532
_cell_formula_units_Z   4
loop_
 _symmetry_equiv_pos_site_id
 _symmetry_equiv_pos_as_xyz
  1  'x, y, z'
loop_
 _atom_site_type_symbol
 _atom_site_label
 _atom_site_symmetry_multiplicity
 _atom_site_fract_x
 _atom_site_fract_y
 _atom_site_fract_z
 _atom_site_occupancy
  Eu  Eu0  1  0.25000001  0.51266599  0.20520799  1
  Eu  Eu1  1  0.75000002  0.48733399  0.79479198  1
  Eu  Eu2  1  0.25000001  0.01266600  0.29479199  1
  Eu  Eu3  1  0.75000002  0.98733398  0.70520798  1
  Au  Au4  1  0.25000001  0.18923100  0.91183297  1
  Au  Au5  1  0.75000002  0.31076899  0.41183299  1
  Au  Au6  1  0.25000001  0.68923098  0.58816698  1
  Au  Au7  1  0.75000002  0.81076898  0.08816700  1
  Au  Au8  1  0.75000002  0.20676100  0.08266300  1
  Au  Au9  1  0.25000001  0.29323899  0.58266298  1
  Au  Au10  1  0.75000002  0.70676098  0.41733699  1
  Au  Au11  1  0.25000001  0.79323898  0.91733697  1
