# generated using pymatgen
data_Na2V2O5F3
_symmetry_space_group_name_H-M   'P 1'
_cell_length_a   5.05917597
_cell_length_b   5.58313799
_cell_length_c   5.52807331
_cell_angle_alpha   90.00000000
_cell_angle_beta   84.34325409
_cell_angle_gamma   90.00000000
_symmetry_Int_Tables_number   1
_chemical_formula_structural   Na2V2O5F3
_chemical_formula_sum   'Na2 V2 O5 F3'
_cell_volume   155.38599594
_cell_formula_units_Z   1
loop_
 _symmetry_equiv_pos_site_id
 _symmetry_equiv_pos_as_xyz
  1  'x, y, z'
loop_
 _atom_site_type_symbol
 _atom_site_label
 _atom_site_symmetry_multiplicity
 _atom_site_fract_x
 _atom_site_fract_y
 _atom_site_fract_z
 _atom_site_occupancy
  Na  Na0  1  0.00000000  0.22621600  0.25000000  1
  Na  Na1  1  0.00000000  0.77378400  0.74999999  1
  V  V2  1  0.50000000  0.28828500  0.74999999  1
  V  V3  1  0.50000000  0.71171500  0.24999999  1
  O  O4  1  0.71941301  0.43863100  0.98412998  1
  F  F5  1  0.28058700  0.43863100  0.51586999  1
  F  F6  1  0.28058700  0.56136900  0.01587000  1
  F  F7  1  0.71941301  0.56136900  0.48412999  1
  O  O8  1  0.25057100  0.91842000  0.40234499  1
  O  O9  1  0.74942901  0.91842000  0.09765499  1
  O  O10  1  0.74942901  0.08158000  0.59765499  1
  O  O11  1  0.25057100  0.08158000  0.90234499  1
