# generated using pymatgen
data_SrInO3
_symmetry_space_group_name_H-M   'P 1'
_cell_length_a   5.79457092
_cell_length_b   5.90763903
_cell_length_c   8.24415874
_cell_angle_alpha   90.00038910
_cell_angle_beta   89.99936676
_cell_angle_gamma   89.99937439
_symmetry_Int_Tables_number   1
_chemical_formula_structural   SrInO3
_chemical_formula_sum   'Sr4 In4 O12'
_cell_volume   282.21596569
_cell_formula_units_Z   4
loop_
 _symmetry_equiv_pos_site_id
 _symmetry_equiv_pos_as_xyz
  1  'x, y, z'
loop_
 _atom_site_type_symbol
 _atom_site_label
 _atom_site_symmetry_multiplicity
 _atom_site_fract_x
 _atom_site_fract_y
 _atom_site_fract_z
 _atom_site_occupancy
  Sr  Sr0  1  0.01255601  0.54444200  0.25000301  1
  Sr  Sr1  1  0.51253902  0.95555100  0.75000202  1
  Sr  Sr2  1  0.48746001  0.04445800  0.24999900  1
  Sr  Sr3  1  0.98744102  0.45555000  0.74999501  1
  In  In4  1  0.00000202  0.99999700  0.00000101  1
  In  In5  1  0.49999902  0.50000300  0.50000001  1
  In  In6  1  0.00000202  0.99999700  0.49999902  1
  In  In7  1  0.49999902  0.50000400  0.99999903  1
  O  O8  1  0.59325302  0.47226500  0.24999700  1
  O  O9  1  0.90674103  0.97226100  0.25000500  1
  O  O10  1  0.40674501  0.52773300  0.75000302  1
  O  O11  1  0.09325900  0.02773900  0.74999502  1
  O  O12  1  0.20911101  0.28932100  0.05003100  1
  O  O13  1  0.29089602  0.78931900  0.44997302  1
  O  O14  1  0.79089702  0.71067100  0.55003701  1
  O  O15  1  0.70911301  0.21067300  0.94997302  1
  O  O16  1  0.79089102  0.71067700  0.94996802  1
  O  O17  1  0.70910701  0.21068300  0.55002601  1
  O  O18  1  0.20910301  0.28933000  0.44996501  1
  O  O19  1  0.29088802  0.78932700  0.05003000  1
