# generated using pymatgen
data_TbGa19
_symmetry_space_group_name_H-M   'P 1'
_cell_length_a   4.46252584
_cell_length_b   7.24563408
_cell_length_c   13.49043751
_cell_angle_alpha   90.00000000
_cell_angle_beta   99.52023315
_cell_angle_gamma   90.00000000
_symmetry_Int_Tables_number   1
_chemical_formula_structural   TbGa19
_chemical_formula_sum   'Tb1 Ga19'
_cell_volume   430.18986748
_cell_formula_units_Z   1
loop_
 _symmetry_equiv_pos_site_id
 _symmetry_equiv_pos_as_xyz
  1  'x, y, z'
loop_
 _atom_site_type_symbol
 _atom_site_label
 _atom_site_symmetry_multiplicity
 _atom_site_fract_x
 _atom_site_fract_y
 _atom_site_fract_z
 _atom_site_occupancy
  Tb  Tb0  1  0.47645602  0.23761300  0.95291199  1
  Ga  Ga1  1  0.17184301  0.25702600  0.34368600  1
  Ga  Ga2  1  0.52354402  0.73761299  0.04708800  1
  Ga  Ga3  1  0.82815703  0.75702599  0.65631399  1
  Ga  Ga4  1  0.70500302  0.54902999  0.41000599  1
  Ga  Ga5  1  0.59665502  0.10941400  0.19331000  1
  Ga  Ga6  1  0.04757800  0.40213800  0.09515600  1
  Ga  Ga7  1  0.95242203  0.90213799  0.90484399  1
  Ga  Ga8  1  0.70981502  0.97739299  0.41962999  1
  Ga  Ga9  1  0.29018501  0.47739299  0.58036999  1
  Ga  Ga10  1  0.29499701  0.04903000  0.58999399  1
  Ga  Ga11  1  0.87974303  0.23383600  0.75948599  1
  Ga  Ga12  1  0.12025700  0.73383599  0.24051400  1
  Ga  Ga13  1  0.40334501  0.60941399  0.80668999  1
  Ga  Ga14  1  0.39404201  0.98255999  0.78808399  1
  Ga  Ga15  1  0.77723703  0.26522200  0.55447399  1
  Ga  Ga16  1  0.22276301  0.76522199  0.44552599  1
  Ga  Ga17  1  0.05014900  0.01766800  0.10029800  1
  Ga  Ga18  1  0.60595802  0.48255999  0.21191600  1
  Ga  Ga19  1  0.94985103  0.51766799  0.89970199  1
