# generated using pymatgen
data_Ga8Co3P
_symmetry_space_group_name_H-M   'P 1'
_cell_length_a   5.58486891
_cell_length_b   5.58486891
_cell_length_c   5.58486938
_cell_angle_alpha   88.87054443
_cell_angle_beta   88.87054443
_cell_angle_gamma   88.87054443
_symmetry_Int_Tables_number   1
_chemical_formula_structural   Ga8Co3P
_chemical_formula_sum   'Ga8 Co3 P1'
_cell_volume   174.09610631
_cell_formula_units_Z   1
loop_
 _symmetry_equiv_pos_site_id
 _symmetry_equiv_pos_as_xyz
  1  'x, y, z'
loop_
 _atom_site_type_symbol
 _atom_site_label
 _atom_site_symmetry_multiplicity
 _atom_site_fract_x
 _atom_site_fract_y
 _atom_site_fract_z
 _atom_site_occupancy
  P  P0  1  0.14488900  0.14488901  0.14488901  1
  Co  Co1  1  0.63385602  0.13151300  0.63385602  1
  Co  Co2  1  0.63385599  0.63385602  0.13151303  1
  Co  Co3  1  0.13151297  0.63385602  0.63385602  1
  Ga  Ga4  1  0.86105801  0.41695202  0.41695203  1
  Ga  Ga5  1  0.41695199  0.41695202  0.86105803  1
  Ga  Ga6  1  0.41695197  0.86105703  0.41695204  1
  Ga  Ga7  1  0.35769499  0.35769501  0.35769502  1
  Ga  Ga8  1  0.83971598  0.83971603  0.83971605  1
  Ga  Ga9  1  0.91904801  0.34797001  0.91904804  1
  Ga  Ga10  1  0.91904798  0.91904803  0.34797005  1
  Ga  Ga11  1  0.34796996  0.91904803  0.91904804  1
