# generated using pymatgen
data_Lu3Co11B4
_symmetry_space_group_name_H-M   'P 1'
_cell_length_a   5.05919695
_cell_length_b   5.05919647
_cell_length_c   9.69150543
_cell_angle_alpha   90.00000000
_cell_angle_beta   90.00000000
_cell_angle_gamma   120.00000000
_symmetry_Int_Tables_number   1
_chemical_formula_structural   Lu3Co11B4
_chemical_formula_sum   'Lu3 Co11 B4'
_cell_volume   214.82509226
_cell_formula_units_Z   1
loop_
 _symmetry_equiv_pos_site_id
 _symmetry_equiv_pos_as_xyz
  1  'x, y, z'
loop_
 _atom_site_type_symbol
 _atom_site_label
 _atom_site_symmetry_multiplicity
 _atom_site_fract_x
 _atom_site_fract_y
 _atom_site_fract_z
 _atom_site_occupancy
  Lu  Lu0  1  0.00000000  0.00000000  0.00000000  1
  Lu  Lu1  1  0.00000000  0.00000000  0.34045498  1
  Lu  Lu2  1  0.00000000  0.00000000  0.65954497  1
  Co  Co3  1  0.33333337  0.66666670  -0.00000000  1
  Co  Co4  1  0.66666670  0.33333335  0.99999996  1
  Co  Co5  1  0.50000002  0.00000000  0.49999998  1
  Co  Co6  1  0.50000003  0.50000002  0.49999998  1
  Co  Co7  1  0.00000001  0.50000002  0.49999998  1
  Co  Co8  1  0.50000002  0.00000000  0.20258799  1
  Co  Co9  1  0.50000003  0.50000002  0.20258799  1
  Co  Co10  1  0.00000001  0.50000002  0.20258799  1
  Co  Co11  1  0.50000002  0.00000000  0.79741196  1
  Co  Co12  1  0.50000003  0.50000002  0.79741196  1
  Co  Co13  1  0.00000001  0.50000002  0.79741196  1
  B  B14  1  0.33333337  0.66666670  0.34980498  1
  B  B15  1  0.66666670  0.33333335  0.34980498  1
  B  B16  1  0.66666670  0.33333335  0.65019497  1
  B  B17  1  0.33333337  0.66666670  0.65019497  1
