# generated using pymatgen
data_Ge
_symmetry_space_group_name_H-M   'P 1'
_cell_length_a   3.35643792
_cell_length_b   3.35643792
_cell_length_c   6.19119835
_cell_angle_alpha   105.72766876
_cell_angle_beta   105.72766876
_cell_angle_gamma   90.00000000
_symmetry_Int_Tables_number   1
_chemical_formula_structural   Ge
_chemical_formula_sum   Ge4
_cell_volume   64.41966859
_cell_formula_units_Z   4
loop_
 _symmetry_equiv_pos_site_id
 _symmetry_equiv_pos_as_xyz
  1  'x, y, z'
loop_
 _atom_site_type_symbol
 _atom_site_label
 _atom_site_symmetry_multiplicity
 _atom_site_fract_x
 _atom_site_fract_y
 _atom_site_fract_z
 _atom_site_occupancy
  Ge  Ge0  1  0.74992302  0.74992302  0.49984600  1
  Ge  Ge1  1  0.49992302  0.99992303  0.99984598  1
  Ge  Ge2  1  0.16744701  0.16744700  0.33489399  1
  Ge  Ge3  1  0.91744703  0.41744701  0.83489399  1
