# generated using pymatgen
data_Ba3CoN3
_symmetry_space_group_name_H-M   'P 1'
_cell_length_a   5.39499378
_cell_length_b   7.76212931
_cell_length_c   7.76203251
_cell_angle_alpha   119.99936676
_cell_angle_beta   90.00000000
_cell_angle_gamma   90.00000000
_symmetry_Int_Tables_number   1
_chemical_formula_structural   Ba3CoN3
_chemical_formula_sum   'Ba6 Co2 N6'
_cell_volume   281.50147960
_cell_formula_units_Z   2
loop_
 _symmetry_equiv_pos_site_id
 _symmetry_equiv_pos_as_xyz
  1  'x, y, z'
loop_
 _atom_site_type_symbol
 _atom_site_label
 _atom_site_symmetry_multiplicity
 _atom_site_fract_x
 _atom_site_fract_y
 _atom_site_fract_z
 _atom_site_occupancy
  Ba  Ba0  1  0.75000003  0.09528800  0.72580800  1
  Ba  Ba1  1  0.75000003  0.27419700  0.36947899  1
  Ba  Ba2  1  0.75000003  0.63051800  0.90471697  1
  Ba  Ba3  1  0.25000001  0.90471200  0.27419195  1
  Ba  Ba4  1  0.25000001  0.72580300  0.63052096  1
  Ba  Ba5  1  0.25000001  0.36948200  0.09528298  1
  Co  Co6  1  0.25000001  0.33333333  0.66666665  1
  Co  Co7  1  0.75000003  0.66666667  0.33333330  1
  N  N8  1  0.25000001  0.12428200  0.71064700  1
  N  N9  1  0.25000001  0.28934800  0.41362999  1
  N  N10  1  0.25000001  0.58635100  0.87570597  1
  N  N11  1  0.75000003  0.87571800  0.28935295  1
  N  N12  1  0.75000003  0.71065200  0.58636996  1
  N  N13  1  0.75000003  0.41364900  0.12429398  1
