# generated using pymatgen
data_Li5MnF10
_symmetry_space_group_name_H-M   'P 1'
_cell_length_a   5.88118315
_cell_length_b   5.88261271
_cell_length_c   5.88442612
_cell_angle_alpha   119.92484283
_cell_angle_beta   119.73751068
_cell_angle_gamma   90.27056885
_symmetry_Int_Tables_number   1
_chemical_formula_structural   Li5MnF10
_chemical_formula_sum   'Li5 Mn1 F10'
_cell_volume   144.34696705
_cell_formula_units_Z   1
loop_
 _symmetry_equiv_pos_site_id
 _symmetry_equiv_pos_as_xyz
  1  'x, y, z'
loop_
 _atom_site_type_symbol
 _atom_site_label
 _atom_site_symmetry_multiplicity
 _atom_site_fract_x
 _atom_site_fract_y
 _atom_site_fract_z
 _atom_site_occupancy
  Li  Li0  1  0.49999999  0.50000102  0.99999899  1
  Li  Li1  1  0.49999998  0.00000100  0.00000097  1
  Li  Li2  1  0.99999896  0.00000100  0.50000094  1
  Li  Li3  1  0.99999996  0.50000102  0.49999996  1
  F  F4  1  0.99999897  0.99999204  0.00000198  1
  F  F5  1  0.00000101  0.49999902  0.99999701  1
  Li  Li6  1  0.50000199  0.50000002  0.49999899  1
  Mn  Mn7  1  0.49999800  0.99999804  0.49999601  1
  F  F8  1  0.26060800  0.73918203  0.47835701  1
  F  F9  1  0.23579799  0.23426701  0.46590499  1
  F  F10  1  0.76827697  0.23438401  0.99850796  1
  F  F11  1  0.73939097  0.26082001  0.52164497  1
  F  F12  1  0.76518998  0.76459503  0.99932398  1
  F  F13  1  0.76420498  0.76573403  0.53409398  1
  F  F14  1  0.23172300  0.76561703  0.00149202  1
  F  F15  1  0.23480699  0.23540801  0.00068000  1
