# generated using pymatgen
data_LuSi4Ru
_symmetry_space_group_name_H-M   'P 1'
_cell_length_a   3.93421507
_cell_length_b   4.81137276
_cell_length_c   4.81137276
_cell_angle_alpha   116.35050201
_cell_angle_beta   90.00000000
_cell_angle_gamma   90.00000000
_symmetry_Int_Tables_number   1
_chemical_formula_structural   LuSi4Ru
_chemical_formula_sum   'Lu1 Si4 Ru1'
_cell_volume   81.61132455
_cell_formula_units_Z   1
loop_
 _symmetry_equiv_pos_site_id
 _symmetry_equiv_pos_as_xyz
  1  'x, y, z'
loop_
 _atom_site_type_symbol
 _atom_site_label
 _atom_site_symmetry_multiplicity
 _atom_site_fract_x
 _atom_site_fract_y
 _atom_site_fract_z
 _atom_site_occupancy
  Lu  Lu0  1  0.00000000  0.00000000  0.00000000  1
  Ru  Ru1  1  0.49999999  0.50000002  0.50000004  1
  Si  Si2  1  0.99999998  0.65744303  0.34255705  1
  Si  Si3  1  -0.00000000  0.34255702  0.65744303  1
  Si  Si4  1  0.49999999  0.00000000  0.50000001  1
  Si  Si5  1  0.49999999  0.50000002  0.00000003  1
