# generated using pymatgen
data_Ho3MgGa16
_symmetry_space_group_name_H-M   'P 1'
_cell_length_a   6.91603613
_cell_length_b   7.73809624
_cell_length_c   7.73809624
_cell_angle_alpha   90.00000000
_cell_angle_beta   90.00000000
_cell_angle_gamma   90.00000000
_symmetry_Int_Tables_number   1
_chemical_formula_structural   Ho3MgGa16
_chemical_formula_sum   'Ho3 Mg1 Ga16'
_cell_volume   414.11933376
_cell_formula_units_Z   1
loop_
 _symmetry_equiv_pos_site_id
 _symmetry_equiv_pos_as_xyz
  1  'x, y, z'
loop_
 _atom_site_type_symbol
 _atom_site_label
 _atom_site_symmetry_multiplicity
 _atom_site_fract_x
 _atom_site_fract_y
 _atom_site_fract_z
 _atom_site_occupancy
  Mg  Mg0  1  0.99999998  0.15458700  0.15458700  1
  Ga  Ga1  1  0.00000000  0.84541297  0.84541297  1
  Ga  Ga2  1  0.49999999  0.65458698  0.34541299  1
  Ga  Ga3  1  0.49999999  0.34541299  0.65458698  1
  Ga  Ga4  1  0.00000000  0.68025798  0.31974199  1
  Ga  Ga5  1  0.99999998  0.31974199  0.68025798  1
  Ga  Ga6  1  0.49999999  0.81974197  0.81974197  1
  Ga  Ga7  1  0.49999999  0.18025799  0.18025799  1
  Ga  Ga8  1  0.25000000  0.49999998  -0.00000000  1
  Ho  Ho9  1  0.74999999  0.49999998  0.00000000  1
  Ho  Ho10  1  0.25000000  0.00000000  0.49999998  1
  Ho  Ho11  1  0.74999999  0.00000000  0.49999998  1
  Ga  Ga12  1  0.22473300  0.36942399  0.36942399  1
  Ga  Ga13  1  0.77526699  0.63057598  0.63057598  1
  Ga  Ga14  1  0.22473300  0.63057598  0.63057598  1
  Ga  Ga15  1  0.72473299  0.86942397  0.13057600  1
  Ga  Ga16  1  0.27526699  0.86942397  0.13057600  1
  Ga  Ga17  1  0.77526699  0.36942399  0.36942399  1
  Ga  Ga18  1  0.27526699  0.13057600  0.86942397  1
  Ga  Ga19  1  0.72473299  0.13057600  0.86942397  1
