# generated using pymatgen
data_Ga
_symmetry_space_group_name_H-M   'P 1'
_cell_length_a   2.82291508
_cell_length_b   4.61930609
_cell_length_c   9.96067810
_cell_angle_alpha   90.00000000
_cell_angle_beta   90.00000000
_cell_angle_gamma   90.00000000
_symmetry_Int_Tables_number   1
_chemical_formula_structural   Ga
_chemical_formula_sum   Ga8
_cell_volume   129.88633402
_cell_formula_units_Z   8
loop_
 _symmetry_equiv_pos_site_id
 _symmetry_equiv_pos_as_xyz
  1  'x, y, z'
loop_
 _atom_site_type_symbol
 _atom_site_label
 _atom_site_symmetry_multiplicity
 _atom_site_fract_x
 _atom_site_fract_y
 _atom_site_fract_z
 _atom_site_occupancy
  Ga  Ga0  1  0.00000000  0.49999999  0.40014500  1
  Ga  Ga1  1  0.00000000  0.49999999  0.91856299  1
  Ga  Ga2  1  0.00000000  0.00000000  0.09747300  1
  Ga  Ga3  1  0.00000000  0.00000000  0.58851399  1
  Ga  Ga4  1  0.49999999  0.49999999  0.15920900  1
  Ga  Ga5  1  0.49999999  0.49999999  0.66247399  1
  Ga  Ga6  1  0.49999999  0.00000000  0.33491800  1
  Ga  Ga7  1  0.49999999  0.00000000  0.83870499  1
