# generated using pymatgen
data_CaWO3
_symmetry_space_group_name_H-M   'P 1'
_cell_length_a   5.50292206
_cell_length_b   5.65099049
_cell_length_c   7.80565405
_cell_angle_alpha   90.00000000
_cell_angle_beta   90.00000000
_cell_angle_gamma   89.81790924
_symmetry_Int_Tables_number   1
_chemical_formula_structural   CaWO3
_chemical_formula_sum   'Ca4 W4 O12'
_cell_volume   242.73088744
_cell_formula_units_Z   4
loop_
 _symmetry_equiv_pos_site_id
 _symmetry_equiv_pos_as_xyz
  1  'x, y, z'
loop_
 _atom_site_type_symbol
 _atom_site_label
 _atom_site_symmetry_multiplicity
 _atom_site_fract_x
 _atom_site_fract_y
 _atom_site_fract_z
 _atom_site_occupancy
  Ca  Ca0  1  0.48092597  0.56465001  0.75000000  1
  Ca  Ca1  1  0.51907397  0.43535000  0.25000000  1
  Ca  Ca2  1  0.99913899  0.04122200  0.75000000  1
  Ca  Ca3  1  0.00086095  0.95877801  0.25000000  1
  W  W4  1  0.49999999  0.00000000  0.50000000  1
  W  W5  1  0.49999999  0.00000000  0.00000000  1
  W  W6  1  -0.00000003  0.50000000  0.50000000  1
  W  W7  1  -0.00000003  0.50000000  0.00000000  1
  O  O8  1  0.70667296  0.69673901  0.45138500  1
  O  O9  1  0.80716498  0.20893900  0.04982200  1
  O  O10  1  0.29332698  0.30326100  0.95138499  1
  O  O11  1  0.19283496  0.79106101  0.54982200  1
  O  O12  1  0.80716498  0.20893900  0.45017800  1
  O  O13  1  0.19283496  0.79106101  0.95017799  1
  O  O14  1  0.10384097  0.53518601  0.25000000  1
  O  O15  1  0.70667296  0.69673901  0.04861500  1
  O  O16  1  0.58205894  0.97082801  0.75000000  1
  O  O17  1  0.29332698  0.30326100  0.54861500  1
  O  O18  1  0.89615897  0.46481400  0.75000000  1
  O  O19  1  0.41794099  0.02917200  0.25000000  1
