# generated using pymatgen
data_ThGe
_symmetry_space_group_name_H-M   'P 1'
_cell_length_a   4.11439085
_cell_length_b   5.90593290
_cell_length_c   7.99088192
_cell_angle_alpha   90.00000000
_cell_angle_beta   90.00000000
_cell_angle_gamma   90.00000000
_symmetry_Int_Tables_number   1
_chemical_formula_structural   ThGe
_chemical_formula_sum   'Th4 Ge4'
_cell_volume   194.17296727
_cell_formula_units_Z   4
loop_
 _symmetry_equiv_pos_site_id
 _symmetry_equiv_pos_as_xyz
  1  'x, y, z'
loop_
 _atom_site_type_symbol
 _atom_site_label
 _atom_site_symmetry_multiplicity
 _atom_site_fract_x
 _atom_site_fract_y
 _atom_site_fract_z
 _atom_site_occupancy
  Ge  Ge0  1  0.25000001  0.12304400  0.17987000  1
  Ge  Ge1  1  0.75000003  0.87695601  0.82013001  1
  Ge  Ge2  1  0.75000003  0.62304401  0.32013000  1
  Ge  Ge3  1  0.25000001  0.37695601  0.67987001  1
  Th  Th4  1  0.25000001  0.62574701  0.03763700  1
  Th  Th5  1  0.75000003  0.37425301  0.96236301  1
  Th  Th6  1  0.75000003  0.12574700  0.46236300  1
  Th  Th7  1  0.25000001  0.87425301  0.53763701  1
