# generated using pymatgen
data_Ho2MgGa7Fe2
_symmetry_space_group_name_H-M   'P 1'
_cell_length_a   5.20483923
_cell_length_b   5.20483923
_cell_length_c   8.99525928
_cell_angle_alpha   73.18334961
_cell_angle_beta   73.18334961
_cell_angle_gamma   60.00001144
_symmetry_Int_Tables_number   1
_chemical_formula_structural   Ho2MgGa7Fe2
_chemical_formula_sum   'Ho2 Mg1 Ga7 Fe2'
_cell_volume   198.91301082
_cell_formula_units_Z   1
loop_
 _symmetry_equiv_pos_site_id
 _symmetry_equiv_pos_as_xyz
  1  'x, y, z'
loop_
 _atom_site_type_symbol
 _atom_site_label
 _atom_site_symmetry_multiplicity
 _atom_site_fract_x
 _atom_site_fract_y
 _atom_site_fract_z
 _atom_site_occupancy
  Ho  Ho0  1  0.62440999  0.62440999  0.12676999  1
  Ga  Ga1  1  0.00200400  0.00200400  0.99398795  1
  Mg  Mg2  1  0.49823499  0.49823499  0.50529497  1
  Ho  Ho3  1  0.12551000  0.12551000  0.62346997  1
  Ga  Ga4  1  0.06316900  0.56301299  0.81080496  1
  Ga  Ga5  1  0.56104899  0.06234200  0.31426698  1
  Ga  Ga6  1  0.56301299  0.06316900  0.81080496  1
  Ga  Ga7  1  0.06234200  0.56104899  0.31426698  1
  Ga  Ga8  1  0.81248299  0.81248298  0.56255097  1
  Fe  Fe9  1  0.31242899  0.31242899  0.06271300  1
  Ga  Ga10  1  0.56301299  0.56301299  0.81080496  1
  Fe  Fe11  1  0.06234200  0.06234200  0.31426698  1
