# generated using pymatgen
data_HoGa2
_symmetry_space_group_name_H-M   'P 1'
_cell_length_a   5.79387522
_cell_length_b   8.58158779
_cell_length_c   8.58158779
_cell_angle_alpha   120.00000000
_cell_angle_beta   90.00000000
_cell_angle_gamma   90.00000000
_symmetry_Int_Tables_number   1
_chemical_formula_structural   HoGa2
_chemical_formula_sum   'Ho6 Ga12'
_cell_volume   369.51754919
_cell_formula_units_Z   6
loop_
 _symmetry_equiv_pos_site_id
 _symmetry_equiv_pos_as_xyz
  1  'x, y, z'
loop_
 _atom_site_type_symbol
 _atom_site_label
 _atom_site_symmetry_multiplicity
 _atom_site_fract_x
 _atom_site_fract_y
 _atom_site_fract_z
 _atom_site_occupancy
  Ga  Ga0  1  0.24999999  0.25777600  0.00000001  1
  Ga  Ga1  1  0.24999999  0.74222401  0.74222402  1
  Ga  Ga2  1  0.24999999  0.00000000  0.25777600  1
  Ga  Ga3  1  0.74999997  0.74222401  0.00000002  1
  Ga  Ga4  1  0.74999997  0.25777600  0.25777601  1
  Ga  Ga5  1  0.74999997  0.00000000  0.74222400  1
  Ga  Ga6  1  0.00000000  0.33333334  0.66666668  1
  Ga  Ga7  1  0.00000000  0.66666668  0.33333335  1
  Ga  Ga8  1  0.49999998  0.66666668  0.33333335  1
  Ga  Ga9  1  0.49999998  0.33333334  0.66666668  1
  Ga  Ga10  1  0.00000000  0.00000000  0.00000000  1
  Ga  Ga11  1  0.49999998  0.00000000  -0.00000000  1
  Ho  Ho12  1  0.24999999  0.61259301  0.00000002  1
  Ho  Ho13  1  0.24999999  0.38740701  0.38740701  1
  Ho  Ho14  1  0.24999999  0.00000000  0.61259300  1
  Ho  Ho15  1  0.74999997  0.38740701  0.00000001  1
  Ho  Ho16  1  0.74999997  0.61259301  0.61259302  1
  Ho  Ho17  1  0.74999997  0.00000000  0.38740700  1
