# generated using pymatgen
data_Ho9LuGa6
_symmetry_space_group_name_H-M   'P 1'
_cell_length_a   6.38433790
_cell_length_b   8.48770809
_cell_length_c   8.48770714
_cell_angle_alpha   120.00000000
_cell_angle_beta   90.00000000
_cell_angle_gamma   90.00000000
_symmetry_Int_Tables_number   1
_chemical_formula_structural   Ho9LuGa6
_chemical_formula_sum   'Ho9 Lu1 Ga6'
_cell_volume   398.31560153
_cell_formula_units_Z   1
loop_
 _symmetry_equiv_pos_site_id
 _symmetry_equiv_pos_as_xyz
  1  'x, y, z'
loop_
 _atom_site_type_symbol
 _atom_site_label
 _atom_site_symmetry_multiplicity
 _atom_site_fract_x
 _atom_site_fract_y
 _atom_site_fract_z
 _atom_site_occupancy
  Lu  Lu0  1  0.00000000  0.33333332  0.66666667  1
  Ho  Ho1  1  1.00000002  0.66666664  0.33333331  1
  Ho  Ho2  1  0.50000001  0.66666664  0.33333331  1
  Ho  Ho3  1  0.50000001  0.33333332  0.66666667  1
  Ho  Ho4  1  0.25000000  0.24357699  -0.00000001  1
  Ho  Ho5  1  0.25000000  0.75642297  0.75642298  1
  Ho  Ho6  1  0.25000000  0.99999996  0.24357696  1
  Ho  Ho7  1  0.75000001  0.75642297  -0.00000004  1
  Ho  Ho8  1  0.75000001  0.24357699  0.24357699  1
  Ho  Ho9  1  0.75000001  0.99999996  0.75642297  1
  Ga  Ga10  1  0.25000000  0.60847798  -0.00000003  1
  Ga  Ga11  1  0.25000000  0.39152199  0.39152199  1
  Ga  Ga12  1  0.25000000  0.99999996  0.60847796  1
  Ga  Ga13  1  0.75000001  0.39152199  -0.00000002  1
  Ga  Ga14  1  0.75000001  0.60847798  0.60847798  1
  Ga  Ga15  1  0.75000001  0.99999996  0.39152196  1
