# generated using pymatgen
data_InBr2
_symmetry_space_group_name_H-M   'P 1'
_cell_length_a   4.45169783
_cell_length_b   4.45169783
_cell_length_c   8.91608715
_cell_angle_alpha   90.00000000
_cell_angle_beta   90.00000000
_cell_angle_gamma   90.00000000
_symmetry_Int_Tables_number   1
_chemical_formula_structural   InBr2
_chemical_formula_sum   'In2 Br4'
_cell_volume   176.69556942
_cell_formula_units_Z   2
loop_
 _symmetry_equiv_pos_site_id
 _symmetry_equiv_pos_as_xyz
  1  'x, y, z'
loop_
 _atom_site_type_symbol
 _atom_site_label
 _atom_site_symmetry_multiplicity
 _atom_site_fract_x
 _atom_site_fract_y
 _atom_site_fract_z
 _atom_site_occupancy
  In  In0  1  0.00000000  0.50000002  0.72879299  1
  In  In1  1  0.50000002  0.00000000  0.27120700  1
  Br  Br2  1  0.00000000  0.00000000  0.00000000  1
  Br  Br3  1  0.50000002  0.50000002  -0.00000000  1
  Br  Br4  1  0.00000000  0.50000002  0.37009199  1
  Br  Br5  1  0.50000002  0.00000000  0.62990799  1
