# generated using pymatgen
data_W
_symmetry_space_group_name_H-M   'P 1'
_cell_length_a   2.73581719
_cell_length_b   2.73581719
_cell_length_c   11.30385876
_cell_angle_alpha   83.04944611
_cell_angle_beta   83.04944611
_cell_angle_gamma   60.00002289
_symmetry_Int_Tables_number   1
_chemical_formula_structural   W
_chemical_formula_sum   W5
_cell_volume   72.55206314
_cell_formula_units_Z   5
loop_
 _symmetry_equiv_pos_site_id
 _symmetry_equiv_pos_as_xyz
  1  'x, y, z'
loop_
 _atom_site_type_symbol
 _atom_site_label
 _atom_site_symmetry_multiplicity
 _atom_site_fract_x
 _atom_site_fract_y
 _atom_site_fract_z
 _atom_site_occupancy
  W  W0  1  0.60079099  0.60079097  0.19762699  1
  W  W1  1  0.19971100  0.19971099  0.40086700  1
  W  W2  1  0.80028899  0.80028896  0.59913299  1
  W  W3  1  0.39920899  0.39920898  0.80237300  1
  W  W4  1  0.00000000  0.00000000  0.00000000  1
