# generated using pymatgen
data_Tb2InNi2
_symmetry_space_group_name_H-M   'P 1'
_cell_length_a   3.79798293
_cell_length_b   7.36702013
_cell_length_c   7.36702013
_cell_angle_alpha   90.00000000
_cell_angle_beta   90.00000000
_cell_angle_gamma   90.00000000
_symmetry_Int_Tables_number   1
_chemical_formula_structural   Tb2InNi2
_chemical_formula_sum   'Tb4 In2 Ni4'
_cell_volume   206.12787292
_cell_formula_units_Z   2
loop_
 _symmetry_equiv_pos_site_id
 _symmetry_equiv_pos_as_xyz
  1  'x, y, z'
loop_
 _atom_site_type_symbol
 _atom_site_label
 _atom_site_symmetry_multiplicity
 _atom_site_fract_x
 _atom_site_fract_y
 _atom_site_fract_z
 _atom_site_occupancy
  Tb  Tb0  1  0.50000001  0.67448799  0.17448800  1
  Tb  Tb1  1  0.50000001  0.32551199  0.82551199  1
  Tb  Tb2  1  0.50000001  0.17448800  0.32551199  1
  Tb  Tb3  1  0.50000001  0.82551199  0.67448799  1
  In  In4  1  0.00000000  0.00000000  0.00000000  1
  In  In5  1  0.00000000  0.49999999  0.49999999  1
  Ni  Ni6  1  1.00000002  0.11997200  0.61997199  1
  Ni  Ni7  1  0.00000000  0.88002798  0.38002799  1
  Ni  Ni8  1  0.00000000  0.61997199  0.88002798  1
  Ni  Ni9  1  1.00000002  0.38002799  0.11997200  1
