# generated using pymatgen
data_EuAu2
_symmetry_space_group_name_H-M   'P 1'
_cell_length_a   4.83227396
_cell_length_b   7.53386021
_cell_length_c   8.17349911
_cell_angle_alpha   90.00000000
_cell_angle_beta   90.00000000
_cell_angle_gamma   90.00000000
_symmetry_Int_Tables_number   1
_chemical_formula_structural   EuAu2
_chemical_formula_sum   'Eu4 Au8'
_cell_volume   297.56176434
_cell_formula_units_Z   4
loop_
 _symmetry_equiv_pos_site_id
 _symmetry_equiv_pos_as_xyz
  1  'x, y, z'
loop_
 _atom_site_type_symbol
 _atom_site_label
 _atom_site_symmetry_multiplicity
 _atom_site_fract_x
 _atom_site_fract_y
 _atom_site_fract_z
 _atom_site_occupancy
  Eu  Eu0  1  0.75000001  0.00638700  0.29391700  1
  Eu  Eu1  1  0.25000000  0.99361297  0.70608299  1
  Eu  Eu2  1  0.25000000  0.49361299  0.79391699  1
  Eu  Eu3  1  0.75000001  0.50638699  0.20608300  1
  Au  Au4  1  0.75000001  0.69771298  0.59258799  1
  Au  Au5  1  0.25000000  0.30228699  0.40741199  1
  Au  Au6  1  0.25000000  0.80228698  0.09258800  1
  Au  Au7  1  0.75000001  0.19771299  0.90741199  1
  Au  Au8  1  0.75000001  0.80594398  0.92273799  1
  Au  Au9  1  0.25000000  0.19405599  0.07726200  1
  Au  Au10  1  0.25000000  0.69405598  0.42273799  1
  Au  Au11  1  0.75000001  0.30594399  0.57726199  1
