# generated using pymatgen
data_HfMg(P2Os3)3
_symmetry_space_group_name_H-M   'P 1'
_cell_length_a   6.80209446
_cell_length_b   6.80209446
_cell_length_c   6.80209446
_cell_angle_alpha   109.47122192
_cell_angle_beta   109.47122192
_cell_angle_gamma   109.47122192
_symmetry_Int_Tables_number   1
_chemical_formula_structural   HfMg(P2Os3)3
_chemical_formula_sum   'Hf1 Mg1 P6 Os9'
_cell_volume   242.27358422
_cell_formula_units_Z   1
loop_
 _symmetry_equiv_pos_site_id
 _symmetry_equiv_pos_as_xyz
  1  'x, y, z'
loop_
 _atom_site_type_symbol
 _atom_site_label
 _atom_site_symmetry_multiplicity
 _atom_site_fract_x
 _atom_site_fract_y
 _atom_site_fract_z
 _atom_site_occupancy
  Mg  Mg0  1  0.00000000  0.00000000  0.49999999  1
  Os  Os1  1  0.00000003  0.50000001  0.00000003  1
  Hf  Hf2  1  0.50000003  0.50000001  0.50000003  1
  Os  Os3  1  0.50000000  0.00000000  0.00000001  1
  Os  Os4  1  0.75000002  0.50000001  0.25000004  1
  Os  Os5  1  0.75000001  0.25000001  0.50000002  1
  Os  Os6  1  0.50000001  0.25000001  0.75000001  1
  Os  Os7  1  0.25000005  0.75000002  0.50000004  1
  Os  Os8  1  0.25000003  0.50000001  0.75000002  1
  Os  Os9  1  0.50000004  0.75000002  0.25000005  1
  Os  Os10  1  0.00000000  0.00000000  0.00000000  1
  P  P11  1  0.68263399  0.00000000  0.68263400  1
  P  P12  1  0.31736602  0.31736601  0.00000003  1
  P  P13  1  0.00000004  0.68263402  0.68263403  1
  P  P14  1  0.31736600  0.00000000  0.31736600  1
  P  P15  1  0.68263404  0.68263402  0.00000005  1
  P  P16  1  0.00000002  0.31736601  0.31736601  1
