# generated using pymatgen
data_Ba3In11
_symmetry_space_group_name_H-M   'P 1'
_cell_length_a   5.36524391
_cell_length_b   9.63214397
_cell_length_c   9.63214397
_cell_angle_alpha   64.25381470
_cell_angle_beta   73.82886505
_cell_angle_gamma   73.82886505
_symmetry_Int_Tables_number   1
_chemical_formula_structural   Ba3In11
_chemical_formula_sum   'Ba3 In11'
_cell_volume   423.42248479
_cell_formula_units_Z   1
loop_
 _symmetry_equiv_pos_site_id
 _symmetry_equiv_pos_as_xyz
  1  'x, y, z'
loop_
 _atom_site_type_symbol
 _atom_site_label
 _atom_site_symmetry_multiplicity
 _atom_site_fract_x
 _atom_site_fract_y
 _atom_site_fract_z
 _atom_site_occupancy
  Ba  Ba0  1  0.00000000  0.00000000  0.00000000  1
  Ba  Ba1  1  0.70636901  0.29363100  0.29363097  1
  Ba  Ba2  1  0.29363100  0.70636899  0.70636893  1
  In  In3  1  1.00000002  0.49999999  0.49999994  1
  In  In4  1  0.85993902  0.43213699  0.84798494  1
  In  In5  1  0.14006100  0.56786299  0.15201496  1
  In  In6  1  0.14006100  0.15201500  0.56786297  1
  In  In7  1  0.85993902  0.84798499  0.43213693  1
  In  In8  1  0.65868301  0.69780099  0.98483292  1
  In  In9  1  0.34131701  0.30219900  0.01516698  1
  In  In10  1  0.34131701  0.01516700  0.30219898  1
  In  In11  1  0.65868301  0.98483299  0.69780091  1
  In  In12  1  0.50000001  0.67553599  0.32446395  1
  In  In13  1  0.50000001  0.32446400  0.67553595  1
