# generated using pymatgen
data_PdI4
_symmetry_space_group_name_H-M   'P 1'
_cell_length_a   4.01755095
_cell_length_b   4.13066101
_cell_length_c   4.13066101
_cell_angle_alpha   89.64782715
_cell_angle_beta   90.00000000
_cell_angle_gamma   90.00000000
_symmetry_Int_Tables_number   1
_chemical_formula_structural   PdI4
_chemical_formula_sum   'Pd1 I4'
_cell_volume   68.54760720
_cell_formula_units_Z   1
loop_
 _symmetry_equiv_pos_site_id
 _symmetry_equiv_pos_as_xyz
  1  'x, y, z'
loop_
 _atom_site_type_symbol
 _atom_site_label
 _atom_site_symmetry_multiplicity
 _atom_site_fract_x
 _atom_site_fract_y
 _atom_site_fract_z
 _atom_site_occupancy
  Pd  Pd0  1  0.50000001  0.48983098  0.48983098  1
  I  I1  1  0.00000000  0.00484400  0.00484400  1
  I  I2  1  0.00000000  0.46202398  0.97160896  1
  I  I3  1  0.00000000  0.97160896  0.46202398  1
  I  I4  1  0.50000001  0.96369196  0.96369196  1
