# generated using pymatgen
data_MgP7
_symmetry_space_group_name_H-M   'P 1'
_cell_length_a   3.90488005
_cell_length_b   5.68665981
_cell_length_c   6.13414001
_cell_angle_alpha   107.88368225
_cell_angle_beta   90.00000000
_cell_angle_gamma   90.00000000
_symmetry_Int_Tables_number   1
_chemical_formula_structural   MgP7
_chemical_formula_sum   'Mg1 P7'
_cell_volume   129.63146836
_cell_formula_units_Z   1
loop_
 _symmetry_equiv_pos_site_id
 _symmetry_equiv_pos_as_xyz
  1  'x, y, z'
loop_
 _atom_site_type_symbol
 _atom_site_label
 _atom_site_symmetry_multiplicity
 _atom_site_fract_x
 _atom_site_fract_y
 _atom_site_fract_z
 _atom_site_occupancy
  P  P0  1  0.49999999  0.50000002  1.00000000  1
  P  P1  1  0.00000000  0.50000002  0.50000000  1
  P  P2  1  0.49999999  0.00000000  0.50000000  1
  Mg  Mg3  1  0.00000000  0.00000000  0.00000000  1
  P  P4  1  0.29634000  0.71741002  0.79508000  1
  P  P5  1  0.70365999  0.28259001  0.20492000  1
  P  P6  1  0.20366000  0.71741002  0.29508000  1
  P  P7  1  0.79633999  0.28259001  0.70492000  1
