# generated using pymatgen
data_LuGe2
_symmetry_space_group_name_H-M   'P 1'
_cell_length_a   4.35862923
_cell_length_b   6.75933409
_cell_length_c   7.75905800
_cell_angle_alpha   90.00000000
_cell_angle_beta   90.00000000
_cell_angle_gamma   90.00000000
_symmetry_Int_Tables_number   1
_chemical_formula_structural   LuGe2
_chemical_formula_sum   'Lu4 Ge8'
_cell_volume   228.59295268
_cell_formula_units_Z   4
loop_
 _symmetry_equiv_pos_site_id
 _symmetry_equiv_pos_as_xyz
  1  'x, y, z'
loop_
 _atom_site_type_symbol
 _atom_site_label
 _atom_site_symmetry_multiplicity
 _atom_site_fract_x
 _atom_site_fract_y
 _atom_site_fract_z
 _atom_site_occupancy
  Lu  Lu0  1  0.24999999  0.98015599  0.30738900  1
  Lu  Lu1  1  0.24999999  0.48015599  0.19261100  1
  Lu  Lu2  1  0.74999996  0.01984400  0.69261100  1
  Lu  Lu3  1  0.74999996  0.51984399  0.80738900  1
  Ge  Ge4  1  0.24999999  0.33602900  0.57238600  1
  Ge  Ge5  1  0.24999999  0.83602899  0.92761400  1
  Ge  Ge6  1  0.74999996  0.66397099  0.42761400  1
  Ge  Ge7  1  0.74999996  0.16397100  0.07238600  1
  Ge  Ge8  1  0.24999999  0.22916200  0.89547600  1
  Ge  Ge9  1  0.24999999  0.72916199  0.60452400  1
  Ge  Ge10  1  0.74999996  0.77083799  0.10452400  1
  Ge  Ge11  1  0.74999996  0.27083800  0.39547600  1
