# generated using pymatgen
data_MnCo2(B2Mo)3
_symmetry_space_group_name_H-M   'P 1'
_cell_length_a   4.14446592
_cell_length_b   4.14446592
_cell_length_c   6.75945520
_cell_angle_alpha   90.00000000
_cell_angle_beta   90.00000000
_cell_angle_gamma   120.00000000
_symmetry_Int_Tables_number   1
_chemical_formula_structural   MnCo2(B2Mo)3
_chemical_formula_sum   'Mn1 Co2 B6 Mo3'
_cell_volume   100.54939740
_cell_formula_units_Z   1
loop_
 _symmetry_equiv_pos_site_id
 _symmetry_equiv_pos_as_xyz
  1  'x, y, z'
loop_
 _atom_site_type_symbol
 _atom_site_label
 _atom_site_symmetry_multiplicity
 _atom_site_fract_x
 _atom_site_fract_y
 _atom_site_fract_z
 _atom_site_occupancy
  Mn  Mn0  1  0.66666669  0.33333335  0.93936997  1
  Mo  Mo1  1  0.33333335  0.66666671  0.43936999  1
  Mo  Mo2  1  0.33333335  0.66666671  0.06063000  1
  Mo  Mo3  1  0.66666669  0.33333335  0.56062998  1
  Co  Co4  1  0.00000000  0.00000000  0.00000000  1
  Co  Co5  1  0.00000000  0.00000000  0.49999998  1
  B  B6  1  0.17011402  0.82988505  0.74999998  1
  B  B7  1  0.82988603  0.65977204  0.24999999  1
  B  B8  1  0.34022901  0.17011501  0.24999999  1
  B  B9  1  0.65977103  0.82988505  0.74999998  1
  B  B10  1  0.17011401  0.34022802  0.74999998  1
  B  B11  1  0.82988602  0.17011501  0.24999999  1
