# generated using pymatgen
data_MgO
_symmetry_space_group_name_H-M   'P 1'
_cell_length_a   3.04265285
_cell_length_b   5.21414709
_cell_length_c   10.09958458
_cell_angle_alpha   86.18147278
_cell_angle_beta   81.36142731
_cell_angle_gamma   89.95728302
_symmetry_Int_Tables_number   1
_chemical_formula_structural   MgO
_chemical_formula_sum   'Mg8 O8'
_cell_volume   158.05194252
_cell_formula_units_Z   8
loop_
 _symmetry_equiv_pos_site_id
 _symmetry_equiv_pos_as_xyz
  1  'x, y, z'
loop_
 _atom_site_type_symbol
 _atom_site_label
 _atom_site_symmetry_multiplicity
 _atom_site_fract_x
 _atom_site_fract_y
 _atom_site_fract_z
 _atom_site_occupancy
  Mg  Mg0  1  0.25000794  0.75007903  0.49998700  1
  Mg  Mg1  1  0.74995398  0.24995801  0.49999601  1
  Mg  Mg2  1  0.12565897  0.38179102  0.74627702  1
  Mg  Mg3  1  0.62598193  0.88189704  0.74637400  1
  Mg  Mg4  1  0.37399999  0.11794301  0.25366501  1
  Mg  Mg5  1  0.87440595  0.61824903  0.25373399  1
  Mg  Mg6  1  0.50001396  0.50004502  0.99998102  1
  Mg  Mg7  1  0.99991092  0.99991404  0.99997801  1
  O  O8  1  0.43371793  0.79616903  0.13391198  1
  O  O9  1  0.93342397  0.29651501  0.13306600  1
  O  O10  1  0.06671394  0.70350903  0.86697701  1
  O  O11  1  0.56631198  0.20388201  0.86611703  1
  O  O12  1  0.31466196  0.43348902  0.37690700  1
  O  O13  1  0.81471692  0.93362804  0.37695399  1
  O  O14  1  0.18528399  0.06636100  0.62303202  1
  O  O15  1  0.68523495  0.56657002  0.62304201  1
