# generated using pymatgen
data_NdEu9Ga8
_symmetry_space_group_name_H-M   'P 1'
_cell_length_a   6.84040785
_cell_length_b   9.65196419
_cell_length_c   9.65196514
_cell_angle_alpha   120.00000000
_cell_angle_beta   90.00000000
_cell_angle_gamma   90.00000000
_symmetry_Int_Tables_number   1
_chemical_formula_structural   NdEu9Ga8
_chemical_formula_sum   'Nd1 Eu9 Ga8'
_cell_volume   551.87926205
_cell_formula_units_Z   1
loop_
 _symmetry_equiv_pos_site_id
 _symmetry_equiv_pos_as_xyz
  1  'x, y, z'
loop_
 _atom_site_type_symbol
 _atom_site_label
 _atom_site_symmetry_multiplicity
 _atom_site_fract_x
 _atom_site_fract_y
 _atom_site_fract_z
 _atom_site_occupancy
  Nd  Nd0  1  0.25000001  0.72607301  0.72607302  1
  Eu  Eu1  1  0.75000002  0.27392700  0.27392701  1
  Eu  Eu2  1  0.25000001  0.00000000  0.27392699  1
  Eu  Eu3  1  0.75000002  0.00000000  0.72607298  1
  Eu  Eu4  1  0.25000001  0.27392700  0.00000002  1
  Eu  Eu5  1  0.75000002  0.72607301  0.00000004  1
  Eu  Eu6  1  0.50000001  0.66666667  0.33333336  1
  Eu  Eu7  1  0.50000001  0.33333334  0.66666667  1
  Eu  Eu8  1  0.00000000  0.33333334  0.66666667  1
  Eu  Eu9  1  0.00000000  0.66666667  0.33333336  1
  Ga  Ga10  1  0.50000001  0.00000000  -0.00000000  1
  Ga  Ga11  1  0.00000000  0.00000000  0.00000000  1
  Ga  Ga12  1  0.25000001  0.37911000  0.37911001  1
  Ga  Ga13  1  0.75000002  0.62089001  0.62089002  1
  Ga  Ga14  1  0.25000001  0.00000000  0.62088998  1
  Ga  Ga15  1  0.75000002  0.00000000  0.37910999  1
  Ga  Ga16  1  0.25000001  0.62089001  0.00000004  1
  Ga  Ga17  1  0.75000002  0.37911000  0.00000002  1
