# generated using pymatgen
data_Ga9Co4
_symmetry_space_group_name_H-M   'P 1'
_cell_length_a   5.01762676
_cell_length_b   6.58505678
_cell_length_c   6.58505726
_cell_angle_alpha   81.55844879
_cell_angle_beta   67.60523224
_cell_angle_gamma   67.60523987
_symmetry_Int_Tables_number   1
_chemical_formula_structural   Ga9Co4
_chemical_formula_sum   'Ga9 Co4'
_cell_volume   185.99720406
_cell_formula_units_Z   1
loop_
 _symmetry_equiv_pos_site_id
 _symmetry_equiv_pos_as_xyz
  1  'x, y, z'
loop_
 _atom_site_type_symbol
 _atom_site_label
 _atom_site_symmetry_multiplicity
 _atom_site_fract_x
 _atom_site_fract_y
 _atom_site_fract_z
 _atom_site_occupancy
  Ga  Ga0  1  -0.00000011  0.99501203  0.00498809  1
  Ga  Ga1  1  1.00000003  0.33662401  0.66337599  1
  Ga  Ga2  1  -0.00000008  0.66396702  0.33603306  1
  Ga  Ga3  1  0.65942000  0.34889601  0.33226501  1
  Ga  Ga4  1  0.34058094  0.66773502  0.65110405  1
  Ga  Ga5  1  0.50000001  0.22721001  0.77279000  1
  Ga  Ga6  1  0.71152896  0.78383503  0.79310704  1
  Ga  Ga7  1  0.28847099  0.20689301  0.21616501  1
  Co  Co8  1  0.99687806  0.00192700  0.49836396  1
  Co  Co9  1  0.50283203  0.00192700  0.49836398  1
  Co  Co10  1  0.49716897  0.50163602  0.99807303  1
  Co  Co11  1  0.00312294  0.50163602  0.99807304  1
  Ga  Ga12  1  0.49999994  0.76270302  0.23729705  1
