# generated using pymatgen
data_Bi5Br
_symmetry_space_group_name_H-M   'P 1'
_cell_length_a   5.06720209
_cell_length_b   5.06720209
_cell_length_c   9.61816597
_cell_angle_alpha   105.27298737
_cell_angle_beta   105.27298737
_cell_angle_gamma   90.00000000
_symmetry_Int_Tables_number   1
_chemical_formula_structural   Bi5Br
_chemical_formula_sum   'Bi5 Br1'
_cell_volume   229.18499560
_cell_formula_units_Z   1
loop_
 _symmetry_equiv_pos_site_id
 _symmetry_equiv_pos_as_xyz
  1  'x, y, z'
loop_
 _atom_site_type_symbol
 _atom_site_label
 _atom_site_symmetry_multiplicity
 _atom_site_fract_x
 _atom_site_fract_y
 _atom_site_fract_z
 _atom_site_occupancy
  Bi  Bi0  1  -0.00000001  0.49999999  -0.00000001  1
  Bi  Bi1  1  0.49999999  0.00000000  -0.00000001  1
  Bi  Bi2  1  0.32203399  0.32203399  0.64406800  1
  Br  Br3  1  0.67796597  0.67796598  0.35593198  1
  Bi  Bi4  1  0.13494799  0.13494800  0.26989600  1
  Bi  Bi5  1  0.86505196  0.86505198  0.73010398  1
