# generated using pymatgen
data_Cs8F7
_symmetry_space_group_name_H-M   'P 1'
_cell_length_a   7.82370949
_cell_length_b   7.82370949
_cell_length_c   7.82370949
_cell_angle_alpha   60.00000000
_cell_angle_beta   60.00000000
_cell_angle_gamma   60.00000000
_symmetry_Int_Tables_number   1
_chemical_formula_structural   Cs8F7
_chemical_formula_sum   'Cs8 F7'
_cell_volume   338.62822128
_cell_formula_units_Z   1
loop_
 _symmetry_equiv_pos_site_id
 _symmetry_equiv_pos_as_xyz
  1  'x, y, z'
loop_
 _atom_site_type_symbol
 _atom_site_label
 _atom_site_symmetry_multiplicity
 _atom_site_fract_x
 _atom_site_fract_y
 _atom_site_fract_z
 _atom_site_occupancy
  Cs  Cs0  1  0.50000000  0.00000000  -0.00000000  1
  Cs  Cs1  1  0.50000000  0.00000000  0.50000000  1
  Cs  Cs2  1  0.99999999  0.50000000  -0.00000000  1
  Cs  Cs3  1  0.99999999  0.50000000  0.50000000  1
  Cs  Cs4  1  0.50000000  0.50000000  -0.00000000  1
  Cs  Cs5  1  0.00000000  0.00000000  0.50000000  1
  Cs  Cs6  1  0.00000000  0.00000000  0.00000000  1
  F  F7  1  0.75000000  0.75000000  0.75000000  1
  F  F8  1  0.25000000  0.25000000  0.25000000  1
  Cs  Cs9  1  0.24287300  0.75712700  0.75712700  1
  F  F10  1  0.75712700  0.24287300  0.75712700  1
  F  F11  1  0.24287300  0.75712700  0.24287300  1
  F  F12  1  0.75712700  0.75712700  0.24287300  1
  F  F13  1  0.24287300  0.24287300  0.75712700  1
  F  F14  1  0.75712700  0.24287300  0.24287300  1
