# generated using pymatgen
data_Tb(CoGe)2
_symmetry_space_group_name_H-M   'P 1'
_cell_length_a   3.95318794
_cell_length_b   3.95318794
_cell_length_c   6.03775167
_cell_angle_alpha   109.10937500
_cell_angle_beta   109.10937500
_cell_angle_gamma   90.00000000
_symmetry_Int_Tables_number   1
_chemical_formula_structural   Tb(CoGe)2
_chemical_formula_sum   'Tb1 Co2 Ge2'
_cell_volume   83.63459653
_cell_formula_units_Z   1
loop_
 _symmetry_equiv_pos_site_id
 _symmetry_equiv_pos_as_xyz
  1  'x, y, z'
loop_
 _atom_site_type_symbol
 _atom_site_label
 _atom_site_symmetry_multiplicity
 _atom_site_fract_x
 _atom_site_fract_y
 _atom_site_fract_z
 _atom_site_occupancy
  Tb  Tb0  1  0.00000000  0.00000000  0.00000000  1
  Co  Co1  1  0.75000000  0.25000000  0.49999998  1
  Co  Co2  1  0.24999999  0.75000001  0.49999998  1
  Ge  Ge3  1  0.61814100  0.61814100  0.23628198  1
  Ge  Ge4  1  0.38185900  0.38185900  0.76371798  1
