# generated using pymatgen
data_HoGa17
_symmetry_space_group_name_H-M   'P 1'
_cell_length_a   7.23267984
_cell_length_b   7.43211699
_cell_length_c   7.41370726
_cell_angle_alpha   90.00000000
_cell_angle_beta   70.51924896
_cell_angle_gamma   90.00000000
_symmetry_Int_Tables_number   1
_chemical_formula_structural   HoGa17
_chemical_formula_sum   'Ho1 Ga17'
_cell_volume   375.70364037
_cell_formula_units_Z   1
loop_
 _symmetry_equiv_pos_site_id
 _symmetry_equiv_pos_as_xyz
  1  'x, y, z'
loop_
 _atom_site_type_symbol
 _atom_site_label
 _atom_site_symmetry_multiplicity
 _atom_site_fract_x
 _atom_site_fract_y
 _atom_site_fract_z
 _atom_site_occupancy
  Ga  Ga0  1  0.25046501  0.32910900  0.74797197  1
  Ga  Ga1  1  0.74953503  0.67089100  0.25202796  1
  Ga  Ga2  1  0.24953501  0.82910900  0.25202798  1
  Ga  Ga3  1  0.75046503  0.17089100  0.74797195  1
  Ga  Ga4  1  0.00000000  0.00000000  0.00000000  1
  Ga  Ga5  1  0.50000002  0.50000000  -0.00000002  1
  Ga  Ga6  1  0.06177600  0.33091000  0.31694899  1
  Ga  Ga7  1  0.93822403  0.66909000  0.68305094  1
  Ga  Ga8  1  0.43822402  0.83091000  0.68305096  1
  Ho  Ho9  1  0.56177602  0.16909000  0.31694897  1
  Ga  Ga10  1  0.14416501  0.03721600  0.58470098  1
  Ga  Ga11  1  0.85583503  0.96278400  0.41529895  1
  Ga  Ga12  1  0.35583501  0.53721600  0.41529897  1
  Ga  Ga13  1  0.64416502  0.46278400  0.58470096  1
  Ga  Ga14  1  0.36369301  0.13389200  0.01049698  1
  Ga  Ga15  1  0.63630702  0.86610800  0.98950295  1
  Ga  Ga16  1  0.13630701  0.63389200  0.98950297  1
  Ga  Ga17  1  0.86369303  0.36610800  0.01049696  1
