# generated using pymatgen
data_Ga11Se
_symmetry_space_group_name_H-M   'P 1'
_cell_length_a   6.48489189
_cell_length_b   6.48489189
_cell_length_c   6.48489189
_cell_angle_alpha   90.00000000
_cell_angle_beta   90.00000000
_cell_angle_gamma   90.00000000
_symmetry_Int_Tables_number   1
_chemical_formula_structural   Ga11Se
_chemical_formula_sum   'Ga11 Se1'
_cell_volume   272.71449477
_cell_formula_units_Z   1
loop_
 _symmetry_equiv_pos_site_id
 _symmetry_equiv_pos_as_xyz
  1  'x, y, z'
loop_
 _atom_site_type_symbol
 _atom_site_label
 _atom_site_symmetry_multiplicity
 _atom_site_fract_x
 _atom_site_fract_y
 _atom_site_fract_z
 _atom_site_occupancy
  Se  Se0  1  0.12745300  0.87254701  0.37254701  1
  Ga  Ga1  1  0.87254701  0.37254701  0.12745300  1
  Ga  Ga2  1  0.37254701  0.12745300  0.87254701  1
  Ga  Ga3  1  0.62745301  0.62745301  0.62745301  1
  Ga  Ga4  1  0.87375001  0.12625000  0.62625001  1
  Ga  Ga5  1  0.12625000  0.62625001  0.87375001  1
  Ga  Ga6  1  0.62625001  0.87375001  0.12625000  1
  Ga  Ga7  1  0.37375001  0.37375001  0.37375001  1
  Ga  Ga8  1  0.50299001  0.49701001  0.99701002  1
  Ga  Ga9  1  0.49701001  0.99701002  0.50299001  1
  Ga  Ga10  1  0.99701002  0.50299001  0.49701001  1
  Ga  Ga11  1  0.00299000  0.00299000  0.00299000  1
