# generated using pymatgen
data_MnF3
_symmetry_space_group_name_H-M   'P 1'
_cell_length_a   5.28104734
_cell_length_b   5.28104734
_cell_length_c   5.75182009
_cell_angle_alpha   62.67248917
_cell_angle_beta   62.67248917
_cell_angle_gamma   60.00000381
_symmetry_Int_Tables_number   1
_chemical_formula_structural   MnF3
_chemical_formula_sum   'Mn2 F6'
_cell_volume   117.79859998
_cell_formula_units_Z   2
loop_
 _symmetry_equiv_pos_site_id
 _symmetry_equiv_pos_as_xyz
  1  'x, y, z'
loop_
 _atom_site_type_symbol
 _atom_site_label
 _atom_site_symmetry_multiplicity
 _atom_site_fract_x
 _atom_site_fract_y
 _atom_site_fract_z
 _atom_site_occupancy
  Mn  Mn0  1  0.49999999  0.50000002  0.50000003  1
  Mn  Mn1  1  0.00000000  0.00000000  0.00000000  1
  F  F2  1  0.62132701  0.22183701  0.23319203  1
  F  F3  1  0.92364399  0.62132703  0.23319205  1
  F  F4  1  0.77816302  0.07635600  0.76680802  1
  F  F5  1  0.07635598  0.37867302  0.76680801  1
  F  F6  1  0.37867297  0.77816304  0.76680804  1
  F  F7  1  0.22183695  0.92364405  0.23319205  1
