# generated using pymatgen
data_Ba5(IrO4)3
_symmetry_space_group_name_H-M   'P 1'
_cell_length_a   5.95245790
_cell_length_b   5.95245790
_cell_length_c   10.43888760
_cell_angle_alpha   73.43459320
_cell_angle_beta   73.43459320
_cell_angle_gamma   60.00000000
_symmetry_Int_Tables_number   1
_chemical_formula_structural   Ba5(IrO4)3
_chemical_formula_sum   'Ba5 Ir3 O12'
_cell_volume   302.45905553
_cell_formula_units_Z   1
loop_
 _symmetry_equiv_pos_site_id
 _symmetry_equiv_pos_as_xyz
  1  'x, y, z'
loop_
 _atom_site_type_symbol
 _atom_site_label
 _atom_site_symmetry_multiplicity
 _atom_site_fract_x
 _atom_site_fract_y
 _atom_site_fract_z
 _atom_site_occupancy
  Ba  Ba0  1  0.71496702  0.71496701  0.85509895  1
  Ba  Ba1  1  0.87073602  0.87073601  0.38779194  1
  Ba  Ba2  1  0.28503301  0.28503300  0.14490098  1
  Ba  Ba3  1  0.12926400  0.12926400  0.61220799  1
  Ba  Ba4  1  0.00000000  0.00000000  0.00000000  1
  Ir  Ir5  1  0.58636601  0.58636601  0.24090196  1
  Ir  Ir6  1  0.41363401  0.41363401  0.75909797  1
  Ir  Ir7  1  0.50000001  0.50000001  0.49999997  1
  O  O8  1  0.21976800  0.21976800  0.86841499  1
  O  O9  1  0.21976801  0.69204901  0.86841497  1
  O  O10  1  0.69204901  0.21976800  0.86841497  1
  O  O11  1  0.30795101  0.78023201  0.13158496  1
  O  O12  1  0.78023202  0.78023201  0.13158494  1
  O  O13  1  0.78023202  0.30795101  0.13158496  1
  O  O14  1  0.38720601  0.38720601  0.37323297  1
  O  O15  1  0.38720601  0.85235501  0.37323296  1
  O  O16  1  0.61279401  0.14764500  0.62676698  1
  O  O17  1  0.61279401  0.61279401  0.62676696  1
  O  O18  1  0.14764500  0.61279401  0.62676697  1
  O  O19  1  0.85235502  0.38720601  0.37323296  1
