# generated using pymatgen
data_Cs2AuS
_symmetry_space_group_name_H-M   'P 1'
_cell_length_a   4.63313580
_cell_length_b   6.78041220
_cell_length_c   7.83033991
_cell_angle_alpha   90.00000000
_cell_angle_beta   107.20822144
_cell_angle_gamma   90.00000000
_symmetry_Int_Tables_number   1
_chemical_formula_structural   Cs2AuS
_chemical_formula_sum   'Cs4 Au2 S2'
_cell_volume   234.97539376
_cell_formula_units_Z   2
loop_
 _symmetry_equiv_pos_site_id
 _symmetry_equiv_pos_as_xyz
  1  'x, y, z'
loop_
 _atom_site_type_symbol
 _atom_site_label
 _atom_site_symmetry_multiplicity
 _atom_site_fract_x
 _atom_site_fract_y
 _atom_site_fract_z
 _atom_site_occupancy
  Cs  Cs0  1  0.27729301  0.74999998  0.55458600  1
  Cs  Cs1  1  0.72270703  0.24999999  0.44541400  1
  Cs  Cs2  1  0.54861302  0.74999998  0.09722600  1
  Cs  Cs3  1  0.45138702  0.24999999  0.90277401  1
  S  S4  1  0.92401704  0.93242397  0.84803400  1
  Au  Au5  1  0.07598300  0.06757600  0.15196600  1
  Au  Au6  1  0.92401704  0.56757598  0.84803400  1
  S  S7  1  0.07598300  0.43242399  0.15196600  1
