# generated using pymatgen
data_Mn4Ge3
_symmetry_space_group_name_H-M   'P 1'
_cell_length_a   5.41666222
_cell_length_b   6.14276743
_cell_length_c   7.02655792
_cell_angle_alpha   115.58197784
_cell_angle_beta   112.67118835
_cell_angle_gamma   90.00000000
_symmetry_Int_Tables_number   1
_chemical_formula_structural   Mn4Ge3
_chemical_formula_sum   'Mn8 Ge6'
_cell_volume   190.65280494
_cell_formula_units_Z   2
loop_
 _symmetry_equiv_pos_site_id
 _symmetry_equiv_pos_as_xyz
  1  'x, y, z'
loop_
 _atom_site_type_symbol
 _atom_site_label
 _atom_site_symmetry_multiplicity
 _atom_site_fract_x
 _atom_site_fract_y
 _atom_site_fract_z
 _atom_site_occupancy
  Mn  Mn0  1  0.24799699  0.00000000  0.00000000  1
  Ge  Ge1  1  0.75200298  0.00000000  0.00000001  1
  Mn  Mn2  1  0.37220699  0.14950299  0.74441399  1
  Ge  Ge3  1  0.62779298  0.85049697  0.25558599  1
  Mn  Mn4  1  0.89816597  0.59473198  0.79633199  1
  Mn  Mn5  1  0.10183400  0.40526798  0.20366799  1
  Ge  Ge6  1  0.01828300  0.74141197  0.54197998  1
  Ge  Ge7  1  0.47630298  0.25858799  0.45801999  1
  Ge  Ge8  1  0.52369598  0.74141197  0.54197898  1
  Mn  Mn9  1  0.98171697  0.25858799  0.45802000  1
  Ge  Ge10  1  0.87308797  0.15058399  0.74617600  1
  Mn  Mn11  1  0.12691199  0.84941597  0.25382398  1
  Mn  Mn12  1  0.39717199  0.59735398  0.79434398  1
  Mn  Mn13  1  0.60282798  0.40264598  0.20565600  1
