# generated using pymatgen
data_TmB7MoC
_symmetry_space_group_name_H-M   'P 1'
_cell_length_a   4.39730978
_cell_length_b   5.48792219
_cell_length_c   7.42380619
_cell_angle_alpha   90.00000000
_cell_angle_beta   90.00000000
_cell_angle_gamma   90.00000000
_symmetry_Int_Tables_number   1
_chemical_formula_structural   TmB7MoC
_chemical_formula_sum   'Tm2 B14 Mo2 C2'
_cell_volume   179.15198828
_cell_formula_units_Z   2
loop_
 _symmetry_equiv_pos_site_id
 _symmetry_equiv_pos_as_xyz
  1  'x, y, z'
loop_
 _atom_site_type_symbol
 _atom_site_label
 _atom_site_symmetry_multiplicity
 _atom_site_fract_x
 _atom_site_fract_y
 _atom_site_fract_z
 _atom_site_occupancy
  Tm  Tm0  1  0.75000004  0.45449198  0.63778498  1
  Tm  Tm1  1  0.25000001  0.54550798  0.36221499  1
  Mo  Mo2  1  0.75000004  0.95449197  0.86221498  1
  Mo  Mo3  1  0.25000001  0.04550800  0.13778500  1
  B  B4  1  0.75000004  0.77768497  0.15363400  1
  B  B5  1  0.25000001  0.22231499  0.84636598  1
  C  C6  1  0.75000004  0.27768499  0.34636599  1
  B  B7  1  0.25000001  0.72231497  0.65363398  1
  B  B8  1  0.75000004  0.94682097  0.35294199  1
  B  B9  1  0.25000001  0.05317900  0.64705798  1
  B  B10  1  0.75000004  0.44682098  0.14705800  1
  B  B11  1  0.25000001  0.55317898  0.85294198  1
  B  B12  1  0.94195205  0.36770099  0.93683598  1
  B  B13  1  0.44195202  0.63229898  0.06316400  1
  B  B14  1  0.55804803  0.86770097  0.56316399  1
  B  B15  1  0.05804800  0.13229900  0.43683599  1
  B  B16  1  0.05804800  0.63229898  0.06316400  1
  C  C17  1  0.55804803  0.36770099  0.93683598  1
  B  B18  1  0.44195202  0.13229900  0.43683599  1
  B  B19  1  0.94195205  0.86770097  0.56316399  1
