# generated using pymatgen
data_HoGaCo9Mo2
_symmetry_space_group_name_H-M   'P 1'
_cell_length_a   4.66286802
_cell_length_b   6.45579052
_cell_length_c   6.45579052
_cell_angle_alpha   82.50608063
_cell_angle_beta   68.82987213
_cell_angle_gamma   68.82987213
_symmetry_Int_Tables_number   1
_chemical_formula_structural   HoGaCo9Mo2
_chemical_formula_sum   'Ho1 Ga1 Co9 Mo2'
_cell_volume   168.99001340
_cell_formula_units_Z   1
loop_
 _symmetry_equiv_pos_site_id
 _symmetry_equiv_pos_as_xyz
  1  'x, y, z'
loop_
 _atom_site_type_symbol
 _atom_site_label
 _atom_site_symmetry_multiplicity
 _atom_site_fract_x
 _atom_site_fract_y
 _atom_site_fract_z
 _atom_site_occupancy
  Ho  Ho0  1  0.00000000  0.00000000  0.00000000  1
  Co  Co1  1  0.50000000  0.00000000  0.49999999  1
  Co  Co2  1  0.00000000  0.00000000  0.50000000  1
  Co  Co3  1  0.49999999  0.50000000  -0.00000001  1
  Co  Co4  1  0.99999999  0.50000000  -0.00000001  1
  Mo  Mo5  1  0.35877799  0.64122200  0.64122199  1
  Mo  Mo6  1  0.64122199  0.35877800  0.35877799  1
  Ga  Ga7  1  -0.00000001  0.64122200  0.35877799  1
  Co  Co8  1  -0.00000001  0.35877800  0.64122199  1
  Co  Co9  1  0.26815400  0.23184600  0.23184599  1
  Co  Co10  1  0.73184599  0.76815400  0.76815398  1
  Co  Co11  1  0.50000000  0.23184600  0.76815399  1
  Co  Co12  1  0.49999999  0.76815400  0.23184599  1
