# generated using pymatgen
data_LiCo2(PO4)2
_symmetry_space_group_name_H-M   'P 1'
_cell_length_a   4.91325474
_cell_length_b   4.91325474
_cell_length_c   6.52412653
_cell_angle_alpha   88.49663544
_cell_angle_beta   88.49663544
_cell_angle_gamma   68.07940674
_symmetry_Int_Tables_number   1
_chemical_formula_structural   LiCo2(PO4)2
_chemical_formula_sum   'Li1 Co2 P2 O8'
_cell_volume   146.03323853
_cell_formula_units_Z   1
loop_
 _symmetry_equiv_pos_site_id
 _symmetry_equiv_pos_as_xyz
  1  'x, y, z'
loop_
 _atom_site_type_symbol
 _atom_site_label
 _atom_site_symmetry_multiplicity
 _atom_site_fract_x
 _atom_site_fract_y
 _atom_site_fract_z
 _atom_site_occupancy
  Co  Co0  1  0.17280101  0.17280100  0.28824502  1
  Li  Li1  1  0.50417102  0.50417099  0.51327906  1
  Co  Co2  1  0.50352602  0.50352599  0.99440507  1
  P  P3  1  0.14869901  0.14869900  0.76072604  1
  P  P4  1  0.84571304  0.84571298  0.23754308  1
  O  O5  1  0.25184101  0.25184099  0.56492004  1
  O  O6  1  0.74492404  0.74492398  0.03654307  1
  O  O7  1  0.73672004  0.73671998  0.42508308  1
  O  O8  1  0.26981504  0.80571298  0.77558707  1
  O  O9  1  0.73802601  0.19244400  0.22567405  1
  O  O10  1  0.80571301  0.26981499  0.77558707  1
  O  O11  1  0.19244404  0.73802598  0.22567405  1
  O  O12  1  0.25677201  0.25677199  0.96011405  1
