# generated using pymatgen
data_PrGe
_symmetry_space_group_name_H-M   'P 1'
_cell_length_a   4.13979912
_cell_length_b   8.01774025
_cell_length_c   8.01774025
_cell_angle_alpha   90.00000000
_cell_angle_beta   90.00000000
_cell_angle_gamma   90.00000000
_symmetry_Int_Tables_number   1
_chemical_formula_structural   PrGe
_chemical_formula_sum   'Pr5 Ge5'
_cell_volume   266.12350353
_cell_formula_units_Z   5
loop_
 _symmetry_equiv_pos_site_id
 _symmetry_equiv_pos_as_xyz
  1  'x, y, z'
loop_
 _atom_site_type_symbol
 _atom_site_label
 _atom_site_symmetry_multiplicity
 _atom_site_fract_x
 _atom_site_fract_y
 _atom_site_fract_z
 _atom_site_occupancy
  Pr  Pr0  1  0.49999999  0.82308497  0.67691498  1
  Pr  Pr1  1  0.49999999  0.32308499  0.82308497  1
  Pr  Pr2  1  0.49999999  0.17691499  0.32308499  1
  Pr  Pr3  1  0.49999999  0.67691498  0.17691499  1
  Pr  Pr4  1  0.99999997  0.49999998  0.49999998  1
  Ge  Ge5  1  0.00000000  0.00000000  0.00000000  1
  Ge  Ge6  1  0.99999997  0.12102900  0.62102898  1
  Ge  Ge7  1  0.00000000  0.62102898  0.87897097  1
  Ge  Ge8  1  0.00000000  0.37897099  0.12102900  1
  Ge  Ge9  1  0.99999997  0.87897097  0.37897099  1
