# generated using pymatgen
data_Nb4Co13B2P
_symmetry_space_group_name_H-M   'P 1'
_cell_length_a   2.94493103
_cell_length_b   9.15272045
_cell_length_c   9.24212646
_cell_angle_alpha   89.80155945
_cell_angle_beta   90.00000000
_cell_angle_gamma   90.00000000
_symmetry_Int_Tables_number   1
_chemical_formula_structural   Nb4Co13B2P
_chemical_formula_sum   'Nb4 Co13 B2 P1'
_cell_volume   249.11198843
_cell_formula_units_Z   1
loop_
 _symmetry_equiv_pos_site_id
 _symmetry_equiv_pos_as_xyz
  1  'x, y, z'
loop_
 _atom_site_type_symbol
 _atom_site_label
 _atom_site_symmetry_multiplicity
 _atom_site_fract_x
 _atom_site_fract_y
 _atom_site_fract_z
 _atom_site_occupancy
  Nb  Nb0  1  0.00000000  0.82481296  0.68032295  1
  Nb  Nb1  1  0.00000000  0.17518699  0.31967699  1
  Nb  Nb2  1  0.00000000  0.67526497  0.17136296  1
  Nb  Nb3  1  0.00000000  0.32473498  0.82863698  1
  Co  Co4  1  0.00000000  0.49999998  0.49999997  1
  Co  Co5  1  0.00000000  0.00000000  0.00000000  1
  P  P6  1  0.00000000  0.37506798  0.12537098  1
  B  B7  1  0.00000000  0.62493197  0.87462896  1
  B  B8  1  0.00000000  0.12229999  0.62657599  1
  Co  Co9  1  0.00000000  0.87769996  0.37342395  1
  Co  Co10  1  0.49999999  0.21133499  0.07404699  1
  Co  Co11  1  0.49999999  0.78866496  0.92595295  1
  Co  Co12  1  0.49999999  0.42675098  0.28968498  1
  Co  Co13  1  0.49999999  0.57324897  0.71031497  1
  Co  Co14  1  0.49999999  0.92520395  0.21257895  1
  Co  Co15  1  0.49999999  0.07479600  0.78742099  1
  Co  Co16  1  0.49999999  0.00000000  0.50000000  1
  Co  Co17  1  0.49999999  0.49999998  -0.00000003  1
  Co  Co18  1  0.49999999  0.28672699  0.57308498  1
  Co  Co19  1  0.49999999  0.71327296  0.42691496  1
