# generated using pymatgen
data_NaSiS2
_symmetry_space_group_name_H-M   'P 1'
_cell_length_a   3.16233802
_cell_length_b   3.16233873
_cell_length_c   13.62014008
_cell_angle_alpha   90.00000000
_cell_angle_beta   90.00000000
_cell_angle_gamma   119.99999237
_symmetry_Int_Tables_number   1
_chemical_formula_structural   NaSiS2
_chemical_formula_sum   'Na2 Si2 S4'
_cell_volume   117.95841164
_cell_formula_units_Z   2
loop_
 _symmetry_equiv_pos_site_id
 _symmetry_equiv_pos_as_xyz
  1  'x, y, z'
loop_
 _atom_site_type_symbol
 _atom_site_label
 _atom_site_symmetry_multiplicity
 _atom_site_fract_x
 _atom_site_fract_y
 _atom_site_fract_z
 _atom_site_occupancy
  S  S0  1  0.66666667  0.33333335  0.58942300  1
  S  S1  1  0.33333335  0.66666669  0.41057700  1
  S  S2  1  0.33333335  0.66666669  0.08942300  1
  S  S3  1  0.66666667  0.33333335  0.91057699  1
  Na  Na4  1  0.66666667  0.33333335  0.25000000  1
  Na  Na5  1  0.33333335  0.66666669  0.75000000  1
  Si  Si6  1  0.00000000  0.00000000  0.50000000  1
  Si  Si7  1  0.00000000  0.00000000  0.00000000  1
