# generated using pymatgen
data_Ba2S3
_symmetry_space_group_name_H-M   'P 1'
_cell_length_a   4.27560806
_cell_length_b   11.91481113
_cell_length_c   12.11134624
_cell_angle_alpha   90.00000000
_cell_angle_beta   90.00000000
_cell_angle_gamma   90.00000000
_symmetry_Int_Tables_number   1
_chemical_formula_structural   Ba2S3
_chemical_formula_sum   'Ba8 S12'
_cell_volume   616.98906934
_cell_formula_units_Z   4
loop_
 _symmetry_equiv_pos_site_id
 _symmetry_equiv_pos_as_xyz
  1  'x, y, z'
loop_
 _atom_site_type_symbol
 _atom_site_label
 _atom_site_symmetry_multiplicity
 _atom_site_fract_x
 _atom_site_fract_y
 _atom_site_fract_z
 _atom_site_occupancy
  Ba  Ba0  1  0.25000000  0.18763900  0.48549399  1
  Ba  Ba1  1  0.25000000  0.31236100  0.98549398  1
  Ba  Ba2  1  0.74999999  0.81236099  0.51450599  1
  Ba  Ba3  1  0.74999999  0.68763899  0.01450600  1
  Ba  Ba4  1  0.74999999  0.49871499  0.69479099  1
  Ba  Ba5  1  0.74999999  0.00128500  0.19479100  1
  Ba  Ba6  1  0.25000000  0.50128499  0.30520899  1
  Ba  Ba7  1  0.25000000  0.99871499  0.80520898  1
  S  S8  1  0.25000000  0.62493499  0.54369499  1
  S  S9  1  0.25000000  0.87506499  0.04369500  1
  S  S10  1  0.74999999  0.37506500  0.45630499  1
  S  S11  1  0.74999999  0.12493500  0.95630498  1
  S  S12  1  0.25000000  0.29843700  0.72662999  1
  S  S13  1  0.25000000  0.20156300  0.22663000  1
  S  S14  1  0.74999999  0.70156299  0.27336999  1
  S  S15  1  0.74999999  0.79843699  0.77336998  1
  S  S16  1  0.74999999  0.05234200  0.61855199  1
  S  S17  1  0.74999999  0.44765799  0.11855200  1
  S  S18  1  0.25000000  0.94765799  0.38144799  1
  S  S19  1  0.25000000  0.55234199  0.88144798  1
