# generated using pymatgen
data_Cd2Ga3P5
_symmetry_space_group_name_H-M   'P 1'
_cell_length_a   3.80499601
_cell_length_b   6.87010384
_cell_length_c   7.87332010
_cell_angle_alpha   90.00000000
_cell_angle_beta   90.00000000
_cell_angle_gamma   106.07671356
_symmetry_Int_Tables_number   1
_chemical_formula_structural   Cd2Ga3P5
_chemical_formula_sum   'Cd2 Ga3 P5'
_cell_volume   197.76521023
_cell_formula_units_Z   1
loop_
 _symmetry_equiv_pos_site_id
 _symmetry_equiv_pos_as_xyz
  1  'x, y, z'
loop_
 _atom_site_type_symbol
 _atom_site_label
 _atom_site_symmetry_multiplicity
 _atom_site_fract_x
 _atom_site_fract_y
 _atom_site_fract_z
 _atom_site_occupancy
  Cd  Cd0  1  0.19289095  0.38578198  0.93349999  1
  Cd  Cd1  1  0.80710892  0.61421797  0.43349999  1
  Ga  Ga2  1  0.05635999  0.11271999  0.38993799  1
  Ga  Ga3  1  0.42417990  0.84835996  0.14321400  1
  P  P4  1  0.94363989  0.88727996  0.88993799  1
  Ga  Ga5  1  0.57581998  0.15163999  0.64321399  1
  P  P6  1  0.18838795  0.37677598  0.58860199  1
  P  P7  1  0.45554989  0.91109996  0.42985499  1
  P  P8  1  0.54444999  0.08890000  0.92985499  1
  P  P9  1  0.81161192  0.62322397  0.08860200  1
