# generated using pymatgen
data_CuH2Se4O11
_symmetry_space_group_name_H-M   'P 1'
_cell_length_a   5.18170023
_cell_length_b   5.68607998
_cell_length_c   7.66367340
_cell_angle_alpha   101.45685577
_cell_angle_beta   106.57626343
_cell_angle_gamma   98.72382355
_symmetry_Int_Tables_number   1
_chemical_formula_structural   CuH2Se4O11
_chemical_formula_sum   'Cu1 H2 Se4 O11'
_cell_volume   206.82027413
_cell_formula_units_Z   1
loop_
 _symmetry_equiv_pos_site_id
 _symmetry_equiv_pos_as_xyz
  1  'x, y, z'
loop_
 _atom_site_type_symbol
 _atom_site_label
 _atom_site_symmetry_multiplicity
 _atom_site_fract_x
 _atom_site_fract_y
 _atom_site_fract_z
 _atom_site_occupancy
  O  O0  1  0.00000000  0.00000000  0.00000000  1
  Cu  Cu1  1  0.49999996  0.49999998  0.49999997  1
  H  H2  1  0.90626594  0.46614898  0.75806294  1
  H  H3  1  0.09373399  0.53385098  0.24193699  1
  Se  Se4  1  0.02707199  0.67077197  0.66425598  1
  Se  Se5  1  0.97292794  0.32922799  0.33574395  1
  Se  Se6  1  0.57280796  0.87790796  0.23156196  1
  Se  Se7  1  0.42719197  0.12209199  0.76843797  1
  O  O8  1  0.67871395  0.82279397  0.04115396  1
  O  O9  1  0.32128598  0.17720599  0.95884597  1
  O  O10  1  0.22116898  0.81361897  0.15549098  1
  O  O11  1  0.77883095  0.18638099  0.84450895  1
  O  O12  1  0.70322895  0.16144999  0.36986096  1
  O  O13  1  0.29677097  0.83854997  0.63013897  1
  O  O14  1  0.66865495  0.66583197  0.34668596  1
  O  O15  1  0.33134498  0.33416799  0.65331397  1
  O  O16  1  0.13278699  0.39364098  0.29577299  1
  O  O17  1  0.86721294  0.60635897  0.70422695  1
