# generated using pymatgen
data_Pr5MgSe8
_symmetry_space_group_name_H-M   'P 1'
_cell_length_a   7.94968557
_cell_length_b   7.94968557
_cell_length_c   7.94968557
_cell_angle_alpha   109.47122192
_cell_angle_beta   109.47122192
_cell_angle_gamma   109.47122192
_symmetry_Int_Tables_number   1
_chemical_formula_structural   Pr5MgSe8
_chemical_formula_sum   'Pr5 Mg1 Se8'
_cell_volume   386.74788181
_cell_formula_units_Z   1
loop_
 _symmetry_equiv_pos_site_id
 _symmetry_equiv_pos_as_xyz
  1  'x, y, z'
loop_
 _atom_site_type_symbol
 _atom_site_label
 _atom_site_symmetry_multiplicity
 _atom_site_fract_x
 _atom_site_fract_y
 _atom_site_fract_z
 _atom_site_occupancy
  Pr  Pr0  1  0.35990704  0.75000001  0.10990705  1
  Pr  Pr1  1  0.14009301  0.25000000  0.39009301  1
  Pr  Pr2  1  0.75000003  0.60990701  0.85990703  1
  Pr  Pr3  1  0.25000005  0.89009301  0.64009304  1
  Pr  Pr4  1  0.60990701  0.35990701  0.25000003  1
  Mg  Mg5  1  0.89009300  0.14009300  0.75000001  1
  Se  Se6  1  0.00000003  0.50000001  0.17003402  1
  Se  Se7  1  0.67003399  0.00000000  0.00000002  1
  Se  Se8  1  0.50000004  0.67003401  0.50000004  1
  Se  Se9  1  0.82996604  0.82996601  0.32996606  1
  Se  Se10  1  0.15112900  0.00000000  0.00000000  1
  Se  Se11  1  0.00000003  0.50000001  0.65112901  1
  Se  Se12  1  0.50000000  0.15112900  0.50000001  1
  Se  Se13  1  0.34887102  0.34887101  0.84887101  1
