# generated using pymatgen
data_Ga
_symmetry_space_group_name_H-M   'P 1'
_cell_length_a   2.70190811
_cell_length_b   8.84707355
_cell_length_c   8.84707355
_cell_angle_alpha   90.00000000
_cell_angle_beta   90.00000000
_cell_angle_gamma   90.00000000
_symmetry_Int_Tables_number   1
_chemical_formula_structural   Ga
_chemical_formula_sum   Ga14
_cell_volume   211.48026756
_cell_formula_units_Z   14
loop_
 _symmetry_equiv_pos_site_id
 _symmetry_equiv_pos_as_xyz
  1  'x, y, z'
loop_
 _atom_site_type_symbol
 _atom_site_label
 _atom_site_symmetry_multiplicity
 _atom_site_fract_x
 _atom_site_fract_y
 _atom_site_fract_z
 _atom_site_occupancy
  Ga  Ga0  1  0.49999998  0.67865103  0.17865101  1
  Ga  Ga1  1  0.49999998  0.32134902  0.82134904  1
  Ga  Ga2  1  0.49999998  0.17865101  0.32134902  1
  Ga  Ga3  1  0.49999998  0.82134904  0.67865103  1
  Ga  Ga4  1  0.00000000  0.50000003  -0.00000000  1
  Ga  Ga5  1  0.00000000  0.00000000  0.50000003  1
  Ga  Ga6  1  0.00000000  0.56478503  0.70687004  1
  Ga  Ga7  1  0.00000000  0.43521502  0.29313001  1
  Ga  Ga8  1  0.00000000  0.06478500  0.79313004  1
  Ga  Ga9  1  0.00000000  0.93521505  0.20687001  1
  Ga  Ga10  1  0.00000000  0.29313001  0.56478503  1
  Ga  Ga11  1  0.00000000  0.70687004  0.43521502  1
  Ga  Ga12  1  0.00000000  0.20687001  0.06478500  1
  Ga  Ga13  1  0.00000000  0.79313004  0.93521505  1
