# generated using pymatgen
data_Hf5Ga4
_symmetry_space_group_name_H-M   'P 1'
_cell_length_a   6.03313303
_cell_length_b   8.22227192
_cell_length_c   8.22227192
_cell_angle_alpha   120.00000000
_cell_angle_beta   90.00000000
_cell_angle_gamma   90.00000000
_symmetry_Int_Tables_number   1
_chemical_formula_structural   Hf5Ga4
_chemical_formula_sum   'Hf10 Ga8'
_cell_volume   353.22969294
_cell_formula_units_Z   2
loop_
 _symmetry_equiv_pos_site_id
 _symmetry_equiv_pos_as_xyz
  1  'x, y, z'
loop_
 _atom_site_type_symbol
 _atom_site_label
 _atom_site_symmetry_multiplicity
 _atom_site_fract_x
 _atom_site_fract_y
 _atom_site_fract_z
 _atom_site_occupancy
  Hf  Hf0  1  0.78864300  0.00000000  0.64621398  1
  Ga  Ga1  1  0.78864300  0.35378600  0.35378598  1
  Ga  Ga2  1  0.78864300  0.64621400  -0.00000002  1
  Ga  Ga3  1  0.08260900  0.68860000  0.68859996  1
  Ga  Ga4  1  0.08260900  0.31140000  -0.00000001  1
  Ga  Ga5  1  0.08260900  0.00000000  0.31139999  1
  Ga  Ga6  1  0.50211700  0.66666666  0.33333330  1
  Ga  Ga7  1  0.35185200  0.00000000  -0.00000000  1
  Ga  Ga8  1  0.50211700  0.33333333  0.66666663  1
  Hf  Hf9  1  0.28875200  0.00000000  0.64199698  1
  Hf  Hf10  1  0.28875200  0.35800300  0.35800298  1
  Hf  Hf11  1  0.28875200  0.64199700  0.99999995  1
  Hf  Hf12  1  0.58029200  0.68822800  0.68822796  1
  Hf  Hf13  1  0.58029200  0.31177200  -0.00000001  1
  Hf  Hf14  1  0.58029200  0.00000000  0.31177199  1
  Hf  Hf15  1  0.01323200  0.66666666  0.33333330  1
  Hf  Hf16  1  0.83819900  0.00000000  -0.00000000  1
  Hf  Hf17  1  0.01323200  0.33333333  0.66666663  1
