# generated using pymatgen
data_Ba(ZnP)2
_symmetry_space_group_name_H-M   'P 1'
_cell_length_a   4.10387421
_cell_length_b   4.10387421
_cell_length_c   6.45476961
_cell_angle_alpha   108.53565216
_cell_angle_beta   108.53565216
_cell_angle_gamma   90.00000000
_symmetry_Int_Tables_number   1
_chemical_formula_structural   Ba(ZnP)2
_chemical_formula_sum   'Ba1 Zn2 P2'
_cell_volume   97.10447197
_cell_formula_units_Z   1
loop_
 _symmetry_equiv_pos_site_id
 _symmetry_equiv_pos_as_xyz
  1  'x, y, z'
loop_
 _atom_site_type_symbol
 _atom_site_label
 _atom_site_symmetry_multiplicity
 _atom_site_fract_x
 _atom_site_fract_y
 _atom_site_fract_z
 _atom_site_occupancy
  Ba  Ba0  1  0.00000000  0.00000000  0.00000000  1
  P  P1  1  0.62911296  0.62911297  0.25822598  1
  P  P2  1  0.37088698  0.37088698  0.74177398  1
  Zn  Zn3  1  0.74999996  0.24999999  0.49999998  1
  Zn  Zn4  1  0.24999998  0.74999996  0.49999998  1
