# generated using pymatgen
data_Na5In7O8
_symmetry_space_group_name_H-M   'P 1'
_cell_length_a   5.86343813
_cell_length_b   5.86343813
_cell_length_c   10.50958347
_cell_angle_alpha   90.00000000
_cell_angle_beta   90.00000000
_cell_angle_gamma   90.00000000
_symmetry_Int_Tables_number   1
_chemical_formula_structural   Na5In7O8
_chemical_formula_sum   'Na5 In7 O8'
_cell_volume   361.31849924
_cell_formula_units_Z   1
loop_
 _symmetry_equiv_pos_site_id
 _symmetry_equiv_pos_as_xyz
  1  'x, y, z'
loop_
 _atom_site_type_symbol
 _atom_site_label
 _atom_site_symmetry_multiplicity
 _atom_site_fract_x
 _atom_site_fract_y
 _atom_site_fract_z
 _atom_site_occupancy
  Na  Na0  1  0.80254598  0.80254598  0.65531297  1
  Na  Na1  1  0.19745400  0.19745400  0.65531297  1
  In  In2  1  0.80254598  0.80254598  0.34468698  1
  In  In3  1  0.30254599  0.69745398  0.15531299  1
  In  In4  1  0.69745398  0.30254599  0.15531299  1
  Na  Na5  1  0.69745398  0.30254599  0.84468696  1
  Na  Na6  1  0.30254599  0.69745398  0.84468696  1
  Na  Na7  1  0.19745400  0.19745400  0.34468698  1
  In  In8  1  0.17542200  0.17542200  -0.00000000  1
  In  In9  1  0.32457799  0.67542199  0.49999998  1
  In  In10  1  0.67542199  0.32457799  0.49999998  1
  In  In11  1  0.82457798  0.82457798  -0.00000000  1
  O  O12  1  0.49999999  0.00000000  -0.00000000  1
  O  O13  1  0.49999999  0.00000000  0.49999998  1
  O  O14  1  0.00000000  0.49999999  0.49999998  1
  O  O15  1  0.00000000  0.49999999  -0.00000000  1
  O  O16  1  0.00000000  0.00000000  0.85799596  1
  O  O17  1  0.49999999  0.49999999  0.35799598  1
  O  O18  1  0.49999999  0.49999999  0.64200397  1
  O  O19  1  0.00000000  0.00000000  0.14200399  1
