# generated using pymatgen
data_Mg5Ga3Ni4
_symmetry_space_group_name_H-M   'P 1'
_cell_length_a   5.11345911
_cell_length_b   5.11345911
_cell_length_c   8.18618679
_cell_angle_alpha   90.00000000
_cell_angle_beta   90.00000000
_cell_angle_gamma   119.21885681
_symmetry_Int_Tables_number   1
_chemical_formula_structural   Mg5Ga3Ni4
_chemical_formula_sum   'Mg5 Ga3 Ni4'
_cell_volume   186.81286869
_cell_formula_units_Z   1
loop_
 _symmetry_equiv_pos_site_id
 _symmetry_equiv_pos_as_xyz
  1  'x, y, z'
loop_
 _atom_site_type_symbol
 _atom_site_label
 _atom_site_symmetry_multiplicity
 _atom_site_fract_x
 _atom_site_fract_y
 _atom_site_fract_z
 _atom_site_occupancy
  Mg  Mg0  1  0.66702096  0.33297898  0.79689302  1
  Mg  Mg1  1  0.33100196  0.66899796  0.67464002  1
  Mg  Mg2  1  0.33100196  0.66899796  0.32536001  1
  Mg  Mg3  1  0.66702096  0.33297898  0.20310701  1
  Ga  Ga4  1  0.00607897  0.99392095  0.73605302  1
  Mg  Mg5  1  0.00607897  0.99392095  0.26394701  1
  Ga  Ga6  1  0.65620595  0.83185396  -0.00000000  1
  Ga  Ga7  1  0.16814598  0.34379398  1.00000003  1
  Ni  Ni8  1  0.16666197  0.83333796  -0.00000000  1
  Ni  Ni9  1  0.34502298  0.17378899  0.50000001  1
  Ni  Ni10  1  0.82621095  0.65497696  0.50000001  1
  Ni  Ni11  1  0.82959796  0.17040199  0.50000001  1
