# generated using pymatgen
data_Cs2Br7
_symmetry_space_group_name_H-M   'P 1'
_cell_length_a   7.84585047
_cell_length_b   7.84585047
_cell_length_c   7.84585047
_cell_angle_alpha   60.00000000
_cell_angle_beta   60.00000000
_cell_angle_gamma   60.00000000
_symmetry_Int_Tables_number   1
_chemical_formula_structural   Cs2Br7
_chemical_formula_sum   'Cs2 Br7'
_cell_volume   341.51130325
_cell_formula_units_Z   1
loop_
 _symmetry_equiv_pos_site_id
 _symmetry_equiv_pos_as_xyz
  1  'x, y, z'
loop_
 _atom_site_type_symbol
 _atom_site_label
 _atom_site_symmetry_multiplicity
 _atom_site_fract_x
 _atom_site_fract_y
 _atom_site_fract_z
 _atom_site_occupancy
  Cs  Cs0  1  0.25000000  0.25000000  0.25000000  1
  Cs  Cs1  1  0.74999999  0.74999999  0.74999999  1
  Br  Br2  1  0.00000000  0.00000000  0.00000000  1
  Br  Br3  1  0.75352899  0.24647100  0.24647100  1
  Br  Br4  1  0.24647100  0.24647100  0.75352899  1
  Br  Br5  1  0.75352899  0.75352899  0.24647100  1
  Br  Br6  1  0.24647100  0.75352899  0.75352899  1
  Br  Br7  1  0.75352899  0.24647100  0.75352899  1
  Br  Br8  1  0.24647100  0.75352899  0.24647100  1
