# generated using pymatgen
data_CrSe2
_symmetry_space_group_name_H-M   'P 1'
_cell_length_a   3.27606392
_cell_length_b   5.77916193
_cell_length_c   6.51953888
_cell_angle_alpha   90.00000000
_cell_angle_beta   90.00000000
_cell_angle_gamma   90.00000000
_symmetry_Int_Tables_number   1
_chemical_formula_structural   CrSe2
_chemical_formula_sum   'Cr2 Se4'
_cell_volume   123.43380296
_cell_formula_units_Z   2
loop_
 _symmetry_equiv_pos_site_id
 _symmetry_equiv_pos_as_xyz
  1  'x, y, z'
loop_
 _atom_site_type_symbol
 _atom_site_label
 _atom_site_symmetry_multiplicity
 _atom_site_fract_x
 _atom_site_fract_y
 _atom_site_fract_z
 _atom_site_occupancy
  Cr  Cr0  1  0.00000000  0.00000000  0.00000000  1
  Cr  Cr1  1  0.50000001  0.50000001  0.50000001  1
  Se  Se2  1  0.00000000  0.19647700  0.35518401  1
  Se  Se3  1  0.00000000  0.80352301  0.64481601  1
  Se  Se4  1  0.50000001  0.30352300  0.85518402  1
  Se  Se5  1  0.50000001  0.69647701  0.14481600  1
