# generated using pymatgen
data_BaBi
_symmetry_space_group_name_H-M   'P 1'
_cell_length_a   5.41810799
_cell_length_b   5.41810799
_cell_length_c   13.33402824
_cell_angle_alpha   90.00000000
_cell_angle_beta   90.00000000
_cell_angle_gamma   120.00000000
_symmetry_Int_Tables_number   1
_chemical_formula_structural   BaBi
_chemical_formula_sum   'Ba4 Bi4'
_cell_volume   338.99033451
_cell_formula_units_Z   4
loop_
 _symmetry_equiv_pos_site_id
 _symmetry_equiv_pos_as_xyz
  1  'x, y, z'
loop_
 _atom_site_type_symbol
 _atom_site_label
 _atom_site_symmetry_multiplicity
 _atom_site_fract_x
 _atom_site_fract_y
 _atom_site_fract_z
 _atom_site_occupancy
  Ba  Ba0  1  0.66666666  0.33333332  0.59371299  1
  Ba  Ba1  1  0.33333332  0.66666664  0.40628699  1
  Ba  Ba2  1  0.33333332  0.66666664  0.09371300  1
  Ba  Ba3  1  0.66666666  0.33333332  0.90628698  1
  Bi  Bi4  1  0.00000000  0.00000000  0.74999999  1
  Bi  Bi5  1  0.00000000  0.00000000  0.25000000  1
  Bi  Bi6  1  0.66666666  0.33333332  0.25000000  1
  Bi  Bi7  1  0.33333332  0.66666664  0.74999999  1
