# generated using pymatgen
data_La10S7O
_symmetry_space_group_name_H-M   'P 1'
_cell_length_a   6.60051012
_cell_length_b   8.65838146
_cell_length_c   8.65838051
_cell_angle_alpha   120.00000000
_cell_angle_beta   90.00000000
_cell_angle_gamma   90.00000000
_symmetry_Int_Tables_number   1
_chemical_formula_structural   La10S7O
_chemical_formula_sum   'La10 S7 O1'
_cell_volume   428.53028168
_cell_formula_units_Z   1
loop_
 _symmetry_equiv_pos_site_id
 _symmetry_equiv_pos_as_xyz
  1  'x, y, z'
loop_
 _atom_site_type_symbol
 _atom_site_label
 _atom_site_symmetry_multiplicity
 _atom_site_fract_x
 _atom_site_fract_y
 _atom_site_fract_z
 _atom_site_occupancy
  La  La0  1  0.00000000  0.33333333  0.66666669  1
  La  La1  1  0.00000000  0.66666665  0.33333334  1
  La  La2  1  0.49999999  0.66666665  0.33333334  1
  La  La3  1  0.49999999  0.33333333  0.66666669  1
  La  La4  1  0.25000000  0.22455800  1.00000004  1
  La  La5  1  0.25000000  0.77544198  0.77544202  1
  La  La6  1  0.25000000  0.00000000  0.22455801  1
  La  La7  1  0.74999999  0.77544198  -0.00000001  1
  La  La8  1  0.74999999  0.22455800  0.22455801  1
  La  La9  1  0.74999999  0.00000000  0.77544203  1
  S  S10  1  0.25000000  0.59236699  -0.00000001  1
  S  S11  1  0.25000000  0.40763299  0.40763301  1
  S  S12  1  0.25000000  0.00000000  0.59236702  1
  S  S13  1  0.74999999  0.40763299  -0.00000001  1
  S  S14  1  0.74999999  0.59236699  0.59236701  1
  S  S15  1  0.74999999  0.00000000  0.40763302  1
  S  S16  1  0.00000000  0.00000000  0.00000000  1
  O  O17  1  0.49999999  0.00000000  -0.00000000  1
