# generated using pymatgen
data_Ba5Hg3
_symmetry_space_group_name_H-M   'P 1'
_cell_length_a   7.58187199
_cell_length_b   9.77769756
_cell_length_c   9.77769852
_cell_angle_alpha   60.00000381
_cell_angle_beta   90.00000000
_cell_angle_gamma   90.00000000
_symmetry_Int_Tables_number   1
_chemical_formula_structural   Ba5Hg3
_chemical_formula_sum   'Ba10 Hg6'
_cell_volume   627.74077306
_cell_formula_units_Z   2
loop_
 _symmetry_equiv_pos_site_id
 _symmetry_equiv_pos_as_xyz
  1  'x, y, z'
loop_
 _atom_site_type_symbol
 _atom_site_label
 _atom_site_symmetry_multiplicity
 _atom_site_fract_x
 _atom_site_fract_y
 _atom_site_fract_z
 _atom_site_occupancy
  Ba  Ba0  1  1.00000000  0.33333335  0.33333335  1
  Ba  Ba1  1  0.50000000  0.66666669  0.66666671  1
  Ba  Ba2  1  1.00000000  0.66666669  0.66666671  1
  Ba  Ba3  1  0.50000000  0.33333335  0.33333335  1
  Ba  Ba4  1  0.75000000  0.00000000  0.25121801  1
  Ba  Ba5  1  0.25000000  0.25121801  1.00000005  1
  Ba  Ba6  1  0.25000000  0.74878203  0.25121802  1
  Ba  Ba7  1  0.75000000  0.25121801  0.74878204  1
  Ba  Ba8  1  0.75000000  0.74878203  1.00000006  1
  Ba  Ba9  1  0.25000000  0.00000000  0.74878204  1
  Hg  Hg10  1  0.75000000  0.00000000  0.60871203  1
  Hg  Hg11  1  0.25000000  0.60871202  0.00000001  1
  Hg  Hg12  1  0.25000000  0.39128802  0.60871203  1
  Hg  Hg13  1  0.75000000  0.60871202  0.39128802  1
  Hg  Hg14  1  0.75000000  0.39128802  1.00000005  1
  Hg  Hg15  1  0.25000000  0.00000000  0.39128802  1
