# generated using pymatgen
data_HoGa(PPd2)4
_symmetry_space_group_name_H-M   'P 1'
_cell_length_a   3.85694790
_cell_length_b   7.26186800
_cell_length_c   7.26186800
_cell_angle_alpha   90.00000000
_cell_angle_beta   90.00000000
_cell_angle_gamma   90.00000000
_symmetry_Int_Tables_number   1
_chemical_formula_structural   HoGa(PPd2)4
_chemical_formula_sum   'Ho1 Ga1 P4 Pd8'
_cell_volume   203.39509392
_cell_formula_units_Z   1
loop_
 _symmetry_equiv_pos_site_id
 _symmetry_equiv_pos_as_xyz
  1  'x, y, z'
loop_
 _atom_site_type_symbol
 _atom_site_label
 _atom_site_symmetry_multiplicity
 _atom_site_fract_x
 _atom_site_fract_y
 _atom_site_fract_z
 _atom_site_occupancy
  Ga  Ga0  1  0.00000000  0.00000000  0.00000000  1
  Ho  Ho1  1  0.50000001  0.50000000  0.50000000  1
  Pd  Pd2  1  0.00000000  0.58958800  0.14791400  1
  Pd  Pd3  1  0.00000000  0.41041200  0.85208600  1
  Pd  Pd4  1  0.50000001  0.64791400  0.91041200  1
  Pd  Pd5  1  0.50000001  0.08958800  0.35208600  1
  Pd  Pd6  1  0.50000001  0.35208600  0.08958800  1
  Pd  Pd7  1  0.50000001  0.91041200  0.64791400  1
  Pd  Pd8  1  0.00000000  0.14791400  0.58958800  1
  Pd  Pd9  1  0.00000000  0.85208600  0.41041200  1
  P  P10  1  1.00000003  0.28343300  0.28343300  1
  P  P11  1  0.00000000  0.71656700  0.71656700  1
  P  P12  1  0.50000001  0.78343300  0.21656700  1
  P  P13  1  0.50000001  0.21656700  0.78343300  1
