# generated using pymatgen
data_Mn7Ge
_symmetry_space_group_name_H-M   'P 1'
_cell_length_a   5.29345083
_cell_length_b   5.29345083
_cell_length_c   6.77028704
_cell_angle_alpha   90.00000000
_cell_angle_beta   90.00000000
_cell_angle_gamma   90.00000000
_symmetry_Int_Tables_number   1
_chemical_formula_structural   Mn7Ge
_chemical_formula_sum   'Mn14 Ge2'
_cell_volume   189.70765196
_cell_formula_units_Z   2
loop_
 _symmetry_equiv_pos_site_id
 _symmetry_equiv_pos_as_xyz
  1  'x, y, z'
loop_
 _atom_site_type_symbol
 _atom_site_label
 _atom_site_symmetry_multiplicity
 _atom_site_fract_x
 _atom_site_fract_y
 _atom_site_fract_z
 _atom_site_occupancy
  Mn  Mn0  1  0.50000002  0.00000000  0.00000000  1
  Mn  Mn1  1  0.00000000  0.00000000  0.50000000  1
  Mn  Mn2  1  0.00000000  0.50000002  -0.00000000  1
  Mn  Mn3  1  0.00000000  0.00000000  0.00000000  1
  Ge  Ge4  1  0.00000000  0.50000002  0.50000000  1
  Ge  Ge5  1  0.50000002  0.00000000  0.50000000  1
  Mn  Mn6  1  0.50000002  0.50000002  0.00000000  1
  Mn  Mn7  1  0.24774601  0.24774601  0.25035100  1
  Mn  Mn8  1  0.24774601  0.75225402  0.74964900  1
  Mn  Mn9  1  0.75225402  0.24774601  0.74964900  1
  Mn  Mn10  1  0.75225402  0.75225402  0.25035100  1
  Mn  Mn11  1  0.24774601  0.24774601  0.74964900  1
  Mn  Mn12  1  0.24774601  0.75225402  0.25035100  1
  Mn  Mn13  1  0.75225402  0.24774601  0.25035100  1
  Mn  Mn14  1  0.75225402  0.75225402  0.74964900  1
  Mn  Mn15  1  0.50000002  0.50000002  0.50000000  1
