# generated using pymatgen
data_Nd2Si4GeAu3
_symmetry_space_group_name_H-M   'P 1'
_cell_length_a   4.02397203
_cell_length_b   4.02397203
_cell_length_c   10.82745075
_cell_angle_alpha   90.00000000
_cell_angle_beta   90.00000000
_cell_angle_gamma   90.00000000
_symmetry_Int_Tables_number   1
_chemical_formula_structural   Nd2Si4GeAu3
_chemical_formula_sum   'Nd2 Si4 Ge1 Au3'
_cell_volume   175.32188230
_cell_formula_units_Z   1
loop_
 _symmetry_equiv_pos_site_id
 _symmetry_equiv_pos_as_xyz
  1  'x, y, z'
loop_
 _atom_site_type_symbol
 _atom_site_label
 _atom_site_symmetry_multiplicity
 _atom_site_fract_x
 _atom_site_fract_y
 _atom_site_fract_z
 _atom_site_occupancy
  Nd  Nd0  1  0.50000000  0.00000000  0.75258002  1
  Nd  Nd1  1  0.00000000  0.50000000  0.24742001  1
  Au  Au2  1  0.00000000  0.00000000  0.50000001  1
  Si  Si3  1  0.00000000  0.00000000  0.00000000  1
  Au  Au4  1  0.50000000  0.50000000  0.50000001  1
  Si  Si5  1  0.50000000  0.50000000  0.00000000  1
  Ge  Ge6  1  0.00000000  0.50000000  0.87792702  1
  Si  Si7  1  0.50000000  0.00000000  0.37344501  1
  Au  Au8  1  0.50000000  0.00000000  0.12207300  1
  Si  Si9  1  0.00000000  0.50000000  0.62655501  1
