# generated using pymatgen
data_Ag
_symmetry_space_group_name_H-M   'P 1'
_cell_length_a   3.68959808
_cell_length_b   7.60670233
_cell_length_c   7.60670233
_cell_angle_alpha   86.62806702
_cell_angle_beta   75.96451569
_cell_angle_gamma   75.96451569
_symmetry_Int_Tables_number   1
_chemical_formula_structural   Ag
_chemical_formula_sum   Ag9
_cell_volume   200.93048898
_cell_formula_units_Z   9
loop_
 _symmetry_equiv_pos_site_id
 _symmetry_equiv_pos_as_xyz
  1  'x, y, z'
loop_
 _atom_site_type_symbol
 _atom_site_label
 _atom_site_symmetry_multiplicity
 _atom_site_fract_x
 _atom_site_fract_y
 _atom_site_fract_z
 _atom_site_occupancy
  Ag  Ag0  1  0.00000000  0.00000000  0.00000000  1
  Ag  Ag1  1  0.31118900  0.06890300  0.30871901  1
  Ag  Ag2  1  0.61990709  0.69128200  0.06890298  1
  Ag  Ag3  1  0.38009304  0.30871800  0.93109700  1
  Ag  Ag4  1  0.68881112  0.93109699  0.69128097  1
  Ag  Ag5  1  0.06049103  0.22452200  0.65449599  1
  Ag  Ag6  1  0.71498603  0.34550500  0.22452200  1
  Ag  Ag7  1  0.28501409  0.65449500  0.77547798  1
  Ag  Ag8  1  0.93950909  0.77547800  0.34550398  1
