# generated using pymatgen
data_Ba4Lu3Te11
_symmetry_space_group_name_H-M   'P 1'
_cell_length_a   4.75358009
_cell_length_b   10.43308640
_cell_length_c   14.13284111
_cell_angle_alpha   90.00000000
_cell_angle_beta   90.00000000
_cell_angle_gamma   103.16833496
_symmetry_Int_Tables_number   1
_chemical_formula_structural   Ba4Lu3Te11
_chemical_formula_sum   'Ba4 Lu3 Te11'
_cell_volume   682.48085917
_cell_formula_units_Z   1
loop_
 _symmetry_equiv_pos_site_id
 _symmetry_equiv_pos_as_xyz
  1  'x, y, z'
loop_
 _atom_site_type_symbol
 _atom_site_label
 _atom_site_symmetry_multiplicity
 _atom_site_fract_x
 _atom_site_fract_y
 _atom_site_fract_z
 _atom_site_occupancy
  Ba  Ba0  1  0.87006905  0.74013801  0.18389200  1
  Ba  Ba1  1  0.12993102  0.25986200  0.68389199  1
  Ba  Ba2  1  0.88140705  0.76281401  0.81866199  1
  Ba  Ba3  1  0.11859302  0.23718600  0.31866200  1
  Lu  Lu4  1  0.79051804  0.58103600  0.48081600  1
  Lu  Lu5  1  0.20948203  0.41896400  0.98081599  1
  Te  Te6  1  0.55619200  0.11238400  0.06438100  1
  Lu  Lu7  1  0.44380807  0.88761601  0.56438100  1
  Te  Te8  1  0.64378401  0.28756800  0.49827200  1
  Te  Te9  1  0.35621606  0.71243201  0.99827199  1
  Te  Te10  1  0.70642902  0.41285800  0.84081199  1
  Te  Te11  1  0.29357105  0.58714201  0.34081200  1
  Te  Te12  1  0.69063102  0.38126200  0.13340600  1
  Te  Te13  1  0.30936905  0.61873801  0.63340600  1
  Te  Te14  1  0.49431208  0.98862401  0.24004100  1
  Te  Te15  1  0.50568799  0.01137600  0.74004099  1
  Te  Te16  1  0.94806506  0.89613001  0.44719700  1
  Te  Te17  1  0.05193501  0.10387000  0.94719699  1
