# generated using pymatgen
data_Ho
_symmetry_space_group_name_H-M   'P 1'
_cell_length_a   5.87458515
_cell_length_b   7.24776220
_cell_length_c   7.24776125
_cell_angle_alpha   120.00000763
_cell_angle_beta   90.00000000
_cell_angle_gamma   90.00000000
_symmetry_Int_Tables_number   1
_chemical_formula_structural   Ho
_chemical_formula_sum   Ho8
_cell_volume   267.24870909
_cell_formula_units_Z   8
loop_
 _symmetry_equiv_pos_site_id
 _symmetry_equiv_pos_as_xyz
  1  'x, y, z'
loop_
 _atom_site_type_symbol
 _atom_site_label
 _atom_site_symmetry_multiplicity
 _atom_site_fract_x
 _atom_site_fract_y
 _atom_site_fract_z
 _atom_site_occupancy
  Ho  Ho0  1  0.74999998  0.82924801  0.17075206  1
  Ho  Ho1  1  0.74999998  0.82924801  0.65849605  1
  Ho  Ho2  1  0.74999998  0.34150400  0.17075202  1
  Ho  Ho3  1  0.24999999  0.17075200  0.82924800  1
  Ho  Ho4  1  0.24999999  0.65849601  0.82924803  1
  Ho  Ho5  1  0.24999999  0.17075200  0.34150401  1
  Ho  Ho6  1  0.24999999  0.66666667  0.33333338  1
  Ho  Ho7  1  0.74999998  0.33333334  0.66666668  1
