# generated using pymatgen
data_In2Co
_symmetry_space_group_name_H-M   'P 1'
_cell_length_a   5.30356216
_cell_length_b   5.30356216
_cell_length_c   9.11402416
_cell_angle_alpha   90.00000000
_cell_angle_beta   90.00000000
_cell_angle_gamma   118.32711792
_symmetry_Int_Tables_number   1
_chemical_formula_structural   In2Co
_chemical_formula_sum   'In8 Co4'
_cell_volume   225.65915258
_cell_formula_units_Z   4
loop_
 _symmetry_equiv_pos_site_id
 _symmetry_equiv_pos_as_xyz
  1  'x, y, z'
loop_
 _atom_site_type_symbol
 _atom_site_label
 _atom_site_symmetry_multiplicity
 _atom_site_fract_x
 _atom_site_fract_y
 _atom_site_fract_z
 _atom_site_occupancy
  In  In0  1  0.49999999  0.00000000  0.08333300  1
  In  In1  1  0.00000001  0.50000000  0.58210299  1
  In  In2  1  0.49999999  0.00000000  0.41789699  1
  In  In3  1  0.00000001  0.50000000  0.91666698  1
  In  In4  1  0.16300300  0.32923600  0.25799100  1
  In  In5  1  0.67076400  0.83699699  0.74200899  1
  In  In6  1  0.83699700  0.67076399  0.25799100  1
  In  In7  1  0.32923600  0.16300300  0.74200899  1
  Co  Co8  1  0.00000000  0.00000000  0.49999999  1
  Co  Co9  1  0.00000000  0.00000000  0.00000000  1
  Co  Co10  1  0.50000000  0.50000000  0.49999999  1
  Co  Co11  1  0.50000000  0.50000000  0.99999998  1
