# generated using pymatgen
data_Ga
_symmetry_space_group_name_H-M   'P 1'
_cell_length_a   7.68749428
_cell_length_b   7.68749428
_cell_length_c   7.68749428
_cell_angle_alpha   109.47122192
_cell_angle_beta   109.47122192
_cell_angle_gamma   109.47122192
_symmetry_Int_Tables_number   1
_chemical_formula_structural   Ga
_chemical_formula_sum   Ga20
_cell_volume   349.72969174
_cell_formula_units_Z   20
loop_
 _symmetry_equiv_pos_site_id
 _symmetry_equiv_pos_as_xyz
  1  'x, y, z'
loop_
 _atom_site_type_symbol
 _atom_site_label
 _atom_site_symmetry_multiplicity
 _atom_site_fract_x
 _atom_site_fract_y
 _atom_site_fract_z
 _atom_site_occupancy
  Ga  Ga0  1  0.50000006  0.75000005  0.25000006  1
  Ga  Ga1  1  0.75000004  0.25000002  0.50000004  1
  Ga  Ga2  1  0.25000004  0.50000003  0.75000005  1
  Ga  Ga3  1  0.25000006  0.75000005  0.50000006  1
  Ga  Ga4  1  0.50000003  0.25000002  0.75000004  1
  Ga  Ga5  1  0.75000006  0.50000003  0.25000005  1
  Ga  Ga6  1  0.67149206  0.67149204  0.67149207  1
  Ga  Ga7  1  1.00000005  0.32850802  0.00000004  1
  Ga  Ga8  1  0.00000000  0.00000000  0.32850801  1
  Ga  Ga9  1  0.32850801  0.00000000  1.00000003  1
  Ga  Ga10  1  0.32850803  0.32850802  0.32850803  1
  Ga  Ga11  1  0.00000004  0.67149204  0.00000004  1
  Ga  Ga12  1  0.00000000  0.00000000  0.67149202  1
  Ga  Ga13  1  0.67149202  0.00000000  1.00000004  1
  Ga  Ga14  1  1.00000008  0.65936404  0.65936408  1
  Ga  Ga15  1  0.65936406  0.65936404  1.00000008  1
  Ga  Ga16  1  0.65936409  1.00000006  0.65936409  1
  Ga  Ga17  1  0.00000002  0.34063602  0.34063603  1
  Ga  Ga18  1  0.34063603  0.34063602  1.00000005  1
  Ga  Ga19  1  0.34063601  0.00000000  0.34063602  1
