# generated using pymatgen
data_MgP9I
_symmetry_space_group_name_H-M   'P 1'
_cell_length_a   6.70367289
_cell_length_b   6.75469685
_cell_length_c   7.05456305
_cell_angle_alpha   89.95334625
_cell_angle_beta   82.19915009
_cell_angle_gamma   82.96276855
_symmetry_Int_Tables_number   1
_chemical_formula_structural   MgP9I
_chemical_formula_sum   'Mg1 P9 I1'
_cell_volume   314.05870425
_cell_formula_units_Z   1
loop_
 _symmetry_equiv_pos_site_id
 _symmetry_equiv_pos_as_xyz
  1  'x, y, z'
loop_
 _atom_site_type_symbol
 _atom_site_label
 _atom_site_symmetry_multiplicity
 _atom_site_fract_x
 _atom_site_fract_y
 _atom_site_fract_z
 _atom_site_occupancy
  P  P0  1  0.05102401  0.58935700  0.23164902  1
  P  P1  1  0.94897602  0.41064300  0.76835106  1
  P  P2  1  0.00000001  0.50000000  1.00000004  1
  P  P3  1  0.64547902  0.60948800  0.77377306  1
  I  I4  1  0.89472702  0.31972600  0.41018805  1
  P  P5  1  0.25701701  0.21926200  0.69531403  1
  P  P6  1  0.79155701  0.13992700  0.86927605  1
  P  P7  1  0.20844302  0.86007300  0.13072403  1
  P  P8  1  0.35452101  0.39051200  0.22622703  1
  Mg  Mg9  1  0.10527301  0.68027400  0.58981204  1
  P  P10  1  0.74298302  0.78073800  0.30468605  1
