# generated using pymatgen
data_Cs2P8Au
_symmetry_space_group_name_H-M   'P 1'
_cell_length_a   3.96428394
_cell_length_b   3.96428394
_cell_length_c   14.28369522
_cell_angle_alpha   97.97665405
_cell_angle_beta   97.97665405
_cell_angle_gamma   90.00000000
_symmetry_Int_Tables_number   1
_chemical_formula_structural   Cs2P8Au
_chemical_formula_sum   'Cs2 P8 Au1'
_cell_volume   220.11090752
_cell_formula_units_Z   1
loop_
 _symmetry_equiv_pos_site_id
 _symmetry_equiv_pos_as_xyz
  1  'x, y, z'
loop_
 _atom_site_type_symbol
 _atom_site_label
 _atom_site_symmetry_multiplicity
 _atom_site_fract_x
 _atom_site_fract_y
 _atom_site_fract_z
 _atom_site_occupancy
  P  P0  1  0.56822902  0.56822901  0.13645802  1
  P  P1  1  0.43177101  0.43177101  0.86354204  1
  P  P2  1  0.84385903  0.84385902  0.68771804  1
  Au  Au3  1  0.15614101  0.15614100  0.31228201  1
  Cs  Cs4  1  0.00000000  0.00000000  0.00000000  1
  P  P5  1  0.28939201  0.28939201  0.57878402  1
  Cs  Cs6  1  0.71060802  0.71060801  0.42121603  1
  P  P7  1  0.39196202  0.89196202  0.78392404  1
  P  P8  1  0.89196202  0.39196201  0.78392404  1
  P  P9  1  0.60803801  0.10803800  0.21607601  1
  P  P10  1  0.10803801  0.60803801  0.21607602  1
