# generated using pymatgen
data_Bi5(SeO6)2
_symmetry_space_group_name_H-M   'P 1'
_cell_length_a   4.90732384
_cell_length_b   7.87042952
_cell_length_c   9.62518978
_cell_angle_alpha   110.90872955
_cell_angle_beta   104.76889038
_cell_angle_gamma   90.00000000
_symmetry_Int_Tables_number   1
_chemical_formula_structural   Bi5(SeO6)2
_chemical_formula_sum   'Bi5 Se2 O12'
_cell_volume   334.09082172
_cell_formula_units_Z   1
loop_
 _symmetry_equiv_pos_site_id
 _symmetry_equiv_pos_as_xyz
  1  'x, y, z'
loop_
 _atom_site_type_symbol
 _atom_site_label
 _atom_site_symmetry_multiplicity
 _atom_site_fract_x
 _atom_site_fract_y
 _atom_site_fract_z
 _atom_site_occupancy
  O  O0  1  0.49999993  0.50000000  -0.00000001  1
  O  O1  1  0.03756397  0.23709000  0.07512800  1
  Bi  Bi2  1  0.96243590  0.76291000  0.92487193  1
  Bi  Bi3  1  0.32726693  0.55192400  0.65453496  1
  O  O4  1  0.67273294  0.44807600  0.34546497  1
  O  O5  1  0.41307399  0.01357100  0.82614895  1
  O  O6  1  0.58692588  0.98642900  0.17385098  1
  Bi  Bi7  1  0.19389990  0.82003300  0.38780098  1
  Bi  Bi8  1  0.80609996  0.17996700  0.61219895  1
  Se  Se9  1  0.19292297  0.20001900  0.38584698  1
  Se  Se10  1  0.80707689  0.79998100  0.61415295  1
  O  O11  1  0.10916100  0.00222600  0.21832199  1
  O  O12  1  0.89083887  0.99777400  0.78167794  1
  O  O13  1  0.18251795  0.40630000  0.36503498  1
  O  O14  1  0.81748192  0.59370000  0.63496495  1
  O  O15  1  0.28431797  0.18852700  0.56863597  1
  O  O16  1  0.71568189  0.81147300  0.43136396  1
  O  O17  1  0.46358191  0.75179200  0.92716295  1
  Bi  Bi18  1  0.53641796  0.24820800  0.07283698  1
