# generated using pymatgen
data_BaI
_symmetry_space_group_name_H-M   'P 1'
_cell_length_a   6.12772799
_cell_length_b   6.12772703
_cell_length_c   10.87737465
_cell_angle_alpha   90.00000000
_cell_angle_beta   90.00000000
_cell_angle_gamma   120.00000763
_symmetry_Int_Tables_number   1
_chemical_formula_structural   BaI
_chemical_formula_sum   'Ba4 I4'
_cell_volume   353.71507926
_cell_formula_units_Z   4
loop_
 _symmetry_equiv_pos_site_id
 _symmetry_equiv_pos_as_xyz
  1  'x, y, z'
loop_
 _atom_site_type_symbol
 _atom_site_label
 _atom_site_symmetry_multiplicity
 _atom_site_fract_x
 _atom_site_fract_y
 _atom_site_fract_z
 _atom_site_occupancy
  Ba  Ba0  1  0.66666668  0.33333334  0.08094500  1
  Ba  Ba1  1  0.33333337  0.66666668  0.58094502  1
  I  I2  1  0.00000000  0.00000000  0.75000002  1
  Ba  Ba3  1  0.00000000  0.00000000  0.25000001  1
  I  I4  1  0.66666668  0.33333334  0.41905501  1
  I  I5  1  0.33333337  0.66666668  0.91905503  1
  I  I6  1  0.33333337  0.66666668  0.25000001  1
  Ba  Ba7  1  0.66666668  0.33333334  0.75000002  1
