# generated using pymatgen
data_Ho4Ga7Co
_symmetry_space_group_name_H-M   'P 1'
_cell_length_a   5.40768957
_cell_length_b   5.40862274
_cell_length_c   8.69585896
_cell_angle_alpha   90.00000000
_cell_angle_beta   90.00000000
_cell_angle_gamma   119.23519135
_symmetry_Int_Tables_number   1
_chemical_formula_structural   Ho4Ga7Co
_chemical_formula_sum   'Ho4 Ga7 Co1'
_cell_volume   221.94083755
_cell_formula_units_Z   1
loop_
 _symmetry_equiv_pos_site_id
 _symmetry_equiv_pos_as_xyz
  1  'x, y, z'
loop_
 _atom_site_type_symbol
 _atom_site_label
 _atom_site_symmetry_multiplicity
 _atom_site_fract_x
 _atom_site_fract_y
 _atom_site_fract_z
 _atom_site_occupancy
  Ho  Ho0  1  0.33315605  0.66685203  0.55737100  1
  Ho  Ho1  1  0.66731003  0.33269102  0.42957700  1
  Ga  Ga2  1  0.66731003  0.33269102  0.07042300  1
  Ho  Ho3  1  0.33315605  0.66685203  0.94262900  1
  Ga  Ga4  1  0.99754102  0.00238600  0.48723700  1
  Ho  Ho5  1  0.99754102  0.00238600  0.01276300  1
  Ga  Ga6  1  0.34442602  0.17079801  0.75000000  1
  Ga  Ga7  1  0.82919605  0.65555203  0.75000000  1
  Ga  Ga8  1  0.83078903  0.16923501  0.75000000  1
  Ga  Ga9  1  0.64637206  0.82324604  0.25000000  1
  Ga  Ga10  1  0.17680102  0.35366502  0.25000000  1
  Co  Co11  1  0.17640105  0.82364504  0.25000000  1
