# generated using pymatgen
data_Tb(Co5Mo)2
_symmetry_space_group_name_H-M   'P 1'
_cell_length_a   4.67471313
_cell_length_b   6.38185978
_cell_length_c   6.38186026
_cell_angle_alpha   81.90247345
_cell_angle_beta   68.51546478
_cell_angle_gamma   68.51547241
_symmetry_Int_Tables_number   1
_chemical_formula_structural   Tb(Co5Mo)2
_chemical_formula_sum   'Tb1 Co10 Mo2'
_cell_volume   164.84833882
_cell_formula_units_Z   1
loop_
 _symmetry_equiv_pos_site_id
 _symmetry_equiv_pos_as_xyz
  1  'x, y, z'
loop_
 _atom_site_type_symbol
 _atom_site_label
 _atom_site_symmetry_multiplicity
 _atom_site_fract_x
 _atom_site_fract_y
 _atom_site_fract_z
 _atom_site_occupancy
  Tb  Tb0  1  0.00000000  0.00000000  0.00000000  1
  Mo  Mo1  1  0.63229098  0.36770899  0.36770902  1
  Mo  Mo2  1  0.36770899  0.63229099  0.63229102  1
  Co  Co3  1  0.49999999  0.77481398  0.22518604  1
  Co  Co4  1  0.49999998  0.22518600  0.77481400  1
  Co  Co5  1  0.72786298  0.77213698  0.77213703  1
  Co  Co6  1  0.27213699  0.22786300  0.22786301  1
  Co  Co7  1  0.00000000  0.00000000  0.49999999  1
  Co  Co8  1  0.49999998  0.00000000  0.50000000  1
  Co  Co9  1  0.49999999  0.49999999  1.00000001  1
  Co  Co10  1  0.99999996  0.49999999  0.00000005  1
  Co  Co11  1  0.99999996  0.35903499  0.64096503  1
  Co  Co12  1  0.99999997  0.64096499  0.35903504  1
