# generated using pymatgen
data_LiRe(H3Os)4
_symmetry_space_group_name_H-M   'P 1'
_cell_length_a   4.27264977
_cell_length_b   5.75710392
_cell_length_c   5.75710392
_cell_angle_alpha   120.00000000
_cell_angle_beta   90.00000000
_cell_angle_gamma   90.00000000
_symmetry_Int_Tables_number   1
_chemical_formula_structural   LiRe(H3Os)4
_chemical_formula_sum   'Li1 Re1 Os4 H12'
_cell_volume   122.64110757
_cell_formula_units_Z   1
loop_
 _symmetry_equiv_pos_site_id
 _symmetry_equiv_pos_as_xyz
  1  'x, y, z'
loop_
 _atom_site_type_symbol
 _atom_site_label
 _atom_site_symmetry_multiplicity
 _atom_site_fract_x
 _atom_site_fract_y
 _atom_site_fract_z
 _atom_site_occupancy
  Li  Li0  1  0.00000000  0.00000000  0.00000000  1
  Re  Re1  1  0.50000003  0.50000000  0.49999997  1
  Os  Os2  1  0.50000003  0.00000000  0.49999998  1
  Os  Os3  1  1.00000005  0.33333333  0.66666663  1
  Os  Os4  1  0.50000003  0.50000000  -0.00000002  1
  Os  Os5  1  -0.00000000  0.66666667  0.33333330  1
  H  H6  1  0.26206701  0.21251300  0.78748797  1
  H  H7  1  0.73793304  0.78748700  0.21251197  1
  H  H8  1  0.73793304  0.78748700  0.57497396  1
  H  H9  1  0.73793304  0.21251300  0.42502598  1
  H  H10  1  0.73793304  0.42502500  0.21251198  1
  H  H11  1  0.73793304  0.57497500  0.78748796  1
  H  H12  1  0.26206701  0.57497500  0.78748796  1
  H  H13  1  0.26206701  0.78748700  0.21251197  1
  H  H14  1  0.26206701  0.21251300  0.42502598  1
  H  H15  1  0.26206701  0.42502500  0.21251198  1
  H  H16  1  0.73793304  0.21251300  0.78748797  1
  H  H17  1  0.26206701  0.78748700  0.57497396  1
