# generated using pymatgen
data_Ho3Ge2
_symmetry_space_group_name_H-M   'P 1'
_cell_length_a   3.70323801
_cell_length_b   7.72097397
_cell_length_c   7.72097397
_cell_angle_alpha   90.00000000
_cell_angle_beta   90.00000000
_cell_angle_gamma   90.00000000
_symmetry_Int_Tables_number   1
_chemical_formula_structural   Ho3Ge2
_chemical_formula_sum   'Ho6 Ge4'
_cell_volume   220.76275332
_cell_formula_units_Z   2
loop_
 _symmetry_equiv_pos_site_id
 _symmetry_equiv_pos_as_xyz
  1  'x, y, z'
loop_
 _atom_site_type_symbol
 _atom_site_label
 _atom_site_symmetry_multiplicity
 _atom_site_fract_x
 _atom_site_fract_y
 _atom_site_fract_z
 _atom_site_occupancy
  Ho  Ho0  1  0.50000000  0.32675400  0.82675400  1
  Ho  Ho1  1  0.50000000  0.82675400  0.67324600  1
  Ho  Ho2  1  0.50000000  0.17324600  0.32675400  1
  Ho  Ho3  1  0.50000000  0.67324600  0.17324600  1
  Ho  Ho4  1  0.00000000  0.00000000  0.00000000  1
  Ho  Ho5  1  0.00000000  0.50000000  0.50000000  1
  Ge  Ge6  1  0.00000000  0.37198000  0.12802000  1
  Ge  Ge7  1  0.00000000  0.87198000  0.37198000  1
  Ge  Ge8  1  0.00000000  0.12802000  0.62802000  1
  Ge  Ge9  1  0.00000000  0.62802000  0.87198000  1
