# generated using pymatgen
data_VF2
_symmetry_space_group_name_H-M   'P 1'
_cell_length_a   2.91659307
_cell_length_b   4.35457420
_cell_length_c   4.35457420
_cell_angle_alpha   90.50946045
_cell_angle_beta   90.00000000
_cell_angle_gamma   90.00000000
_symmetry_Int_Tables_number   1
_chemical_formula_structural   VF2
_chemical_formula_sum   'V2 F4'
_cell_volume   55.30317467
_cell_formula_units_Z   2
loop_
 _symmetry_equiv_pos_site_id
 _symmetry_equiv_pos_as_xyz
  1  'x, y, z'
loop_
 _atom_site_type_symbol
 _atom_site_label
 _atom_site_symmetry_multiplicity
 _atom_site_fract_x
 _atom_site_fract_y
 _atom_site_fract_z
 _atom_site_occupancy
  V  V0  1  0.49999999  0.00000000  -0.00000000  1
  V  V1  1  -0.00000000  0.50000000  0.49999999  1
  F  F2  1  0.49999999  0.30957900  0.69042099  1
  F  F3  1  0.99999997  0.20036700  0.20036700  1
  F  F4  1  -0.00000000  0.79963300  0.79963299  1
  F  F5  1  0.49999999  0.69042100  0.30957899  1
