# generated using pymatgen
data_Lu3Co11B4
_symmetry_space_group_name_H-M   'P 1'
_cell_length_a   5.03443575
_cell_length_b   5.03694534
_cell_length_c   9.77995777
_cell_angle_alpha   90.00011444
_cell_angle_beta   90.00022888
_cell_angle_gamma   60.01647949
_symmetry_Int_Tables_number   1
_chemical_formula_structural   Lu3Co11B4
_chemical_formula_sum   'Lu3 Co11 B4'
_cell_volume   214.81160815
_cell_formula_units_Z   1
loop_
 _symmetry_equiv_pos_site_id
 _symmetry_equiv_pos_as_xyz
  1  'x, y, z'
loop_
 _atom_site_type_symbol
 _atom_site_label
 _atom_site_symmetry_multiplicity
 _atom_site_fract_x
 _atom_site_fract_y
 _atom_site_fract_z
 _atom_site_occupancy
  Lu  Lu0  1  0.99998197  0.00000000  0.99997502  1
  Lu  Lu1  1  0.99999597  0.00000000  0.34177600  1
  Lu  Lu2  1  0.00000400  0.00000000  0.65827402  1
  Co  Co3  1  0.66662631  0.66666665  0.99989401  1
  Co  Co4  1  0.33333332  0.33333333  0.99989402  1
  Co  Co5  1  0.49999998  0.00000000  0.50001701  1
  Co  Co6  1  0.00000100  0.49999899  0.50004601  1
  Co  Co7  1  0.49999998  0.50000099  0.50004601  1
  Co  Co8  1  0.49999798  0.00000000  0.20248700  1
  Co  Co9  1  0.99998496  0.50000599  0.20247800  1
  Co  Co10  1  0.49999098  0.49999399  0.20247800  1
  Co  Co11  1  0.50000198  0.00000000  0.79753102  1
  Co  Co12  1  0.00000800  0.49999699  0.79754801  1
  Co  Co13  1  0.50000498  0.50000299  0.79754801  1
  B  B14  1  0.66662231  0.66666665  0.34970600  1
  B  B15  1  0.33327665  0.33338999  0.34970600  1
  B  B16  1  0.33325065  0.33341599  0.65029801  1
  B  B17  1  0.66671497  0.66658398  0.65029801  1
