# generated using pymatgen
data_ZnCd6GeS5N
_symmetry_space_group_name_H-M   'P 1'
_cell_length_a   3.37880802
_cell_length_b   7.95956802
_cell_length_c   8.21465683
_cell_angle_alpha   118.97798920
_cell_angle_beta   90.00000000
_cell_angle_gamma   90.00000000
_symmetry_Int_Tables_number   1
_chemical_formula_structural   ZnCd6GeS5N
_chemical_formula_sum   'Zn1 Cd6 Ge1 S5 N1'
_cell_volume   193.26541239
_cell_formula_units_Z   1
loop_
 _symmetry_equiv_pos_site_id
 _symmetry_equiv_pos_as_xyz
  1  'x, y, z'
loop_
 _atom_site_type_symbol
 _atom_site_label
 _atom_site_symmetry_multiplicity
 _atom_site_fract_x
 _atom_site_fract_y
 _atom_site_fract_z
 _atom_site_occupancy
  Cd  Cd0  1  0.00000000  0.50000000  0.99999998  1
  Cd  Cd1  1  0.50000000  0.92285001  0.25873301  1
  Zn  Zn2  1  0.50000000  0.07715000  0.74126698  1
  Cd  Cd3  1  0.50000000  0.33588300  0.25873300  1
  Cd  Cd4  1  0.50000000  0.66411701  0.74126699  1
  Ge  Ge5  1  -0.00000000  0.28535100  0.57070199  1
  Cd  Cd6  1  0.99999999  0.71464901  0.42929800  1
  S  S7  1  0.50000000  0.37563800  0.75127598  1
  N  N8  1  0.50000000  0.62436201  0.24872401  1
  Cd  Cd9  1  0.00000000  0.00000000  0.00000000  1
  S  S10  1  0.99999999  0.82918601  0.99999998  1
  S  S11  1  0.00000000  0.17081400  0.99999997  1
  S  S12  1  0.00000000  0.00000000  0.49999998  1
  S  S13  1  0.00000000  0.50000000  0.49999999  1
