# generated using pymatgen
data_Ho3Ni4GeP5
_symmetry_space_group_name_H-M   'P 1'
_cell_length_a   3.73784804
_cell_length_b   3.73784804
_cell_length_c   14.40049648
_cell_angle_alpha   97.45699310
_cell_angle_beta   97.45699310
_cell_angle_gamma   90.00000000
_symmetry_Int_Tables_number   1
_chemical_formula_structural   Ho3Ni4GeP5
_chemical_formula_sum   'Ho3 Ni4 Ge1 P5'
_cell_volume   197.77879374
_cell_formula_units_Z   1
loop_
 _symmetry_equiv_pos_site_id
 _symmetry_equiv_pos_as_xyz
  1  'x, y, z'
loop_
 _atom_site_type_symbol
 _atom_site_label
 _atom_site_symmetry_multiplicity
 _atom_site_fract_x
 _atom_site_fract_y
 _atom_site_fract_z
 _atom_site_occupancy
  Ho  Ho0  1  0.00000000  0.00000000  0.00000000  1
  Ho  Ho1  1  0.67495201  0.67495200  0.34990402  1
  Ho  Ho2  1  0.32504800  0.32504800  0.65009600  1
  Ni  Ni3  1  0.90983600  0.40983600  0.81967201  1
  Ni  Ni4  1  0.40983601  0.90983600  0.81967201  1
  Ni  Ni5  1  0.09016401  0.59016400  0.18032801  1
  Ni  Ni6  1  0.59016400  0.09016400  0.18032801  1
  P  P7  1  0.75000000  0.25000000  0.50000001  1
  P  P8  1  0.25000001  0.75000000  0.50000001  1
  P  P9  1  0.54065900  0.54065900  0.08131801  1
  Ge  Ge10  1  0.45934100  0.45934100  0.91868201  1
  P  P11  1  0.14582100  0.14582100  0.29164200  1
  P  P12  1  0.85417901  0.85417900  0.70835802  1
