# generated using pymatgen
data_CdP11
_symmetry_space_group_name_H-M   'P 1'
_cell_length_a   3.13051796
_cell_length_b   3.13051796
_cell_length_c   19.24987793
_cell_angle_alpha   90.00000000
_cell_angle_beta   90.00000000
_cell_angle_gamma   120.00000000
_symmetry_Int_Tables_number   1
_chemical_formula_structural   CdP11
_chemical_formula_sum   'Cd1 P11'
_cell_volume   163.37703526
_cell_formula_units_Z   1
loop_
 _symmetry_equiv_pos_site_id
 _symmetry_equiv_pos_as_xyz
  1  'x, y, z'
loop_
 _atom_site_type_symbol
 _atom_site_label
 _atom_site_symmetry_multiplicity
 _atom_site_fract_x
 _atom_site_fract_y
 _atom_site_fract_z
 _atom_site_occupancy
  P  P0  1  0.33333332  0.66666665  0.63379597  1
  P  P1  1  0.66666667  0.33333332  0.13379599  1
  P  P2  1  0.66666667  0.33333332  0.36620398  1
  P  P3  1  0.33333332  0.66666665  0.86620396  1
  P  P4  1  0.00000000  0.00000000  0.49999998  1
  P  P5  1  0.00000000  0.00000000  0.00000000  1
  P  P6  1  0.00000000  0.00000000  0.24999999  1
  Cd  Cd7  1  0.00000000  0.00000000  0.74999996  1
  P  P8  1  0.66666667  0.33333332  0.56921897  1
  P  P9  1  0.33333332  0.66666665  0.06921900  1
  P  P10  1  0.66666667  0.33333332  0.93078096  1
  P  P11  1  0.33333332  0.66666665  0.43078098  1
