# generated using pymatgen
data_Ho5Ga12
_symmetry_space_group_name_H-M   'P 1'
_cell_length_a   7.29727554
_cell_length_b   7.29727554
_cell_length_c   7.29727554
_cell_angle_alpha   109.47122192
_cell_angle_beta   109.47122192
_cell_angle_gamma   109.47122192
_symmetry_Int_Tables_number   1
_chemical_formula_structural   Ho5Ga12
_chemical_formula_sum   'Ho5 Ga12'
_cell_volume   299.13024366
_cell_formula_units_Z   1
loop_
 _symmetry_equiv_pos_site_id
 _symmetry_equiv_pos_as_xyz
  1  'x, y, z'
loop_
 _atom_site_type_symbol
 _atom_site_label
 _atom_site_symmetry_multiplicity
 _atom_site_fract_x
 _atom_site_fract_y
 _atom_site_fract_z
 _atom_site_occupancy
  Ho  Ho0  1  0.50000004  0.50000002  0.50000004  1
  Ho  Ho1  1  1.00000004  0.50000002  0.00000005  1
  Ho  Ho2  1  0.00000000  0.00000000  0.50000000  1
  Ho  Ho3  1  0.50000007  1.00000004  1.00000007  1
  Ga  Ga4  1  1.00000005  0.68157103  0.68157106  1
  Ga  Ga5  1  0.68157105  0.68157103  1.00000005  1
  Ga  Ga6  1  0.68157107  1.00000004  0.68157107  1
  Ga  Ga7  1  1.00000003  0.31842901  0.31842904  1
  Ga  Ga8  1  0.31842902  0.31842901  1.00000002  1
  Ga  Ga9  1  0.31842907  1.00000004  0.31842906  1
  Ga  Ga10  1  0.50000005  0.75000003  0.25000005  1
  Ga  Ga11  1  0.75000002  0.25000001  0.50000003  1
  Ga  Ga12  1  0.25000003  0.50000002  0.75000003  1
  Ga  Ga13  1  0.25000005  0.75000003  0.50000005  1
  Ga  Ga14  1  0.50000002  0.25000001  0.75000003  1
  Ga  Ga15  1  0.75000004  0.50000002  0.25000005  1
  Ho  Ho16  1  0.00000000  0.00000000  0.00000000  1
