# generated using pymatgen
data_Ga2Ni
_symmetry_space_group_name_H-M   'P 1'
_cell_length_a   3.97856212
_cell_length_b   6.15674210
_cell_length_c   7.45599318
_cell_angle_alpha   90.00000000
_cell_angle_beta   90.00000000
_cell_angle_gamma   90.00000000
_symmetry_Int_Tables_number   1
_chemical_formula_structural   Ga2Ni
_chemical_formula_sum   'Ga8 Ni4'
_cell_volume   182.63441016
_cell_formula_units_Z   4
loop_
 _symmetry_equiv_pos_site_id
 _symmetry_equiv_pos_as_xyz
  1  'x, y, z'
loop_
 _atom_site_type_symbol
 _atom_site_label
 _atom_site_symmetry_multiplicity
 _atom_site_fract_x
 _atom_site_fract_y
 _atom_site_fract_z
 _atom_site_occupancy
  Ga  Ga0  1  0.74999998  0.96858298  0.31441099  1
  Ga  Ga1  1  0.24999999  0.03141700  0.68558898  1
  Ga  Ga2  1  0.24999999  0.53141699  0.81441098  1
  Ga  Ga3  1  0.74999998  0.46858299  0.18558900  1
  Ga  Ga4  1  0.74999998  0.73789399  0.62179899  1
  Ga  Ga5  1  0.24999999  0.26210600  0.37820099  1
  Ga  Ga6  1  0.24999999  0.76210599  0.12179900  1
  Ga  Ga7  1  0.74999998  0.23789400  0.87820098  1
  Ni  Ni8  1  0.74999998  0.83566099  0.93810498  1
  Ni  Ni9  1  0.24999999  0.16433900  0.06189500  1
  Ni  Ni10  1  0.24999999  0.66433899  0.43810499  1
  Ni  Ni11  1  0.74999998  0.33566099  0.56189499  1
