# generated using pymatgen
data_Mo7O5F8
_symmetry_space_group_name_H-M   'P 1'
_cell_length_a   5.75667477
_cell_length_b   7.63379478
_cell_length_c   7.67791557
_cell_angle_alpha   76.42851257
_cell_angle_beta   70.79390717
_cell_angle_gamma   71.68037415
_symmetry_Int_Tables_number   1
_chemical_formula_structural   Mo7O5F8
_chemical_formula_sum   'Mo7 O5 F8'
_cell_volume   299.21991750
_cell_formula_units_Z   1
loop_
 _symmetry_equiv_pos_site_id
 _symmetry_equiv_pos_as_xyz
  1  'x, y, z'
loop_
 _atom_site_type_symbol
 _atom_site_label
 _atom_site_symmetry_multiplicity
 _atom_site_fract_x
 _atom_site_fract_y
 _atom_site_fract_z
 _atom_site_occupancy
  Mo  Mo0  1  0.23703399  0.23458100  0.21460600  1
  Mo  Mo1  1  0.81404898  0.72829901  0.71116900  1
  Mo  Mo2  1  0.58023399  0.46081001  0.47986400  1
  Mo  Mo3  1  0.05496792  0.96782702  0.98526505  1
  O  O4  1  0.08047899  0.17401900  0.10207901  1
  F  F5  1  0.35423894  0.86424302  0.94149104  1
  O  O6  1  0.88500402  0.35394801  0.42393798  1
  Mo  Mo7  1  0.09162195  0.64942501  0.57585903  1
  Mo  Mo8  1  0.91207398  0.87914202  0.21803500  1
  O  O9  1  0.20616597  0.47586401  0.14000301  1
  F  F10  1  0.71524296  0.96962002  0.63031802  1
  F  F11  1  0.60619398  0.67334801  0.59623801  1
  F  F12  1  0.53875997  0.64784501  0.29870401  1
  F  F13  1  0.45183199  0.38358301  0.71869501  1
  O  O14  1  0.55545202  0.15820100  0.07784398  1
  F  F15  1  0.93315798  0.81413102  0.89052500  1
  F  F16  1  0.45135900  0.31931301  0.39896500  1
  F  F17  1  0.75998700  0.54543001  0.89702900  1
  O  O18  1  0.25674201  0.05422400  0.40402000  1
  Mo  Mo19  1  0.01540399  0.14614600  0.79535402  1
