# generated using pymatgen
data_Ba2Ge7Au
_symmetry_space_group_name_H-M   'P 1'
_cell_length_a   4.70101690
_cell_length_b   4.70101690
_cell_length_c   10.56017590
_cell_angle_alpha   90.00000000
_cell_angle_beta   90.00000000
_cell_angle_gamma   90.00000000
_symmetry_Int_Tables_number   1
_chemical_formula_structural   Ba2Ge7Au
_chemical_formula_sum   'Ba2 Ge7 Au1'
_cell_volume   233.37523999
_cell_formula_units_Z   1
loop_
 _symmetry_equiv_pos_site_id
 _symmetry_equiv_pos_as_xyz
  1  'x, y, z'
loop_
 _atom_site_type_symbol
 _atom_site_label
 _atom_site_symmetry_multiplicity
 _atom_site_fract_x
 _atom_site_fract_y
 _atom_site_fract_z
 _atom_site_occupancy
  Ba  Ba0  1  0.00000000  0.50000001  0.24125800  1
  Ba  Ba1  1  0.50000001  0.00000000  0.75874201  1
  Ge  Ge2  1  0.00000000  0.00000000  0.50000000  1
  Ge  Ge3  1  0.50000001  0.50000001  0.50000000  1
  Ge  Ge4  1  0.00000000  0.50000001  0.87214901  1
  Au  Au5  1  0.50000001  0.00000000  0.12785100  1
  Ge  Ge6  1  0.00000000  0.00000000  0.00000000  1
  Ge  Ge7  1  0.50000001  0.50000001  0.00000000  1
  Ge  Ge8  1  0.00000000  0.50000001  0.62449101  1
  Ge  Ge9  1  0.50000001  0.00000000  0.37550900  1
