# generated using pymatgen
data_Te2Mo
_symmetry_space_group_name_H-M   'P 1'
_cell_length_a   3.55956006
_cell_length_b   3.55956054
_cell_length_c   40.10774612
_cell_angle_alpha   90.00000000
_cell_angle_beta   90.00000000
_cell_angle_gamma   119.99999237
_symmetry_Int_Tables_number   1
_chemical_formula_structural   Te2Mo
_chemical_formula_sum   'Te8 Mo4'
_cell_volume   440.10026585
_cell_formula_units_Z   4
loop_
 _symmetry_equiv_pos_site_id
 _symmetry_equiv_pos_as_xyz
  1  'x, y, z'
loop_
 _atom_site_type_symbol
 _atom_site_label
 _atom_site_symmetry_multiplicity
 _atom_site_fract_x
 _atom_site_fract_y
 _atom_site_fract_z
 _atom_site_occupancy
  Te  Te0  1  0.66666664  0.33333332  0.04863100  1
  Te  Te1  1  0.66666664  0.33333332  0.67307298  1
  Te  Te2  1  0.33333329  0.66666665  0.32692699  1
  Te  Te3  1  0.33333329  0.66666665  0.95136897  1
  Te  Te4  1  0.33333329  0.66666665  0.23666599  1
  Te  Te5  1  0.33333329  0.66666665  0.86076098  1
  Te  Te6  1  0.66666664  0.33333332  0.13923900  1
  Te  Te7  1  0.66666664  0.33333332  0.76333398  1
  Mo  Mo8  1  0.66666664  0.33333332  0.28181199  1
  Mo  Mo9  1  0.33333329  0.66666665  0.71818798  1
  Mo  Mo10  1  0.66666664  0.33333332  0.90607097  1
  Mo  Mo11  1  0.33333329  0.66666665  0.09392900  1
