# generated using pymatgen
data_Bi3Se2
_symmetry_space_group_name_H-M   'P 1'
_cell_length_a   9.81976986
_cell_length_b   9.81976986
_cell_length_c   9.81976986
_cell_angle_alpha   107.13551331
_cell_angle_beta   107.13551331
_cell_angle_gamma   107.13551331
_symmetry_Int_Tables_number   1
_chemical_formula_structural   Bi3Se2
_chemical_formula_sum   'Bi12 Se8'
_cell_volume   785.65368372
_cell_formula_units_Z   4
loop_
 _symmetry_equiv_pos_site_id
 _symmetry_equiv_pos_as_xyz
  1  'x, y, z'
loop_
 _atom_site_type_symbol
 _atom_site_label
 _atom_site_symmetry_multiplicity
 _atom_site_fract_x
 _atom_site_fract_y
 _atom_site_fract_z
 _atom_site_occupancy
  Bi  Bi0  1  0.29706500  0.09615000  0.02547700  1
  Bi  Bi1  1  0.09615000  0.02547700  0.29706499  1
  Bi  Bi2  1  0.02547702  0.29706500  0.09615000  1
  Bi  Bi3  1  0.70293505  0.90385001  0.97452298  1
  Bi  Bi4  1  0.90385005  0.97452301  0.70293500  1
  Bi  Bi5  1  0.97452303  0.70293501  0.90384998  1
  Bi  Bi6  1  0.50000003  0.50000001  0.49999999  1
  Se  Se7  1  0.00000000  0.00000000  0.00000000  1
  Se  Se8  1  0.16239502  0.38926600  0.46659999  1
  Se  Se9  1  0.38926603  0.46660000  0.16239501  1
  Se  Se10  1  0.46660000  0.16239500  0.38926599  1
  Se  Se11  1  0.83760503  0.61073401  0.53340000  1
  Se  Se12  1  0.61073403  0.53340001  0.83760498  1
  Se  Se13  1  0.53340005  0.83760501  0.61073400  1
  Bi  Bi14  1  0.92660900  0.32024700  0.77508398  1
  Bi  Bi15  1  0.32024705  0.77508401  0.92660898  1
  Bi  Bi16  1  0.77508405  0.92660901  0.32024702  1
  Bi  Bi17  1  0.07339105  0.67975301  0.22491601  1
  Se  Se18  1  0.67975300  0.22491600  0.07339100  1
  Bi  Bi19  1  0.22491600  0.07339100  0.67975297  1
