# generated using pymatgen
data_Li2MnB4
_symmetry_space_group_name_H-M   'P 1'
_cell_length_a   2.96635389
_cell_length_b   2.98738790
_cell_length_c   13.08169365
_cell_angle_alpha   90.00000000
_cell_angle_beta   90.00000000
_cell_angle_gamma   90.00000000
_symmetry_Int_Tables_number   1
_chemical_formula_structural   Li2MnB4
_chemical_formula_sum   'Li4 Mn2 B8'
_cell_volume   115.92538680
_cell_formula_units_Z   2
loop_
 _symmetry_equiv_pos_site_id
 _symmetry_equiv_pos_as_xyz
  1  'x, y, z'
loop_
 _atom_site_type_symbol
 _atom_site_label
 _atom_site_symmetry_multiplicity
 _atom_site_fract_x
 _atom_site_fract_y
 _atom_site_fract_z
 _atom_site_occupancy
  Li  Li0  1  0.00000000  0.00000000  0.81054202  1
  Li  Li1  1  0.50000002  0.00000000  0.00113000  1
  Li  Li2  1  0.00000000  0.50000002  0.49889101  1
  Mn  Mn3  1  0.00000000  0.00000000  0.18666401  1
  Li  Li4  1  0.50000002  0.50000002  0.68822102  1
  Mn  Mn5  1  0.50000002  0.50000002  0.31338101  1
  B  B6  1  0.50000002  0.00000000  0.43259301  1
  B  B7  1  0.00000000  0.50000002  0.93491803  1
  B  B8  1  0.00000000  0.50000002  0.06791200  1
  B  B9  1  0.50000002  0.00000000  0.56558702  1
  B  B10  1  0.00000000  0.00000000  0.35982801  1
  B  B11  1  0.50000002  0.50000002  0.86272002  1
  B  B12  1  0.50000002  0.50000002  0.14067700  1
  B  B13  1  0.00000000  0.00000000  0.63693502  1
