# generated using pymatgen
data_K5F3
_symmetry_space_group_name_H-M   'P 1'
_cell_length_a   6.12265205
_cell_length_b   7.23105192
_cell_length_c   7.23105240
_cell_angle_alpha   60.00000000
_cell_angle_beta   90.00000000
_cell_angle_gamma   90.00000000
_symmetry_Int_Tables_number   1
_chemical_formula_structural   K5F3
_chemical_formula_sum   'K5 F3'
_cell_volume   277.25105009
_cell_formula_units_Z   1
loop_
 _symmetry_equiv_pos_site_id
 _symmetry_equiv_pos_as_xyz
  1  'x, y, z'
loop_
 _atom_site_type_symbol
 _atom_site_label
 _atom_site_symmetry_multiplicity
 _atom_site_fract_x
 _atom_site_fract_y
 _atom_site_fract_z
 _atom_site_occupancy
  F  F0  1  0.50000000  0.00000000  -0.00000000  1
  F  F1  1  0.00000000  0.00000000  0.00000000  1
  K  K2  1  0.25000000  0.71893402  0.28106598  1
  K  K3  1  0.74999999  0.28106601  0.71893398  1
  K  K4  1  0.25000000  0.28106601  -0.00000001  1
  K  K5  1  0.25000000  0.00000000  0.71893398  1
  F  F6  1  0.74999999  0.71893402  -0.00000002  1
  K  K7  1  0.74999999  0.00000000  0.28106599  1
