# generated using pymatgen
data_CsBaC16
_symmetry_space_group_name_H-M   'P 1'
_cell_length_a   4.97328615
_cell_length_b   4.97534132
_cell_length_c   11.75634193
_cell_angle_alpha   83.93170166
_cell_angle_beta   77.78884888
_cell_angle_gamma   60.01366425
_symmetry_Int_Tables_number   1
_chemical_formula_structural   CsBaC16
_chemical_formula_sum   'Cs1 Ba1 C16'
_cell_volume   246.25783897
_cell_formula_units_Z   1
loop_
 _symmetry_equiv_pos_site_id
 _symmetry_equiv_pos_as_xyz
  1  'x, y, z'
loop_
 _atom_site_type_symbol
 _atom_site_label
 _atom_site_symmetry_multiplicity
 _atom_site_fract_x
 _atom_site_fract_y
 _atom_site_fract_z
 _atom_site_occupancy
  Cs  Cs0  1  0.50000001  0.99999997  -0.00000003  1
  Ba  Ba1  1  0.25000001  0.49999999  0.50000000  1
  C  C2  1  0.79143799  0.66686698  0.75003300  1
  C  C3  1  0.54169500  0.66686698  0.24996699  1
  C  C4  1  0.45852899  0.33313299  0.75003301  1
  C  C5  1  0.29147100  0.16686700  0.74996701  1
  C  C6  1  0.95743898  0.33326299  0.75214201  1
  C  C7  1  0.04284402  0.66673698  0.24785799  1
  C  C8  1  0.20830502  0.83313298  0.25003298  1
  C  C9  1  0.79256098  0.16673700  0.74785802  1
  C  C10  1  0.45958101  0.83326298  0.74785800  1
  C  C11  1  0.70715600  0.83326298  0.25214198  1
  C  C12  1  0.54166199  0.16686700  0.25003300  1
  C  C13  1  0.95856199  0.83313298  0.74996700  1
  C  C14  1  0.20833800  0.33313299  0.24996700  1
  C  C15  1  0.29041901  0.66673698  0.75214200  1
  C  C16  1  0.04070200  0.16673700  0.25214200  1
  C  C17  1  0.70929799  0.33326299  0.24785800  1
