# generated using pymatgen
data_Ag4S3
_symmetry_space_group_name_H-M   'P 1'
_cell_length_a   6.81753063
_cell_length_b   6.81753063
_cell_length_c   7.50203943
_cell_angle_alpha   62.97504425
_cell_angle_beta   62.97504425
_cell_angle_gamma   59.99999237
_symmetry_Int_Tables_number   1
_chemical_formula_structural   Ag4S3
_chemical_formula_sum   'Ag8 S6'
_cell_volume   257.06877149
_cell_formula_units_Z   2
loop_
 _symmetry_equiv_pos_site_id
 _symmetry_equiv_pos_as_xyz
  1  'x, y, z'
loop_
 _atom_site_type_symbol
 _atom_site_label
 _atom_site_symmetry_multiplicity
 _atom_site_fract_x
 _atom_site_fract_y
 _atom_site_fract_z
 _atom_site_occupancy
  Ag  Ag0  1  0.83376699  0.83376701  0.49869900  1
  Ag  Ag1  1  0.16623300  0.16623300  0.50130100  1
  Ag  Ag2  1  0.27650799  0.62774101  0.11982300  1
  Ag  Ag3  1  0.62774098  0.97592802  0.11982300  1
  Ag  Ag4  1  0.97592800  0.27650800  0.11982300  1
  Ag  Ag5  1  0.02407198  0.72349201  0.88017700  1
  Ag  Ag6  1  0.37225900  0.02407200  0.88017700  1
  Ag  Ag7  1  0.72349200  0.37225901  0.88017700  1
  S  S8  1  0.09547499  0.42436301  0.73159800  1
  S  S9  1  0.74856400  0.09547500  0.73159800  1
  S  S10  1  0.42436299  0.74856401  0.73159800  1
  S  S11  1  0.57563700  0.25143600  0.26840200  1
  S  S12  1  0.25143598  0.90452501  0.26840200  1
  S  S13  1  0.90452499  0.57563701  0.26840200  1
