# generated using pymatgen
data_Bi7F9
_symmetry_space_group_name_H-M   'P 1'
_cell_length_a   7.89923000
_cell_length_b   7.89923000
_cell_length_c   7.91538334
_cell_angle_alpha   109.48670197
_cell_angle_beta   109.45438385
_cell_angle_gamma   109.38974762
_symmetry_Int_Tables_number   1
_chemical_formula_structural   Bi7F9
_chemical_formula_sum   'Bi7 F9'
_cell_volume   380.59448242
_cell_formula_units_Z   1
loop_
 _symmetry_equiv_pos_site_id
 _symmetry_equiv_pos_as_xyz
  1  'x, y, z'
loop_
 _atom_site_type_symbol
 _atom_site_label
 _atom_site_symmetry_multiplicity
 _atom_site_fract_x
 _atom_site_fract_y
 _atom_site_fract_z
 _atom_site_occupancy
  Bi  Bi0  1  0.49999998  0.00000000  -0.00000003  1
  F  F1  1  -0.00000003  0.49999997  -0.00000004  1
  F  F2  1  -0.00000006  0.99999994  0.49999992  1
  Bi  Bi3  1  0.49999996  0.49999997  0.49999993  1
  Bi  Bi4  1  0.32962294  0.83865395  0.16827692  1
  Bi  Bi5  1  0.67037697  0.16134599  0.83172294  1
  F  F6  1  0.33842998  0.15733399  0.49576396  1
  F  F7  1  0.66156993  0.84266595  0.50423589  1
  F  F8  1  0.83624396  0.17535599  0.33012794  1
  Bi  Bi9  1  0.16375595  0.82464395  0.66987192  1
  F  F10  1  0.15477197  0.49388397  0.33012795  1
  F  F11  1  0.84522794  0.50611597  0.66987191  1
  Bi  Bi12  1  0.17568198  0.33833898  0.84479995  1
  Bi  Bi13  1  0.82431794  0.66166096  0.15519991  1
  F  F14  1  0.49353896  0.33088198  0.15519995  1
  F  F15  1  0.50646095  0.66911796  0.84479991  1
