# generated using pymatgen
data_Lu5Mg3WO11
_symmetry_space_group_name_H-M   'P 1'
_cell_length_a   5.29566908
_cell_length_b   5.75981808
_cell_length_c   7.57275105
_cell_angle_alpha   90.00000000
_cell_angle_beta   90.01389313
_cell_angle_gamma   90.00000000
_symmetry_Int_Tables_number   1
_chemical_formula_structural   Lu5Mg3WO11
_chemical_formula_sum   'Lu5 Mg3 W1 O11'
_cell_volume   230.98473085
_cell_formula_units_Z   1
loop_
 _symmetry_equiv_pos_site_id
 _symmetry_equiv_pos_as_xyz
  1  'x, y, z'
loop_
 _atom_site_type_symbol
 _atom_site_label
 _atom_site_symmetry_multiplicity
 _atom_site_fract_x
 _atom_site_fract_y
 _atom_site_fract_z
 _atom_site_occupancy
  Lu  Lu0  1  0.97275499  0.42185599  0.25226003  1
  Lu  Lu1  1  0.02724500  0.57814399  0.74774002  1
  Lu  Lu2  1  0.52724499  0.92185599  0.24774002  1
  Lu  Lu3  1  0.47275499  0.07814400  0.75226003  1
  Mg  Mg4  1  0.00000000  0.00000000  0.50000001  1
  Mg  Mg5  1  0.49999999  0.49999999  0.00000001  1
  Mg  Mg6  1  0.00000000  0.00000000  0.00000000  1
  W  W7  1  0.49999999  0.49999999  0.50000002  1
  O  O8  1  0.12424900  0.04483400  0.24580101  1
  Lu  Lu9  1  0.87575099  0.95516599  0.75419904  1
  O  O10  1  0.37575099  0.54483399  0.25419901  1
  O  O11  1  0.62424899  0.45516599  0.74580103  1
  O  O12  1  0.81752899  0.69674899  0.06453302  1
  O  O13  1  0.18247100  0.30325100  0.93546703  1
  O  O14  1  0.68247099  0.19674900  0.43546703  1
  O  O15  1  0.31752900  0.80325099  0.56453302  1
  O  O16  1  0.68667999  0.18965700  0.05640102  1
  O  O17  1  0.31332000  0.81034299  0.94359903  1
  O  O18  1  0.81331999  0.68965699  0.44359903  1
  O  O19  1  0.18668000  0.31034300  0.55640102  1
