# generated using pymatgen
data_GaSe
_symmetry_space_group_name_H-M   'P 1'
_cell_length_a   4.05756712
_cell_length_b   4.05756712
_cell_length_c   7.04173470
_cell_angle_alpha   73.25524139
_cell_angle_beta   73.25524139
_cell_angle_gamma   60.00001526
_symmetry_Int_Tables_number   1
_chemical_formula_structural   GaSe
_chemical_formula_sum   'Ga2 Se2'
_cell_volume   94.68297886
_cell_formula_units_Z   2
loop_
 _symmetry_equiv_pos_site_id
 _symmetry_equiv_pos_as_xyz
  1  'x, y, z'
loop_
 _atom_site_type_symbol
 _atom_site_label
 _atom_site_symmetry_multiplicity
 _atom_site_fract_x
 _atom_site_fract_y
 _atom_site_fract_z
 _atom_site_occupancy
  Ga  Ga0  1  0.00187300  0.00187300  0.99438103  1
  Ga  Ga1  1  0.49839804  0.49839800  0.50480597  1
  Se  Se2  1  0.12545601  0.12545600  0.62363201  1
  Se  Se3  1  0.62427405  0.62427400  0.12717796  1
