# generated using pymatgen
data_Mg2Ga
_symmetry_space_group_name_H-M   'P 1'
_cell_length_a   4.08009195
_cell_length_b   7.69213390
_cell_length_c   7.69213438
_cell_angle_alpha   120.00000000
_cell_angle_beta   90.00000000
_cell_angle_gamma   90.00000000
_symmetry_Int_Tables_number   1
_chemical_formula_structural   Mg2Ga
_chemical_formula_sum   'Mg6 Ga3'
_cell_volume   209.07123327
_cell_formula_units_Z   3
loop_
 _symmetry_equiv_pos_site_id
 _symmetry_equiv_pos_as_xyz
  1  'x, y, z'
loop_
 _atom_site_type_symbol
 _atom_site_label
 _atom_site_symmetry_multiplicity
 _atom_site_fract_x
 _atom_site_fract_y
 _atom_site_fract_z
 _atom_site_occupancy
  Ga  Ga0  1  0.00000000  0.00000000  0.00000000  1
  Ga  Ga1  1  0.50000001  0.33333334  0.66666669  1
  Ga  Ga2  1  0.50000001  0.66666669  0.33333336  1
  Mg  Mg3  1  0.00000000  0.00000000  0.59410801  1
  Mg  Mg4  1  0.00000000  0.59410802  0.00000002  1
  Mg  Mg5  1  1.00000001  0.40589201  0.40589202  1
  Mg  Mg6  1  0.50000001  0.74080002  0.74080004  1
  Mg  Mg7  1  0.50000001  0.25920001  0.00000001  1
  Mg  Mg8  1  0.50000001  1.00000003  0.25920004  1
