# generated using pymatgen
data_TbGa2
_symmetry_space_group_name_H-M   'P 1'
_cell_length_a   4.07562780
_cell_length_b   7.36663580
_cell_length_c   7.36663532
_cell_angle_alpha   120.00000000
_cell_angle_beta   90.00000000
_cell_angle_gamma   90.00000000
_symmetry_Int_Tables_number   1
_chemical_formula_structural   TbGa2
_chemical_formula_sum   'Tb3 Ga6'
_cell_volume   191.54177970
_cell_formula_units_Z   3
loop_
 _symmetry_equiv_pos_site_id
 _symmetry_equiv_pos_as_xyz
  1  'x, y, z'
loop_
 _atom_site_type_symbol
 _atom_site_label
 _atom_site_symmetry_multiplicity
 _atom_site_fract_x
 _atom_site_fract_y
 _atom_site_fract_z
 _atom_site_occupancy
  Tb  Tb0  1  0.50000002  0.58112800  -0.00000004  1
  Tb  Tb1  1  0.50000002  0.41887200  0.41887196  1
  Tb  Tb2  1  0.50000002  0.00000000  0.58112799  1
  Ga  Ga3  1  0.00000000  0.25163700  0.99999997  1
  Ga  Ga4  1  0.00000000  0.74836299  0.74836293  1
  Ga  Ga5  1  1.00000005  0.00000000  0.25163700  1
  Ga  Ga6  1  0.00000000  0.33333333  0.66666663  1
  Ga  Ga7  1  0.00000000  0.66666666  0.33333328  1
  Ga  Ga8  1  0.50000002  0.00000000  -0.00000000  1
