# generated using pymatgen
data_CsAuSe
_symmetry_space_group_name_H-M   'P 1'
_cell_length_a   4.49959278
_cell_length_b   4.49959278
_cell_length_c   9.03108788
_cell_angle_alpha   90.00000000
_cell_angle_beta   90.00000000
_cell_angle_gamma   90.00000000
_symmetry_Int_Tables_number   1
_chemical_formula_structural   CsAuSe
_chemical_formula_sum   'Cs2 Au2 Se2'
_cell_volume   182.84643230
_cell_formula_units_Z   2
loop_
 _symmetry_equiv_pos_site_id
 _symmetry_equiv_pos_as_xyz
  1  'x, y, z'
loop_
 _atom_site_type_symbol
 _atom_site_label
 _atom_site_symmetry_multiplicity
 _atom_site_fract_x
 _atom_site_fract_y
 _atom_site_fract_z
 _atom_site_occupancy
  Cs  Cs0  1  0.00000000  0.50000002  0.66009801  1
  Cs  Cs1  1  0.50000002  0.00000000  0.33990200  1
  Au  Au2  1  0.50000002  0.50000002  -0.00000000  1
  Au  Au3  1  0.00000000  0.00000000  0.00000000  1
  Se  Se4  1  0.00000000  0.50000002  0.14757500  1
  Se  Se5  1  0.50000002  0.00000000  0.85242501  1
