# generated using pymatgen
data_Ga2Co5P2
_symmetry_space_group_name_H-M   'P 1'
_cell_length_a   2.93556094
_cell_length_b   8.56287384
_cell_length_c   8.56287384
_cell_angle_alpha   90.00000000
_cell_angle_beta   90.00000000
_cell_angle_gamma   90.00000000
_symmetry_Int_Tables_number   1
_chemical_formula_structural   Ga2Co5P2
_chemical_formula_sum   'Ga4 Co10 P4'
_cell_volume   215.24357249
_cell_formula_units_Z   2
loop_
 _symmetry_equiv_pos_site_id
 _symmetry_equiv_pos_as_xyz
  1  'x, y, z'
loop_
 _atom_site_type_symbol
 _atom_site_label
 _atom_site_symmetry_multiplicity
 _atom_site_fract_x
 _atom_site_fract_y
 _atom_site_fract_z
 _atom_site_occupancy
  Ga  Ga0  1  0.50000001  0.00000000  -0.00000000  1
  Co  Co1  1  0.50000001  0.50000001  0.50000001  1
  Ga  Ga2  1  0.50000001  0.00000000  0.34724401  1
  Ga  Ga3  1  0.50000001  0.34724401  -0.00000000  1
  Co  Co4  1  0.50000001  0.65275601  -0.00000000  1
  Ga  Ga5  1  0.50000001  1.00000002  0.65275601  1
  P  P6  1  0.50000001  0.30667601  0.30667601  1
  P  P7  1  0.50000001  0.30667601  0.69332401  1
  P  P8  1  0.50000001  0.69332401  0.30667601  1
  P  P9  1  0.50000001  0.69332401  0.69332401  1
  Co  Co10  1  0.00000000  0.82387002  0.82387002  1
  Co  Co11  1  0.00000000  0.82387002  0.17613000  1
  Co  Co12  1  0.00000000  0.17613000  0.82387002  1
  Co  Co13  1  1.00000002  0.17613000  0.17613000  1
  Co  Co14  1  0.00000000  0.50000001  0.75633101  1
  Co  Co15  1  0.00000000  0.75633101  0.50000001  1
  Co  Co16  1  0.00000000  0.24366900  0.50000001  1
  Co  Co17  1  0.00000000  0.50000001  0.24366900  1
