# generated using pymatgen
data_La3MgNb3BiSO11
_symmetry_space_group_name_H-M   'P 1'
_cell_length_a   4.29524422
_cell_length_b   8.42931747
_cell_length_c   8.44422722
_cell_angle_alpha   90.00000000
_cell_angle_beta   90.52704620
_cell_angle_gamma   90.00000000
_symmetry_Int_Tables_number   1
_chemical_formula_structural   La3MgNb3BiSO11
_chemical_formula_sum   'La3 Mg1 Nb3 Bi1 S1 O11'
_cell_volume   305.71856281
_cell_formula_units_Z   1
loop_
 _symmetry_equiv_pos_site_id
 _symmetry_equiv_pos_as_xyz
  1  'x, y, z'
loop_
 _atom_site_type_symbol
 _atom_site_label
 _atom_site_symmetry_multiplicity
 _atom_site_fract_x
 _atom_site_fract_y
 _atom_site_fract_z
 _atom_site_occupancy
  Nb  Nb0  1  0.53163301  0.74665596  0.74820699  1
  Nb  Nb1  1  0.53163301  0.25334399  0.74820699  1
  Nb  Nb2  1  0.55025301  0.75329696  0.24605899  1
  Mg  Mg3  1  0.55025301  0.24670299  0.24605899  1
  Bi  Bi4  1  0.04394900  0.99999994  0.94235600  1
  La  La5  1  0.13284400  0.49999997  0.48628500  1
  La  La6  1  0.10617400  0.00000000  0.46934800  1
  La  La7  1  0.12643800  0.49999997  0.01772100  1
  O  O8  1  0.00416700  0.77275996  0.75990900  1
  S  S9  1  0.00416700  0.22723999  0.75990900  1
  O  O10  1  0.48549901  0.73003496  0.00286099  1
  O  O11  1  0.48854401  0.00000000  0.77373899  1
  O  O12  1  0.45978501  0.49999997  0.74499999  1
  O  O13  1  0.47180901  0.74727496  0.50212499  1
  O  O14  1  0.50552101  0.99999994  0.27191999  1
  O  O15  1  0.47180901  0.25272499  0.50212499  1
  O  O16  1  0.47674801  0.49999997  0.26182999  1
  O  O17  1  0.48549901  0.26996498  0.00286099  1
  O  O18  1  0.01863700  0.75000496  0.25674000  1
  O  O19  1  0.01863700  0.24999499  0.25674000  1
