# generated using pymatgen
data_TbEu11P7
_symmetry_space_group_name_H-M   'P 1'
_cell_length_a   8.71674347
_cell_length_b   8.71674347
_cell_length_c   8.71674347
_cell_angle_alpha   109.47122192
_cell_angle_beta   109.47122192
_cell_angle_gamma   109.47122192
_symmetry_Int_Tables_number   1
_chemical_formula_structural   TbEu11P7
_chemical_formula_sum   'Tb1 Eu11 P7'
_cell_volume   509.84819207
_cell_formula_units_Z   1
loop_
 _symmetry_equiv_pos_site_id
 _symmetry_equiv_pos_as_xyz
  1  'x, y, z'
loop_
 _atom_site_type_symbol
 _atom_site_label
 _atom_site_symmetry_multiplicity
 _atom_site_fract_x
 _atom_site_fract_y
 _atom_site_fract_z
 _atom_site_occupancy
  Tb  Tb0  1  0.12168102  0.30673800  0.81494299  1
  Eu  Eu1  1  0.30673804  0.81494300  0.12168105  1
  Eu  Eu2  1  0.81494298  0.12168100  0.30673801  1
  Eu  Eu3  1  0.69326203  0.81494300  0.50820504  1
  Eu  Eu4  1  0.18505705  0.87831900  0.69326203  1
  Eu  Eu5  1  0.69326199  0.18505700  0.87831899  1
  Eu  Eu6  1  0.18505703  0.49179500  0.30673802  1
  Eu  Eu7  1  0.81494301  0.50820500  0.69326202  1
  Eu  Eu8  1  0.30673800  0.18505700  0.49179500  1
  Eu  Eu9  1  0.49179500  0.30673800  0.18505702  1
  Eu  Eu10  1  0.50820503  0.69326200  0.81494302  1
  Eu  Eu11  1  0.87831902  0.69326200  0.18505705  1
  P  P12  1  0.50000002  0.62211800  0.12211804  1
  P  P13  1  0.62211799  0.12211800  0.50000000  1
  P  P14  1  0.12211803  0.50000000  0.62211801  1
  P  P15  1  0.37788204  0.87788200  0.50000004  1
  P  P16  1  0.87788201  0.50000000  0.37788203  1
  P  P17  1  0.50000001  0.37788200  0.87788200  1
  P  P18  1  0.00000000  0.00000000  0.00000000  1
