# generated using pymatgen
data_BaP4
_symmetry_space_group_name_H-M   'P 1'
_cell_length_a   3.86050010
_cell_length_b   3.87066388
_cell_length_c   12.24322319
_cell_angle_alpha   90.00000000
_cell_angle_beta   90.00000000
_cell_angle_gamma   90.00000000
_symmetry_Int_Tables_number   1
_chemical_formula_structural   BaP4
_chemical_formula_sum   'Ba2 P8'
_cell_volume   182.94679023
_cell_formula_units_Z   2
loop_
 _symmetry_equiv_pos_site_id
 _symmetry_equiv_pos_as_xyz
  1  'x, y, z'
loop_
 _atom_site_type_symbol
 _atom_site_label
 _atom_site_symmetry_multiplicity
 _atom_site_fract_x
 _atom_site_fract_y
 _atom_site_fract_z
 _atom_site_occupancy
  P  P0  1  0.00000000  0.07000100  0.34319599  1
  P  P1  1  0.49999999  0.42999901  0.84319599  1
  P  P2  1  0.49999999  0.57000102  0.15680400  1
  P  P3  1  0.00000000  0.92999903  0.65680399  1
  Ba  Ba4  1  0.00000000  0.00000000  0.00000000  1
  Ba  Ba5  1  0.49999999  0.50000002  0.49999999  1
  P  P6  1  0.49999999  0.06551800  0.24947100  1
  P  P7  1  0.00000000  0.43448201  0.74947099  1
  P  P8  1  0.00000000  0.56551802  0.25052900  1
  P  P9  1  0.49999999  0.93448203  0.75052899  1
