# generated using pymatgen
data_Mn3Ge5
_symmetry_space_group_name_H-M   'P 1'
_cell_length_a   3.26629305
_cell_length_b   5.75772715
_cell_length_c   6.26922989
_cell_angle_alpha   90.00000000
_cell_angle_beta   90.00000000
_cell_angle_gamma   90.00000000
_symmetry_Int_Tables_number   1
_chemical_formula_structural   Mn3Ge5
_chemical_formula_sum   'Mn3 Ge5'
_cell_volume   117.90179641
_cell_formula_units_Z   1
loop_
 _symmetry_equiv_pos_site_id
 _symmetry_equiv_pos_as_xyz
  1  'x, y, z'
loop_
 _atom_site_type_symbol
 _atom_site_label
 _atom_site_symmetry_multiplicity
 _atom_site_fract_x
 _atom_site_fract_y
 _atom_site_fract_z
 _atom_site_occupancy
  Ge  Ge0  1  0.74999999  0.81647498  0.56552201  1
  Ge  Ge1  1  0.25000000  0.18352500  0.43447801  1
  Ge  Ge2  1  0.74999999  0.31647499  0.93447802  1
  Ge  Ge3  1  0.25000000  0.68352498  0.06552200  1
  Mn  Mn4  1  0.74999999  0.48624999  0.31177701  1
  Mn  Mn5  1  0.74999999  0.98624997  0.18822300  1
  Ge  Ge6  1  0.25000000  0.01375000  0.81177701  1
  Mn  Mn7  1  0.25000000  0.51374999  0.68822301  1
