# generated using pymatgen
data_Ba2NdAg5S6
_symmetry_space_group_name_H-M   'P 1'
_cell_length_a   4.28924799
_cell_length_b   7.39357710
_cell_length_c   11.34352493
_cell_angle_alpha   94.95026398
_cell_angle_beta   90.00000000
_cell_angle_gamma   106.86189270
_symmetry_Int_Tables_number   1
_chemical_formula_structural   Ba2NdAg5S6
_chemical_formula_sum   'Ba2 Nd1 Ag5 S6'
_cell_volume   342.86733748
_cell_formula_units_Z   1
loop_
 _symmetry_equiv_pos_site_id
 _symmetry_equiv_pos_as_xyz
  1  'x, y, z'
loop_
 _atom_site_type_symbol
 _atom_site_label
 _atom_site_symmetry_multiplicity
 _atom_site_fract_x
 _atom_site_fract_y
 _atom_site_fract_z
 _atom_site_occupancy
  Ba  Ba0  1  0.25085695  0.50171400  0.70729198  1
  Ba  Ba1  1  0.74914295  0.49828600  0.29270799  1
  Nd  Nd2  1  0.50000000  0.00000000  0.49999999  1
  Ag  Ag3  1  0.35136192  0.70272400  0.03514999  1
  Ag  Ag4  1  0.64863797  0.29727600  0.96484997  1
  Ag  Ag5  1  0.98092790  0.96185601  0.74447897  1
  Ag  Ag6  1  0.01907200  0.03814400  0.25552099  1
  Ag  Ag7  1  0.00000000  0.00000000  0.00000000  1
  S  S8  1  0.58634298  0.17268600  0.74218898  1
  S  S9  1  0.84263793  0.68527600  0.89878097  1
  S  S10  1  0.15736197  0.31472400  0.10121900  1
  S  S11  1  0.41365691  0.82731400  0.25781099  1
  S  S12  1  0.13117797  0.26235600  0.44880299  1
  S  S13  1  0.86882192  0.73764400  0.55119698  1
