# generated using pymatgen
data_LuCu3P2
_symmetry_space_group_name_H-M   'P 1'
_cell_length_a   4.60168266
_cell_length_b   4.60168266
_cell_length_c   4.60168266
_cell_angle_alpha   105.65533447
_cell_angle_beta   105.65533447
_cell_angle_gamma   117.40647888
_symmetry_Int_Tables_number   1
_chemical_formula_structural   LuCu3P2
_chemical_formula_sum   'Lu1 Cu3 P2'
_cell_volume   73.91852483
_cell_formula_units_Z   1
loop_
 _symmetry_equiv_pos_site_id
 _symmetry_equiv_pos_as_xyz
  1  'x, y, z'
loop_
 _atom_site_type_symbol
 _atom_site_label
 _atom_site_symmetry_multiplicity
 _atom_site_fract_x
 _atom_site_fract_y
 _atom_site_fract_z
 _atom_site_occupancy
  P  P0  1  0.25000001  0.25000001  1.00000001  1
  Cu  Cu1  1  0.75000003  0.75000003  0.99999996  1
  Cu  Cu2  1  0.33124701  0.16875301  0.49999999  1
  P  P3  1  0.66875303  0.83124703  0.49999994  1
  Cu  Cu4  1  0.16875302  0.66875302  0.83750599  1
  Lu  Lu5  1  0.83124703  0.33124701  0.16249394  1
