# generated using pymatgen
data_CsBaLa4(CuS5)2
_symmetry_space_group_name_H-M   'P 1'
_cell_length_a   8.01214218
_cell_length_b   8.81711960
_cell_length_c   8.01214218
_cell_angle_alpha   117.02321625
_cell_angle_beta   90.00000000
_cell_angle_gamma   117.02321625
_symmetry_Int_Tables_number   1
_chemical_formula_structural   CsBaLa4(CuS5)2
_chemical_formula_sum   'Cs1 Ba1 La4 Cu2 S10'
_cell_volume   433.70152842
_cell_formula_units_Z   1
loop_
 _symmetry_equiv_pos_site_id
 _symmetry_equiv_pos_as_xyz
  1  'x, y, z'
loop_
 _atom_site_type_symbol
 _atom_site_label
 _atom_site_symmetry_multiplicity
 _atom_site_fract_x
 _atom_site_fract_y
 _atom_site_fract_z
 _atom_site_occupancy
  Cs  Cs0  1  0.25000004  0.50000004  0.25000004  1
  Ba  Ba1  1  0.75000003  0.50000004  0.75000003  1
  La  La2  1  0.16285200  0.00000000  0.66285199  1
  La  La3  1  0.33714809  1.00000008  0.16285210  1
  La  La4  1  0.66285199  0.00000000  0.83714798  1
  La  La5  1  0.83714808  1.00000008  0.33714809  1
  Cu  Cu6  1  0.75000003  0.50000004  0.25000004  1
  Cu  Cu7  1  0.25000004  0.50000004  0.75000003  1
  S  S8  1  0.01082907  0.72559306  0.21476407  1
  S  S9  1  0.28523702  0.27440902  0.48917202  1
  S  S10  1  0.98917101  0.27440702  0.78523601  1
  S  S11  1  0.48917102  0.27440802  0.98917101  1
  S  S12  1  0.78523701  0.27440802  0.28523702  1
  S  S13  1  0.51082906  0.72559206  0.01082907  1
  S  S14  1  0.21476307  0.72559206  0.71476306  1
  S  S15  1  0.71476306  0.72559106  0.51082806  1
  S  S16  1  0.00000000  0.00000000  0.00000000  1
  S  S17  1  0.49999999  0.00000000  0.49999999  1
