# generated using pymatgen
data_LaInAu
_symmetry_space_group_name_H-M   'P 1'
_cell_length_a   4.49808311
_cell_length_b   7.70670414
_cell_length_c   7.70670462
_cell_angle_alpha   120.00000000
_cell_angle_beta   90.00000000
_cell_angle_gamma   90.00000000
_symmetry_Int_Tables_number   1
_chemical_formula_structural   LaInAu
_chemical_formula_sum   'La3 In3 Au3'
_cell_volume   231.36385293
_cell_formula_units_Z   3
loop_
 _symmetry_equiv_pos_site_id
 _symmetry_equiv_pos_as_xyz
  1  'x, y, z'
loop_
 _atom_site_type_symbol
 _atom_site_label
 _atom_site_symmetry_multiplicity
 _atom_site_fract_x
 _atom_site_fract_y
 _atom_site_fract_z
 _atom_site_occupancy
  In  In0  1  0.00000000  0.24206400  0.24206401  1
  In  In1  1  0.00000000  0.75793600  0.00000003  1
  In  In2  1  0.00000000  0.00000000  0.75793599  1
  La  La3  1  0.49999999  0.00000000  0.41381599  1
  La  La4  1  0.49999999  0.58618400  0.58618401  1
  La  La5  1  0.49999999  0.41381600  1.00000000  1
  Au  Au6  1  0.00000000  0.66666667  0.33333336  1
  Au  Au7  1  0.49999999  0.00000000  -0.00000000  1
  Au  Au8  1  0.00000000  0.33333333  0.66666667  1
