# generated using pymatgen
data_HoCo5Si8
_symmetry_space_group_name_H-M   'P 1'
_cell_length_a   6.30588198
_cell_length_b   6.30588198
_cell_length_c   6.30588198
_cell_angle_alpha   105.47396088
_cell_angle_beta   105.47396088
_cell_angle_gamma   117.80081177
_symmetry_Int_Tables_number   1
_chemical_formula_structural   HoCo5Si8
_chemical_formula_sum   'Ho1 Co5 Si8'
_cell_volume   189.92536653
_cell_formula_units_Z   1
loop_
 _symmetry_equiv_pos_site_id
 _symmetry_equiv_pos_as_xyz
  1  'x, y, z'
loop_
 _atom_site_type_symbol
 _atom_site_label
 _atom_site_symmetry_multiplicity
 _atom_site_fract_x
 _atom_site_fract_y
 _atom_site_fract_z
 _atom_site_occupancy
  Si  Si0  1  0.16441100  0.66441101  0.82882201  1
  Si  Si1  1  0.33558900  0.16441200  0.50000000  1
  Si  Si2  1  0.83558901  0.33558900  0.17117800  1
  Si  Si3  1  0.66441100  0.83558801  0.50000000  1
  Ho  Ho4  1  0.25000000  0.25000000  -0.00000000  1
  Si  Si5  1  0.75000000  0.75000001  -0.00000001  1
  Si  Si6  1  0.77860901  0.27860900  0.75959001  1
  Si  Si7  1  0.51901901  0.01901900  0.24041000  1
  Co  Co8  1  0.27860900  0.51902000  0.50000000  1
  Co  Co9  1  0.01901899  0.77860801  0.50000000  1
  Co  Co10  1  0.72139101  0.48098000  0.50000000  1
  Co  Co11  1  0.48098100  0.98098101  0.75959000  1
  Co  Co12  1  0.98098101  0.22139200  0.50000000  1
  Si  Si13  1  0.22139100  0.72139101  0.24041000  1
