# generated using pymatgen
data_Lu6CoSi7
_symmetry_space_group_name_H-M   'P 1'
_cell_length_a   4.11690807
_cell_length_b   5.56723070
_cell_length_c   12.61698914
_cell_angle_alpha   84.92489624
_cell_angle_beta   80.61025238
_cell_angle_gamma   68.30012512
_symmetry_Int_Tables_number   1
_chemical_formula_structural   Lu6CoSi7
_chemical_formula_sum   'Lu6 Co1 Si7'
_cell_volume   264.96054116
_cell_formula_units_Z   1
loop_
 _symmetry_equiv_pos_site_id
 _symmetry_equiv_pos_as_xyz
  1  'x, y, z'
loop_
 _atom_site_type_symbol
 _atom_site_label
 _atom_site_symmetry_multiplicity
 _atom_site_fract_x
 _atom_site_fract_y
 _atom_site_fract_z
 _atom_site_occupancy
  Lu  Lu0  1  0.74860195  0.73261602  0.77017996  1
  Lu  Lu1  1  0.25139798  0.26738401  0.22981999  1
  Lu  Lu2  1  0.52385198  0.33173701  0.62055897  1
  Lu  Lu3  1  0.47614796  0.66826302  0.37944097  1
  Lu  Lu4  1  0.39907998  0.28273901  0.91910097  1
  Lu  Lu5  1  0.60091996  0.71726102  0.08089897  1
  Si  Si6  1  0.75279199  0.07914700  0.41526898  1
  Co  Co7  1  0.24720795  0.92085302  0.58473096  1
  Si  Si8  1  0.14278999  0.25772101  0.45669898  1
  Si  Si9  1  0.85720995  0.74227902  0.54330096  1
  Si  Si10  1  0.11474796  0.84583502  0.92466896  1
  Si  Si11  1  0.88525198  0.15416500  0.07533098  1
  Si  Si12  1  0.05434399  0.13331500  0.75799698  1
  Si  Si13  1  0.94565595  0.86668502  0.24200296  1
