# generated using pymatgen
data_Cr2Br3O2
_symmetry_space_group_name_H-M   'P 1'
_cell_length_a   3.84713101
_cell_length_b   6.47263765
_cell_length_c   6.47263765
_cell_angle_alpha   108.57659912
_cell_angle_beta   90.00000000
_cell_angle_gamma   90.00000000
_symmetry_Int_Tables_number   1
_chemical_formula_structural   Cr2Br3O2
_chemical_formula_sum   'Cr2 Br3 O2'
_cell_volume   152.77822127
_cell_formula_units_Z   1
loop_
 _symmetry_equiv_pos_site_id
 _symmetry_equiv_pos_as_xyz
  1  'x, y, z'
loop_
 _atom_site_type_symbol
 _atom_site_label
 _atom_site_symmetry_multiplicity
 _atom_site_fract_x
 _atom_site_fract_y
 _atom_site_fract_z
 _atom_site_occupancy
  Br  Br0  1  1.00000000  0.22202599  0.22202599  1
  O  O1  1  0.50000000  0.49578899  0.83817897  1
  O  O2  1  0.50000000  0.83817898  0.49578896  1
  Br  Br3  1  -0.00000000  0.49360299  0.01838798  1
  Cr  Cr4  1  0.50000000  0.48448499  0.48448498  1
  Cr  Cr5  1  0.50000000  0.01753000  0.01753000  1
  Br  Br6  1  -0.00000000  0.01838800  0.49360299  1
