# generated using pymatgen
data_HoGa2
_symmetry_space_group_name_H-M   'P 1'
_cell_length_a   5.34535408
_cell_length_b   5.34581280
_cell_length_c   8.74267101
_cell_angle_alpha   90.00000000
_cell_angle_beta   90.00000000
_cell_angle_gamma   119.99716187
_symmetry_Int_Tables_number   1
_chemical_formula_structural   HoGa2
_chemical_formula_sum   'Ho4 Ga8'
_cell_volume   216.36021899
_cell_formula_units_Z   4
loop_
 _symmetry_equiv_pos_site_id
 _symmetry_equiv_pos_as_xyz
  1  'x, y, z'
loop_
 _atom_site_type_symbol
 _atom_site_label
 _atom_site_symmetry_multiplicity
 _atom_site_fract_x
 _atom_site_fract_y
 _atom_site_fract_z
 _atom_site_occupancy
  Ho  Ho0  1  0.33333333  0.66666665  0.43247500  1
  Ho  Ho1  1  0.66666666  0.33333333  0.56752500  1
  Ho  Ho2  1  0.66666666  0.33333333  0.93247500  1
  Ho  Ho3  1  0.33333333  0.66666665  0.06752500  1
  Ga  Ga4  1  0.00000000  0.00000000  0.50000000  1
  Ga  Ga5  1  0.00000000  0.00000000  0.00000000  1
  Ga  Ga6  1  0.82901099  0.17089300  0.25000000  1
  Ga  Ga7  1  0.82908799  0.65817599  0.25000000  1
  Ga  Ga8  1  0.34188200  0.17089300  0.25000000  1
  Ga  Ga9  1  0.17098900  0.82910698  0.75000000  1
  Ga  Ga10  1  0.17091200  0.34182399  0.75000000  1
  Ga  Ga11  1  0.65811799  0.82910698  0.75000000  1
