# generated using pymatgen
data_Ba2Cu4Bi4O9
_symmetry_space_group_name_H-M   'P 1'
_cell_length_a   3.90250206
_cell_length_b   3.93341804
_cell_length_c   18.62464714
_cell_angle_alpha   95.92438507
_cell_angle_beta   95.85879517
_cell_angle_gamma   90.94944000
_symmetry_Int_Tables_number   1
_chemical_formula_structural   Ba2Cu4Bi4O9
_chemical_formula_sum   'Ba2 Cu4 Bi4 O9'
_cell_volume   282.77303480
_cell_formula_units_Z   1
loop_
 _symmetry_equiv_pos_site_id
 _symmetry_equiv_pos_as_xyz
  1  'x, y, z'
loop_
 _atom_site_type_symbol
 _atom_site_label
 _atom_site_symmetry_multiplicity
 _atom_site_fract_x
 _atom_site_fract_y
 _atom_site_fract_z
 _atom_site_occupancy
  Ba  Ba0  1  0.15798501  0.19380400  0.28442700  1
  Ba  Ba1  1  0.84093503  0.92002600  0.71459800  1
  Bi  Bi2  1  0.94560399  0.02440100  0.90963099  1
  Bi  Bi3  1  0.06045900  0.10517500  0.08949900  1
  Bi  Bi4  1  0.71846403  0.81606400  0.43666501  1
  Bi  Bi5  1  0.27174201  0.38175000  0.56205300  1
  Cu  Cu6  1  0.39759402  0.48101000  0.82648799  1
  Cu  Cu7  1  0.60514802  0.64215700  0.17259001  1
  O  O8  1  0.50451502  0.56733000  0.99967499  1
  O  O9  1  0.89840201  0.48243700  0.82826600  1
  O  O10  1  0.32306101  0.38843900  0.67653199  1
  O  O11  1  0.39850703  0.98223100  0.82834600  1
  O  O12  1  0.77208902  0.71894700  0.54991300  1
  Cu  Cu13  1  0.50532500  0.06786000  0.99997599  1
  O  O14  1  0.60472200  0.14121900  0.17107801  1
  O  O15  1  0.67466902  0.70156400  0.32244301  1
  O  O16  1  0.10463702  0.64165100  0.17052500  1
  O  O17  1  0.22924000  0.16598300  0.44899400  1
  Cu  Cu18  1  0.00486502  0.56782400  0.99926499  1
