# generated using pymatgen
data_HoEr(B4Mo)2
_symmetry_space_group_name_H-M   'P 1'
_cell_length_a   3.50862694
_cell_length_b   5.89289999
_cell_length_c   5.89289999
_cell_angle_alpha   103.71956635
_cell_angle_beta   90.00000000
_cell_angle_gamma   90.00000000
_symmetry_Int_Tables_number   1
_chemical_formula_structural   HoEr(B4Mo)2
_chemical_formula_sum   'Ho1 Er1 B8 Mo2'
_cell_volume   118.36516734
_cell_formula_units_Z   1
loop_
 _symmetry_equiv_pos_site_id
 _symmetry_equiv_pos_as_xyz
  1  'x, y, z'
loop_
 _atom_site_type_symbol
 _atom_site_label
 _atom_site_symmetry_multiplicity
 _atom_site_fract_x
 _atom_site_fract_y
 _atom_site_fract_z
 _atom_site_occupancy
  Ho  Ho0  1  -0.00000000  0.80067302  0.19932704  1
  Er  Er1  1  1.00000002  0.19932701  0.80067303  1
  Mo  Mo2  1  -0.00000000  0.68091902  0.68091904  1
  Mo  Mo3  1  -0.00000000  0.31908101  0.31908102  1
  B  B4  1  0.50000001  0.56328302  0.88273904  1
  B  B5  1  0.50000001  0.59274802  0.40725203  1
  B  B6  1  0.50000001  0.87904703  0.87904706  1
  B  B7  1  0.50000001  0.88273903  0.56328305  1
  B  B8  1  0.50000001  0.11726100  0.43671701  1
  B  B9  1  0.50000001  0.12095300  0.12095301  1
  B  B10  1  0.50000001  0.40725201  0.59274803  1
  B  B11  1  0.50000001  0.43671701  0.11726102  1
