# generated using pymatgen
data_Ba3AuBr9
_symmetry_space_group_name_H-M   'P 1'
_cell_length_a   4.51168203
_cell_length_b   4.53974390
_cell_length_c   17.44137383
_cell_angle_alpha   90.00000000
_cell_angle_beta   90.00000000
_cell_angle_gamma   90.00000000
_symmetry_Int_Tables_number   1
_chemical_formula_structural   Ba3AuBr9
_chemical_formula_sum   'Ba3 Au1 Br9'
_cell_volume   357.23214302
_cell_formula_units_Z   1
loop_
 _symmetry_equiv_pos_site_id
 _symmetry_equiv_pos_as_xyz
  1  'x, y, z'
loop_
 _atom_site_type_symbol
 _atom_site_label
 _atom_site_symmetry_multiplicity
 _atom_site_fract_x
 _atom_site_fract_y
 _atom_site_fract_z
 _atom_site_occupancy
  Ba  Ba0  1  0.25000000  0.00000000  0.09957500  1
  Ba  Ba1  1  0.25000000  0.50000001  0.60673797  1
  Br  Br2  1  0.74999999  0.50000001  0.39581798  1
  Ba  Ba3  1  0.74999999  0.00000000  0.89859896  1
  Br  Br4  1  0.25000000  0.50000001  0.23496699  1
  Br  Br5  1  0.25000000  0.00000000  0.74870896  1
  Br  Br6  1  0.74999999  0.00000000  0.23497599  1
  Br  Br7  1  0.74999999  0.50000001  0.75450296  1
  Br  Br8  1  0.25000000  0.00000000  0.46185298  1
  Br  Br9  1  0.25000000  0.50000001  0.94077696  1
  Br  Br10  1  0.74999999  0.50000001  0.05805600  1
  Br  Br11  1  0.74999999  0.00000000  0.57171497  1
  Au  Au12  1  0.25000000  0.00000000  0.31371499  1
