# generated using pymatgen
data_Ga(CoS2)2
_symmetry_space_group_name_H-M   'P 1'
_cell_length_a   6.64376450
_cell_length_b   6.64376450
_cell_length_c   6.64376450
_cell_angle_alpha   60.00000000
_cell_angle_beta   60.00000000
_cell_angle_gamma   60.00000000
_symmetry_Int_Tables_number   1
_chemical_formula_structural   Ga(CoS2)2
_chemical_formula_sum   'Ga2 Co4 S8'
_cell_volume   207.36129217
_cell_formula_units_Z   2
loop_
 _symmetry_equiv_pos_site_id
 _symmetry_equiv_pos_as_xyz
  1  'x, y, z'
loop_
 _atom_site_type_symbol
 _atom_site_label
 _atom_site_symmetry_multiplicity
 _atom_site_fract_x
 _atom_site_fract_y
 _atom_site_fract_z
 _atom_site_occupancy
  Ga  Ga0  1  0.87524701  0.87524801  0.37425701  1
  Ga  Ga1  1  0.87524701  0.87524801  0.87524801  1
  Co  Co2  1  0.87524701  0.37425701  0.87524801  1
  Co  Co3  1  0.37425601  0.87524801  0.87524801  1
  Co  Co4  1  0.25000000  0.25000000  0.25000000  1
  Co  Co5  1  0.50000001  0.50000001  0.50000001  1
  S  S6  1  0.11239800  0.11239700  0.66280801  1
  S  S7  1  0.11239800  0.11239700  0.11239700  1
  S  S8  1  0.11239800  0.66280801  0.11239700  1
  S  S9  1  0.66280901  0.11239700  0.11239700  1
  S  S10  1  0.63457401  0.63457301  0.09628000  1
  S  S11  1  0.63457401  0.63457301  0.63457301  1
  S  S12  1  0.63457401  0.09628000  0.63457301  1
  S  S13  1  0.09628100  0.63457301  0.63457301  1
