# generated using pymatgen
data_Cs2NaF3
_symmetry_space_group_name_H-M   'P 1'
_cell_length_a   7.08311701
_cell_length_b   7.17421865
_cell_length_c   8.91911888
_cell_angle_alpha   89.45585632
_cell_angle_beta   67.95008850
_cell_angle_gamma   67.08827209
_symmetry_Int_Tables_number   1
_chemical_formula_structural   Cs2NaF3
_chemical_formula_sum   'Cs4 Na2 F6'
_cell_volume   381.95040974
_cell_formula_units_Z   2
loop_
 _symmetry_equiv_pos_site_id
 _symmetry_equiv_pos_as_xyz
  1  'x, y, z'
loop_
 _atom_site_type_symbol
 _atom_site_label
 _atom_site_symmetry_multiplicity
 _atom_site_fract_x
 _atom_site_fract_y
 _atom_site_fract_z
 _atom_site_occupancy
  Cs  Cs0  1  0.72779500  0.67940401  0.90066996  1
  Cs  Cs1  1  0.27220500  0.32059600  0.09932999  1
  Cs  Cs2  1  0.86480000  0.95807501  0.33406498  1
  Cs  Cs3  1  0.13520000  0.04192500  0.66593498  1
  Na  Na4  1  0.43207900  0.45179901  0.67765897  1
  Na  Na5  1  0.56792100  0.54820101  0.32234098  1
  F  F6  1  0.75219000  0.30345700  0.09877098  1
  F  F7  1  0.24780999  0.69654301  0.90122897  1
  F  F8  1  0.51400500  0.12650300  0.72955497  1
  F  F9  1  0.48599499  0.87349701  0.27044499  1
  F  F10  1  0.23852400  0.52931401  0.50586898  1
  F  F11  1  0.76147600  0.47068601  0.49413097  1
