# generated using pymatgen
data_HoFe3Si2
_symmetry_space_group_name_H-M   'P 1'
_cell_length_a   3.71864009
_cell_length_b   5.07569027
_cell_length_c   5.07607841
_cell_angle_alpha   119.98451996
_cell_angle_beta   90.00000000
_cell_angle_gamma   90.00000000
_symmetry_Int_Tables_number   1
_chemical_formula_structural   HoFe3Si2
_chemical_formula_sum   'Ho1 Fe3 Si2'
_cell_volume   82.98621117
_cell_formula_units_Z   1
loop_
 _symmetry_equiv_pos_site_id
 _symmetry_equiv_pos_as_xyz
  1  'x, y, z'
loop_
 _atom_site_type_symbol
 _atom_site_label
 _atom_site_symmetry_multiplicity
 _atom_site_fract_x
 _atom_site_fract_y
 _atom_site_fract_z
 _atom_site_occupancy
  Ho  Ho0  1  0.00000000  0.99996402  0.00007398  1
  Si  Si1  1  0.99999998  0.66666668  0.33345499  1
  Fe  Fe2  1  0.49999999  0.99998002  0.49998299  1
  Fe  Fe3  1  0.49999999  0.50004401  0.49994500  1
  Fe  Fe4  1  0.49999999  0.50000601  0.00000999  1
  Si  Si5  1  0.00000000  0.33333334  0.66663200  1
