# generated using pymatgen
data_Tb12InCo6
_symmetry_space_group_name_H-M   'P 1'
_cell_length_a   8.48436928
_cell_length_b   8.48436928
_cell_length_c   8.48436928
_cell_angle_alpha   109.47122192
_cell_angle_beta   109.47122192
_cell_angle_gamma   109.47122192
_symmetry_Int_Tables_number   1
_chemical_formula_structural   Tb12InCo6
_chemical_formula_sum   'Tb12 In1 Co6'
_cell_volume   470.15036395
_cell_formula_units_Z   1
loop_
 _symmetry_equiv_pos_site_id
 _symmetry_equiv_pos_as_xyz
  1  'x, y, z'
loop_
 _atom_site_type_symbol
 _atom_site_label
 _atom_site_symmetry_multiplicity
 _atom_site_fract_x
 _atom_site_fract_y
 _atom_site_fract_z
 _atom_site_occupancy
  Tb  Tb0  1  0.30297706  0.81083805  0.11381605  1
  Tb  Tb1  1  0.11381602  0.30297702  0.81083904  1
  Tb  Tb2  1  0.30297702  0.18916101  0.49213803  1
  Tb  Tb3  1  0.50786106  0.69702204  0.81083807  1
  Tb  Tb4  1  0.49213903  0.30297802  0.18916203  1
  Tb  Tb5  1  0.81083903  0.11381601  0.30297803  1
  Tb  Tb6  1  0.69702307  0.81083905  0.50786207  1
  Tb  Tb7  1  0.81083906  0.50786203  0.69702306  1
  Tb  Tb8  1  0.18916104  0.49213803  0.30297704  1
  Tb  Tb9  1  0.88618407  0.69702304  0.18916106  1
  Tb  Tb10  1  0.18916106  0.88618406  0.69702207  1
  Tb  Tb11  1  0.69702303  0.18916201  0.88618405  1
  Co  Co12  1  0.50000005  0.62201204  0.12201205  1
  Co  Co13  1  0.87798806  0.50000003  0.37798806  1
  Co  Co14  1  0.12201204  0.50000003  0.62201204  1
  Co  Co15  1  0.50000004  0.37798802  0.87798805  1
  Co  Co16  1  0.37798807  0.87798805  0.50000007  1
  Co  Co17  1  0.62201203  0.12201201  0.50000003  1
  In  In18  1  0.00000000  0.00000000  0.00000000  1
