# generated using pymatgen
data_Li7Mn2CoO10
_symmetry_space_group_name_H-M   'P 1'
_cell_length_a   5.18354607
_cell_length_b   5.25879288
_cell_length_c   7.85832548
_cell_angle_alpha   107.47338867
_cell_angle_beta   102.11332703
_cell_angle_gamma   101.86757660
_symmetry_Int_Tables_number   1
_chemical_formula_structural   Li7Mn2CoO10
_chemical_formula_sum   'Li7 Mn2 Co1 O10'
_cell_volume   191.30899509
_cell_formula_units_Z   1
loop_
 _symmetry_equiv_pos_site_id
 _symmetry_equiv_pos_as_xyz
  1  'x, y, z'
loop_
 _atom_site_type_symbol
 _atom_site_label
 _atom_site_symmetry_multiplicity
 _atom_site_fract_x
 _atom_site_fract_y
 _atom_site_fract_z
 _atom_site_occupancy
  Li  Li0  1  0.42186298  0.80121999  0.31726299  1
  Li  Li1  1  0.57813699  0.19878000  0.68273702  1
  Li  Li2  1  0.00000000  0.00000000  0.50000000  1
  Li  Li3  1  0.49999999  0.00000000  0.00000002  1
  Co  Co4  1  0.22611999  0.39247500  0.88735199  1
  Li  Li5  1  0.77387997  0.60752500  0.11264802  1
  Li  Li6  1  0.29530198  0.61532100  0.60421099  1
  Li  Li7  1  0.70469798  0.38467900  0.39578902  1
  Mn  Mn8  1  0.89097297  0.79029499  0.78844001  1
  Mn  Mn9  1  0.10902699  0.20970500  0.21156000  1
  O  O10  1  0.57616898  0.60984100  0.84693600  1
  O  O11  1  0.42383098  0.39015900  0.15306401  1
  O  O12  1  0.05088899  0.55830000  0.32927098  1
  O  O13  1  0.94911097  0.44170000  0.67072903  1
  O  O14  1  0.13254698  0.83213399  0.04457098  1
  O  O15  1  0.86745298  0.16786600  0.95542903  1
  O  O16  1  0.21786798  0.99063399  0.75044598  1
  O  O17  1  0.78213199  0.00936600  0.24955403  1
  O  O18  1  0.33631499  0.18072100  0.42668501  1
  O  O19  1  0.66368497  0.81927899  0.57331500  1
