# generated using pymatgen
data_Nd(GeRh)2
_symmetry_space_group_name_H-M   'P 1'
_cell_length_a   4.26433802
_cell_length_b   4.26433802
_cell_length_c   9.81120872
_cell_angle_alpha   90.00000000
_cell_angle_beta   90.00000000
_cell_angle_gamma   90.00000000
_symmetry_Int_Tables_number   1
_chemical_formula_structural   Nd(GeRh)2
_chemical_formula_sum   'Nd2 Ge4 Rh4'
_cell_volume   178.41269739
_cell_formula_units_Z   2
loop_
 _symmetry_equiv_pos_site_id
 _symmetry_equiv_pos_as_xyz
  1  'x, y, z'
loop_
 _atom_site_type_symbol
 _atom_site_label
 _atom_site_symmetry_multiplicity
 _atom_site_fract_x
 _atom_site_fract_y
 _atom_site_fract_z
 _atom_site_occupancy
  Nd  Nd0  1  0.00000000  0.50000000  0.25376001  1
  Nd  Nd1  1  0.50000000  0.00000000  0.74624002  1
  Ge  Ge2  1  0.50000000  0.50000000  0.50000001  1
  Ge  Ge3  1  0.50000000  0.00000000  0.13240500  1
  Ge  Ge4  1  0.00000000  0.00000000  0.50000001  1
  Ge  Ge5  1  0.00000000  0.50000000  0.86759502  1
  Rh  Rh6  1  0.00000000  0.00000000  0.00000000  1
  Rh  Rh7  1  0.00000000  0.50000000  0.62093902  1
  Rh  Rh8  1  0.50000000  0.00000000  0.37906101  1
  Rh  Rh9  1  0.50000000  0.50000000  -0.00000000  1
