# generated using pymatgen
data_Ho4Ga4Co
_symmetry_space_group_name_H-M   'P 1'
_cell_length_a   5.94534922
_cell_length_b   8.68111420
_cell_length_c   8.68111420
_cell_angle_alpha   120.00000000
_cell_angle_beta   90.00000000
_cell_angle_gamma   90.00000000
_symmetry_Int_Tables_number   1
_chemical_formula_structural   Ho4Ga4Co
_chemical_formula_sum   'Ho8 Ga8 Co2'
_cell_volume   388.02431362
_cell_formula_units_Z   2
loop_
 _symmetry_equiv_pos_site_id
 _symmetry_equiv_pos_as_xyz
  1  'x, y, z'
loop_
 _atom_site_type_symbol
 _atom_site_label
 _atom_site_symmetry_multiplicity
 _atom_site_fract_x
 _atom_site_fract_y
 _atom_site_fract_z
 _atom_site_occupancy
  Ga  Ga0  1  -0.00000000  0.33333332  0.66666663  1
  Ga  Ga1  1  0.99999996  0.66666665  0.33333331  1
  Ho  Ho2  1  0.49999998  0.66666665  0.33333331  1
  Ho  Ho3  1  0.49999998  0.33333332  0.66666663  1
  Ho  Ho4  1  0.24999999  0.26370199  -0.00000000  1
  Ho  Ho5  1  0.24999999  0.73629798  0.73629795  1
  Ho  Ho6  1  0.24999999  0.00000000  0.26370199  1
  Ho  Ho7  1  0.74999997  0.73629798  -0.00000001  1
  Ho  Ho8  1  0.74999997  0.26370199  0.26370198  1
  Ho  Ho9  1  0.74999997  0.99999997  0.73629795  1
  Ga  Ga10  1  0.24999999  0.60531998  -0.00000001  1
  Ga  Ga11  1  0.24999999  0.39467999  0.39467997  1
  Ga  Ga12  1  0.24999999  0.00000000  0.60531997  1
  Ga  Ga13  1  0.74999997  0.39467999  -0.00000001  1
  Ga  Ga14  1  0.74999997  0.60531998  0.60531996  1
  Ga  Ga15  1  0.74999997  0.99999997  0.39467996  1
  Co  Co16  1  0.00000000  0.00000000  0.00000000  1
  Co  Co17  1  0.49999998  0.00000000  -0.00000000  1
