# generated using pymatgen
data_GaS
_symmetry_space_group_name_H-M   'P 1'
_cell_length_a   6.52053118
_cell_length_b   6.79781485
_cell_length_c   7.85357618
_cell_angle_alpha   90.00000000
_cell_angle_beta   90.00000000
_cell_angle_gamma   90.00000000
_symmetry_Int_Tables_number   1
_chemical_formula_structural   GaS
_chemical_formula_sum   'Ga8 S8'
_cell_volume   348.11262022
_cell_formula_units_Z   8
loop_
 _symmetry_equiv_pos_site_id
 _symmetry_equiv_pos_as_xyz
  1  'x, y, z'
loop_
 _atom_site_type_symbol
 _atom_site_label
 _atom_site_symmetry_multiplicity
 _atom_site_fract_x
 _atom_site_fract_y
 _atom_site_fract_z
 _atom_site_occupancy
  Ga  Ga0  1  0.50582899  0.33905201  -0.00000000  1
  Ga  Ga1  1  0.00582900  0.66094801  0.49999999  1
  Ga  Ga2  1  0.51291199  0.82572202  0.24927999  1
  Ga  Ga3  1  0.01291200  0.17427800  0.25071999  1
  Ga  Ga4  1  0.01291200  0.17427800  0.74927998  1
  Ga  Ga5  1  0.51291199  0.82572202  0.75071998  1
  Ga  Ga6  1  0.00286700  0.66865802  -0.00000000  1
  Ga  Ga7  1  0.50286699  0.33134201  0.49999999  1
  S  S8  1  0.87196198  0.33215101  -0.00000000  1
  S  S9  1  0.37196199  0.66784902  0.49999999  1
  S  S10  1  0.88249898  0.83916102  0.25895199  1
  S  S11  1  0.38249899  0.16083900  0.24104799  1
  S  S12  1  0.38249899  0.16083900  0.75895198  1
  S  S13  1  0.88249898  0.83916102  0.74104798  1
  S  S14  1  0.38101999  0.66455302  -0.00000000  1
  S  S15  1  0.88101998  0.33544701  0.49999999  1
