# generated using pymatgen
data_Mo2S5
_symmetry_space_group_name_H-M   'P 1'
_cell_length_a   3.40542293
_cell_length_b   8.89696312
_cell_length_c   9.97407246
_cell_angle_alpha   115.24750519
_cell_angle_beta   90.00000000
_cell_angle_gamma   90.00000000
_symmetry_Int_Tables_number   1
_chemical_formula_structural   Mo2S5
_chemical_formula_sum   'Mo4 S10'
_cell_volume   273.32623341
_cell_formula_units_Z   2
loop_
 _symmetry_equiv_pos_site_id
 _symmetry_equiv_pos_as_xyz
  1  'x, y, z'
loop_
 _atom_site_type_symbol
 _atom_site_label
 _atom_site_symmetry_multiplicity
 _atom_site_fract_x
 _atom_site_fract_y
 _atom_site_fract_z
 _atom_site_occupancy
  Mo  Mo0  1  0.75000002  0.77574597  0.86224095  1
  Mo  Mo1  1  0.25000001  0.22425399  0.13775899  1
  Mo  Mo2  1  0.75000002  0.07131200  0.40002099  1
  Mo  Mo3  1  0.25000001  0.92868797  0.59997895  1
  S  S4  1  0.75000002  0.13525300  0.64805498  1
  S  S5  1  0.25000001  0.86474697  0.35194495  1
  S  S6  1  0.75000002  0.01276100  0.13465700  1
  S  S7  1  0.25000001  0.98723897  0.86534294  1
  S  S8  1  0.75000002  0.73698398  0.59012195  1
  S  S9  1  0.25000001  0.26301599  0.40987798  1
  S  S10  1  0.75000002  0.46053498  0.24481697  1
  S  S11  1  0.25000001  0.53946498  0.75518296  1
  S  S12  1  0.75000002  0.34103399  0.01744998  1
  S  S13  1  0.25000001  0.65896598  0.98254995  1
