# generated using pymatgen
data_BaGaCuSi2
_symmetry_space_group_name_H-M   'P 1'
_cell_length_a   4.25554180
_cell_length_b   4.25554180
_cell_length_c   5.81849384
_cell_angle_alpha   111.45011902
_cell_angle_beta   111.45011902
_cell_angle_gamma   90.00000000
_symmetry_Int_Tables_number   1
_chemical_formula_structural   BaGaCuSi2
_chemical_formula_sum   'Ba1 Ga1 Si2 Cu1'
_cell_volume   90.18534975
_cell_formula_units_Z   1
loop_
 _symmetry_equiv_pos_site_id
 _symmetry_equiv_pos_as_xyz
  1  'x, y, z'
loop_
 _atom_site_type_symbol
 _atom_site_label
 _atom_site_symmetry_multiplicity
 _atom_site_fract_x
 _atom_site_fract_y
 _atom_site_fract_z
 _atom_site_occupancy
  Ba  Ba0  1  0.00085900  0.00085900  0.00171800  1
  Ga  Ga1  1  0.41480005  0.41480003  0.82960003  1
  Si  Si2  1  0.26398605  0.76398606  0.52797205  1
  Si  Si3  1  0.76398606  0.26398602  0.52797204  1
  Cu  Cu4  1  0.65436907  0.65436905  0.30873806  1
