# generated using pymatgen
data_BaAg3S4
_symmetry_space_group_name_H-M   'P 1'
_cell_length_a   4.15393686
_cell_length_b   4.15393686
_cell_length_c   9.17486763
_cell_angle_alpha   90.00000000
_cell_angle_beta   90.00000000
_cell_angle_gamma   90.00000000
_symmetry_Int_Tables_number   1
_chemical_formula_structural   BaAg3S4
_chemical_formula_sum   'Ba1 Ag3 S4'
_cell_volume   158.31409759
_cell_formula_units_Z   1
loop_
 _symmetry_equiv_pos_site_id
 _symmetry_equiv_pos_as_xyz
  1  'x, y, z'
loop_
 _atom_site_type_symbol
 _atom_site_label
 _atom_site_symmetry_multiplicity
 _atom_site_fract_x
 _atom_site_fract_y
 _atom_site_fract_z
 _atom_site_occupancy
  Ba  Ba0  1  0.00000000  0.50000002  0.84619003  1
  Ag  Ag1  1  0.50000002  0.00000000  0.15381001  1
  Ag  Ag2  1  0.50000002  0.50000002  0.50000002  1
  Ag  Ag3  1  0.00000000  0.00000000  0.50000002  1
  S  S4  1  0.00000000  0.50000002  0.32968901  1
  S  S5  1  0.50000002  0.00000000  0.67031103  1
  S  S6  1  0.50000002  0.50000002  -0.00000000  1
  S  S7  1  0.00000000  0.00000000  0.00000000  1
