# generated using pymatgen
data_CsIn5S8
_symmetry_space_group_name_H-M   'P 1'
_cell_length_a   3.62092209
_cell_length_b   9.23470211
_cell_length_c   9.62581825
_cell_angle_alpha   104.62017059
_cell_angle_beta   100.84098053
_cell_angle_gamma   90.00000000
_symmetry_Int_Tables_number   1
_chemical_formula_structural   CsIn5S8
_chemical_formula_sum   'Cs1 In5 S8'
_cell_volume   305.50710303
_cell_formula_units_Z   1
loop_
 _symmetry_equiv_pos_site_id
 _symmetry_equiv_pos_as_xyz
  1  'x, y, z'
loop_
 _atom_site_type_symbol
 _atom_site_label
 _atom_site_symmetry_multiplicity
 _atom_site_fract_x
 _atom_site_fract_y
 _atom_site_fract_z
 _atom_site_occupancy
  Cs  Cs0  1  0.49999997  0.50000002  -0.00000003  1
  In  In1  1  0.00000000  0.00000000  0.00000000  1
  In  In2  1  0.65573495  0.99902104  0.31146995  1
  In  In3  1  0.70847197  0.34813901  0.41694398  1
  In  In4  1  0.29152797  0.65186102  0.58305597  1
  In  In5  1  0.34426499  0.00097900  0.68853000  1
  S  S6  1  0.57391698  0.17477101  0.14783399  1
  S  S7  1  0.08666897  0.82083603  0.17333796  1
  S  S8  1  0.16046298  0.49774502  0.32092597  1
  S  S9  1  0.24344099  0.16529401  0.48688199  1
  S  S10  1  0.75655895  0.83470703  0.51311795  1
  S  S11  1  0.83953696  0.50225502  0.67907397  1
  S  S12  1  0.91333097  0.17916401  0.82666198  1
  S  S13  1  0.42608296  0.82522903  0.85216596  1
