# generated using pymatgen
data_Cs9BrF6
_symmetry_space_group_name_H-M   'P 1'
_cell_length_a   6.66675806
_cell_length_b   6.94496679
_cell_length_c   12.88316536
_cell_angle_alpha   90.00000000
_cell_angle_beta   90.00000000
_cell_angle_gamma   90.00000000
_symmetry_Int_Tables_number   1
_chemical_formula_structural   Cs9BrF6
_chemical_formula_sum   'Cs9 Br1 F6'
_cell_volume   596.49588137
_cell_formula_units_Z   1
loop_
 _symmetry_equiv_pos_site_id
 _symmetry_equiv_pos_as_xyz
  1  'x, y, z'
loop_
 _atom_site_type_symbol
 _atom_site_label
 _atom_site_symmetry_multiplicity
 _atom_site_fract_x
 _atom_site_fract_y
 _atom_site_fract_z
 _atom_site_occupancy
  Cs  Cs0  1  0.55820899  0.00000000  -0.00000000  1
  Br  Br1  1  0.44179100  0.50000001  0.49999999  1
  Cs  Cs2  1  0.82801599  0.50000001  0.74685198  1
  Cs  Cs3  1  0.82801599  0.50000001  0.25314799  1
  Cs  Cs4  1  0.17198400  0.00000000  0.75314798  1
  Cs  Cs5  1  0.17198400  0.00000000  0.24685199  1
  Cs  Cs6  1  0.33279000  0.50000001  0.87805698  1
  F  F7  1  0.33279000  0.50000001  0.12194300  1
  F  F8  1  0.04006100  0.26829901  -0.00000000  1
  Cs  Cs9  1  0.04006100  0.73170102  -0.00000000  1
  Cs  Cs10  1  0.95993899  0.76829902  0.49999999  1
  F  F11  1  0.95993899  0.23170101  0.49999999  1
  Cs  Cs12  1  0.66720999  0.00000000  0.37805699  1
  F  F13  1  0.66720999  0.00000000  0.62194298  1
  F  F14  1  0.68728199  0.50000001  -0.00000000  1
  F  F15  1  0.31271800  0.00000000  0.49999999  1
