# generated using pymatgen
data_LiMn3O4
_symmetry_space_group_name_H-M   'P 1'
_cell_length_a   2.88220000
_cell_length_b   5.45350361
_cell_length_c   10.07635212
_cell_angle_alpha   100.44036865
_cell_angle_beta   98.22252655
_cell_angle_gamma   90.00000000
_symmetry_Int_Tables_number   1
_chemical_formula_structural   LiMn3O4
_chemical_formula_sum   'Li2 Mn6 O8'
_cell_volume   154.10299548
_cell_formula_units_Z   2
loop_
 _symmetry_equiv_pos_site_id
 _symmetry_equiv_pos_as_xyz
  1  'x, y, z'
loop_
 _atom_site_type_symbol
 _atom_site_label
 _atom_site_symmetry_multiplicity
 _atom_site_fract_x
 _atom_site_fract_y
 _atom_site_fract_z
 _atom_site_occupancy
  Li  Li0  1  0.62289903  0.89014299  0.24579804  1
  Mn  Mn1  1  0.87424402  0.64392999  0.74848803  1
  Li  Li2  1  0.12575601  0.35606999  0.25151201  1
  Mn  Mn3  1  0.37710101  0.10985700  0.75420200  1
  Mn  Mn4  1  0.24792802  0.74899599  0.49585603  1
  Mn  Mn5  1  0.50000002  0.49999999  0.00000002  1
  Mn  Mn6  1  0.75207201  0.25100400  0.50414401  1
  Mn  Mn7  1  0.00000000  0.00000000  0.00000000  1
  O  O8  1  0.55947101  0.17275300  0.11894201  1
  O  O9  1  0.80712903  0.91152799  0.61425804  1
  O  O10  1  0.05337202  0.69019199  0.10674402  1
  O  O11  1  0.30978601  0.41505499  0.61957201  1
  O  O12  1  0.69021402  0.58494499  0.38042803  1
  O  O13  1  0.94662801  0.30980800  0.89325602  1
  O  O14  1  0.19287100  0.08847200  0.38574200  1
  O  O15  1  0.44052903  0.82724699  0.88105803  1
