# generated using pymatgen
data_Cs5LiAuCl4F
_symmetry_space_group_name_H-M   'P 1'
_cell_length_a   7.54316950
_cell_length_b   7.54316950
_cell_length_c   7.87060213
_cell_angle_alpha   61.36689377
_cell_angle_beta   61.36689377
_cell_angle_gamma   60.00000381
_symmetry_Int_Tables_number   1
_chemical_formula_structural   Cs5LiAuCl4F
_chemical_formula_sum   'Cs5 Li1 Au1 Cl4 F1'
_cell_volume   323.05100297
_cell_formula_units_Z   1
loop_
 _symmetry_equiv_pos_site_id
 _symmetry_equiv_pos_as_xyz
  1  'x, y, z'
loop_
 _atom_site_type_symbol
 _atom_site_label
 _atom_site_symmetry_multiplicity
 _atom_site_fract_x
 _atom_site_fract_y
 _atom_site_fract_z
 _atom_site_occupancy
  Cs  Cs0  1  0.20035201  0.20035200  0.39894399  1
  Cs  Cs1  1  0.79964803  0.79964801  0.60105600  1
  Cs  Cs2  1  0.00000000  0.00000000  0.00000000  1
  Cl  Cl3  1  0.50000003  1.00000002  0.00000001  1
  Cl  Cl4  1  0.00000001  0.50000001  0.00000000  1
  Cl  Cl5  1  0.50000002  0.50000001  0.00000001  1
  F  F6  1  0.76651203  0.76651201  0.18753901  1
  Cs  Cs7  1  0.23348802  0.72056301  0.81246099  1
  Li  Li8  1  0.76651202  0.27943700  0.18753901  1
  Au  Au9  1  0.27943702  0.76651201  0.18753900  1
  Cl  Cl10  1  0.23348801  0.23348800  0.81246098  1
  Cs  Cs11  1  0.72056302  0.23348800  0.81246099  1
