# generated using pymatgen
data_B2Mo
_symmetry_space_group_name_H-M   'P 1'
_cell_length_a   3.04306197
_cell_length_b   3.04306197
_cell_length_c   10.31042480
_cell_angle_alpha   90.00000000
_cell_angle_beta   90.00000000
_cell_angle_gamma   120.00000000
_symmetry_Int_Tables_number   1
_chemical_formula_structural   B2Mo
_chemical_formula_sum   'B6 Mo3'
_cell_volume   82.68539102
_cell_formula_units_Z   3
loop_
 _symmetry_equiv_pos_site_id
 _symmetry_equiv_pos_as_xyz
  1  'x, y, z'
loop_
 _atom_site_type_symbol
 _atom_site_label
 _atom_site_symmetry_multiplicity
 _atom_site_fract_x
 _atom_site_fract_y
 _atom_site_fract_z
 _atom_site_occupancy
  Mo  Mo0  1  0.00000000  0.00000000  0.33553301  1
  Mo  Mo1  1  0.00000000  0.00000000  0.66446701  1
  Mo  Mo2  1  0.00000000  0.00000000  0.00000000  1
  B  B3  1  0.33333334  0.66666667  0.15933000  1
  B  B4  1  0.33333334  0.66666667  0.50000001  1
  B  B5  1  0.33333334  0.66666667  0.84067002  1
  B  B6  1  0.66666667  0.33333334  0.15933000  1
  B  B7  1  0.66666667  0.33333334  0.50000001  1
  B  B8  1  0.66666667  0.33333334  0.84067002  1
