# generated using pymatgen
data_Zr2NbP4Pd5
_symmetry_space_group_name_H-M   'P 1'
_cell_length_a   3.78285003
_cell_length_b   6.36849213
_cell_length_c   7.46317720
_cell_angle_alpha   90.00000000
_cell_angle_beta   90.00000000
_cell_angle_gamma   90.00000000
_symmetry_Int_Tables_number   1
_chemical_formula_structural   Zr2NbP4Pd5
_chemical_formula_sum   'Zr2 Nb1 P4 Pd5'
_cell_volume   179.79577976
_cell_formula_units_Z   1
loop_
 _symmetry_equiv_pos_site_id
 _symmetry_equiv_pos_as_xyz
  1  'x, y, z'
loop_
 _atom_site_type_symbol
 _atom_site_label
 _atom_site_symmetry_multiplicity
 _atom_site_fract_x
 _atom_site_fract_y
 _atom_site_fract_z
 _atom_site_occupancy
  Nb  Nb0  1  0.25000000  0.02993300  0.32367999  1
  Zr  Zr1  1  0.25000000  0.52993299  0.17632000  1
  Pd  Pd2  1  0.74999999  0.97006698  0.67631998  1
  Zr  Zr3  1  0.74999999  0.47006699  0.82367998  1
  P  P4  1  0.25000000  0.25488599  0.62593298  1
  P  P5  1  0.25000000  0.75488599  0.87406698  1
  P  P6  1  0.74999999  0.74511399  0.37406699  1
  P  P7  1  0.74999999  0.24511400  0.12593300  1
  Pd  Pd8  1  0.25000000  0.14625200  0.93739297  1
  Pd  Pd9  1  0.25000000  0.64625199  0.56260698  1
  Pd  Pd10  1  0.74999999  0.85374798  0.06260700  1
  Pd  Pd11  1  0.74999999  0.35374799  0.43739299  1
