# generated using pymatgen
data_LuSc(SiPt)2
_symmetry_space_group_name_H-M   'P 1'
_cell_length_a   3.85887694
_cell_length_b   6.64498520
_cell_length_c   7.48330498
_cell_angle_alpha   90.00000000
_cell_angle_beta   90.00000000
_cell_angle_gamma   90.00000000
_symmetry_Int_Tables_number   1
_chemical_formula_structural   LuSc(SiPt)2
_chemical_formula_sum   'Lu2 Sc2 Si4 Pt4'
_cell_volume   191.88825453
_cell_formula_units_Z   2
loop_
 _symmetry_equiv_pos_site_id
 _symmetry_equiv_pos_as_xyz
  1  'x, y, z'
loop_
 _atom_site_type_symbol
 _atom_site_label
 _atom_site_symmetry_multiplicity
 _atom_site_fract_x
 _atom_site_fract_y
 _atom_site_fract_z
 _atom_site_occupancy
  Lu  Lu0  1  0.25000000  0.03164900  0.18059100  1
  Sc  Sc1  1  0.25000000  0.53164898  0.31940900  1
  Sc  Sc2  1  0.75000001  0.46835099  0.68059100  1
  Lu  Lu3  1  0.75000001  0.96835097  0.81940900  1
  Si  Si4  1  0.75000001  0.75503498  0.12514600  1
  Si  Si5  1  0.75000001  0.25503499  0.37485400  1
  Si  Si6  1  0.25000000  0.74496498  0.62514600  1
  Si  Si7  1  0.25000000  0.24496499  0.87485400  1
  Pt  Pt8  1  0.75000001  0.34753599  0.06189100  1
  Pt  Pt9  1  0.75000001  0.84753597  0.43810900  1
  Pt  Pt10  1  0.25000000  0.15246400  0.56189100  1
  Pt  Pt11  1  0.25000000  0.65246398  0.93810900  1
