# generated using pymatgen
data_Li4OF3
_symmetry_space_group_name_H-M   'P 1'
_cell_length_a   4.24625587
_cell_length_b   4.34398794
_cell_length_c   5.44084263
_cell_angle_alpha   90.00001526
_cell_angle_beta   89.62371826
_cell_angle_gamma   90.00000000
_symmetry_Int_Tables_number   1
_chemical_formula_structural   Li4OF3
_chemical_formula_sum   'Li4 O1 F3'
_cell_volume   100.35790128
_cell_formula_units_Z   1
loop_
 _symmetry_equiv_pos_site_id
 _symmetry_equiv_pos_as_xyz
  1  'x, y, z'
loop_
 _atom_site_type_symbol
 _atom_site_label
 _atom_site_symmetry_multiplicity
 _atom_site_fract_x
 _atom_site_fract_y
 _atom_site_fract_z
 _atom_site_occupancy
  O  O0  1  0.40003103  0.50000501  0.10000001  1
  F  F1  1  0.40003405  0.99999202  0.60000104  1
  F  F2  1  0.90003401  0.00000800  0.10000000  1
  F  F3  1  0.90003104  0.49999401  0.60000302  1
  Li  Li4  1  0.65001702  0.24784301  0.84999902  1
  Li  Li5  1  0.15002004  0.74784202  0.84999904  1
  Li  Li6  1  0.65001702  0.25215801  0.34999901  1
  Li  Li7  1  0.15002004  0.75215902  0.34999903  1
