# generated using pymatgen
data_CsK3Eu2(GeS5)2
_symmetry_space_group_name_H-M   'P 1'
_cell_length_a   8.24296284
_cell_length_b   8.24296284
_cell_length_c   8.94962025
_cell_angle_alpha   116.77593994
_cell_angle_beta   116.77593994
_cell_angle_gamma   91.24644470
_symmetry_Int_Tables_number   1
_chemical_formula_structural   CsK3Eu2(GeS5)2
_chemical_formula_sum   'Cs1 K3 Eu2 Ge2 S10'
_cell_volume   465.02035242
_cell_formula_units_Z   1
loop_
 _symmetry_equiv_pos_site_id
 _symmetry_equiv_pos_as_xyz
  1  'x, y, z'
loop_
 _atom_site_type_symbol
 _atom_site_label
 _atom_site_symmetry_multiplicity
 _atom_site_fract_x
 _atom_site_fract_y
 _atom_site_fract_z
 _atom_site_occupancy
  Cs  Cs0  1  0.75000011  0.75000003  0.50000013  1
  K  K1  1  0.25000004  0.25000001  0.50000005  1
  K  K2  1  0.84147709  0.65852302  1.00000013  1
  K  K3  1  0.15852305  0.34147701  1.00000006  1
  Eu  Eu4  1  0.66645002  0.16645001  1.00000006  1
  Eu  Eu5  1  0.33355012  0.83355003  1.00000013  1
  Ge  Ge6  1  0.24777011  0.74777003  0.49554111  1
  Ge  Ge7  1  0.75223003  0.25223001  0.50445907  1
  S  S8  1  0.50000007  0.50000002  1.00000009  1
  S  S9  1  0.00000000  0.00000000  0.00000000  1
  S  S10  1  0.49930504  0.27840401  0.27770906  1
  S  S11  1  0.77840414  0.99930504  0.27770916  1
  S  S12  1  0.30328712  0.80328703  0.29255011  1
  S  S13  1  0.98926307  0.48926302  0.29255010  1
  S  S14  1  0.50069510  0.72159603  0.72229112  1
  S  S15  1  0.22159600  0.00069500  0.72229102  1
  S  S16  1  0.69671303  0.19671301  0.70745006  1
  S  S17  1  0.01073707  0.51073702  0.70745007  1
