# generated using pymatgen
data_Ho(GePd)2
_symmetry_space_group_name_H-M   'P 1'
_cell_length_a   4.08957195
_cell_length_b   4.08957243
_cell_length_c   6.96096277
_cell_angle_alpha   90.00000000
_cell_angle_beta   90.00000000
_cell_angle_gamma   119.99999237
_symmetry_Int_Tables_number   1
_chemical_formula_structural   Ho(GePd)2
_chemical_formula_sum   'Ho1 Ge2 Pd2'
_cell_volume   100.82209888
_cell_formula_units_Z   1
loop_
 _symmetry_equiv_pos_site_id
 _symmetry_equiv_pos_as_xyz
  1  'x, y, z'
loop_
 _atom_site_type_symbol
 _atom_site_label
 _atom_site_symmetry_multiplicity
 _atom_site_fract_x
 _atom_site_fract_y
 _atom_site_fract_z
 _atom_site_occupancy
  Ho  Ho0  1  0.66666666  0.33333334  0.00416000  1
  Pd  Pd1  1  0.00000000  0.00000000  0.62525002  1
  Pd  Pd2  1  0.33333331  0.66666669  0.36599801  1
  Ge  Ge3  1  0.33333331  0.66666669  0.74264402  1
  Ge  Ge4  1  0.00000000  0.00000000  0.26194701  1
