# generated using pymatgen
data_Tb5InGe14
_symmetry_space_group_name_H-M   'P 1'
_cell_length_a   4.25791788
_cell_length_b   8.31129456
_cell_length_c   12.85658836
_cell_angle_alpha   95.49312592
_cell_angle_beta   90.00000000
_cell_angle_gamma   104.84188843
_symmetry_Int_Tables_number   1
_chemical_formula_structural   Tb5InGe14
_chemical_formula_sum   'Tb5 In1 Ge14'
_cell_volume   437.63772627
_cell_formula_units_Z   1
loop_
 _symmetry_equiv_pos_site_id
 _symmetry_equiv_pos_as_xyz
  1  'x, y, z'
loop_
 _atom_site_type_symbol
 _atom_site_label
 _atom_site_symmetry_multiplicity
 _atom_site_fract_x
 _atom_site_fract_y
 _atom_site_fract_z
 _atom_site_occupancy
  Tb  Tb0  1  0.84008805  0.68017603  0.45758202  1
  Tb  Tb1  1  0.81125205  0.62250403  0.13366301  1
  Tb  Tb2  1  0.98252707  0.96505404  0.70156903  1
  Tb  Tb3  1  0.01747300  0.03494600  0.29843101  1
  Ge  Ge4  1  0.00000000  0.00000000  0.00000000  1
  Tb  Tb5  1  0.15991202  0.31982401  0.54241802  1
  Ge  Ge6  1  0.18874802  0.37749602  0.86633702  1
  Ge  Ge7  1  0.77597905  0.55195803  0.69835302  1
  Ge  Ge8  1  0.22402103  0.44804202  0.30164701  1
  Ge  Ge9  1  0.39107805  0.78215604  0.82899303  1
  Ge  Ge10  1  0.60892203  0.21784401  0.17100701  1
  In  In11  1  0.50000006  1.00000005  0.50000003  1
  Ge  Ge12  1  0.17595702  0.35191402  0.10543101  1
  Ge  Ge13  1  0.65181103  0.30362201  0.37996001  1
  Ge  Ge14  1  0.82404305  0.64808603  0.89456903  1
  Ge  Ge15  1  0.55350002  0.10700000  0.85916802  1
  Ge  Ge16  1  0.44650005  0.89300004  0.14083202  1
  Ge  Ge17  1  0.61285303  0.22570601  0.68413002  1
  Ge  Ge18  1  0.38714705  0.77429404  0.31587002  1
  Ge  Ge19  1  0.34818904  0.69637803  0.62004002  1
