# generated using pymatgen
data_BaCu2P5
_symmetry_space_group_name_H-M   'P 1'
_cell_length_a   3.87708902
_cell_length_b   3.87708902
_cell_length_c   9.27629089
_cell_angle_alpha   90.00000000
_cell_angle_beta   90.00000000
_cell_angle_gamma   90.00000000
_symmetry_Int_Tables_number   1
_chemical_formula_structural   BaCu2P5
_chemical_formula_sum   'Ba1 Cu2 P5'
_cell_volume   139.43952846
_cell_formula_units_Z   1
loop_
 _symmetry_equiv_pos_site_id
 _symmetry_equiv_pos_as_xyz
  1  'x, y, z'
loop_
 _atom_site_type_symbol
 _atom_site_label
 _atom_site_symmetry_multiplicity
 _atom_site_fract_x
 _atom_site_fract_y
 _atom_site_fract_z
 _atom_site_occupancy
  P  P0  1  0.00000000  0.00000000  0.00000000  1
  P  P1  1  0.50000000  0.50000000  0.73267001  1
  P  P2  1  0.50000000  0.50000000  0.26733000  1
  Ba  Ba3  1  0.00000000  0.00000000  0.50000001  1
  P  P4  1  0.50000000  0.00000000  0.85552601  1
  P  P5  1  0.00000000  0.50000000  0.85552601  1
  Cu  Cu6  1  0.50000000  0.00000000  0.14447400  1
  Cu  Cu7  1  0.00000000  0.50000000  0.14447400  1
