# generated using pymatgen
data_Cs2GeF4
_symmetry_space_group_name_H-M   'P 1'
_cell_length_a   6.27665186
_cell_length_b   7.73514986
_cell_length_c   8.21798420
_cell_angle_alpha   99.79158020
_cell_angle_beta   112.45050049
_cell_angle_gamma   90.00000000
_symmetry_Int_Tables_number   1
_chemical_formula_structural   Cs2GeF4
_chemical_formula_sum   'Cs4 Ge2 F8'
_cell_volume   362.45381200
_cell_formula_units_Z   2
loop_
 _symmetry_equiv_pos_site_id
 _symmetry_equiv_pos_as_xyz
  1  'x, y, z'
loop_
 _atom_site_type_symbol
 _atom_site_label
 _atom_site_symmetry_multiplicity
 _atom_site_fract_x
 _atom_site_fract_y
 _atom_site_fract_z
 _atom_site_occupancy
  Cs  Cs0  1  0.18140101  0.68876100  0.36280202  1
  Cs  Cs1  1  0.81859902  0.31123900  0.63719804  1
  Cs  Cs2  1  0.54597802  0.25894800  0.09195601  1
  Cs  Cs3  1  0.45402201  0.74105200  0.90804405  1
  Ge  Ge4  1  0.10402000  0.15492800  0.20804001  1
  Ge  Ge5  1  0.89598003  0.84507200  0.79196005  1
  F  F6  1  0.03490000  0.32031300  0.06980000  1
  F  F7  1  0.89103802  0.06997800  0.27858202  1
  F  F8  1  0.38754401  0.06997800  0.27858202  1
  F  F9  1  0.65753802  0.54705400  0.31507602  1
  F  F10  1  0.34246201  0.45294600  0.68492404  1
  F  F11  1  0.61245602  0.93002200  0.72141805  1
  F  F12  1  0.10896200  0.93002200  0.72141804  1
  F  F13  1  0.96510003  0.67968700  0.93020006  1
