# generated using pymatgen
data_HoGa4Co
_symmetry_space_group_name_H-M   'P 1'
_cell_length_a   5.05103207
_cell_length_b   5.05103207
_cell_length_c   5.16736984
_cell_angle_alpha   60.74200058
_cell_angle_beta   60.74200058
_cell_angle_gamma   60.00000000
_symmetry_Int_Tables_number   1
_chemical_formula_structural   HoGa4Co
_chemical_formula_sum   'Ho1 Ga4 Co1'
_cell_volume   94.25308655
_cell_formula_units_Z   1
loop_
 _symmetry_equiv_pos_site_id
 _symmetry_equiv_pos_as_xyz
  1  'x, y, z'
loop_
 _atom_site_type_symbol
 _atom_site_label
 _atom_site_symmetry_multiplicity
 _atom_site_fract_x
 _atom_site_fract_y
 _atom_site_fract_z
 _atom_site_occupancy
  Ho  Ho0  1  0.12267300  0.12267300  0.63198098  1
  Ga  Ga1  1  0.87732699  0.87732699  0.36801894  1
  Ga  Ga2  1  -0.00000000  0.49999999  -0.00000002  1
  Ga  Ga3  1  0.49999999  0.99999999  -0.00000005  1
  Co  Co4  1  0.49999999  0.49999999  -0.00000003  1
  Ga  Ga5  1  0.49999999  0.49999999  0.49999996  1
