# generated using pymatgen
data_DyTaCrSi3
_symmetry_space_group_name_H-M   'P 1'
_cell_length_a   4.91956997
_cell_length_b   4.91956949
_cell_length_c   4.91956997
_cell_angle_alpha   59.99999237
_cell_angle_beta   59.99999619
_cell_angle_gamma   59.99999237
_symmetry_Int_Tables_number   1
_chemical_formula_structural   DyTaCrSi3
_chemical_formula_sum   'Dy1 Ta1 Cr1 Si3'
_cell_volume   84.19112693
_cell_formula_units_Z   1
loop_
 _symmetry_equiv_pos_site_id
 _symmetry_equiv_pos_as_xyz
  1  'x, y, z'
loop_
 _atom_site_type_symbol
 _atom_site_label
 _atom_site_symmetry_multiplicity
 _atom_site_fract_x
 _atom_site_fract_y
 _atom_site_fract_z
 _atom_site_occupancy
  Ta  Ta0  1  0.62499997  0.12499999  0.12500001  1
  Dy  Dy1  1  0.37499996  0.87499996  0.87500001  1
  Si  Si2  1  0.49999996  0.49999998  0.50000001  1
  Si  Si3  1  0.00000000  0.00000000  0.49999999  1
  Si  Si4  1  -0.00000001  0.49999998  0.00000001  1
  Cr  Cr5  1  -0.00000001  0.49999998  0.50000000  1
