# generated using pymatgen
data_B2O3
_symmetry_space_group_name_H-M   'P 1'
_cell_length_a   4.16952705
_cell_length_b   4.57793331
_cell_length_c   4.57793331
_cell_angle_alpha   118.67071533
_cell_angle_beta   90.00000000
_cell_angle_gamma   90.00000000
_symmetry_Int_Tables_number   1
_chemical_formula_structural   B2O3
_chemical_formula_sum   'B4 O6'
_cell_volume   76.66888398
_cell_formula_units_Z   2
loop_
 _symmetry_equiv_pos_site_id
 _symmetry_equiv_pos_as_xyz
  1  'x, y, z'
loop_
 _atom_site_type_symbol
 _atom_site_label
 _atom_site_symmetry_multiplicity
 _atom_site_fract_x
 _atom_site_fract_y
 _atom_site_fract_z
 _atom_site_occupancy
  B  B0  1  0.43246899  0.82355805  0.49275406  1
  B  B1  1  0.93246899  0.17644201  0.50724602  1
  B  B2  1  0.93246899  0.50724603  0.17644203  1
  B  B3  1  0.43246899  0.49275403  0.82355805  1
  O  O4  1  0.49625399  0.74057704  0.74057706  1
  O  O5  1  0.99625399  0.25942301  0.25942302  1
  O  O6  1  0.58310299  0.15976501  0.58204203  1
  O  O7  1  0.08310300  0.84023505  0.41795806  1
  O  O8  1  0.08310300  0.41795802  0.84023505  1
  O  O9  1  0.58310299  0.58204203  0.15976504  1
