# generated using pymatgen
data_Ba(CdGe)2
_symmetry_space_group_name_H-M   'P 1'
_cell_length_a   4.71444988
_cell_length_b   4.71444988
_cell_length_c   6.78349495
_cell_angle_alpha   110.33412170
_cell_angle_beta   110.33412170
_cell_angle_gamma   90.00000000
_symmetry_Int_Tables_number   1
_chemical_formula_structural   Ba(CdGe)2
_chemical_formula_sum   'Ba1 Cd2 Ge2'
_cell_volume   131.30827612
_cell_formula_units_Z   1
loop_
 _symmetry_equiv_pos_site_id
 _symmetry_equiv_pos_as_xyz
  1  'x, y, z'
loop_
 _atom_site_type_symbol
 _atom_site_label
 _atom_site_symmetry_multiplicity
 _atom_site_fract_x
 _atom_site_fract_y
 _atom_site_fract_z
 _atom_site_occupancy
  Ba  Ba0  1  0.99649898  0.99649901  0.99299796  1
  Ge  Ge1  1  0.38318999  0.38319000  0.76637999  1
  Cd  Cd2  1  0.25895998  0.75896001  0.51791998  1
  Cd  Cd3  1  0.75896000  0.25896000  0.51791998  1
  Ge  Ge4  1  0.60239099  0.60239100  0.20478197  1
