# generated using pymatgen
data_Ba2VSe6
_symmetry_space_group_name_H-M   'P 1'
_cell_length_a   6.74748707
_cell_length_b   6.74748707
_cell_length_c   6.74748707
_cell_angle_alpha   99.42245483
_cell_angle_beta   114.71744537
_cell_angle_gamma   114.71744537
_symmetry_Int_Tables_number   1
_chemical_formula_structural   Ba2VSe6
_chemical_formula_sum   'Ba2 V1 Se6'
_cell_volume   231.17172645
_cell_formula_units_Z   1
loop_
 _symmetry_equiv_pos_site_id
 _symmetry_equiv_pos_as_xyz
  1  'x, y, z'
loop_
 _atom_site_type_symbol
 _atom_site_label
 _atom_site_symmetry_multiplicity
 _atom_site_fract_x
 _atom_site_fract_y
 _atom_site_fract_z
 _atom_site_occupancy
  Ba  Ba0  1  0.49999994  0.74866395  0.24866395  1
  Ba  Ba1  1  0.49999997  0.24866398  0.74866395  1
  V  V2  1  -0.00000005  0.99973294  0.99973292  1
  Se  Se3  1  -0.00000002  0.28692198  0.28692198  1
  Se  Se4  1  -0.00000004  0.73011595  0.73011594  1
  Se  Se5  1  0.38321497  0.18998299  0.18998298  1
  Se  Se6  1  0.61678493  0.80676795  0.80676793  1
  Se  Se7  1  -0.00000004  0.80676795  0.18998296  1
  Se  Se8  1  0.99999995  0.18998299  0.80676795  1
