# generated using pymatgen
data_Hg3Br5
_symmetry_space_group_name_H-M   'P 1'
_cell_length_a   4.17206383
_cell_length_b   10.83216381
_cell_length_c   11.93111229
_cell_angle_alpha   65.50188446
_cell_angle_beta   79.93067169
_cell_angle_gamma   78.89675140
_symmetry_Int_Tables_number   1
_chemical_formula_structural   Hg3Br5
_chemical_formula_sum   'Hg6 Br10'
_cell_volume   478.73939247
_cell_formula_units_Z   2
loop_
 _symmetry_equiv_pos_site_id
 _symmetry_equiv_pos_as_xyz
  1  'x, y, z'
loop_
 _atom_site_type_symbol
 _atom_site_label
 _atom_site_symmetry_multiplicity
 _atom_site_fract_x
 _atom_site_fract_y
 _atom_site_fract_z
 _atom_site_occupancy
  Hg  Hg0  1  0.83708995  0.88857101  0.43724904  1
  Hg  Hg1  1  0.16291000  0.11142900  0.56275099  1
  Hg  Hg2  1  0.20265894  0.69160401  0.90307801  1
  Hg  Hg3  1  0.79734100  0.30839601  0.09692202  1
  Hg  Hg4  1  0.45049499  0.32787301  0.77113700  1
  Hg  Hg5  1  0.54950496  0.67212701  0.22886303  1
  Br  Br6  1  0.96091896  0.85646101  0.22170104  1
  Br  Br7  1  0.17807196  0.50026401  0.14359202  1
  Br  Br8  1  0.71474094  0.91876402  0.65175403  1
  Br  Br9  1  0.59647595  0.82985501  0.97719302  1
  Br  Br10  1  0.40352400  0.17014500  0.02280701  1
  Br  Br11  1  0.82192799  0.49973601  0.85640801  1
  Br  Br12  1  0.03908099  0.14353900  0.77829899  1
  Br  Br13  1  0.28525900  0.08123600  0.34824600  1
  Br  Br14  1  0.39791195  0.67434201  0.52983402  1
  Br  Br15  1  0.60208799  0.32565801  0.47016601  1
