# generated using pymatgen
data_LaGe3Ir
_symmetry_space_group_name_H-M   'P 1'
_cell_length_a   4.42504978
_cell_length_b   4.42504978
_cell_length_c   9.95037460
_cell_angle_alpha   90.00000000
_cell_angle_beta   90.00000000
_cell_angle_gamma   90.00000000
_symmetry_Int_Tables_number   1
_chemical_formula_structural   LaGe3Ir
_chemical_formula_sum   'La2 Ge6 Ir2'
_cell_volume   194.83893757
_cell_formula_units_Z   2
loop_
 _symmetry_equiv_pos_site_id
 _symmetry_equiv_pos_as_xyz
  1  'x, y, z'
loop_
 _atom_site_type_symbol
 _atom_site_label
 _atom_site_symmetry_multiplicity
 _atom_site_fract_x
 _atom_site_fract_y
 _atom_site_fract_z
 _atom_site_occupancy
  La  La0  1  0.00000000  0.50000002  0.25554101  1
  La  La1  1  0.50000002  0.00000000  0.74445903  1
  Ge  Ge2  1  0.00000000  0.50000002  0.86708403  1
  Ge  Ge3  1  0.50000002  0.00000000  0.13291601  1
  Ge  Ge4  1  0.50000002  0.50000002  0.50000002  1
  Ge  Ge5  1  0.00000000  0.00000000  0.50000002  1
  Ge  Ge6  1  0.50000002  0.50000002  -0.00000000  1
  Ge  Ge7  1  0.00000000  0.00000000  0.00000000  1
  Ir  Ir8  1  0.00000000  0.50000002  0.62135102  1
  Ir  Ir9  1  0.50000002  0.00000000  0.37864902  1
