# generated using pymatgen
data_Lu(CoGe)2
_symmetry_space_group_name_H-M   'P 1'
_cell_length_a   3.92202401
_cell_length_b   3.92452598
_cell_length_c   10.67156315
_cell_angle_alpha   90.00000000
_cell_angle_beta   100.58887482
_cell_angle_gamma   90.00000000
_symmetry_Int_Tables_number   1
_chemical_formula_structural   Lu(CoGe)2
_chemical_formula_sum   'Lu2 Co4 Ge4'
_cell_volume   161.46047345
_cell_formula_units_Z   2
loop_
 _symmetry_equiv_pos_site_id
 _symmetry_equiv_pos_as_xyz
  1  'x, y, z'
loop_
 _atom_site_type_symbol
 _atom_site_label
 _atom_site_symmetry_multiplicity
 _atom_site_fract_x
 _atom_site_fract_y
 _atom_site_fract_z
 _atom_site_occupancy
  Lu  Lu0  1  0.66884599  0.50000000  0.33769201  1
  Lu  Lu1  1  0.33115400  0.50000000  0.66230802  1
  Ge  Ge2  1  0.55619800  0.00000000  0.11239600  1
  Co  Co3  1  0.44380200  0.00000000  0.88760403  1
  Co  Co4  1  0.78193399  0.00000000  0.56386802  1
  Ge  Ge5  1  0.21806600  0.00000000  0.43613202  1
  Ge  Ge6  1  0.05613300  0.50000000  0.11226600  1
  Co  Co7  1  0.94386699  0.50000000  0.88773403  1
  Ge  Ge8  1  0.88918299  0.00000000  0.77836602  1
  Co  Co9  1  0.11081700  0.00000000  0.22163401  1
