# generated using pymatgen
data_CrS
_symmetry_space_group_name_H-M   'P 1'
_cell_length_a   3.20809388
_cell_length_b   5.79284811
_cell_length_c   5.84974384
_cell_angle_alpha   90.00000000
_cell_angle_beta   90.00000000
_cell_angle_gamma   90.00000000
_symmetry_Int_Tables_number   1
_chemical_formula_structural   CrS
_chemical_formula_sum   'Cr4 S4'
_cell_volume   108.71164297
_cell_formula_units_Z   4
loop_
 _symmetry_equiv_pos_site_id
 _symmetry_equiv_pos_as_xyz
  1  'x, y, z'
loop_
 _atom_site_type_symbol
 _atom_site_label
 _atom_site_symmetry_multiplicity
 _atom_site_fract_x
 _atom_site_fract_y
 _atom_site_fract_z
 _atom_site_occupancy
  Cr  Cr0  1  0.25000001  0.80225598  0.98969603  1
  Cr  Cr1  1  0.25000001  0.69774399  0.48969601  1
  Cr  Cr2  1  0.75000003  0.30225599  0.51030401  1
  Cr  Cr3  1  0.75000003  0.19774400  0.01030400  1
  S  S4  1  0.75000003  0.92316298  0.71977602  1
  S  S5  1  0.25000001  0.07683700  0.28022401  1
  S  S6  1  0.25000001  0.42316299  0.78022402  1
  S  S7  1  0.75000003  0.57683699  0.21977601  1
