# generated using pymatgen
data_Cs6S3O2F
_symmetry_space_group_name_H-M   'P 1'
_cell_length_a   7.55254984
_cell_length_b   7.55254984
_cell_length_c   7.55254984
_cell_angle_alpha   75.77259064
_cell_angle_beta   67.84494019
_cell_angle_gamma   112.15505981
_symmetry_Int_Tables_number   1
_chemical_formula_structural   Cs6S3O2F
_chemical_formula_sum   'Cs6 S3 O2 F1'
_cell_volume   329.57603447
_cell_formula_units_Z   1
loop_
 _symmetry_equiv_pos_site_id
 _symmetry_equiv_pos_as_xyz
  1  'x, y, z'
loop_
 _atom_site_type_symbol
 _atom_site_label
 _atom_site_symmetry_multiplicity
 _atom_site_fract_x
 _atom_site_fract_y
 _atom_site_fract_z
 _atom_site_occupancy
  Cs  Cs0  1  0.50000005  0.75000003  0.74999998  1
  Cs  Cs1  1  1.00000007  0.73538203  0.26461796  1
  Cs  Cs2  1  1.00000004  0.26461801  0.73538197  1
  Cs  Cs3  1  0.50000003  0.25000001  0.24999998  1
  S  S4  1  0.33475101  0.08848900  0.75373800  1
  Cs  Cs5  1  0.15777202  0.24626101  0.08848999  1
  F  F6  1  0.84222806  0.75373903  0.91150997  1
  O  O7  1  0.66524907  0.91151104  0.24626197  1
  Cs  Cs8  1  0.99394304  0.24433001  0.25038697  1
  O  O9  1  0.49471703  0.25038701  0.75566999  1
  S  S10  1  0.50528305  0.74961303  0.24432997  1
  S  S11  1  0.00605704  0.75567003  0.74961300  1
