# generated using pymatgen
data_Sc4NbGa11
_symmetry_space_group_name_H-M   'P 1'
_cell_length_a   5.56725597
_cell_length_b   7.99342585
_cell_length_c   7.99342537
_cell_angle_alpha   120.00000000
_cell_angle_beta   90.00000000
_cell_angle_gamma   90.00000000
_symmetry_Int_Tables_number   1
_chemical_formula_structural   Sc4NbGa11
_chemical_formula_sum   'Sc4 Nb1 Ga11'
_cell_volume   308.06169213
_cell_formula_units_Z   1
loop_
 _symmetry_equiv_pos_site_id
 _symmetry_equiv_pos_as_xyz
  1  'x, y, z'
loop_
 _atom_site_type_symbol
 _atom_site_label
 _atom_site_symmetry_multiplicity
 _atom_site_fract_x
 _atom_site_fract_y
 _atom_site_fract_z
 _atom_site_occupancy
  Nb  Nb0  1  1.00000000  0.66666666  0.33333328  1
  Sc  Sc1  1  0.50000000  0.33333333  0.66666662  1
  Ga  Ga2  1  1.00000000  0.33333333  0.66666662  1
  Ga  Ga3  1  0.50000000  0.66666666  0.33333328  1
  Sc  Sc4  1  0.75000000  0.74747499  0.74747493  1
  Ga  Ga5  1  0.25000000  0.74747499  -0.00000005  1
  Ga  Ga6  1  0.25000000  0.00000000  0.74747498  1
  Ga  Ga7  1  0.75000000  0.00000000  0.25252499  1
  Sc  Sc8  1  0.75000000  0.25252500  -0.00000002  1
  Sc  Sc9  1  0.25000000  0.25252500  0.25252498  1
  Ga  Ga10  1  0.75000000  0.38973099  0.38973096  1
  Ga  Ga11  1  0.25000000  0.38973099  -0.00000003  1
  Ga  Ga12  1  0.25000000  0.00000000  0.38973099  1
  Ga  Ga13  1  0.75000000  0.00000000  0.61026898  1
  Ga  Ga14  1  0.75000000  0.61026899  -0.00000004  1
  Ga  Ga15  1  0.25000000  0.61026899  0.61026894  1
