# generated using pymatgen
data_Cs3Sb2I9
_symmetry_space_group_name_H-M   'P 1'
_cell_length_a   8.68717575
_cell_length_b   8.68717575
_cell_length_c   10.60346031
_cell_angle_alpha   90.00000000
_cell_angle_beta   90.00000000
_cell_angle_gamma   120.00000000
_symmetry_Int_Tables_number   1
_chemical_formula_structural   Cs3Sb2I9
_chemical_formula_sum   'Cs3 Sb2 I9'
_cell_volume   693.00355512
_cell_formula_units_Z   1
loop_
 _symmetry_equiv_pos_site_id
 _symmetry_equiv_pos_as_xyz
  1  'x, y, z'
loop_
 _atom_site_type_symbol
 _atom_site_label
 _atom_site_symmetry_multiplicity
 _atom_site_fract_x
 _atom_site_fract_y
 _atom_site_fract_z
 _atom_site_occupancy
  Cs  Cs0  1  0.00000000  0.00000000  0.00000000  1
  Cs  Cs1  1  0.33333334  0.66666668  0.32570399  1
  Cs  Cs2  1  0.66666668  0.33333334  0.67429598  1
  Sb  Sb3  1  0.33333334  0.66666668  0.81536598  1
  Sb  Sb4  1  0.66666668  0.33333334  0.18463399  1
  I  I5  1  0.50000001  0.00000000  0.00000000  1
  I  I6  1  0.50000001  0.50000001  0.99999997  1
  I  I7  1  1.00000003  0.50000001  -0.00000000  1
  I  I8  1  0.82860402  0.65720801  0.33556699  1
  I  I9  1  0.82860402  0.17139600  0.33556699  1
  I  I10  1  0.34279201  0.17139600  0.33556699  1
  I  I11  1  0.65720801  0.82860401  0.66443298  1
  I  I12  1  0.17139600  0.82860401  0.66443298  1
  I  I13  1  0.17139600  0.34279201  0.66443298  1
