# generated using pymatgen
data_Li4Ga(SiO4)2
_symmetry_space_group_name_H-M   'P 1'
_cell_length_a   5.22969103
_cell_length_b   5.23094034
_cell_length_c   6.41702080
_cell_angle_alpha   89.83290100
_cell_angle_beta   89.87706757
_cell_angle_gamma   88.58526611
_symmetry_Int_Tables_number   1
_chemical_formula_structural   Li4Ga(SiO4)2
_chemical_formula_sum   'Li4 Ga1 Si2 O8'
_cell_volume   175.49068111
_cell_formula_units_Z   1
loop_
 _symmetry_equiv_pos_site_id
 _symmetry_equiv_pos_as_xyz
  1  'x, y, z'
loop_
 _atom_site_type_symbol
 _atom_site_label
 _atom_site_symmetry_multiplicity
 _atom_site_fract_x
 _atom_site_fract_y
 _atom_site_fract_z
 _atom_site_occupancy
  Li  Li0  1  0.81253897  0.80918298  0.75254397  1
  Li  Li1  1  0.68502698  0.31536399  0.49993597  1
  Li  Li2  1  0.19084699  0.18718200  0.24723499  1
  Ga  Ga3  1  0.82289197  0.81782898  0.24324198  1
  Li  Li4  1  0.18180299  0.17718200  0.75663098  1
  Si  Si5  1  0.67612998  0.32491199  0.99980295  1
  Si  Si6  1  0.31683198  0.68297698  0.50009999  1
  O  O7  1  0.80777298  0.20153100  0.78404895  1
  O  O8  1  0.79795298  0.19295600  0.21543197  1
  O  O9  1  0.73162697  0.63156198  0.00585499  1
  O  O10  1  0.63430697  0.71360998  0.49108498  1
  O  O11  1  0.36857699  0.26714199  0.99319396  1
  O  O12  1  0.28508499  0.36664499  0.50993698  1
  O  O13  1  0.18995898  0.81775298  0.70779399  1
  O  O14  1  0.18313498  0.80968698  0.29316900  1
