# generated using pymatgen
data_Zn2AgBiF6
_symmetry_space_group_name_H-M   'P 1'
_cell_length_a   5.58385181
_cell_length_b   5.63703156
_cell_length_c   5.63703156
_cell_angle_alpha   60.90737915
_cell_angle_beta   60.31158447
_cell_angle_gamma   60.31158447
_symmetry_Int_Tables_number   1
_chemical_formula_structural   Zn2AgBiF6
_chemical_formula_sum   'Zn2 Ag1 Bi1 F6'
_cell_volume   126.90166901
_cell_formula_units_Z   1
loop_
 _symmetry_equiv_pos_site_id
 _symmetry_equiv_pos_as_xyz
  1  'x, y, z'
loop_
 _atom_site_type_symbol
 _atom_site_label
 _atom_site_symmetry_multiplicity
 _atom_site_fract_x
 _atom_site_fract_y
 _atom_site_fract_z
 _atom_site_occupancy
  Bi  Bi0  1  0.75000002  0.75816200  0.74183800  1
  Ag  Ag1  1  0.25000001  0.24183800  0.25816200  1
  Zn  Zn2  1  0.50000001  0.50000000  0.50000000  1
  Zn  Zn3  1  0.00000000  0.00000000  0.00000000  1
  F  F4  1  0.79961803  0.20038200  0.70038199  1
  F  F5  1  0.20038199  0.79961800  0.29961801  1
  F  F6  1  0.70038201  0.79961800  0.29961801  1
  F  F7  1  0.29961801  0.20038200  0.70038200  1
  F  F8  1  0.75000002  0.33466200  0.16533799  1
  F  F9  1  0.25000000  0.66533800  0.83466201  1
