# generated using pymatgen
data_TaP4Rh7
_symmetry_space_group_name_H-M   'P 1'
_cell_length_a   3.54315209
_cell_length_b   6.28715086
_cell_length_c   7.40678215
_cell_angle_alpha   90.00000000
_cell_angle_beta   90.00000000
_cell_angle_gamma   90.00000000
_symmetry_Int_Tables_number   1
_chemical_formula_structural   TaP4Rh7
_chemical_formula_sum   'Ta1 P4 Rh7'
_cell_volume   164.99593626
_cell_formula_units_Z   1
loop_
 _symmetry_equiv_pos_site_id
 _symmetry_equiv_pos_as_xyz
  1  'x, y, z'
loop_
 _atom_site_type_symbol
 _atom_site_label
 _atom_site_symmetry_multiplicity
 _atom_site_fract_x
 _atom_site_fract_y
 _atom_site_fract_z
 _atom_site_occupancy
  Ta  Ta0  1  0.24999999  0.03124100  0.82760098  1
  Rh  Rh1  1  0.24999999  0.53124101  0.67239899  1
  Rh  Rh2  1  0.74999998  0.46875901  0.32760099  1
  Rh  Rh3  1  0.74999998  0.96875902  0.17239900  1
  Rh  Rh4  1  0.74999998  0.85736502  0.55955299  1
  Rh  Rh5  1  0.24999999  0.64263501  0.05955300  1
  Rh  Rh6  1  0.74999998  0.35736501  0.94044698  1
  Rh  Rh7  1  0.24999999  0.14263500  0.44044699  1
  P  P8  1  0.24999999  0.76999402  0.36852499  1
  P  P9  1  0.24999999  0.26999401  0.13147500  1
  P  P10  1  0.74999998  0.23000601  0.63147499  1
  P  P11  1  0.74999998  0.73000602  0.86852498  1
