# generated using pymatgen
data_Tb(CoGe)2
_symmetry_space_group_name_H-M   'P 1'
_cell_length_a   4.13003016
_cell_length_b   4.13003016
_cell_length_c   5.72846127
_cell_angle_alpha   111.12988281
_cell_angle_beta   111.12988281
_cell_angle_gamma   90.00000000
_symmetry_Int_Tables_number   1
_chemical_formula_structural   Tb(CoGe)2
_chemical_formula_sum   'Tb1 Co2 Ge2'
_cell_volume   84.06024668
_cell_formula_units_Z   1
loop_
 _symmetry_equiv_pos_site_id
 _symmetry_equiv_pos_as_xyz
  1  'x, y, z'
loop_
 _atom_site_type_symbol
 _atom_site_label
 _atom_site_symmetry_multiplicity
 _atom_site_fract_x
 _atom_site_fract_y
 _atom_site_fract_z
 _atom_site_occupancy
  Tb  Tb0  1  0.00000000  0.00000000  0.00000000  1
  Co  Co1  1  0.74999995  0.24999999  0.49999995  1
  Co  Co2  1  0.24999996  0.74999996  0.49999994  1
  Ge  Ge3  1  0.63614494  0.63614496  0.27228994  1
  Ge  Ge4  1  0.36385497  0.36385498  0.72770995  1
