# generated using pymatgen
data_Bi(Br4F)3
_symmetry_space_group_name_H-M   'P 1'
_cell_length_a   3.59919405
_cell_length_b   12.17420483
_cell_length_c   12.17420483
_cell_angle_alpha   112.06672668
_cell_angle_beta   90.00000000
_cell_angle_gamma   90.00000000
_symmetry_Int_Tables_number   1
_chemical_formula_structural   Bi(Br4F)3
_chemical_formula_sum   'Bi1 Br12 F3'
_cell_volume   494.36491392
_cell_formula_units_Z   1
loop_
 _symmetry_equiv_pos_site_id
 _symmetry_equiv_pos_as_xyz
  1  'x, y, z'
loop_
 _atom_site_type_symbol
 _atom_site_label
 _atom_site_symmetry_multiplicity
 _atom_site_fract_x
 _atom_site_fract_y
 _atom_site_fract_z
 _atom_site_occupancy
  Bi  Bi0  1  0.00000000  0.81377303  0.18622701  1
  Br  Br1  1  0.00000000  0.18622701  0.81377303  1
  Br  Br2  1  0.00000000  0.71527203  0.71527203  1
  Br  Br3  1  0.00000000  0.28472801  0.28472801  1
  F  F4  1  0.49999999  0.88105404  0.11894601  1
  Br  Br5  1  0.49999999  0.11894600  0.88105403  1
  Br  Br6  1  0.00000000  0.53679202  0.71286503  1
  Br  Br7  1  0.00000000  0.46320802  0.28713501  1
  Br  Br8  1  0.00000000  0.28713501  0.46320802  1
  Br  Br9  1  0.00000000  0.71286503  0.53679203  1
  Br  Br10  1  0.49999999  0.81832403  0.81832404  1
  Br  Br11  1  0.49999999  0.18167601  0.18167601  1
  F  F12  1  0.00000000  0.62157403  0.11709001  1
  Br  Br13  1  0.00000000  0.37842602  0.88291004  1
  F  F14  1  0.00000000  0.88291004  0.37842602  1
  Br  Br15  1  0.00000000  0.11709000  0.62157402  1
