# generated using pymatgen
data_Lu(Co2P)2
_symmetry_space_group_name_H-M   'P 1'
_cell_length_a   3.55295992
_cell_length_b   6.92474508
_cell_length_c   6.92474508
_cell_angle_alpha   90.00000000
_cell_angle_beta   90.00000000
_cell_angle_gamma   90.00000000
_symmetry_Int_Tables_number   1
_chemical_formula_structural   Lu(Co2P)2
_chemical_formula_sum   'Lu2 Co8 P4'
_cell_volume   170.37186966
_cell_formula_units_Z   2
loop_
 _symmetry_equiv_pos_site_id
 _symmetry_equiv_pos_as_xyz
  1  'x, y, z'
loop_
 _atom_site_type_symbol
 _atom_site_label
 _atom_site_symmetry_multiplicity
 _atom_site_fract_x
 _atom_site_fract_y
 _atom_site_fract_z
 _atom_site_occupancy
  Lu  Lu0  1  0.00000000  0.49999999  0.49999999  1
  Lu  Lu1  1  0.50000001  0.00000000  -0.00000000  1
  Co  Co2  1  0.50000001  0.16655800  0.58519699  1
  Co  Co3  1  0.50000001  0.83344199  0.41480300  1
  Co  Co4  1  0.00000000  0.33344200  0.08519700  1
  Co  Co5  1  0.00000000  0.66655799  0.91480299  1
  Co  Co6  1  0.50000001  0.58519699  0.16655800  1
  Co  Co7  1  0.50000001  0.41480300  0.83344199  1
  Co  Co8  1  0.00000000  0.08519700  0.33344200  1
  Co  Co9  1  0.00000000  0.91480299  0.66655799  1
  P  P10  1  0.50000001  0.71761699  0.71761699  1
  P  P11  1  0.50000001  0.28238300  0.28238300  1
  P  P12  1  0.00000000  0.78238299  0.21761700  1
  P  P13  1  0.00000000  0.21761700  0.78238299  1
