# generated using pymatgen
data_BaGe5
_symmetry_space_group_name_H-M   'P 1'
_cell_length_a   4.50918579
_cell_length_b   7.25521421
_cell_length_c   8.68745708
_cell_angle_alpha   90.00000000
_cell_angle_beta   105.04174805
_cell_angle_gamma   90.00000000
_symmetry_Int_Tables_number   1
_chemical_formula_structural   BaGe5
_chemical_formula_sum   'Ba2 Ge10'
_cell_volume   274.47317444
_cell_formula_units_Z   2
loop_
 _symmetry_equiv_pos_site_id
 _symmetry_equiv_pos_as_xyz
  1  'x, y, z'
loop_
 _atom_site_type_symbol
 _atom_site_label
 _atom_site_symmetry_multiplicity
 _atom_site_fract_x
 _atom_site_fract_y
 _atom_site_fract_z
 _atom_site_occupancy
  Ba  Ba0  1  0.88130005  0.74999998  0.76260004  1
  Ba  Ba1  1  0.11870001  0.24999999  0.23740001  1
  Ge  Ge2  1  0.50000003  0.99999997  1.00000005  1
  Ge  Ge3  1  0.50000003  0.49999999  1.00000005  1
  Ge  Ge4  1  0.07455200  0.74999998  0.14910401  1
  Ge  Ge5  1  0.92544805  0.24999999  0.85089605  1
  Ge  Ge6  1  0.68819304  0.95224197  0.37638602  1
  Ge  Ge7  1  0.31180702  0.04775800  0.62361403  1
  Ge  Ge8  1  0.68819304  0.54775798  0.37638602  1
  Ge  Ge9  1  0.31180702  0.45224199  0.62361403  1
  Ge  Ge10  1  0.22651301  0.74999998  0.45302602  1
  Ge  Ge11  1  0.77348704  0.24999999  0.54697403  1
