# generated using pymatgen
data_Na7Be2B2N9
_symmetry_space_group_name_H-M   'P 1'
_cell_length_a   6.95131063
_cell_length_b   6.95131063
_cell_length_c   6.95131063
_cell_angle_alpha   109.47122192
_cell_angle_beta   109.47122192
_cell_angle_gamma   109.47122192
_symmetry_Int_Tables_number   1
_chemical_formula_structural   Na7Be2B2N9
_chemical_formula_sum   'Na7 Be2 B2 N9'
_cell_volume   258.57002508
_cell_formula_units_Z   1
loop_
 _symmetry_equiv_pos_site_id
 _symmetry_equiv_pos_as_xyz
  1  'x, y, z'
loop_
 _atom_site_type_symbol
 _atom_site_label
 _atom_site_symmetry_multiplicity
 _atom_site_fract_x
 _atom_site_fract_y
 _atom_site_fract_z
 _atom_site_occupancy
  Na  Na0  1  0.00000003  0.50000001  0.59862602  1
  N  N1  1  0.40137402  0.40137401  0.90137402  1
  Na  Na2  1  0.50000000  0.09862600  0.50000001  1
  Na  Na3  1  0.09862600  0.00000000  0.00000000  1
  Na  Na4  1  0.90137405  0.90137402  0.40137407  1
  Na  Na5  1  1.00000002  0.50000001  0.09862605  1
  Na  Na6  1  0.50000003  0.59862601  0.50000004  1
  Na  Na7  1  0.59862600  0.00000000  1.00000000  1
  B  B8  1  0.96341301  0.21341300  0.75000002  1
  N  N9  1  0.53658701  0.28658701  0.25000002  1
  N  N10  1  0.71341302  0.46341301  0.25000004  1
  N  N11  1  0.78658700  0.03658700  0.75000001  1
  N  N12  1  0.21341301  0.25000001  0.46341301  1
  B  B13  1  0.28658705  0.75000002  0.03658705  1
  N  N14  1  0.46341304  0.75000002  0.21341305  1
  N  N15  1  0.03658702  0.25000001  0.28658701  1
  N  N16  1  0.75000003  0.53658701  0.78658703  1
  Be  Be17  1  0.25000006  0.96341302  0.71341305  1
  N  N18  1  0.25000005  0.78658702  0.53658704  1
  Be  Be19  1  0.75000004  0.71341302  0.96341304  1
