# generated using pymatgen
data_Bi8Rh
_symmetry_space_group_name_H-M   'P 1'
_cell_length_a   3.93670988
_cell_length_b   8.44732189
_cell_length_c   8.44732189
_cell_angle_alpha   120.00000000
_cell_angle_beta   90.00000000
_cell_angle_gamma   90.00000000
_symmetry_Int_Tables_number   1
_chemical_formula_structural   Bi8Rh
_chemical_formula_sum   'Bi8 Rh1'
_cell_volume   243.27760364
_cell_formula_units_Z   1
loop_
 _symmetry_equiv_pos_site_id
 _symmetry_equiv_pos_as_xyz
  1  'x, y, z'
loop_
 _atom_site_type_symbol
 _atom_site_label
 _atom_site_symmetry_multiplicity
 _atom_site_fract_x
 _atom_site_fract_y
 _atom_site_fract_z
 _atom_site_occupancy
  Bi  Bi0  1  0.50000002  1.00000000  0.40454196  1
  Bi  Bi1  1  0.50000002  0.40454200  -0.00000001  1
  Bi  Bi2  1  0.50000002  0.59545800  0.59545796  1
  Bi  Bi3  1  0.00000000  1.00000000  0.76417294  1
  Bi  Bi4  1  0.00000000  0.76417300  0.99999994  1
  Bi  Bi5  1  1.00000003  0.23582700  0.23582698  1
  Rh  Rh6  1  0.50000002  0.00000000  -0.00000000  1
  Bi  Bi7  1  0.00000000  0.66666666  0.33333330  1
  Bi  Bi8  1  1.00000003  0.33333333  0.66666663  1
