# generated using pymatgen
data_Mn4(OF)3
_symmetry_space_group_name_H-M   'P 1'
_cell_length_a   5.19547796
_cell_length_b   5.97720718
_cell_length_c   8.33816433
_cell_angle_alpha   90.00000000
_cell_angle_beta   90.00000000
_cell_angle_gamma   90.00000000
_symmetry_Int_Tables_number   1
_chemical_formula_structural   Mn4(OF)3
_chemical_formula_sum   'Mn8 O6 F6'
_cell_volume   258.93709226
_cell_formula_units_Z   2
loop_
 _symmetry_equiv_pos_site_id
 _symmetry_equiv_pos_as_xyz
  1  'x, y, z'
loop_
 _atom_site_type_symbol
 _atom_site_label
 _atom_site_symmetry_multiplicity
 _atom_site_fract_x
 _atom_site_fract_y
 _atom_site_fract_z
 _atom_site_occupancy
  Mn  Mn0  1  0.96988501  0.64615698  0.74999997  1
  Mn  Mn1  1  0.53011500  0.14615700  0.74999997  1
  Mn  Mn2  1  0.46988500  0.85384297  0.24999999  1
  Mn  Mn3  1  0.03011500  0.35384299  0.24999999  1
  Mn  Mn4  1  0.00000000  0.00000000  0.00000000  1
  Mn  Mn5  1  0.00000000  0.00000000  0.49999998  1
  Mn  Mn6  1  0.50000000  0.49999998  -0.00000000  1
  Mn  Mn7  1  0.50000000  0.49999998  0.49999998  1
  F  F8  1  0.34027400  0.52610398  0.24999999  1
  O  O9  1  0.31664800  0.19853799  0.57234298  1
  O  O10  1  0.31664800  0.19853799  0.92765696  1
  O  O11  1  0.18335200  0.69853798  0.57234298  1
  F  F12  1  0.18335200  0.69853798  0.92765696  1
  F  F13  1  0.15972600  0.02610400  0.24999999  1
  F  F14  1  0.84027401  0.97389597  0.74999997  1
  F  F15  1  0.81664801  0.30146199  0.42765698  1
  O  O16  1  0.81664801  0.30146199  0.07234300  1
  O  O17  1  0.68335200  0.80146198  0.07234300  1
  F  F18  1  0.68335200  0.80146198  0.42765698  1
  O  O19  1  0.65972600  0.47389599  0.74999997  1
