# generated using pymatgen
data_CsYbBr3
_symmetry_space_group_name_H-M   'P 1'
_cell_length_a   5.81099892
_cell_length_b   7.96820021
_cell_length_c   7.96820021
_cell_angle_alpha   89.96909332
_cell_angle_beta   90.00000000
_cell_angle_gamma   90.00000000
_symmetry_Int_Tables_number   1
_chemical_formula_structural   CsYbBr3
_chemical_formula_sum   'Cs2 Yb2 Br6'
_cell_volume   368.95313620
_cell_formula_units_Z   2
loop_
 _symmetry_equiv_pos_site_id
 _symmetry_equiv_pos_as_xyz
  1  'x, y, z'
loop_
 _atom_site_type_symbol
 _atom_site_label
 _atom_site_symmetry_multiplicity
 _atom_site_fract_x
 _atom_site_fract_y
 _atom_site_fract_z
 _atom_site_occupancy
  Cs  Cs0  1  0.50000001  0.49258701  0.99258700  1
  Cs  Cs1  1  0.50000001  0.99428701  0.49428698  1
  Yb  Yb2  1  0.00000000  0.99264501  0.99289998  1
  Yb  Yb3  1  -0.00000000  0.49290101  0.49264599  1
  Br  Br4  1  -0.00000000  0.18348300  0.30217100  1
  Br  Br5  1  0.50000001  0.49217501  0.49303199  1
  Br  Br6  1  0.50000001  0.99303201  0.99217498  1
  Br  Br7  1  -0.00000000  0.30136200  0.80136200  1
  Br  Br8  1  -0.00000000  0.68335601  0.18335598  1
  Br  Br9  1  -0.00000000  0.80217101  0.68348298  1
