# generated using pymatgen
data_Cr6O7F2
_symmetry_space_group_name_H-M   'P 1'
_cell_length_a   5.43108988
_cell_length_b   5.53880119
_cell_length_c   6.02557421
_cell_angle_alpha   91.02631378
_cell_angle_beta   115.88993835
_cell_angle_gamma   119.18760681
_symmetry_Int_Tables_number   1
_chemical_formula_structural   Cr6O7F2
_chemical_formula_sum   'Cr6 O7 F2'
_cell_volume   136.07404220
_cell_formula_units_Z   1
loop_
 _symmetry_equiv_pos_site_id
 _symmetry_equiv_pos_as_xyz
  1  'x, y, z'
loop_
 _atom_site_type_symbol
 _atom_site_label
 _atom_site_symmetry_multiplicity
 _atom_site_fract_x
 _atom_site_fract_y
 _atom_site_fract_z
 _atom_site_occupancy
  O  O0  1  0.86932790  0.76413894  0.36187290  1
  O  O1  1  0.41197389  0.89887794  0.64482992  1
  O  O2  1  0.73605093  0.50319396  0.63489692  1
  F  F3  1  0.29810092  0.63664695  0.96701593  1
  F  F4  1  0.70189895  0.36335297  0.03298393  1
  O  O5  1  0.26394894  0.49680596  0.36510295  1
  O  O6  1  0.58802598  0.10112199  0.35516995  1
  O  O7  1  0.13067197  0.23586098  0.63812697  1
  O  O8  1  0.00000000  0.00000000  0.00000000  1
  Cr  Cr9  1  0.13194489  0.90563093  0.75583593  1
  Cr  Cr10  1  0.15414191  0.76277694  0.24384795  1
  Cr  Cr11  1  0.48121195  0.38914097  0.24176094  1
  Cr  Cr12  1  0.51878792  0.61085896  0.75823892  1
  Cr  Cr13  1  0.84585796  0.23722298  0.75615192  1
  Cr  Cr14  1  0.86805498  0.09436899  0.24416394  1
