# generated using pymatgen
data_NdGe6Pt
_symmetry_space_group_name_H-M   'P 1'
_cell_length_a   4.45501089
_cell_length_b   4.45501089
_cell_length_c   7.89451790
_cell_angle_alpha   90.00000000
_cell_angle_beta   90.00000000
_cell_angle_gamma   90.00000000
_symmetry_Int_Tables_number   1
_chemical_formula_structural   NdGe6Pt
_chemical_formula_sum   'Nd1 Ge6 Pt1'
_cell_volume   156.68346017
_cell_formula_units_Z   1
loop_
 _symmetry_equiv_pos_site_id
 _symmetry_equiv_pos_as_xyz
  1  'x, y, z'
loop_
 _atom_site_type_symbol
 _atom_site_label
 _atom_site_symmetry_multiplicity
 _atom_site_fract_x
 _atom_site_fract_y
 _atom_site_fract_z
 _atom_site_occupancy
  Nd  Nd0  1  0.00000000  0.00000000  0.00000000  1
  Ge  Ge1  1  0.50000001  0.50000001  0.15200400  1
  Ge  Ge2  1  0.00000000  0.50000001  0.67353501  1
  Ge  Ge3  1  0.50000001  0.50000001  0.84799601  1
  Ge  Ge4  1  0.50000001  0.00000000  0.67353501  1
  Ge  Ge5  1  0.00000000  0.50000001  0.32646500  1
  Ge  Ge6  1  0.50000001  0.00000000  0.32646500  1
  Pt  Pt7  1  0.00000000  0.00000000  0.50000001  1
