# generated using pymatgen
data_BaLaB12
_symmetry_space_group_name_H-M   'P 1'
_cell_length_a   5.86612797
_cell_length_b   5.86612797
_cell_length_c   5.86612797
_cell_angle_alpha   60.00000000
_cell_angle_beta   60.00000000
_cell_angle_gamma   60.00000000
_symmetry_Int_Tables_number   1
_chemical_formula_structural   BaLaB12
_chemical_formula_sum   'Ba1 La1 B12'
_cell_volume   142.73799775
_cell_formula_units_Z   1
loop_
 _symmetry_equiv_pos_site_id
 _symmetry_equiv_pos_as_xyz
  1  'x, y, z'
loop_
 _atom_site_type_symbol
 _atom_site_label
 _atom_site_symmetry_multiplicity
 _atom_site_fract_x
 _atom_site_fract_y
 _atom_site_fract_z
 _atom_site_occupancy
  Ba  Ba0  1  0.50000002  0.50000002  0.50000002  1
  La  La1  1  0.00000000  0.00000000  0.00000000  1
  B  B2  1  0.60031602  0.89968403  0.60031602  1
  B  B3  1  0.10031600  0.39968401  0.10031600  1
  B  B4  1  0.89968403  0.89968403  0.60031602  1
  B  B5  1  0.39968401  0.39968401  0.10031600  1
  B  B6  1  0.60031602  0.89968403  0.89968403  1
  B  B7  1  0.10031600  0.39968401  0.39968401  1
  B  B8  1  0.60031602  0.60031602  0.89968403  1
  B  B9  1  0.10031600  0.10031600  0.39968401  1
  B  B10  1  0.89968403  0.60031602  0.60031602  1
  B  B11  1  0.39968401  0.10031600  0.10031600  1
  B  B12  1  0.89968403  0.60031602  0.89968403  1
  B  B13  1  0.39968401  0.10031600  0.39968401  1
