# generated using pymatgen
data_Si5Pd3
_symmetry_space_group_name_H-M   'P 1'
_cell_length_a   3.46530700
_cell_length_b   5.47265196
_cell_length_c   6.09118414
_cell_angle_alpha   90.00000000
_cell_angle_beta   90.00000000
_cell_angle_gamma   90.00000000
_symmetry_Int_Tables_number   1
_chemical_formula_structural   Si5Pd3
_chemical_formula_sum   'Si5 Pd3'
_cell_volume   115.51576899
_cell_formula_units_Z   1
loop_
 _symmetry_equiv_pos_site_id
 _symmetry_equiv_pos_as_xyz
  1  'x, y, z'
loop_
 _atom_site_type_symbol
 _atom_site_label
 _atom_site_symmetry_multiplicity
 _atom_site_fract_x
 _atom_site_fract_y
 _atom_site_fract_z
 _atom_site_occupancy
  Si  Si0  1  0.50000000  0.74430201  0.80186898  1
  Pd  Pd1  1  0.00000000  0.25569800  0.30186899  1
  Pd  Pd2  1  0.50000000  0.24728200  0.69537598  1
  Pd  Pd3  1  0.00000000  0.75271801  0.19537600  1
  Si  Si4  1  0.50000000  0.04783300  0.08147500  1
  Si  Si5  1  0.50000000  0.55720900  0.42128099  1
  Si  Si6  1  0.00000000  0.44279100  0.92128098  1
  Si  Si7  1  0.00000000  0.95216701  0.58147499  1
