# generated using pymatgen
data_Ba3CoBrN2
_symmetry_space_group_name_H-M   'P 1'
_cell_length_a   3.91316009
_cell_length_b   9.10316181
_cell_length_c   9.69573498
_cell_angle_alpha   112.55982208
_cell_angle_beta   90.00000000
_cell_angle_gamma   90.00000000
_symmetry_Int_Tables_number   1
_chemical_formula_structural   Ba3CoBrN2
_chemical_formula_sum   'Ba6 Co2 Br2 N4'
_cell_volume   318.95385801
_cell_formula_units_Z   2
loop_
 _symmetry_equiv_pos_site_id
 _symmetry_equiv_pos_as_xyz
  1  'x, y, z'
loop_
 _atom_site_type_symbol
 _atom_site_label
 _atom_site_symmetry_multiplicity
 _atom_site_fract_x
 _atom_site_fract_y
 _atom_site_fract_z
 _atom_site_occupancy
  Ba  Ba0  1  0.74999998  0.11875100  0.35316199  1
  Ba  Ba1  1  0.24999999  0.88124901  0.64683796  1
  Ba  Ba2  1  0.74999998  0.51894700  0.66964598  1
  Ba  Ba3  1  0.24999999  0.48105300  0.33035398  1
  Ba  Ba4  1  0.74999998  0.31760900  0.94347598  1
  Ba  Ba5  1  0.24999999  0.68239101  0.05652398  1
  Br  Br6  1  0.74999998  0.91417701  0.94299996  1
  Br  Br7  1  0.24999999  0.08582300  0.05700000  1
  Co  Co8  1  0.24999999  0.24132600  0.65057798  1
  Co  Co9  1  0.74999998  0.75867401  0.34942197  1
  N  N10  1  0.74999998  0.57015200  0.17398498  1
  N  N11  1  0.24999999  0.42984800  0.82601498  1
  N  N12  1  0.74999998  0.68483701  0.50829597  1
  N  N13  1  0.24999999  0.31516300  0.49170398  1
