# generated using pymatgen
data_LuNi5
_symmetry_space_group_name_H-M   'P 1'
_cell_length_a   4.03993177
_cell_length_b   4.85462904
_cell_length_c   4.85462904
_cell_angle_alpha   117.98765564
_cell_angle_beta   90.00000000
_cell_angle_gamma   90.00000000
_symmetry_Int_Tables_number   1
_chemical_formula_structural   LuNi5
_chemical_formula_sum   'Lu1 Ni5'
_cell_volume   84.07575870
_cell_formula_units_Z   1
loop_
 _symmetry_equiv_pos_site_id
 _symmetry_equiv_pos_as_xyz
  1  'x, y, z'
loop_
 _atom_site_type_symbol
 _atom_site_label
 _atom_site_symmetry_multiplicity
 _atom_site_fract_x
 _atom_site_fract_y
 _atom_site_fract_z
 _atom_site_occupancy
  Lu  Lu0  1  0.00000000  0.00000000  0.00000000  1
  Ni  Ni1  1  0.50000003  0.50000000  0.49999998  1
  Ni  Ni2  1  -0.00000000  0.33370100  0.66629899  1
  Ni  Ni3  1  -0.00000000  0.66629899  0.33370098  1
  Ni  Ni4  1  0.50000003  0.00000000  0.50000001  1
  Ni  Ni5  1  0.50000003  0.50000000  -0.00000002  1
