# generated using pymatgen
data_Bi
_symmetry_space_group_name_H-M   'P 1'
_cell_length_a   6.52100992
_cell_length_b   9.44285774
_cell_length_c   9.44285774
_cell_angle_alpha   120.00000000
_cell_angle_beta   90.00000000
_cell_angle_gamma   90.00000000
_symmetry_Int_Tables_number   1
_chemical_formula_structural   Bi
_chemical_formula_sum   Bi18
_cell_volume   503.56134723
_cell_formula_units_Z   18
loop_
 _symmetry_equiv_pos_site_id
 _symmetry_equiv_pos_as_xyz
  1  'x, y, z'
loop_
 _atom_site_type_symbol
 _atom_site_label
 _atom_site_symmetry_multiplicity
 _atom_site_fract_x
 _atom_site_fract_y
 _atom_site_fract_z
 _atom_site_occupancy
  Bi  Bi0  1  0.25000001  0.74644714  1.00000001  1
  Bi  Bi1  1  0.75000002  0.25355286  0.99999999  1
  Bi  Bi2  1  0.50000001  0.66666667  0.33333336  1
  Bi  Bi3  1  0.75000002  0.74644714  0.74644716  1
  Bi  Bi4  1  0.50000001  0.33333333  0.66666667  1
  Bi  Bi5  1  0.25000001  0.00000000  0.74644712  1
  Bi  Bi6  1  0.00000000  0.33333333  0.66666667  1
  Bi  Bi7  1  0.75000002  0.00000000  0.25355285  1
  Bi  Bi8  1  0.25000001  0.25355286  0.25355287  1
  Bi  Bi9  1  1.00000003  0.66666667  0.33333336  1
  Bi  Bi10  1  0.00000000  0.00000000  0.00000000  1
  Bi  Bi11  1  0.50000001  0.00000000  -0.00000000  1
  Bi  Bi12  1  0.25000001  0.61357700  0.61357702  1
  Bi  Bi13  1  0.75000002  0.38642300  0.38642301  1
  Bi  Bi14  1  0.25000001  0.38642300  1.00000000  1
  Bi  Bi15  1  0.75000002  0.00000000  0.61357699  1
  Bi  Bi16  1  0.25000001  0.00000000  0.38642299  1
  Bi  Bi17  1  0.75000002  0.61357700  0.00000003  1
