# generated using pymatgen
data_Cs4GaHg2AuSe8
_symmetry_space_group_name_H-M   'P 1'
_cell_length_a   6.17788982
_cell_length_b   8.10174751
_cell_length_c   13.34295368
_cell_angle_alpha   84.93618774
_cell_angle_beta   76.61437225
_cell_angle_gamma   67.58769226
_symmetry_Int_Tables_number   1
_chemical_formula_structural   Cs4GaHg2AuSe8
_chemical_formula_sum   'Cs4 Ga1 Hg2 Au1 Se8'
_cell_volume   600.61980636
_cell_formula_units_Z   1
loop_
 _symmetry_equiv_pos_site_id
 _symmetry_equiv_pos_as_xyz
  1  'x, y, z'
loop_
 _atom_site_type_symbol
 _atom_site_label
 _atom_site_symmetry_multiplicity
 _atom_site_fract_x
 _atom_site_fract_y
 _atom_site_fract_z
 _atom_site_occupancy
  Cs  Cs0  1  0.42932802  0.49999999  0.14134401  1
  Cs  Cs1  1  0.07067201  0.49999999  0.85865602  1
  Cs  Cs2  1  0.67932804  0.99999998  0.64134402  1
  Cs  Cs3  1  0.32067201  0.00000000  0.35865600  1
  Au  Au4  1  0.25000001  0.49999999  0.50000001  1
  Ga  Ga5  1  0.50000003  0.99999998  0.00000002  1
  Hg  Hg6  1  0.00000000  0.00000000  0.00000000  1
  Hg  Hg7  1  0.75000003  0.49999999  0.50000000  1
  Se  Se8  1  0.12907301  0.19299100  0.11010000  1
  Se  Se9  1  0.43216402  0.80700898  0.88990002  1
  Se  Se10  1  0.67793603  0.19299100  0.88990000  1
  Se  Se11  1  0.76082704  0.80700898  0.11010001  1
  Se  Se12  1  0.98917304  0.69299098  0.38990000  1
  Se  Se13  1  0.31783602  0.69299098  0.61010002  1
  Se  Se14  1  0.07206401  0.30700899  0.61010001  1
  Se  Se15  1  0.62092703  0.30700899  0.38990000  1
