# generated using pymatgen
data_Ga2Co3
_symmetry_space_group_name_H-M   'P 1'
_cell_length_a   4.13798618
_cell_length_b   4.13798618
_cell_length_c   5.03083420
_cell_angle_alpha   90.00000000
_cell_angle_beta   90.00000000
_cell_angle_gamma   120.00000000
_symmetry_Int_Tables_number   1
_chemical_formula_structural   Ga2Co3
_chemical_formula_sum   'Ga2 Co3'
_cell_volume   74.60169732
_cell_formula_units_Z   1
loop_
 _symmetry_equiv_pos_site_id
 _symmetry_equiv_pos_as_xyz
  1  'x, y, z'
loop_
 _atom_site_type_symbol
 _atom_site_label
 _atom_site_symmetry_multiplicity
 _atom_site_fract_x
 _atom_site_fract_y
 _atom_site_fract_z
 _atom_site_occupancy
  Ga  Ga0  1  0.00000000  0.00000000  0.00000000  1
  Co  Co1  1  0.66666664  0.33333332  0.64796697  1
  Co  Co2  1  0.33333332  0.66666664  0.35203299  1
  Co  Co3  1  0.66666664  0.33333332  0.15913199  1
  Ga  Ga4  1  0.33333332  0.66666664  0.84086797  1
