# generated using pymatgen
data_HfGa6
_symmetry_space_group_name_H-M   'P 1'
_cell_length_a   7.10899401
_cell_length_b   7.10899401
_cell_length_c   7.10899401
_cell_angle_alpha   104.93127441
_cell_angle_beta   104.93127441
_cell_angle_gamma   118.99147034
_symmetry_Int_Tables_number   1
_chemical_formula_structural   HfGa6
_chemical_formula_sum   'Hf2 Ga12'
_cell_volume   270.75775871
_cell_formula_units_Z   2
loop_
 _symmetry_equiv_pos_site_id
 _symmetry_equiv_pos_as_xyz
  1  'x, y, z'
loop_
 _atom_site_type_symbol
 _atom_site_label
 _atom_site_symmetry_multiplicity
 _atom_site_fract_x
 _atom_site_fract_y
 _atom_site_fract_z
 _atom_site_occupancy
  Ga  Ga0  1  0.30057593  0.69942495  -0.00000007  1
  Hf  Hf1  1  0.30057597  0.30057598  0.60115197  1
  Hf  Hf2  1  0.69942392  0.69942395  0.39884792  1
  Ga  Ga3  1  0.69942396  0.30057498  -0.00000005  1
  Ga  Ga4  1  0.81876494  0.52183496  0.70306993  1
  Ga  Ga5  1  0.52183391  0.81876394  0.70306892  1
  Ga  Ga6  1  0.11569491  0.81876494  0.29692993  1
  Ga  Ga7  1  0.81876498  0.11569499  0.29693096  1
  Ga  Ga8  1  0.28993697  0.28993698  -0.00000003  1
  Ga  Ga9  1  0.71006292  0.71006295  0.99999992  1
  Ga  Ga10  1  0.47816598  0.18123599  0.29693097  1
  Ga  Ga11  1  0.18123495  0.47816497  0.29692996  1
  Ga  Ga12  1  0.18123491  0.88430494  0.70306892  1
  Ga  Ga13  1  0.88430497  0.18123499  0.70306995  1
