# generated using pymatgen
data_LiMn5OF7
_symmetry_space_group_name_H-M   'P 1'
_cell_length_a   5.98996258
_cell_length_b   5.98996258
_cell_length_c   6.17442703
_cell_angle_alpha   60.98344421
_cell_angle_beta   60.98344421
_cell_angle_gamma   59.99999237
_symmetry_Int_Tables_number   1
_chemical_formula_structural   LiMn5OF7
_chemical_formula_sum   'Li1 Mn5 O1 F7'
_cell_volume   158.93812096
_cell_formula_units_Z   1
loop_
 _symmetry_equiv_pos_site_id
 _symmetry_equiv_pos_as_xyz
  1  'x, y, z'
loop_
 _atom_site_type_symbol
 _atom_site_label
 _atom_site_symmetry_multiplicity
 _atom_site_fract_x
 _atom_site_fract_y
 _atom_site_fract_z
 _atom_site_occupancy
  Mn  Mn0  1  0.87824294  0.87824300  0.36527105  1
  Li  Li1  1  0.12175699  0.12175700  0.63472900  1
  Mn  Mn2  1  0.49999997  0.50000000  0.00000003  1
  Mn  Mn3  1  0.49999999  0.00000000  0.00000001  1
  Mn  Mn4  1  -0.00000003  0.50000000  0.00000002  1
  Mn  Mn5  1  0.49999997  0.50000000  0.50000002  1
  F  F6  1  0.72778895  0.72778900  0.81663303  1
  F  F7  1  0.27857496  0.74202600  0.23737303  1
  F  F8  1  0.74202597  0.27857500  0.23737302  1
  F  F9  1  0.74202595  0.74202600  0.23737304  1
  F  F10  1  0.25797398  0.25797400  0.76262700  1
  F  F11  1  0.25797396  0.72142500  0.76262702  1
  F  F12  1  0.72142498  0.25797400  0.76262701  1
  O  O13  1  0.27221098  0.27221100  0.18336701  1
