# generated using pymatgen
data_Co13Ge5
_symmetry_space_group_name_H-M   'P 1'
_cell_length_a   3.32482409
_cell_length_b   6.14102602
_cell_length_c   10.68292904
_cell_angle_alpha   89.71154022
_cell_angle_beta   90.00000000
_cell_angle_gamma   90.00000000
_symmetry_Int_Tables_number   1
_chemical_formula_structural   Co13Ge5
_chemical_formula_sum   'Co13 Ge5'
_cell_volume   218.11947832
_cell_formula_units_Z   1
loop_
 _symmetry_equiv_pos_site_id
 _symmetry_equiv_pos_as_xyz
  1  'x, y, z'
loop_
 _atom_site_type_symbol
 _atom_site_label
 _atom_site_symmetry_multiplicity
 _atom_site_fract_x
 _atom_site_fract_y
 _atom_site_fract_z
 _atom_site_occupancy
  Co  Co0  1  0.00000000  0.87146098  0.87344098  1
  Co  Co1  1  0.00000000  0.87259098  0.12935001  1
  Co  Co2  1  0.00000000  0.37450299  0.62193098  1
  Co  Co3  1  0.49999999  0.60202399  0.00290601  1
  Co  Co4  1  0.49999999  0.10457200  0.50155298  1
  Co  Co5  1  0.49999999  0.19265200  0.20757300  1
  Co  Co6  1  0.49999999  0.69519499  0.70721198  1
  Co  Co7  1  0.49999999  0.70476899  0.29344700  1
  Co  Co8  1  0.49999999  0.19679800  0.78745197  1
  Co  Co9  1  0.00000000  0.25730299  0.00125901  1
  Co  Co10  1  0.00000000  0.75978899  0.50232599  1
  Co  Co11  1  0.00000000  0.36562299  0.37276399  1
  Ge  Ge12  1  0.00000000  0.99834398  0.33957601  1
  Ge  Ge13  1  0.00000000  0.49182899  0.83763597  1
  Ge  Ge14  1  0.00000000  0.48985399  0.16996400  1
  Ge  Ge15  1  0.00000000  0.99290698  0.66268399  1
  Co  Co16  1  0.49999999  0.01729300  0.00113300  1
  Ge  Ge17  1  0.49999999  0.51229099  0.48779199  1
