# generated using pymatgen
data_Ba2O3
_symmetry_space_group_name_H-M   'P 1'
_cell_length_a   3.88052201
_cell_length_b   6.58439016
_cell_length_c   9.47240925
_cell_angle_alpha   90.00000000
_cell_angle_beta   90.00000000
_cell_angle_gamma   107.13810730
_symmetry_Int_Tables_number   1
_chemical_formula_structural   Ba2O3
_chemical_formula_sum   'Ba4 O6'
_cell_volume   231.28158114
_cell_formula_units_Z   2
loop_
 _symmetry_equiv_pos_site_id
 _symmetry_equiv_pos_as_xyz
  1  'x, y, z'
loop_
 _atom_site_type_symbol
 _atom_site_label
 _atom_site_symmetry_multiplicity
 _atom_site_fract_x
 _atom_site_fract_y
 _atom_site_fract_z
 _atom_site_occupancy
  Ba  Ba0  1  0.25297206  0.50594400  0.74999998  1
  Ba  Ba1  1  0.74702806  0.49405600  0.24999999  1
  Ba  Ba2  1  0.00000000  0.00000000  0.49999999  1
  Ba  Ba3  1  0.00000000  0.00000000  0.00000000  1
  O  O4  1  0.35802408  0.71604799  0.43654599  1
  O  O5  1  0.35802408  0.71604799  0.06345400  1
  O  O6  1  0.64197603  0.28395200  0.93654598  1
  O  O7  1  0.64197603  0.28395200  0.56345399  1
  O  O8  1  0.91291109  0.82582199  0.74999998  1
  O  O9  1  0.08708902  0.17417800  0.24999999  1
