# generated using pymatgen
data_Co7MoC
_symmetry_space_group_name_H-M   'P 1'
_cell_length_a   3.77689195
_cell_length_b   3.77689195
_cell_length_c   7.12349415
_cell_angle_alpha   90.00000000
_cell_angle_beta   90.00000000
_cell_angle_gamma   90.00000000
_symmetry_Int_Tables_number   1
_chemical_formula_structural   Co7MoC
_chemical_formula_sum   'Co7 Mo1 C1'
_cell_volume   101.61602270
_cell_formula_units_Z   1
loop_
 _symmetry_equiv_pos_site_id
 _symmetry_equiv_pos_as_xyz
  1  'x, y, z'
loop_
 _atom_site_type_symbol
 _atom_site_label
 _atom_site_symmetry_multiplicity
 _atom_site_fract_x
 _atom_site_fract_y
 _atom_site_fract_z
 _atom_site_occupancy
  Co  Co0  1  0.00000000  0.00000000  0.74728398  1
  Mo  Mo1  1  0.00000000  0.00000000  0.25271599  1
  Co  Co2  1  0.50000001  0.50000001  0.73031698  1
  Co  Co3  1  0.50000001  0.50000001  0.26968299  1
  Co  Co4  1  0.50000001  0.00000000  -0.00000000  1
  Co  Co5  1  0.50000001  0.00000000  0.49999999  1
  Co  Co6  1  0.00000000  0.50000001  -0.00000000  1
  Co  Co7  1  0.00000000  0.50000001  0.49999999  1
  C  C8  1  0.50000001  0.50000001  -0.00000000  1
