# generated using pymatgen
data_Ga5NiRh2
_symmetry_space_group_name_H-M   'P 1'
_cell_length_a   4.74398184
_cell_length_b   4.74398184
_cell_length_c   4.74398184
_cell_angle_alpha   90.00000000
_cell_angle_beta   90.00000000
_cell_angle_gamma   90.00000000
_symmetry_Int_Tables_number   1
_chemical_formula_structural   Ga5NiRh2
_chemical_formula_sum   'Ga5 Ni1 Rh2'
_cell_volume   106.76503657
_cell_formula_units_Z   1
loop_
 _symmetry_equiv_pos_site_id
 _symmetry_equiv_pos_as_xyz
  1  'x, y, z'
loop_
 _atom_site_type_symbol
 _atom_site_label
 _atom_site_symmetry_multiplicity
 _atom_site_fract_x
 _atom_site_fract_y
 _atom_site_fract_z
 _atom_site_occupancy
  Ga  Ga0  1  0.66284002  0.16284001  0.33716001  1
  Rh  Rh1  1  0.16284001  0.33716001  0.66284002  1
  Rh  Rh2  1  0.33716001  0.66284002  0.16284001  1
  Ni  Ni3  1  0.83716003  0.83716003  0.83716003  1
  Ga  Ga4  1  0.37078901  0.87078903  0.62921102  1
  Ga  Ga5  1  0.87078903  0.62921102  0.37078901  1
  Ga  Ga6  1  0.62921102  0.37078901  0.87078903  1
  Ga  Ga7  1  0.12921100  0.12921100  0.12921100  1
