# generated using pymatgen
data_TbSe
_symmetry_space_group_name_H-M   'P 1'
_cell_length_a   4.51671791
_cell_length_b   5.47434092
_cell_length_c   7.22417307
_cell_angle_alpha   90.00000000
_cell_angle_beta   90.00000000
_cell_angle_gamma   90.00000000
_symmetry_Int_Tables_number   1
_chemical_formula_structural   TbSe
_chemical_formula_sum   'Tb4 Se4'
_cell_volume   178.62529098
_cell_formula_units_Z   4
loop_
 _symmetry_equiv_pos_site_id
 _symmetry_equiv_pos_as_xyz
  1  'x, y, z'
loop_
 _atom_site_type_symbol
 _atom_site_label
 _atom_site_symmetry_multiplicity
 _atom_site_fract_x
 _atom_site_fract_y
 _atom_site_fract_z
 _atom_site_occupancy
  Se  Se0  1  0.25000000  0.63010201  0.68019699  1
  Se  Se1  1  0.75000001  0.13010200  0.81980299  1
  Se  Se2  1  0.25000000  0.86989801  0.18019700  1
  Se  Se3  1  0.75000001  0.36989801  0.31980300  1
  Tb  Tb4  1  0.25000000  0.12016500  0.53339299  1
  Tb  Tb5  1  0.75000001  0.62016501  0.96660699  1
  Tb  Tb6  1  0.25000000  0.37983501  0.03339300  1
  Tb  Tb7  1  0.75000001  0.87983501  0.46660700  1
