# generated using pymatgen
data_P
_symmetry_space_group_name_H-M   'P 1'
_cell_length_a   5.53621912
_cell_length_b   5.53621912
_cell_length_c   5.53621912
_cell_angle_alpha   90.00000000
_cell_angle_beta   90.00000000
_cell_angle_gamma   90.00000000
_symmetry_Int_Tables_number   1
_chemical_formula_structural   P
_chemical_formula_sum   P12
_cell_volume   169.68357776
_cell_formula_units_Z   12
loop_
 _symmetry_equiv_pos_site_id
 _symmetry_equiv_pos_as_xyz
  1  'x, y, z'
loop_
 _atom_site_type_symbol
 _atom_site_label
 _atom_site_symmetry_multiplicity
 _atom_site_fract_x
 _atom_site_fract_y
 _atom_site_fract_z
 _atom_site_occupancy
  P  P0  1  0.00529500  0.00529500  0.00529500  1
  P  P1  1  0.49470499  0.99470498  0.50529499  1
  P  P2  1  0.50529499  0.49470499  0.99470498  1
  P  P3  1  0.99470498  0.50529499  0.49470499  1
  P  P4  1  0.61269499  0.61269499  0.61269499  1
  P  P5  1  0.88730498  0.38730499  0.11269500  1
  P  P6  1  0.11269500  0.88730498  0.38730499  1
  P  P7  1  0.38730499  0.11269500  0.88730498  1
  P  P8  1  0.38796499  0.38796499  0.38796499  1
  P  P9  1  0.11203500  0.61203499  0.88796498  1
  P  P10  1  0.88796498  0.11203500  0.61203499  1
  P  P11  1  0.61203499  0.88796498  0.11203500  1
