# generated using pymatgen
data_Ba3(Ag2S3)2
_symmetry_space_group_name_H-M   'P 1'
_cell_length_a   4.16245794
_cell_length_b   4.16245747
_cell_length_c   17.67156982
_cell_angle_alpha   90.00000000
_cell_angle_beta   90.00000000
_cell_angle_gamma   120.00000000
_symmetry_Int_Tables_number   1
_chemical_formula_structural   Ba3(Ag2S3)2
_chemical_formula_sum   'Ba3 Ag4 S6'
_cell_volume   265.15842452
_cell_formula_units_Z   1
loop_
 _symmetry_equiv_pos_site_id
 _symmetry_equiv_pos_as_xyz
  1  'x, y, z'
loop_
 _atom_site_type_symbol
 _atom_site_label
 _atom_site_symmetry_multiplicity
 _atom_site_fract_x
 _atom_site_fract_y
 _atom_site_fract_z
 _atom_site_occupancy
  Ba  Ba0  1  0.00000000  0.00000000  0.10923599  1
  Ba  Ba1  1  0.00000000  0.00000000  0.89076396  1
  Ba  Ba2  1  0.00000000  0.00000000  0.49999998  1
  Ag  Ag3  1  0.33333330  0.66666668  0.74743297  1
  Ag  Ag4  1  0.66666666  0.33333334  0.25256699  1
  Ag  Ag5  1  0.33333330  0.66666668  0.35962198  1
  Ag  Ag6  1  0.66666666  0.33333334  0.64037797  1
  S  S7  1  0.33333330  0.66666668  0.99785095  1
  S  S8  1  0.66666666  0.33333334  0.78468996  1
  S  S9  1  0.33333330  0.66666668  0.21530999  1
  S  S10  1  0.66666666  0.33333334  0.39752998  1
  S  S11  1  0.33333330  0.66666668  0.60246997  1
  S  S12  1  0.66666666  0.33333334  0.00214900  1
