# generated using pymatgen
data_TbGa12
_symmetry_space_group_name_H-M   'P 1'
_cell_length_a   5.24685621
_cell_length_b   6.83232641
_cell_length_c   7.17270947
_cell_angle_alpha   81.92677307
_cell_angle_beta   68.54617310
_cell_angle_gamma   67.42001343
_symmetry_Int_Tables_number   1
_chemical_formula_structural   TbGa12
_chemical_formula_sum   'Tb1 Ga12'
_cell_volume   220.96848023
_cell_formula_units_Z   1
loop_
 _symmetry_equiv_pos_site_id
 _symmetry_equiv_pos_as_xyz
  1  'x, y, z'
loop_
 _atom_site_type_symbol
 _atom_site_label
 _atom_site_symmetry_multiplicity
 _atom_site_fract_x
 _atom_site_fract_y
 _atom_site_fract_z
 _atom_site_occupancy
  Tb  Tb0  1  0.00000000  0.00000000  0.00000000  1
  Ga  Ga1  1  0.00795404  0.34431398  0.63977798  1
  Ga  Ga2  1  0.99204602  0.65568597  0.36022199  1
  Ga  Ga3  1  0.35226805  0.65568597  0.63977797  1
  Ga  Ga4  1  0.64773200  0.34431398  0.36022199  1
  Ga  Ga5  1  0.49187206  0.78287296  0.23338298  1
  Ga  Ga6  1  0.50812800  0.21712699  0.76661699  1
  Ga  Ga7  1  0.27474501  0.21712699  0.23338299  1
  Ga  Ga8  1  0.72525505  0.78287296  0.76661697  1
  Ga  Ga9  1  0.00000005  0.49999998  -0.00000002  1
  Ga  Ga10  1  0.50000003  0.49999998  -0.00000001  1
  Ga  Ga11  1  0.50000008  0.99999995  0.49999997  1
  Ga  Ga12  1  0.00000000  0.00000000  0.49999999  1
