# generated using pymatgen
data_In
_symmetry_space_group_name_H-M   'P 1'
_cell_length_a   4.13423014
_cell_length_b   8.24353790
_cell_length_c   8.24353790
_cell_angle_alpha   120.00000000
_cell_angle_beta   90.00000000
_cell_angle_gamma   90.00000000
_symmetry_Int_Tables_number   1
_chemical_formula_structural   In
_chemical_formula_sum   In9
_cell_volume   243.30585407
_cell_formula_units_Z   9
loop_
 _symmetry_equiv_pos_site_id
 _symmetry_equiv_pos_as_xyz
  1  'x, y, z'
loop_
 _atom_site_type_symbol
 _atom_site_label
 _atom_site_symmetry_multiplicity
 _atom_site_fract_x
 _atom_site_fract_y
 _atom_site_fract_z
 _atom_site_occupancy
  In  In0  1  0.49999998  0.77160700  0.77160697  1
  In  In1  1  0.49999998  0.00000000  0.22839299  1
  In  In2  1  0.49999998  0.22839300  -0.00000001  1
  In  In3  1  0.00000000  0.38986600  0.38986598  1
  In  In4  1  0.99999997  0.00000000  0.61013399  1
  In  In5  1  0.00000000  0.61013400  -0.00000001  1
  In  In6  1  0.00000000  0.00000000  0.00000000  1
  In  In7  1  0.49999998  0.66666667  0.33333331  1
  In  In8  1  0.49999998  0.33333333  0.66666664  1
