# generated using pymatgen
data_Ga5Co
_symmetry_space_group_name_H-M   'P 1'
_cell_length_a   5.09554672
_cell_length_b   5.09554672
_cell_length_c   5.09554625
_cell_angle_alpha   66.60525513
_cell_angle_beta   66.60525513
_cell_angle_gamma   66.60526276
_symmetry_Int_Tables_number   1
_chemical_formula_structural   Ga5Co
_chemical_formula_sum   'Ga5 Co1'
_cell_volume   106.84898667
_cell_formula_units_Z   1
loop_
 _symmetry_equiv_pos_site_id
 _symmetry_equiv_pos_as_xyz
  1  'x, y, z'
loop_
 _atom_site_type_symbol
 _atom_site_label
 _atom_site_symmetry_multiplicity
 _atom_site_fract_x
 _atom_site_fract_y
 _atom_site_fract_z
 _atom_site_occupancy
  Ga  Ga0  1  0.37076601  0.37076600  0.37076598  1
  Ga  Ga1  1  0.62923401  0.62923400  0.62923397  1
  Co  Co2  1  0.00000000  0.00000000  0.00000000  1
  Ga  Ga3  1  0.00000000  0.00000000  0.49999998  1
  Ga  Ga4  1  0.00000001  0.50000000  -0.00000000  1
  Ga  Ga5  1  0.50000000  0.00000000  -0.00000000  1
