# generated using pymatgen
data_NaGa(GeO3)2
_symmetry_space_group_name_H-M   'P 1'
_cell_length_a   5.55523968
_cell_length_b   6.75508451
_cell_length_c   6.75508499
_cell_angle_alpha   83.10021210
_cell_angle_beta   76.80982208
_cell_angle_gamma   76.80982208
_symmetry_Int_Tables_number   1
_chemical_formula_structural   NaGa(GeO3)2
_chemical_formula_sum   'Na2 Ga2 Ge4 O12'
_cell_volume   239.67302676
_cell_formula_units_Z   2
loop_
 _symmetry_equiv_pos_site_id
 _symmetry_equiv_pos_as_xyz
  1  'x, y, z'
loop_
 _atom_site_type_symbol
 _atom_site_label
 _atom_site_symmetry_multiplicity
 _atom_site_fract_x
 _atom_site_fract_y
 _atom_site_fract_z
 _atom_site_occupancy
  Na  Na0  1  0.24999996  0.69723199  0.30276798  1
  Na  Na1  1  0.74999998  0.30276800  0.69723202  1
  Ga  Ga2  1  0.74999994  0.91091499  0.08908498  1
  Ga  Ga3  1  0.24999999  0.08908500  0.91091502  1
  Ge  Ge4  1  0.77395597  0.38583300  0.19389301  1
  Ge  Ge5  1  0.72604395  0.80610699  0.61416700  1
  Ge  Ge6  1  0.22604396  0.61416699  0.80610699  1
  Ge  Ge7  1  0.27395599  0.19389300  0.38583301  1
  O  O8  1  0.49337498  0.35069400  0.37516601  1
  O  O9  1  0.00662496  0.62483399  0.64930599  1
  O  O10  1  0.50662496  0.64930599  0.62483400  1
  O  O11  1  0.99337497  0.37516600  0.35069402  1
  O  O12  1  0.19026499  0.08612200  0.63223401  1
  O  O13  1  0.30973498  0.36776600  0.91387801  1
  O  O14  1  0.80973494  0.91387799  0.36776599  1
  O  O15  1  0.69026496  0.63223399  0.08612199  1
  O  O16  1  0.87058699  0.18772700  0.02297402  1
  O  O17  1  0.62941294  0.97702599  0.81227299  1
  O  O18  1  0.12941295  0.81227299  0.97702599  1
  O  O19  1  0.37058800  0.02297400  0.18772701  1
