# generated using pymatgen
data_Lu5CuSe7S
_symmetry_space_group_name_H-M   'P 1'
_cell_length_a   8.25172234
_cell_length_b   8.25172234
_cell_length_c   8.25172234
_cell_angle_alpha   60.00000000
_cell_angle_beta   60.00000000
_cell_angle_gamma   60.00000000
_symmetry_Int_Tables_number   1
_chemical_formula_structural   Lu5CuSe7S
_chemical_formula_sum   'Lu5 Cu1 Se7 S1'
_cell_volume   397.30023302
_cell_formula_units_Z   1
loop_
 _symmetry_equiv_pos_site_id
 _symmetry_equiv_pos_as_xyz
  1  'x, y, z'
loop_
 _atom_site_type_symbol
 _atom_site_label
 _atom_site_symmetry_multiplicity
 _atom_site_fract_x
 _atom_site_fract_y
 _atom_site_fract_z
 _atom_site_occupancy
  Lu  Lu0  1  0.37500001  0.37500001  0.87500003  1
  Lu  Lu1  1  0.37500001  0.37500001  0.37500001  1
  Lu  Lu2  1  0.37500001  0.87500003  0.37500001  1
  Lu  Lu3  1  0.87500003  0.37500001  0.37500001  1
  Cu  Cu4  1  0.75000002  0.75000002  0.75000002  1
  Lu  Lu5  1  0.00000000  0.00000000  0.00000000  1
  Se  Se6  1  0.62007402  0.62007402  0.13977800  1
  Se  Se7  1  0.62007402  0.62007402  0.62007402  1
  Se  Se8  1  0.62007402  0.13977800  0.62007402  1
  Se  Se9  1  0.13977800  0.62007402  0.62007402  1
  Se  Se10  1  0.12992600  0.12992600  0.61022202  1
  Se  Se11  1  0.12992600  0.12992600  0.12992600  1
  S  S12  1  0.12992600  0.61022202  0.12992600  1
  Se  Se13  1  0.61022202  0.12992600  0.12992600  1
