# generated using pymatgen
data_BaCuF3
_symmetry_space_group_name_H-M   'P 1'
_cell_length_a   4.92884779
_cell_length_b   5.50023699
_cell_length_c   9.63170433
_cell_angle_alpha   89.64131165
_cell_angle_beta   84.25562286
_cell_angle_gamma   89.90167236
_symmetry_Int_Tables_number   1
_chemical_formula_structural   BaCuF3
_chemical_formula_sum   'Ba4 Cu4 F12'
_cell_volume   259.79740551
_cell_formula_units_Z   4
loop_
 _symmetry_equiv_pos_site_id
 _symmetry_equiv_pos_as_xyz
  1  'x, y, z'
loop_
 _atom_site_type_symbol
 _atom_site_label
 _atom_site_symmetry_multiplicity
 _atom_site_fract_x
 _atom_site_fract_y
 _atom_site_fract_z
 _atom_site_occupancy
  Ba  Ba0  1  0.46717999  0.74754002  0.65621802  1
  Ba  Ba1  1  0.53282001  0.25246001  0.34378200  1
  Ba  Ba2  1  0.97908303  0.24978301  0.65367800  1
  Ba  Ba3  1  0.02091697  0.75021702  0.34632203  1
  Cu  Cu4  1  0.50000002  0.00000000  -0.00000001  1
  Cu  Cu5  1  0.99731402  0.75054002  0.99718102  1
  Cu  Cu6  1  0.50000000  0.50000001  0.00000000  1
  Cu  Cu7  1  0.00268599  0.24946001  0.00281901  1
  F  F8  1  0.80955900  0.99869902  0.10561601  1
  F  F9  1  0.31438700  0.24562300  0.10360300  1
  F  F10  1  0.30473398  0.75144702  0.10019902  1
  F  F11  1  0.51392099  0.75060702  0.39419302  1
  F  F12  1  0.18585899  0.49990101  0.89685203  1
  F  F13  1  0.69526602  0.24855301  0.89980101  1
  F  F14  1  0.81414102  0.50009901  0.10314800  1
  F  F15  1  0.48607901  0.24939301  0.60580701  1
  F  F16  1  0.19044101  0.00130100  0.89438401  1
  F  F17  1  0.68561300  0.75437702  0.89639702  1
  F  F18  1  0.97901601  0.74313001  0.60482401  1
  F  F19  1  0.02098399  0.25687001  0.39517601  1
