# generated using pymatgen
data_CsF
_symmetry_space_group_name_H-M   'P 1'
_cell_length_a   6.41742802
_cell_length_b   6.41742802
_cell_length_c   12.46145821
_cell_angle_alpha   104.92124176
_cell_angle_beta   104.92124176
_cell_angle_gamma   90.00000000
_symmetry_Int_Tables_number   1
_chemical_formula_structural   CsF
_chemical_formula_sum   'Cs10 F10'
_cell_volume   477.96903828
_cell_formula_units_Z   10
loop_
 _symmetry_equiv_pos_site_id
 _symmetry_equiv_pos_as_xyz
  1  'x, y, z'
loop_
 _atom_site_type_symbol
 _atom_site_label
 _atom_site_symmetry_multiplicity
 _atom_site_fract_x
 _atom_site_fract_y
 _atom_site_fract_z
 _atom_site_occupancy
  Cs  Cs0  1  0.98601099  0.13921500  0.62598198  1
  F  F1  1  0.36078499  0.51398900  0.37401798  1
  Cs  Cs2  1  0.01323299  0.86002899  0.37401798  1
  Cs  Cs3  1  0.26398900  0.26323300  0.87401797  1
  Cs  Cs4  1  0.11002899  0.76323300  0.87401797  1
  F  F5  1  0.86078499  0.36002900  0.37401798  1
  F  F6  1  0.51323300  0.01398900  0.37401799  1
  F  F7  1  0.13997099  0.63921500  0.62598198  1
  F  F8  1  0.48601099  0.98676699  0.62598197  1
  Cs  Cs9  1  0.73676699  0.38997100  0.12598199  1
  F  F10  1  0.38921499  0.73601100  0.12598199  1
  Cs  Cs11  1  0.76398899  0.11078500  0.87401797  1
  F  F12  1  0.63997099  0.48676700  0.62598198  1
  Cs  Cs13  1  0.88921499  0.88997099  0.12598198  1
  Cs  Cs14  1  0.23676700  0.23601100  0.12598199  1
  F  F15  1  0.61002899  0.61078500  0.87401797  1
  F  F16  1  0.50000000  0.00000000  -0.00000000  1
  Cs  Cs17  1  0.74999999  0.75000000  0.49999998  1
  Cs  Cs18  1  0.25000000  0.25000000  0.49999998  1
  F  F19  1  -0.00000000  0.50000000  -0.00000000  1
