# generated using pymatgen
data_Sc2GaCo3
_symmetry_space_group_name_H-M   'P 1'
_cell_length_a   5.02520180
_cell_length_b   5.02520132
_cell_length_c   8.20226669
_cell_angle_alpha   90.00000000
_cell_angle_beta   90.00000000
_cell_angle_gamma   120.00000000
_symmetry_Int_Tables_number   1
_chemical_formula_structural   Sc2GaCo3
_chemical_formula_sum   'Sc4 Ga2 Co6'
_cell_volume   179.37895492
_cell_formula_units_Z   2
loop_
 _symmetry_equiv_pos_site_id
 _symmetry_equiv_pos_as_xyz
  1  'x, y, z'
loop_
 _atom_site_type_symbol
 _atom_site_label
 _atom_site_symmetry_multiplicity
 _atom_site_fract_x
 _atom_site_fract_y
 _atom_site_fract_z
 _atom_site_occupancy
  Sc  Sc0  1  0.33333330  0.66666667  0.06535200  1
  Sc  Sc1  1  0.66666667  0.33333333  0.56535202  1
  Sc  Sc2  1  0.33333330  0.66666667  0.43464802  1
  Sc  Sc3  1  0.66666667  0.33333333  0.93464803  1
  Co  Co4  1  0.17267395  0.82732600  0.75000003  1
  Co  Co5  1  0.82732599  0.65465200  0.25000001  1
  Ga  Ga6  1  0.34534800  0.17267400  0.25000001  1
  Co  Co7  1  0.65465197  0.82732600  0.75000003  1
  Ga  Ga8  1  0.17267398  0.34534800  0.75000003  1
  Co  Co9  1  0.82732602  0.17267400  0.25000001  1
  Co  Co10  1  0.00000000  0.00000000  0.50000002  1
  Co  Co11  1  0.00000000  0.00000000  0.00000000  1
