# generated using pymatgen
data_Lu3ScSe5
_symmetry_space_group_name_H-M   'P 1'
_cell_length_a   3.60997891
_cell_length_b   7.15682411
_cell_length_c   7.15682364
_cell_angle_alpha   120.00000000
_cell_angle_beta   90.00000000
_cell_angle_gamma   90.00000000
_symmetry_Int_Tables_number   1
_chemical_formula_structural   Lu3ScSe5
_chemical_formula_sum   'Lu3 Sc1 Se5'
_cell_volume   160.13119918
_cell_formula_units_Z   1
loop_
 _symmetry_equiv_pos_site_id
 _symmetry_equiv_pos_as_xyz
  1  'x, y, z'
loop_
 _atom_site_type_symbol
 _atom_site_label
 _atom_site_symmetry_multiplicity
 _atom_site_fract_x
 _atom_site_fract_y
 _atom_site_fract_z
 _atom_site_occupancy
  Lu  Lu0  1  0.50000001  0.60200298  0.99999998  1
  Lu  Lu1  1  0.50000001  0.00000000  0.60200300  1
  Lu  Lu2  1  0.50000001  0.39799699  0.39799699  1
  Se  Se3  1  0.50000001  0.00000000  -0.00000000  1
  Se  Se4  1  1.00000002  0.66666665  0.33333331  1
  Se  Se5  1  0.00000000  0.33333332  0.66666666  1
  Sc  Sc6  1  1.00000002  0.99999997  0.26521897  1
  Se  Se7  1  0.00000000  0.73478098  0.73478098  1
  Se  Se8  1  0.00000000  0.26521899  -0.00000001  1
