# generated using pymatgen
data_Pr3Bi4
_symmetry_space_group_name_H-M   'P 1'
_cell_length_a   8.29766655
_cell_length_b   8.29766655
_cell_length_c   8.29766655
_cell_angle_alpha   109.47122192
_cell_angle_beta   109.47122192
_cell_angle_gamma   109.47122192
_symmetry_Int_Tables_number   1
_chemical_formula_structural   Pr3Bi4
_chemical_formula_sum   'Pr6 Bi8'
_cell_volume   439.79068175
_cell_formula_units_Z   2
loop_
 _symmetry_equiv_pos_site_id
 _symmetry_equiv_pos_as_xyz
  1  'x, y, z'
loop_
 _atom_site_type_symbol
 _atom_site_label
 _atom_site_symmetry_multiplicity
 _atom_site_fract_x
 _atom_site_fract_y
 _atom_site_fract_z
 _atom_site_occupancy
  Pr  Pr0  1  1.00000004  0.50000002  0.14083405  1
  Pr  Pr1  1  1.00000004  0.50000002  0.64083405  1
  Pr  Pr2  1  0.35916602  0.35916601  0.85916603  1
  Bi  Bi3  1  0.64083400  0.00000000  0.00000002  1
  Bi  Bi4  1  0.85916606  0.85916603  0.35916607  1
  Pr  Pr5  1  0.50000001  0.14083401  0.50000002  1
  Pr  Pr6  1  0.14083400  0.00000000  0.00000000  1
  Pr  Pr7  1  0.50000004  0.64083402  0.50000005  1
  Bi  Bi8  1  0.25000006  0.87500003  0.62500005  1
  Bi  Bi9  1  0.87500001  0.12500000  0.75000003  1
  Bi  Bi10  1  0.62500003  0.37500001  0.25000003  1
  Bi  Bi11  1  0.75000004  0.62500002  0.87500005  1
  Bi  Bi12  1  0.12500002  0.25000001  0.37500002  1
  Bi  Bi13  1  0.37500005  0.75000003  0.12500005  1
