# generated using pymatgen
data_BiI2
_symmetry_space_group_name_H-M   'P 1'
_cell_length_a   3.88335800
_cell_length_b   3.88335800
_cell_length_c   8.30781555
_cell_angle_alpha   103.51601410
_cell_angle_beta   103.51601410
_cell_angle_gamma   90.00000000
_symmetry_Int_Tables_number   1
_chemical_formula_structural   BiI2
_chemical_formula_sum   'Bi1 I2'
_cell_volume   118.24431110
_cell_formula_units_Z   1
loop_
 _symmetry_equiv_pos_site_id
 _symmetry_equiv_pos_as_xyz
  1  'x, y, z'
loop_
 _atom_site_type_symbol
 _atom_site_label
 _atom_site_symmetry_multiplicity
 _atom_site_fract_x
 _atom_site_fract_y
 _atom_site_fract_z
 _atom_site_occupancy
  Bi  Bi0  1  0.00000000  0.00000000  0.00000000  1
  I  I1  1  0.62038600  0.62038600  0.24077201  1
  I  I2  1  0.37961400  0.37961400  0.75922804  1
