# generated using pymatgen
data_CsLiF3
_symmetry_space_group_name_H-M   'P 1'
_cell_length_a   5.83717585
_cell_length_b   5.90598202
_cell_length_c   5.83717585
_cell_angle_alpha   119.61535645
_cell_angle_beta   90.00000000
_cell_angle_gamma   119.61535645
_symmetry_Int_Tables_number   1
_chemical_formula_structural   CsLiF3
_chemical_formula_sum   'Cs2 Li2 F6'
_cell_volume   143.93136745
_cell_formula_units_Z   2
loop_
 _symmetry_equiv_pos_site_id
 _symmetry_equiv_pos_as_xyz
  1  'x, y, z'
loop_
 _atom_site_type_symbol
 _atom_site_label
 _atom_site_symmetry_multiplicity
 _atom_site_fract_x
 _atom_site_fract_y
 _atom_site_fract_z
 _atom_site_occupancy
  Cs  Cs0  1  0.75000004  0.50000003  0.25000002  1
  Cs  Cs1  1  0.25000002  0.50000003  0.75000004  1
  Li  Li2  1  0.50000001  0.00000000  0.50000001  1
  Li  Li3  1  0.00000000  0.00000000  0.00000000  1
  F  F4  1  0.30964504  1.00000005  0.19035504  1
  F  F5  1  0.80964502  0.00000000  0.30964501  1
  F  F6  1  0.19035504  1.00000005  0.69035505  1
  F  F7  1  0.69035502  0.00000000  0.80964502  1
  F  F8  1  0.25000002  0.50000003  0.25000002  1
  F  F9  1  0.75000004  0.50000003  0.75000004  1
