# generated using pymatgen
data_Tb2Ga7Co10
_symmetry_space_group_name_H-M   'P 1'
_cell_length_a   6.45551634
_cell_length_b   6.45551634
_cell_length_c   6.45551634
_cell_angle_alpha   83.02977753
_cell_angle_beta   83.02977753
_cell_angle_gamma   83.02978516
_symmetry_Int_Tables_number   1
_chemical_formula_structural   Tb2Ga7Co10
_chemical_formula_sum   'Tb2 Ga7 Co10'
_cell_volume   263.50661261
_cell_formula_units_Z   1
loop_
 _symmetry_equiv_pos_site_id
 _symmetry_equiv_pos_as_xyz
  1  'x, y, z'
loop_
 _atom_site_type_symbol
 _atom_site_label
 _atom_site_symmetry_multiplicity
 _atom_site_fract_x
 _atom_site_fract_y
 _atom_site_fract_z
 _atom_site_occupancy
  Tb  Tb0  1  0.65829702  0.65829699  0.65829705  1
  Tb  Tb1  1  0.34128201  0.34128200  0.34128203  1
  Ga  Ga2  1  0.00043103  0.70946999  0.29013303  1
  Co  Co3  1  0.29013300  0.00043100  0.70946999  1
  Co  Co4  1  0.70947001  0.29013300  0.00043106  1
  Ga  Ga5  1  0.70947000  0.00043100  0.29013303  1
  Co  Co6  1  0.29013303  0.70946999  0.00043105  1
  Co  Co7  1  0.00043101  0.29013300  0.70946999  1
  Co  Co8  1  0.49987100  0.00028400  0.00028403  1
  Co  Co9  1  0.00028402  0.49987100  0.00028403  1
  Ga  Ga10  1  0.00028400  0.00028400  0.49987098  1
  Ga  Ga11  1  0.90328703  0.90328699  0.90328707  1
  Co  Co12  1  0.09709100  0.09709100  0.09709101  1
  Ga  Ga13  1  0.84548101  0.34243500  0.34243505  1
  Ga  Ga14  1  0.34243503  0.84548099  0.34243505  1
  Ga  Ga15  1  0.34243501  0.34243500  0.84548101  1
  Co  Co16  1  0.15477302  0.65720699  0.65720702  1
  Co  Co17  1  0.65720700  0.15477300  0.65720702  1
  Co  Co18  1  0.65720702  0.65720699  0.15477307  1
