# generated using pymatgen
data_CoP2O7
_symmetry_space_group_name_H-M   'P 1'
_cell_length_a   6.21189690
_cell_length_b   6.62457466
_cell_length_c   6.95439768
_cell_angle_alpha   88.80840302
_cell_angle_beta   66.64207458
_cell_angle_gamma   85.30848694
_symmetry_Int_Tables_number   1
_chemical_formula_structural   CoP2O7
_chemical_formula_sum   'Co2 P4 O14'
_cell_volume   261.82648259
_cell_formula_units_Z   2
loop_
 _symmetry_equiv_pos_site_id
 _symmetry_equiv_pos_as_xyz
  1  'x, y, z'
loop_
 _atom_site_type_symbol
 _atom_site_label
 _atom_site_symmetry_multiplicity
 _atom_site_fract_x
 _atom_site_fract_y
 _atom_site_fract_z
 _atom_site_occupancy
  Co  Co0  1  0.09958204  0.64154699  0.78832796  1
  Co  Co1  1  0.90041802  0.35845299  0.21167201  1
  P  P2  1  0.33588202  0.38944699  0.35095299  1
  P  P3  1  0.66411804  0.61055299  0.64904698  1
  P  P4  1  0.22010701  0.14367100  0.74814200  1
  P  P5  1  0.77989305  0.85632899  0.25185797  1
  O  O6  1  0.40212004  0.61627799  0.79324597  1
  O  O7  1  0.57113506  0.89972698  0.18844396  1
  O  O8  1  0.42886501  0.10027300  0.81155601  1
  O  O9  1  0.90028900  0.05022500  0.22728703  1
  O  O10  1  0.30746601  0.19908000  0.50473300  1
  O  O11  1  0.20113902  0.34822099  0.21510198  1
  O  O12  1  0.06471302  0.33003299  0.87281698  1
  O  O13  1  0.59788002  0.38372199  0.20675400  1
  O  O14  1  0.69253405  0.80091999  0.49526697  1
  O  O15  1  0.24346904  0.58337199  0.47988297  1
  O  O16  1  0.09971106  0.94977498  0.77271294  1
  O  O17  1  0.93528704  0.66996699  0.12718299  1
  O  O18  1  0.79886104  0.65177899  0.78489799  1
  O  O19  1  0.75653103  0.41662799  0.52011700  1
