# generated using pymatgen
data_Tb(GeRu)2
_symmetry_space_group_name_H-M   'P 1'
_cell_length_a   4.12360001
_cell_length_b   4.12360001
_cell_length_c   5.86744833
_cell_angle_alpha   110.57274628
_cell_angle_beta   110.57274628
_cell_angle_gamma   90.00000000
_symmetry_Int_Tables_number   1
_chemical_formula_structural   Tb(GeRu)2
_chemical_formula_sum   'Tb1 Ge2 Ru2'
_cell_volume   86.57882879
_cell_formula_units_Z   1
loop_
 _symmetry_equiv_pos_site_id
 _symmetry_equiv_pos_as_xyz
  1  'x, y, z'
loop_
 _atom_site_type_symbol
 _atom_site_label
 _atom_site_symmetry_multiplicity
 _atom_site_fract_x
 _atom_site_fract_y
 _atom_site_fract_z
 _atom_site_occupancy
  Tb  Tb0  1  0.00000000  0.00000000  0.00000000  1
  Ge  Ge1  1  0.37902699  0.37902700  0.75805397  1
  Ge  Ge2  1  0.62097299  0.62097299  0.24194598  1
  Ru  Ru3  1  0.74999999  0.25000000  0.49999998  1
  Ru  Ru4  1  0.24999999  0.74999999  0.49999997  1
