# generated using pymatgen
data_In2Pt
_symmetry_space_group_name_H-M   'P 1'
_cell_length_a   4.23997021
_cell_length_b   7.01521778
_cell_length_c   7.01521730
_cell_angle_alpha   120.00000763
_cell_angle_beta   90.00000000
_cell_angle_gamma   90.00000000
_symmetry_Int_Tables_number   1
_chemical_formula_structural   In2Pt
_chemical_formula_sum   'In6 Pt3'
_cell_volume   180.70729685
_cell_formula_units_Z   3
loop_
 _symmetry_equiv_pos_site_id
 _symmetry_equiv_pos_as_xyz
  1  'x, y, z'
loop_
 _atom_site_type_symbol
 _atom_site_label
 _atom_site_symmetry_multiplicity
 _atom_site_fract_x
 _atom_site_fract_y
 _atom_site_fract_z
 _atom_site_occupancy
  In  In0  1  0.49999998  0.76733205  0.76733204  1
  In  In1  1  0.49999998  0.23266802  0.00000002  1
  In  In2  1  0.49999998  1.00000007  0.23266807  1
  In  In3  1  0.00000000  1.00000007  0.57565206  1
  In  In4  1  0.99999995  0.42434803  0.42434802  1
  In  In5  1  -0.00000000  0.57565204  0.00000004  1
  Pt  Pt6  1  0.49999998  0.66666671  0.33333337  1
  Pt  Pt7  1  0.49999998  0.33333336  0.66666667  1
  Pt  Pt8  1  0.00000000  0.00000000  0.00000000  1
