# generated using pymatgen
data_Cs2Se
_symmetry_space_group_name_H-M   'P 1'
_cell_length_a   6.09681892
_cell_length_b   6.10037613
_cell_length_c   13.80078983
_cell_angle_alpha   90.00000000
_cell_angle_beta   90.00000000
_cell_angle_gamma   90.00000000
_symmetry_Int_Tables_number   1
_chemical_formula_structural   Cs2Se
_chemical_formula_sum   'Cs8 Se4'
_cell_volume   513.29123923
_cell_formula_units_Z   4
loop_
 _symmetry_equiv_pos_site_id
 _symmetry_equiv_pos_as_xyz
  1  'x, y, z'
loop_
 _atom_site_type_symbol
 _atom_site_label
 _atom_site_symmetry_multiplicity
 _atom_site_fract_x
 _atom_site_fract_y
 _atom_site_fract_z
 _atom_site_occupancy
  Cs  Cs0  1  0.25000000  0.75326398  0.85696601  1
  Cs  Cs1  1  0.25000000  0.25326399  0.64303401  1
  Cs  Cs2  1  0.75000001  0.24673599  0.85696601  1
  Cs  Cs3  1  0.75000001  0.74673598  0.64303401  1
  Cs  Cs4  1  0.25000000  0.25326399  0.35696600  1
  Se  Se5  1  0.25000000  0.75326398  0.14303400  1
  Cs  Cs6  1  0.75000001  0.74673598  0.35696600  1
  Se  Se7  1  0.75000001  0.24673599  0.14303400  1
  Cs  Cs8  1  0.25000000  0.26519099  0.00000000  1
  Cs  Cs9  1  0.75000001  0.73480898  0.00000000  1
  Se  Se10  1  0.25000000  0.76519098  0.50000001  1
  Se  Se11  1  0.75000001  0.23480900  0.50000001  1
