# generated using pymatgen
data_SmCo4BP3
_symmetry_space_group_name_H-M   'P 1'
_cell_length_a   5.33630419
_cell_length_b   5.33630419
_cell_length_c   7.44528008
_cell_angle_alpha   90.00000000
_cell_angle_beta   90.00000000
_cell_angle_gamma   90.00000000
_symmetry_Int_Tables_number   1
_chemical_formula_structural   SmCo4BP3
_chemical_formula_sum   'Sm2 Co8 B2 P6'
_cell_volume   212.01285551
_cell_formula_units_Z   2
loop_
 _symmetry_equiv_pos_site_id
 _symmetry_equiv_pos_as_xyz
  1  'x, y, z'
loop_
 _atom_site_type_symbol
 _atom_site_label
 _atom_site_symmetry_multiplicity
 _atom_site_fract_x
 _atom_site_fract_y
 _atom_site_fract_z
 _atom_site_occupancy
  Sm  Sm0  1  0.49999998  0.49999998  0.49999999  1
  Sm  Sm1  1  0.00000000  0.00000000  0.00000000  1
  P  P2  1  0.16859099  0.49999998  0.14884000  1
  P  P3  1  0.83140897  0.49999998  0.14884000  1
  B  B4  1  0.00000000  0.66859098  0.64883999  1
  P  P5  1  0.33140899  0.00000000  0.35116000  1
  B  B6  1  0.66859098  0.00000000  0.35116000  1
  P  P7  1  0.49999998  0.83140897  0.85115999  1
  P  P8  1  0.49999998  0.16859099  0.85115999  1
  P  P9  1  0.00000000  0.33140899  0.64883999  1
  Co  Co10  1  0.74858297  0.49999998  0.85439099  1
  Co  Co11  1  0.25141699  0.49999998  0.85439099  1
  Co  Co12  1  0.00000000  0.75141697  0.35439100  1
  Co  Co13  1  0.24858299  0.00000000  0.64560899  1
  Co  Co14  1  0.75141697  0.00000000  0.64560899  1
  Co  Co15  1  0.49999998  0.74858297  0.14560900  1
  Co  Co16  1  0.49999998  0.25141699  0.14560900  1
  Co  Co17  1  0.00000000  0.24858299  0.35439100  1
