# generated using pymatgen
data_Bi2MoO4
_symmetry_space_group_name_H-M   'P 1'
_cell_length_a   3.87284398
_cell_length_b   3.87284398
_cell_length_c   6.62137175
_cell_angle_alpha   107.00470734
_cell_angle_beta   107.00470734
_cell_angle_gamma   90.00000000
_symmetry_Int_Tables_number   1
_chemical_formula_structural   Bi2MoO4
_chemical_formula_sum   'Bi2 Mo1 O4'
_cell_volume   90.42135480
_cell_formula_units_Z   1
loop_
 _symmetry_equiv_pos_site_id
 _symmetry_equiv_pos_as_xyz
  1  'x, y, z'
loop_
 _atom_site_type_symbol
 _atom_site_label
 _atom_site_symmetry_multiplicity
 _atom_site_fract_x
 _atom_site_fract_y
 _atom_site_fract_z
 _atom_site_occupancy
  Bi  Bi0  1  0.64219000  0.64219000  0.28437998  1
  Bi  Bi1  1  0.35963000  0.35963000  0.71925998  1
  Mo  Mo2  1  0.00493000  0.00493000  0.00986000  1
  O  O3  1  0.99581000  0.49581000  0.99161997  1
  O  O4  1  0.49580999  0.99581000  0.99161997  1
  O  O5  1  0.83010400  0.83010400  0.66020797  1
  O  O6  1  0.17152500  0.17152500  0.34304999  1
