# generated using pymatgen
data_TbGe5
_symmetry_space_group_name_H-M   'P 1'
_cell_length_a   4.05266380
_cell_length_b   8.18496799
_cell_length_c   13.83963203
_cell_angle_alpha   90.00000000
_cell_angle_beta   90.00000000
_cell_angle_gamma   104.33361816
_symmetry_Int_Tables_number   1
_chemical_formula_structural   TbGe5
_chemical_formula_sum   'Tb2 Ge10'
_cell_volume   444.78271472
_cell_formula_units_Z   2
loop_
 _symmetry_equiv_pos_site_id
 _symmetry_equiv_pos_as_xyz
  1  'x, y, z'
loop_
 _atom_site_type_symbol
 _atom_site_label
 _atom_site_symmetry_multiplicity
 _atom_site_fract_x
 _atom_site_fract_y
 _atom_site_fract_z
 _atom_site_occupancy
  Tb  Tb0  1  0.31351307  0.62702599  0.25000000  1
  Ge  Ge1  1  0.68648706  0.37297399  0.75000000  1
  Ge  Ge2  1  0.67247606  0.34495199  0.25000000  1
  Ge  Ge3  1  0.32752407  0.65504799  0.75000000  1
  Ge  Ge4  1  0.91955811  0.83911598  0.14970100  1
  Ge  Ge5  1  0.08044202  0.16088400  0.85029900  1
  Ge  Ge6  1  0.08044202  0.16088400  0.64970100  1
  Ge  Ge7  1  0.91955811  0.83911598  0.35029900  1
  Ge  Ge8  1  0.21382405  0.42764799  0.43408100  1
  Tb  Tb9  1  0.78617608  0.57235199  0.56591900  1
  Ge  Ge10  1  0.78617608  0.57235199  0.93408100  1
  Ge  Ge11  1  0.21382405  0.42764799  0.06591900  1
