# generated using pymatgen
data_W3O5
_symmetry_space_group_name_H-M   'P 1'
_cell_length_a   5.20215797
_cell_length_b   5.71623230
_cell_length_c   7.08837843
_cell_angle_alpha   109.88562012
_cell_angle_beta   90.00000000
_cell_angle_gamma   117.06710815
_symmetry_Int_Tables_number   1
_chemical_formula_structural   W3O5
_chemical_formula_sum   'W6 O10'
_cell_volume   173.46574429
_cell_formula_units_Z   2
loop_
 _symmetry_equiv_pos_site_id
 _symmetry_equiv_pos_as_xyz
  1  'x, y, z'
loop_
 _atom_site_type_symbol
 _atom_site_label
 _atom_site_symmetry_multiplicity
 _atom_site_fract_x
 _atom_site_fract_y
 _atom_site_fract_z
 _atom_site_occupancy
  W  W0  1  0.37183595  0.73977795  0.77834697  1
  W  W1  1  0.36794195  0.73977795  0.27834697  1
  W  W2  1  0.62816399  0.26022198  0.22165299  1
  W  W3  1  0.63205799  0.26022198  0.72165299  1
  W  W4  1  0.00000000  0.00000000  0.00000000  1
  W  W5  1  0.00000000  0.00000000  0.50000000  1
  O  O6  1  0.96285596  0.61209796  0.33627197  1
  O  O7  1  0.64924196  0.61209796  0.83627197  1
  O  O8  1  0.03714397  0.38790197  0.66372798  1
  O  O9  1  0.35075798  0.38790197  0.16372798  1
  O  O10  1  0.26928194  0.84165794  0.05725396  1
  O  O11  1  0.57237595  0.84165794  0.55725396  1
  O  O12  1  0.73071799  0.15834199  0.94274600  1
  O  O13  1  0.42762399  0.15834199  0.44274599  1
  O  O14  1  0.80624300  0.00000000  0.25000000  1
  O  O15  1  0.19375693  0.99999993  0.74999996  1
