# generated using pymatgen
data_Ba2Cu3Pb3O8
_symmetry_space_group_name_H-M   'P 1'
_cell_length_a   3.83396506
_cell_length_b   3.83396506
_cell_length_c   16.03081322
_cell_angle_alpha   90.00000000
_cell_angle_beta   90.00000000
_cell_angle_gamma   90.00000000
_symmetry_Int_Tables_number   1
_chemical_formula_structural   Ba2Cu3Pb3O8
_chemical_formula_sum   'Ba2 Cu3 Pb3 O8'
_cell_volume   235.64154204
_cell_formula_units_Z   1
loop_
 _symmetry_equiv_pos_site_id
 _symmetry_equiv_pos_as_xyz
  1  'x, y, z'
loop_
 _atom_site_type_symbol
 _atom_site_label
 _atom_site_symmetry_multiplicity
 _atom_site_fract_x
 _atom_site_fract_y
 _atom_site_fract_z
 _atom_site_occupancy
  Ba  Ba0  1  0.00000000  0.00000000  0.77961604  1
  Ba  Ba1  1  0.00000000  0.00000000  0.22038401  1
  Pb  Pb2  1  0.00000000  0.00000000  0.00000000  1
  Cu  Cu3  1  0.00000000  0.00000000  0.50000002  1
  Cu  Cu4  1  0.49999999  0.49999999  0.89649504  1
  Cu  Cu5  1  0.49999999  0.49999999  0.10350501  1
  Pb  Pb6  1  0.49999999  0.49999999  0.38688602  1
  Pb  Pb7  1  0.49999999  0.49999999  0.61311403  1
  O  O8  1  0.00000000  0.49999999  0.90918304  1
  O  O9  1  0.49999999  0.00000000  0.09081700  1
  O  O10  1  0.00000000  0.49999999  0.09081700  1
  O  O11  1  0.49999999  0.00000000  0.90918304  1
  O  O12  1  0.00000000  0.00000000  0.38362902  1
  O  O13  1  0.49999999  0.49999999  0.74966004  1
  O  O14  1  0.49999999  0.49999999  0.25034001  1
  O  O15  1  0.00000000  0.00000000  0.61637103  1
