# generated using pymatgen
data_Ta4CoGe4Ir3
_symmetry_space_group_name_H-M   'P 1'
_cell_length_a   3.98532605
_cell_length_b   6.31743097
_cell_length_c   7.43087006
_cell_angle_alpha   90.00000000
_cell_angle_beta   90.00000000
_cell_angle_gamma   90.00000000
_symmetry_Int_Tables_number   1
_chemical_formula_structural   Ta4CoGe4Ir3
_chemical_formula_sum   'Ta4 Co1 Ge4 Ir3'
_cell_volume   187.08718064
_cell_formula_units_Z   1
loop_
 _symmetry_equiv_pos_site_id
 _symmetry_equiv_pos_as_xyz
  1  'x, y, z'
loop_
 _atom_site_type_symbol
 _atom_site_label
 _atom_site_symmetry_multiplicity
 _atom_site_fract_x
 _atom_site_fract_y
 _atom_site_fract_z
 _atom_site_occupancy
  Ta  Ta0  1  0.25000000  0.02714900  0.31477500  1
  Ta  Ta1  1  0.25000000  0.52714900  0.18522500  1
  Ta  Ta2  1  0.74999999  0.97285100  0.68522499  1
  Ta  Ta3  1  0.74999999  0.47285100  0.81477499  1
  Ge  Ge4  1  0.25000000  0.26104800  0.62351400  1
  Ge  Ge5  1  0.25000000  0.76104800  0.87648599  1
  Ge  Ge6  1  0.74999999  0.73895200  0.37648600  1
  Ge  Ge7  1  0.74999999  0.23895200  0.12351400  1
  Co  Co8  1  0.25000000  0.15588600  0.94046699  1
  Ir  Ir9  1  0.25000000  0.65588600  0.55953300  1
  Ir  Ir10  1  0.74999999  0.84411400  0.05953300  1
  Ir  Ir11  1  0.74999999  0.34411400  0.44046700  1
