# generated using pymatgen
data_LiVO2
_symmetry_space_group_name_H-M   'P 1'
_cell_length_a   3.02230501
_cell_length_b   6.20275354
_cell_length_c   6.73876953
_cell_angle_alpha   72.30281067
_cell_angle_beta   77.83471680
_cell_angle_gamma   86.49964142
_symmetry_Int_Tables_number   1
_chemical_formula_structural   LiVO2
_chemical_formula_sum   'Li3 V3 O6'
_cell_volume   117.64751880
_cell_formula_units_Z   3
loop_
 _symmetry_equiv_pos_site_id
 _symmetry_equiv_pos_as_xyz
  1  'x, y, z'
loop_
 _atom_site_type_symbol
 _atom_site_label
 _atom_site_symmetry_multiplicity
 _atom_site_fract_x
 _atom_site_fract_y
 _atom_site_fract_z
 _atom_site_occupancy
  Li  Li0  1  0.99842407  0.99777799  0.00232599  1
  Li  Li1  1  0.66803802  0.33555200  0.66441899  1
  Li  Li2  1  0.33321038  0.66660566  0.33327231  1
  V  V3  1  0.33343401  0.16670400  0.33333600  1
  V  V4  1  0.00158704  0.50376699  0.00136098  1
  V  V5  1  0.66519106  0.82965399  0.66532498  1
  O  O6  1  0.53763305  0.72771899  0.97630097  1
  O  O7  1  0.12921404  0.60555599  0.69022497  1
  O  O8  1  0.20857000  0.05918400  0.63667099  1
  O  O9  1  0.78778007  0.92542599  0.35971798  1
  O  O10  1  0.87880103  0.40794300  0.30695400  1
  O  O11  1  0.45812902  0.27410100  0.03006900  1
