# generated using pymatgen
data_BP7H2N
_symmetry_space_group_name_H-M   'P 1'
_cell_length_a   3.05904007
_cell_length_b   3.05904055
_cell_length_c   12.18985081
_cell_angle_alpha   90.00000000
_cell_angle_beta   90.00000000
_cell_angle_gamma   119.99999237
_symmetry_Int_Tables_number   1
_chemical_formula_structural   BP7H2N
_chemical_formula_sum   'B1 P7 H2 N1'
_cell_volume   98.78692214
_cell_formula_units_Z   1
loop_
 _symmetry_equiv_pos_site_id
 _symmetry_equiv_pos_as_xyz
  1  'x, y, z'
loop_
 _atom_site_type_symbol
 _atom_site_label
 _atom_site_symmetry_multiplicity
 _atom_site_fract_x
 _atom_site_fract_y
 _atom_site_fract_z
 _atom_site_occupancy
  P  P0  1  0.66666664  0.33333333  0.89978301  1
  P  P1  1  0.33333330  0.66666666  0.10021700  1
  P  P2  1  0.00000000  0.00000000  0.69849901  1
  P  P3  1  0.00000000  0.00000000  0.30150100  1
  H  H4  1  0.33333330  0.66666666  0.46854401  1
  H  H5  1  0.66666664  0.33333333  0.53145601  1
  P  P6  1  0.66666664  0.33333333  0.20062900  1
  P  P7  1  0.33333330  0.66666666  0.79937101  1
  N  N8  1  0.66666664  0.33333333  0.61103001  1
  B  B9  1  0.33333330  0.66666666  0.38897001  1
  P  P10  1  0.00000000  0.00000000  0.00000000  1
