# generated using pymatgen
data_Ho3Al2InGe3
_symmetry_space_group_name_H-M   'P 1'
_cell_length_a   4.39446878
_cell_length_b   6.98154783
_cell_length_c   6.98154879
_cell_angle_alpha   119.99999237
_cell_angle_beta   90.00000000
_cell_angle_gamma   90.00000000
_symmetry_Int_Tables_number   1
_chemical_formula_structural   Ho3Al2InGe3
_chemical_formula_sum   'Ho3 Al2 In1 Ge3'
_cell_volume   185.49856057
_cell_formula_units_Z   1
loop_
 _symmetry_equiv_pos_site_id
 _symmetry_equiv_pos_as_xyz
  1  'x, y, z'
loop_
 _atom_site_type_symbol
 _atom_site_label
 _atom_site_symmetry_multiplicity
 _atom_site_fract_x
 _atom_site_fract_y
 _atom_site_fract_z
 _atom_site_occupancy
  Ho  Ho0  1  0.50000002  0.00000000  0.57193001  1
  Ho  Ho1  1  0.50000002  0.42807000  0.42806998  1
  Ho  Ho2  1  0.50000002  0.57193000  0.99999998  1
  Ge  Ge3  1  1.00000005  0.33333333  0.66666666  1
  Ge  Ge4  1  1.00000005  0.66666666  0.33333330  1
  Ge  Ge5  1  0.50000002  0.00000000  -0.00000000  1
  Al  Al6  1  1.00000005  0.24469800  1.00000000  1
  Al  Al7  1  1.00000005  0.75530199  0.75530197  1
  In  In8  1  0.00000000  0.00000000  0.24469801  1
