# generated using pymatgen
data_La3OsN3
_symmetry_space_group_name_H-M   'P 1'
_cell_length_a   4.97201920
_cell_length_b   7.34553146
_cell_length_c   7.34644318
_cell_angle_alpha   119.71020508
_cell_angle_beta   90.00000000
_cell_angle_gamma   90.00000000
_symmetry_Int_Tables_number   1
_chemical_formula_structural   La3OsN3
_chemical_formula_sum   'La6 Os2 N6'
_cell_volume   233.03684660
_cell_formula_units_Z   2
loop_
 _symmetry_equiv_pos_site_id
 _symmetry_equiv_pos_as_xyz
  1  'x, y, z'
loop_
 _atom_site_type_symbol
 _atom_site_label
 _atom_site_symmetry_multiplicity
 _atom_site_fract_x
 _atom_site_fract_y
 _atom_site_fract_z
 _atom_site_occupancy
  La  La0  1  0.74999997  0.63608403  0.90601506  1
  La  La1  1  0.74999997  0.09421900  0.73639902  1
  La  La2  1  0.74999997  0.26649901  0.35964002  1
  La  La3  1  0.24999999  0.36391602  0.09398503  1
  La  La4  1  0.24999999  0.90578104  0.26360107  1
  La  La5  1  0.24999999  0.73350103  0.64036006  1
  Os  Os6  1  0.24999999  0.33181701  0.66555803  1
  Os  Os7  1  0.74999997  0.66818303  0.33444205  1
  N  N8  1  0.24999999  0.61165703  0.90019206  1
  N  N9  1  0.24999999  0.09956700  0.71706102  1
  N  N10  1  0.24999999  0.28425101  0.38387903  1
  N  N11  1  0.74999997  0.38834302  0.09980803  1
  N  N12  1  0.74999997  0.90043304  0.28293907  1
  N  N13  1  0.74999997  0.71574903  0.61612106  1
