# generated using pymatgen
data_Ho2Ga
_symmetry_space_group_name_H-M   'P 1'
_cell_length_a   4.17448092
_cell_length_b   7.98783016
_cell_length_c   7.98782921
_cell_angle_alpha   120.00000000
_cell_angle_beta   90.00000000
_cell_angle_gamma   90.00000000
_symmetry_Int_Tables_number   1
_chemical_formula_structural   Ho2Ga
_chemical_formula_sum   'Ho6 Ga3'
_cell_volume   230.66978153
_cell_formula_units_Z   3
loop_
 _symmetry_equiv_pos_site_id
 _symmetry_equiv_pos_as_xyz
  1  'x, y, z'
loop_
 _atom_site_type_symbol
 _atom_site_label
 _atom_site_symmetry_multiplicity
 _atom_site_fract_x
 _atom_site_fract_y
 _atom_site_fract_z
 _atom_site_occupancy
  Ho  Ho0  1  0.50000001  0.76485396  0.76485398  1
  Ho  Ho1  1  0.50000001  0.99999995  0.23514595  1
  Ho  Ho2  1  0.50000001  0.23514599  -0.00000001  1
  Ho  Ho3  1  0.00000000  0.39488698  0.39488699  1
  Ho  Ho4  1  1.00000002  0.99999995  0.60511296  1
  Ho  Ho5  1  0.00000000  0.60511297  -0.00000003  1
  Ga  Ga6  1  0.00000000  0.00000000  0.00000000  1
  Ga  Ga7  1  0.50000001  0.66666664  0.33333331  1
  Ga  Ga8  1  0.50000001  0.33333332  0.66666666  1
