# generated using pymatgen
data_RbBaNd4CrMoS8
_symmetry_space_group_name_H-M   'P 1'
_cell_length_a   4.10036802
_cell_length_b   7.30742645
_cell_length_c   14.33595753
_cell_angle_alpha   90.00000000
_cell_angle_beta   90.00000000
_cell_angle_gamma   106.29373169
_symmetry_Int_Tables_number   1
_chemical_formula_structural   RbBaNd4CrMoS8
_chemical_formula_sum   'Rb1 Ba1 Nd4 Cr1 Mo1 S8'
_cell_volume   412.29780973
_cell_formula_units_Z   1
loop_
 _symmetry_equiv_pos_site_id
 _symmetry_equiv_pos_as_xyz
  1  'x, y, z'
loop_
 _atom_site_type_symbol
 _atom_site_label
 _atom_site_symmetry_multiplicity
 _atom_site_fract_x
 _atom_site_fract_y
 _atom_site_fract_z
 _atom_site_occupancy
  Ba  Ba0  1  0.88738000  0.77476001  0.75000002  1
  Rb  Rb1  1  0.11262000  0.22524000  0.25000001  1
  Nd  Nd2  1  0.63420800  0.26841600  0.56505402  1
  Nd  Nd3  1  0.36579200  0.73158401  0.43494601  1
  Nd  Nd4  1  0.36579200  0.73158401  0.06505400  1
  Nd  Nd5  1  0.63420800  0.26841600  0.93494603  1
  Mo  Mo6  1  0.16024000  0.32048000  0.75000002  1
  Cr  Cr7  1  0.83976000  0.67952001  0.25000001  1
  S  S8  1  0.43611600  0.87223201  0.25000001  1
  S  S9  1  0.56388400  0.12776800  0.75000002  1
  S  S10  1  0.73510300  0.47020601  0.11117000  1
  S  S11  1  0.26489700  0.52979401  0.88883003  1
  S  S12  1  0.26489700  0.52979401  0.61117002  1
  S  S13  1  0.73510300  0.47020601  0.38883001  1
  S  S14  1  0.00000000  0.00000000  0.00000000  1
  S  S15  1  0.00000000  0.00000000  0.50000002  1
