# generated using pymatgen
data_Tb(CoGe)2
_symmetry_space_group_name_H-M   'P 1'
_cell_length_a   3.93029594
_cell_length_b   3.93029594
_cell_length_c   6.04036379
_cell_angle_alpha   108.98593140
_cell_angle_beta   108.98593140
_cell_angle_gamma   90.00000000
_symmetry_Int_Tables_number   1
_chemical_formula_structural   Tb(CoGe)2
_chemical_formula_sum   'Tb1 Co2 Ge2'
_cell_volume   82.84435987
_cell_formula_units_Z   1
loop_
 _symmetry_equiv_pos_site_id
 _symmetry_equiv_pos_as_xyz
  1  'x, y, z'
loop_
 _atom_site_type_symbol
 _atom_site_label
 _atom_site_symmetry_multiplicity
 _atom_site_fract_x
 _atom_site_fract_y
 _atom_site_fract_z
 _atom_site_occupancy
  Tb  Tb0  1  0.00000000  0.00000000  0.00000000  1
  Co  Co1  1  0.74999998  0.25000000  0.49999995  1
  Co  Co2  1  0.24999996  0.74999999  0.49999994  1
  Ge  Ge3  1  0.61701797  0.61701799  0.23403594  1
  Ge  Ge4  1  0.38298198  0.38298200  0.76596395  1
