# generated using pymatgen
data_VGa5
_symmetry_space_group_name_H-M   'P 1'
_cell_length_a   3.22649908
_cell_length_b   3.22649908
_cell_length_c   7.87281704
_cell_angle_alpha   90.00000000
_cell_angle_beta   90.00000000
_cell_angle_gamma   90.00000000
_symmetry_Int_Tables_number   1
_chemical_formula_structural   VGa5
_chemical_formula_sum   'V1 Ga5'
_cell_volume   81.95835823
_cell_formula_units_Z   1
loop_
 _symmetry_equiv_pos_site_id
 _symmetry_equiv_pos_as_xyz
  1  'x, y, z'
loop_
 _atom_site_type_symbol
 _atom_site_label
 _atom_site_symmetry_multiplicity
 _atom_site_fract_x
 _atom_site_fract_y
 _atom_site_fract_z
 _atom_site_occupancy
  Ga  Ga0  1  0.49999999  0.49999999  0.16461600  1
  Ga  Ga1  1  0.00000000  0.00000000  0.66567600  1
  V  V2  1  0.00000000  0.00000000  0.33432400  1
  Ga  Ga3  1  0.49999999  0.49999999  0.83538400  1
  Ga  Ga4  1  0.00000000  0.00000000  0.00000000  1
  Ga  Ga5  1  0.49999999  0.49999999  0.50000000  1
