# generated using pymatgen
data_HoCoSi
_symmetry_space_group_name_H-M   'P 1'
_cell_length_a   3.89564800
_cell_length_b   3.89564800
_cell_length_c   7.58060217
_cell_angle_alpha   104.88906860
_cell_angle_beta   104.88906860
_cell_angle_gamma   90.00000000
_symmetry_Int_Tables_number   1
_chemical_formula_structural   HoCoSi
_chemical_formula_sum   'Ho2 Co2 Si2'
_cell_volume   107.17950166
_cell_formula_units_Z   2
loop_
 _symmetry_equiv_pos_site_id
 _symmetry_equiv_pos_as_xyz
  1  'x, y, z'
loop_
 _atom_site_type_symbol
 _atom_site_label
 _atom_site_symmetry_multiplicity
 _atom_site_fract_x
 _atom_site_fract_y
 _atom_site_fract_z
 _atom_site_occupancy
  Ho  Ho0  1  0.74999999  0.25000000  0.49999998  1
  Ho  Ho1  1  0.00000000  0.00000000  0.00000000  1
  Si  Si2  1  0.16838798  0.66838799  0.33677599  1
  Co  Co3  1  0.58161198  0.58161199  0.16322398  1
  Co  Co4  1  0.33161198  0.83161199  0.66322398  1
  Si  Si5  1  0.41838799  0.41838800  0.83677599  1
