# generated using pymatgen
data_Mg4Ga7Cu
_symmetry_space_group_name_H-M   'P 1'
_cell_length_a   5.31047678
_cell_length_b   5.31071281
_cell_length_c   8.35304832
_cell_angle_alpha   90.00000000
_cell_angle_beta   90.00000000
_cell_angle_gamma   119.06835175
_symmetry_Int_Tables_number   1
_chemical_formula_structural   Mg4Ga7Cu
_chemical_formula_sum   'Mg4 Ga7 Cu1'
_cell_volume   205.90315137
_cell_formula_units_Z   1
loop_
 _symmetry_equiv_pos_site_id
 _symmetry_equiv_pos_as_xyz
  1  'x, y, z'
loop_
 _atom_site_type_symbol
 _atom_site_label
 _atom_site_symmetry_multiplicity
 _atom_site_fract_x
 _atom_site_fract_y
 _atom_site_fract_z
 _atom_site_occupancy
  Mg  Mg0  1  0.33361696  0.66645096  0.54784498  1
  Mg  Mg1  1  0.67040900  0.32959198  0.42455498  1
  Mg  Mg2  1  0.67040900  0.32959198  0.07544500  1
  Mg  Mg3  1  0.33361696  0.66645096  0.95215496  1
  Ga  Ga4  1  0.99600003  0.00386600  0.48071198  1
  Ga  Ga5  1  0.99600003  0.00386600  0.01928800  1
  Ga  Ga6  1  0.33897500  0.16597799  0.74999997  1
  Ga  Ga7  1  0.83401498  0.66103296  0.74999997  1
  Ga  Ga8  1  0.83233302  0.16764699  0.74999997  1
  Ga  Ga9  1  0.65139896  0.82911295  0.24999999  1
  Ga  Ga10  1  0.17086698  0.34881198  0.24999999  1
  Cu  Cu11  1  0.17235795  0.82759795  0.24999999  1
