# generated using pymatgen
data_LaHWNOF
_symmetry_space_group_name_H-M   'P 1'
_cell_length_a   2.90532494
_cell_length_b   4.27846289
_cell_length_c   4.55815411
_cell_angle_alpha   90.00000000
_cell_angle_beta   90.00000000
_cell_angle_gamma   90.00000000
_symmetry_Int_Tables_number   1
_chemical_formula_structural   LaHWNOF
_chemical_formula_sum   'La1 H1 W1 N1 O1 F1'
_cell_volume   56.65933654
_cell_formula_units_Z   1
loop_
 _symmetry_equiv_pos_site_id
 _symmetry_equiv_pos_as_xyz
  1  'x, y, z'
loop_
 _atom_site_type_symbol
 _atom_site_label
 _atom_site_symmetry_multiplicity
 _atom_site_fract_x
 _atom_site_fract_y
 _atom_site_fract_z
 _atom_site_occupancy
  La  La0  1  0.50000001  0.75000002  0.74884498  1
  H  H1  1  0.50000001  0.25000001  0.25115499  1
  N  N2  1  0.00000000  0.75000002  0.30284699  1
  F  F3  1  0.00000000  0.25000001  0.69715298  1
  W  W4  1  0.00000000  0.50000001  -0.00000000  1
  O  O5  1  0.00000000  0.00000000  0.00000000  1
