# generated using pymatgen
data_InBi11
_symmetry_space_group_name_H-M   'P 1'
_cell_length_a   4.83463812
_cell_length_b   7.73222780
_cell_length_c   10.07319546
_cell_angle_alpha   90.00000000
_cell_angle_beta   90.00000000
_cell_angle_gamma   90.00000000
_symmetry_Int_Tables_number   1
_chemical_formula_structural   InBi11
_chemical_formula_sum   'In1 Bi11'
_cell_volume   376.56146365
_cell_formula_units_Z   1
loop_
 _symmetry_equiv_pos_site_id
 _symmetry_equiv_pos_as_xyz
  1  'x, y, z'
loop_
 _atom_site_type_symbol
 _atom_site_label
 _atom_site_symmetry_multiplicity
 _atom_site_fract_x
 _atom_site_fract_y
 _atom_site_fract_z
 _atom_site_occupancy
  Bi  Bi0  1  0.24999999  0.72666002  0.91818896  1
  Bi  Bi1  1  0.74999998  0.27334001  0.08181100  1
  Bi  Bi2  1  0.74999998  0.77334002  0.41818898  1
  Bi  Bi3  1  0.24999999  0.22666001  0.58181097  1
  Bi  Bi4  1  0.24999999  0.63626302  0.60381397  1
  Bi  Bi5  1  0.74999998  0.36373701  0.39618598  1
  Bi  Bi6  1  0.74999998  0.86373702  0.10381400  1
  Bi  Bi7  1  0.24999999  0.13626300  0.89618596  1
  Bi  Bi8  1  0.24999999  0.48449601  0.14134399  1
  In  In9  1  0.74999998  0.51550401  0.85865596  1
  Bi  Bi10  1  0.74999998  0.01550400  0.64134397  1
  Bi  Bi11  1  0.24999999  0.98449603  0.35865598  1
