# generated using pymatgen
data_Nd2Ge5
_symmetry_space_group_name_H-M   'P 1'
_cell_length_a   4.02889824
_cell_length_b   4.02889824
_cell_length_c   10.81065559
_cell_angle_alpha   100.73921967
_cell_angle_beta   100.73921967
_cell_angle_gamma   90.00000000
_symmetry_Int_Tables_number   1
_chemical_formula_structural   Nd2Ge5
_chemical_formula_sum   'Nd2 Ge5'
_cell_volume   169.27614081
_cell_formula_units_Z   1
loop_
 _symmetry_equiv_pos_site_id
 _symmetry_equiv_pos_as_xyz
  1  'x, y, z'
loop_
 _atom_site_type_symbol
 _atom_site_label
 _atom_site_symmetry_multiplicity
 _atom_site_fract_x
 _atom_site_fract_y
 _atom_site_fract_z
 _atom_site_occupancy
  Nd  Nd0  1  0.87921193  0.87921194  0.75842396  1
  Nd  Nd1  1  0.12078799  0.12078799  0.24157599  1
  Ge  Ge2  1  0.24999998  0.74999995  0.49999998  1
  Ge  Ge3  1  0.49949496  0.99949493  0.99898996  1
  Ge  Ge4  1  0.00050499  0.50050497  0.00100999  1
  Ge  Ge5  1  0.67602695  0.67602696  0.35205397  1
  Ge  Ge6  1  0.32397298  0.32397298  0.64794598  1
