# generated using pymatgen
data_Th2N2Cl
_symmetry_space_group_name_H-M   'P 1'
_cell_length_a   4.05345011
_cell_length_b   4.05345011
_cell_length_c   5.88381052
_cell_angle_alpha   110.14870453
_cell_angle_beta   110.14870453
_cell_angle_gamma   90.00000000
_symmetry_Int_Tables_number   1
_chemical_formula_structural   Th2N2Cl
_chemical_formula_sum   'Th2 N2 Cl1'
_cell_volume   84.42761585
_cell_formula_units_Z   1
loop_
 _symmetry_equiv_pos_site_id
 _symmetry_equiv_pos_as_xyz
  1  'x, y, z'
loop_
 _atom_site_type_symbol
 _atom_site_label
 _atom_site_symmetry_multiplicity
 _atom_site_fract_x
 _atom_site_fract_y
 _atom_site_fract_z
 _atom_site_occupancy
  Cl  Cl0  1  0.00000000  0.00000000  0.00000000  1
  N  N1  1  0.74999996  0.24999999  0.49999996  1
  N  N2  1  0.24999996  0.74999996  0.49999995  1
  Th  Th3  1  0.36487097  0.36487098  0.72974196  1
  Th  Th4  1  0.63512894  0.63512897  0.27025794  1
