# generated using pymatgen
data_UB4Os
_symmetry_space_group_name_H-M   'P 1'
_cell_length_a   3.53116798
_cell_length_b   5.95339632
_cell_length_c   5.95339632
_cell_angle_alpha   104.11846161
_cell_angle_beta   90.00000000
_cell_angle_gamma   90.00000000
_symmetry_Int_Tables_number   1
_chemical_formula_structural   UB4Os
_chemical_formula_sum   'U2 B8 Os2'
_cell_volume   121.37443531
_cell_formula_units_Z   2
loop_
 _symmetry_equiv_pos_site_id
 _symmetry_equiv_pos_as_xyz
  1  'x, y, z'
loop_
 _atom_site_type_symbol
 _atom_site_label
 _atom_site_symmetry_multiplicity
 _atom_site_fract_x
 _atom_site_fract_y
 _atom_site_fract_z
 _atom_site_occupancy
  U  U0  1  1.00000000  0.69997300  0.30002698  1
  U  U1  1  -0.00000000  0.30002700  0.69997300  1
  B  B2  1  0.50000000  0.06551200  0.38419700  1
  B  B3  1  0.50000000  0.93448800  0.61580298  1
  B  B4  1  0.50000000  0.38419700  0.06551199  1
  B  B5  1  0.50000000  0.61580300  0.93448799  1
  B  B6  1  0.50000000  0.37966700  0.37966699  1
  B  B7  1  0.50000000  0.62033300  0.62033299  1
  B  B8  1  0.50000000  0.90730700  0.09269297  1
  B  B9  1  0.50000000  0.09269300  0.90730701  1
  Os  Os10  1  1.00000000  0.18647800  0.18647800  1
  Os  Os11  1  1.00000000  0.81352200  0.81352198  1
