# generated using pymatgen
data_Ho4Ga7Pd
_symmetry_space_group_name_H-M   'P 1'
_cell_length_a   5.28338623
_cell_length_b   5.28338575
_cell_length_c   8.64738464
_cell_angle_alpha   90.00000000
_cell_angle_beta   90.00000000
_cell_angle_gamma   120.00000000
_symmetry_Int_Tables_number   1
_chemical_formula_structural   Ho4Ga7Pd
_chemical_formula_sum   'Ho4 Ga7 Pd1'
_cell_volume   209.04514695
_cell_formula_units_Z   1
loop_
 _symmetry_equiv_pos_site_id
 _symmetry_equiv_pos_as_xyz
  1  'x, y, z'
loop_
 _atom_site_type_symbol
 _atom_site_label
 _atom_site_symmetry_multiplicity
 _atom_site_fract_x
 _atom_site_fract_y
 _atom_site_fract_z
 _atom_site_occupancy
  Ho  Ho0  1  0.66666662  0.33333331  0.93802104  1
  Ho  Ho1  1  0.33333328  0.66666663  0.43802102  1
  Ho  Ho2  1  0.33333328  0.66666663  0.06197900  1
  Ho  Ho3  1  0.66666662  0.33333331  0.56197902  1
  Ga  Ga4  1  0.00000000  0.00000000  0.00000000  1
  Ga  Ga5  1  0.00000000  0.00000000  0.50000002  1
  Ga  Ga6  1  0.17187795  0.82812295  0.75000003  1
  Ga  Ga7  1  0.82812193  0.65624396  0.25000001  1
  Ga  Ga8  1  0.34375498  0.17187699  0.25000001  1
  Ga  Ga9  1  0.65624493  0.82812295  0.75000003  1
  Ga  Ga10  1  0.17187797  0.34375598  0.75000003  1
  Pd  Pd11  1  0.82812195  0.17187699  0.25000001  1
