# generated using pymatgen
data_NaSrLi(WO3)4
_symmetry_space_group_name_H-M   'P 1'
_cell_length_a   5.52245474
_cell_length_b   5.52245474
_cell_length_c   7.75256681
_cell_angle_alpha   90.00000000
_cell_angle_beta   90.00000000
_cell_angle_gamma   91.09583282
_symmetry_Int_Tables_number   1
_chemical_formula_structural   NaSrLi(WO3)4
_chemical_formula_sum   'Na1 Sr1 Li1 W4 O12'
_cell_volume   236.39071316
_cell_formula_units_Z   1
loop_
 _symmetry_equiv_pos_site_id
 _symmetry_equiv_pos_as_xyz
  1  'x, y, z'
loop_
 _atom_site_type_symbol
 _atom_site_label
 _atom_site_symmetry_multiplicity
 _atom_site_fract_x
 _atom_site_fract_y
 _atom_site_fract_z
 _atom_site_occupancy
  Sr  Sr0  1  0.74168296  0.25831699  -0.00000000  1
  Li  Li1  1  0.24997295  0.75002697  -0.00000000  1
  Na  Na2  1  0.74619696  0.25380299  0.50000001  1
  W  W3  1  0.24855798  0.25146899  0.25700701  1
  W  W4  1  0.74853093  0.75144197  0.25700701  1
  W  W5  1  0.74853093  0.75144197  0.74299302  1
  W  W6  1  0.24855798  0.25146899  0.74299302  1
  O  O7  1  0.99148094  0.49023598  0.23510801  1
  O  O8  1  0.50976398  0.00851900  0.76489202  1
  O  O9  1  0.99148094  0.49023598  0.76489202  1
  O  O10  1  0.50976398  0.00851900  0.23510801  1
  O  O11  1  0.51665296  0.48334698  0.29000201  1
  O  O12  1  0.51665296  0.48334698  0.70999802  1
  O  O13  1  0.19291898  0.21396999  0.50000001  1
  O  O14  1  0.78602993  0.80708097  0.50000001  1
  O  O15  1  0.00149695  0.99850296  0.19009600  1
  O  O16  1  0.00149695  0.99850296  0.80990402  1
  O  O17  1  0.30056497  0.30933499  1.00000002  1
  O  O18  1  0.69066494  0.69943497  -0.00000000  1
