# generated using pymatgen
data_Tb2TaCo15
_symmetry_space_group_name_H-M   'P 1'
_cell_length_a   4.02309418
_cell_length_b   8.58913040
_cell_length_c   8.58912945
_cell_angle_alpha   120.00000000
_cell_angle_beta   90.00000000
_cell_angle_gamma   90.00000000
_symmetry_Int_Tables_number   1
_chemical_formula_structural   Tb2TaCo15
_chemical_formula_sum   'Tb2 Ta1 Co15'
_cell_volume   257.03317169
_cell_formula_units_Z   1
loop_
 _symmetry_equiv_pos_site_id
 _symmetry_equiv_pos_as_xyz
  1  'x, y, z'
loop_
 _atom_site_type_symbol
 _atom_site_label
 _atom_site_symmetry_multiplicity
 _atom_site_fract_x
 _atom_site_fract_y
 _atom_site_fract_z
 _atom_site_occupancy
  Ta  Ta0  1  0.00000000  0.00000000  0.00000000  1
  Tb  Tb1  1  0.49999998  0.33333331  0.66666664  1
  Tb  Tb2  1  0.49999998  0.66666662  0.33333329  1
  Co  Co3  1  0.99999996  0.49999996  0.99999996  1
  Co  Co4  1  0.00000000  0.49999996  0.49999997  1
  Co  Co5  1  0.99999996  0.00000000  0.49999999  1
  Co  Co6  1  0.00000000  0.18015299  0.36030599  1
  Co  Co7  1  0.00000000  0.81984694  0.63969395  1
  Co  Co8  1  0.00000000  0.18015299  0.81984598  1
  Co  Co9  1  0.99999996  0.81984694  0.18015395  1
  Co  Co10  1  -0.00000000  0.63969295  0.81984596  1
  Co  Co11  1  0.00000000  0.36030697  0.18015398  1
  Co  Co12  1  0.49999998  0.69392395  -0.00000004  1
  Co  Co13  1  0.49999998  0.30607598  0.99999997  1
  Co  Co14  1  0.49999998  0.30607598  0.30607598  1
  Co  Co15  1  0.49999998  0.69392395  0.69392395  1
  Co  Co16  1  0.49999998  0.00000000  0.69392399  1
  Co  Co17  1  0.49999998  0.00000000  0.30607600  1
