# generated using pymatgen
data_Tb3CoGe8
_symmetry_space_group_name_H-M   'P 1'
_cell_length_a   4.03161192
_cell_length_b   4.08779812
_cell_length_c   12.40407085
_cell_angle_alpha   90.00000000
_cell_angle_beta   99.35271454
_cell_angle_gamma   90.00000000
_symmetry_Int_Tables_number   1
_chemical_formula_structural   Tb3CoGe8
_chemical_formula_sum   'Tb3 Co1 Ge8'
_cell_volume   201.70675317
_cell_formula_units_Z   1
loop_
 _symmetry_equiv_pos_site_id
 _symmetry_equiv_pos_as_xyz
  1  'x, y, z'
loop_
 _atom_site_type_symbol
 _atom_site_label
 _atom_site_symmetry_multiplicity
 _atom_site_fract_x
 _atom_site_fract_y
 _atom_site_fract_z
 _atom_site_occupancy
  Tb  Tb0  1  0.09770300  0.49999999  0.19540600  1
  Tb  Tb1  1  0.46682801  0.49999999  0.93365602  1
  Tb  Tb2  1  0.78189602  0.99999997  0.56379202  1
  Co  Co3  1  0.65536302  0.99999997  0.31072601  1
  Ge  Ge4  1  0.90994603  0.99999997  0.81989202  1
  Ge  Ge5  1  0.37136401  0.00000000  0.74272801  1
  Ge  Ge6  1  0.56261702  0.99999997  0.12523401  1
  Ge  Ge7  1  0.87209203  0.49999999  0.74418402  1
  Ge  Ge8  1  0.00277200  0.00000000  0.00554400  1
  Ge  Ge9  1  0.19366301  0.00000000  0.38732601  1
  Ge  Ge10  1  0.28909101  0.49999999  0.57818201  1
  Ge  Ge11  1  0.69336502  0.49999999  0.38673002  1
