# generated using pymatgen
data_BaGaO3
_symmetry_space_group_name_H-M   'P 1'
_cell_length_a   5.52987623
_cell_length_b   5.52987623
_cell_length_c   7.02025557
_cell_angle_alpha   66.80563354
_cell_angle_beta   66.80563354
_cell_angle_gamma   60.00000000
_symmetry_Int_Tables_number   1
_chemical_formula_structural   BaGaO3
_chemical_formula_sum   'Ba2 Ga2 O6'
_cell_volume   165.57653215
_cell_formula_units_Z   2
loop_
 _symmetry_equiv_pos_site_id
 _symmetry_equiv_pos_as_xyz
  1  'x, y, z'
loop_
 _atom_site_type_symbol
 _atom_site_label
 _atom_site_symmetry_multiplicity
 _atom_site_fract_x
 _atom_site_fract_y
 _atom_site_fract_z
 _atom_site_occupancy
  Ba  Ba0  1  0.86429603  0.86429598  0.40711190  1
  Ba  Ba1  1  0.13570401  0.13570400  0.59288798  1
  Ga  Ga2  1  0.66582503  0.66582498  0.00252492  1
  Ga  Ga3  1  0.33417501  0.33417499  0.99747495  1
  O  O4  1  0.05514103  0.64811498  0.82851595  1
  O  O5  1  0.64811502  0.46822799  0.82851593  1
  O  O6  1  0.46822800  0.05514100  0.82851596  1
  O  O7  1  0.94485901  0.35188499  0.17148393  1
  O  O8  1  0.53177204  0.94485897  0.17148391  1
  O  O9  1  0.35188502  0.53177198  0.17148395  1
