# generated using pymatgen
data_MgP10W
_symmetry_space_group_name_H-M   'P 1'
_cell_length_a   5.71581316
_cell_length_b   5.72586203
_cell_length_c   5.74196291
_cell_angle_alpha   90.00000000
_cell_angle_beta   89.56709290
_cell_angle_gamma   90.00000000
_symmetry_Int_Tables_number   1
_chemical_formula_structural   MgP10W
_chemical_formula_sum   'Mg1 P10 W1'
_cell_volume   187.91735417
_cell_formula_units_Z   1
loop_
 _symmetry_equiv_pos_site_id
 _symmetry_equiv_pos_as_xyz
  1  'x, y, z'
loop_
 _atom_site_type_symbol
 _atom_site_label
 _atom_site_symmetry_multiplicity
 _atom_site_fract_x
 _atom_site_fract_y
 _atom_site_fract_z
 _atom_site_occupancy
  P  P0  1  0.49999999  1.00000000  0.50000001  1
  P  P1  1  0.00000000  0.50000000  0.50000000  1
  Mg  Mg2  1  0.00000000  0.00000000  0.00000000  1
  W  W3  1  0.49999999  0.50000000  1.00000001  1
  P  P4  1  0.90481397  0.40410700  0.87318502  1
  P  P5  1  0.59518598  0.90410700  0.12681501  1
  P  P6  1  0.37522299  0.62349700  0.58768501  1
  P  P7  1  0.12477700  0.12349700  0.41231500  1
  P  P8  1  0.09518600  0.59589300  0.12681500  1
  P  P9  1  0.40481399  0.09589300  0.87318501  1
  P  P10  1  0.62477698  0.37650300  0.41231501  1
  P  P11  1  0.87522298  0.87650300  0.58768502  1
