# generated using pymatgen
data_Eu(GaP)2
_symmetry_space_group_name_H-M   'P 1'
_cell_length_a   3.98895001
_cell_length_b   3.98895001
_cell_length_c   7.04256916
_cell_angle_alpha   90.00000000
_cell_angle_beta   90.00000000
_cell_angle_gamma   120.00000000
_symmetry_Int_Tables_number   1
_chemical_formula_structural   Eu(GaP)2
_chemical_formula_sum   'Eu1 Ga2 P2'
_cell_volume   97.04629074
_cell_formula_units_Z   1
loop_
 _symmetry_equiv_pos_site_id
 _symmetry_equiv_pos_as_xyz
  1  'x, y, z'
loop_
 _atom_site_type_symbol
 _atom_site_label
 _atom_site_symmetry_multiplicity
 _atom_site_fract_x
 _atom_site_fract_y
 _atom_site_fract_z
 _atom_site_occupancy
  P  P0  1  0.66666666  0.33333333  0.78966398  1
  P  P1  1  0.33333333  0.66666666  0.21033600  1
  Eu  Eu2  1  0.00000000  0.00000000  0.49999999  1
  Ga  Ga3  1  0.66666666  0.33333333  0.12564600  1
  Ga  Ga4  1  0.33333333  0.66666666  0.87435398  1
