# generated using pymatgen
data_Cs8UBrCl7O
_symmetry_space_group_name_H-M   'P 1'
_cell_length_a   7.64554596
_cell_length_b   7.68056107
_cell_length_c   10.88890934
_cell_angle_alpha   90.00000000
_cell_angle_beta   89.83782959
_cell_angle_gamma   90.00000000
_symmetry_Int_Tables_number   1
_chemical_formula_structural   Cs8UBrCl7O
_chemical_formula_sum   'Cs8 U1 Br1 Cl7 O1'
_cell_volume   639.41687266
_cell_formula_units_Z   1
loop_
 _symmetry_equiv_pos_site_id
 _symmetry_equiv_pos_as_xyz
  1  'x, y, z'
loop_
 _atom_site_type_symbol
 _atom_site_label
 _atom_site_symmetry_multiplicity
 _atom_site_fract_x
 _atom_site_fract_y
 _atom_site_fract_z
 _atom_site_occupancy
  Cs  Cs0  1  0.99334201  0.53792300  0.74918102  1
  Cs  Cs1  1  0.49334200  0.96207699  0.24918101  1
  Cs  Cs2  1  0.50665800  0.03792300  0.75081902  1
  Cs  Cs3  1  0.00665800  0.46207700  0.25081901  1
  O  O4  1  0.00000000  0.00000000  0.00000000  1
  U  U5  1  0.50000000  0.50000000  0.50000001  1
  Br  Br6  1  0.44792500  0.49594600  0.74080602  1
  Cl  Cl7  1  0.70107000  0.78002499  0.52358401  1
  Cs  Cs8  1  0.05207500  0.99594599  0.75919402  1
  Cs  Cs9  1  0.20107000  0.71997499  0.02358400  1
  Cl  Cl10  1  0.29893000  0.21997500  0.47641601  1
  Cl  Cl11  1  0.55207500  0.50405400  0.25919401  1
  Cl  Cl12  1  0.22155400  0.70289199  0.47171701  1
  Cl  Cl13  1  0.72155400  0.79710799  0.97171702  1
  Cs  Cs14  1  0.94792501  0.00405400  0.24080601  1
  Cl  Cl15  1  0.77844600  0.29710800  0.52828301  1
  Cl  Cl16  1  0.79893000  0.28002500  0.97641602  1
  Cs  Cs17  1  0.27844600  0.20289200  0.02828300  1
