# generated using pymatgen
data_Ga
_symmetry_space_group_name_H-M   'P 1'
_cell_length_a   3.30616307
_cell_length_b   7.54971409
_cell_length_c   9.10430431
_cell_angle_alpha   94.89787292
_cell_angle_beta   90.00000000
_cell_angle_gamma   90.00000000
_symmetry_Int_Tables_number   1
_chemical_formula_structural   Ga
_chemical_formula_sum   Ga11
_cell_volume   226.41896365
_cell_formula_units_Z   11
loop_
 _symmetry_equiv_pos_site_id
 _symmetry_equiv_pos_as_xyz
  1  'x, y, z'
loop_
 _atom_site_type_symbol
 _atom_site_label
 _atom_site_symmetry_multiplicity
 _atom_site_fract_x
 _atom_site_fract_y
 _atom_site_fract_z
 _atom_site_occupancy
  Ga  Ga0  1  0.49999999  0.20064000  0.43994202  1
  Ga  Ga1  1  0.49999999  0.81850299  0.15834800  1
  Ga  Ga2  1  0.49999999  0.79935999  0.56005802  1
  Ga  Ga3  1  0.49999999  0.18149700  0.84165203  1
  Ga  Ga4  1  -0.00000000  0.45775099  0.66847002  1
  Ga  Ga5  1  -0.00000000  0.84175699  0.85759803  1
  Ga  Ga6  1  -0.00000000  0.49999999  1.00000004  1
  Ga  Ga7  1  -0.00000000  0.15824300  0.14240200  1
  Ga  Ga8  1  0.99999998  0.54224899  0.33153001  1
  Ga  Ga9  1  -0.00000000  0.92406699  0.36616301  1
  Ga  Ga10  1  -0.00000000  0.07593300  0.63383703  1
