# generated using pymatgen
data_Li3Cu3F8
_symmetry_space_group_name_H-M   'P 1'
_cell_length_a   6.03078270
_cell_length_b   6.03484058
_cell_length_c   6.03612900
_cell_angle_alpha   119.70842743
_cell_angle_beta   119.85121918
_cell_angle_gamma   90.33056641
_symmetry_Int_Tables_number   1
_chemical_formula_structural   Li3Cu3F8
_chemical_formula_sum   'Li3 Cu3 F8'
_cell_volume   155.92285379
_cell_formula_units_Z   1
loop_
 _symmetry_equiv_pos_site_id
 _symmetry_equiv_pos_as_xyz
  1  'x, y, z'
loop_
 _atom_site_type_symbol
 _atom_site_label
 _atom_site_symmetry_multiplicity
 _atom_site_fract_x
 _atom_site_fract_y
 _atom_site_fract_z
 _atom_site_occupancy
  Li  Li0  1  0.37501103  0.12499900  0.75000402  1
  Li  Li1  1  0.37500909  0.62500600  0.25001006  1
  Li  Li2  1  0.37495609  0.62496800  0.74996905  1
  Cu  Cu3  1  0.99563015  0.99535100  0.00091712  1
  Cu  Cu4  1  0.75436206  0.25464900  0.49907705  1
  Cu  Cu5  1  0.87500911  0.62501500  0.25001409  1
  F  F6  1  0.62742507  0.38833000  0.23885506  1
  F  F7  1  0.14962105  0.38729800  0.76205202  1
  F  F8  1  0.60037912  0.86269800  0.73795208  1
  F  F9  1  0.12258810  0.86167600  0.26115106  1
  F  F10  1  0.62066507  0.38600800  0.76374705  1
  F  F11  1  0.62093712  0.85788100  0.23604409  1
  F  F12  1  0.12906805  0.39212100  0.26395403  1
  F  F13  1  0.12934010  0.86400100  0.73625605  1
