# generated using pymatgen
data_NaIn(GaS2)2
_symmetry_space_group_name_H-M   'P 1'
_cell_length_a   3.26224208
_cell_length_b   3.26224160
_cell_length_c   14.42790985
_cell_angle_alpha   90.00000000
_cell_angle_beta   90.00000000
_cell_angle_gamma   120.00000763
_symmetry_Int_Tables_number   1
_chemical_formula_structural   NaIn(GaS2)2
_chemical_formula_sum   'Na1 In1 Ga2 S4'
_cell_volume   132.97387522
_cell_formula_units_Z   1
loop_
 _symmetry_equiv_pos_site_id
 _symmetry_equiv_pos_as_xyz
  1  'x, y, z'
loop_
 _atom_site_type_symbol
 _atom_site_label
 _atom_site_symmetry_multiplicity
 _atom_site_fract_x
 _atom_site_fract_y
 _atom_site_fract_z
 _atom_site_occupancy
  S  S0  1  0.66666667  0.33333335  0.91092301  1
  S  S1  1  0.33333337  0.66666669  0.41092300  1
  Ga  Ga2  1  0.33333337  0.66666669  0.08907700  1
  S  S3  1  0.66666667  0.33333335  0.58907701  1
  In  In4  1  0.66666667  0.33333335  0.25000000  1
  Na  Na5  1  0.33333337  0.66666669  0.75000001  1
  S  S6  1  0.00000000  0.00000000  0.00000000  1
  Ga  Ga7  1  0.00000000  0.00000000  0.50000001  1
