# generated using pymatgen
data_Mn(B2Mo)2
_symmetry_space_group_name_H-M   'P 1'
_cell_length_a   3.03896999
_cell_length_b   3.25661206
_cell_length_c   7.23027325
_cell_angle_alpha   103.01502991
_cell_angle_beta   102.13149261
_cell_angle_gamma   90.00000000
_symmetry_Int_Tables_number   1
_chemical_formula_structural   Mn(B2Mo)2
_chemical_formula_sum   'Mn1 B4 Mo2'
_cell_volume   68.07683792
_cell_formula_units_Z   1
loop_
 _symmetry_equiv_pos_site_id
 _symmetry_equiv_pos_as_xyz
  1  'x, y, z'
loop_
 _atom_site_type_symbol
 _atom_site_label
 _atom_site_symmetry_multiplicity
 _atom_site_fract_x
 _atom_site_fract_y
 _atom_site_fract_z
 _atom_site_occupancy
  Mn  Mn0  1  0.31444099  0.81444097  0.62888199  1
  Mo  Mo1  1  0.68555900  0.18555899  0.37111800  1
  Mo  Mo2  1  0.00000000  0.00000000  0.00000000  1
  B  B3  1  0.13130699  0.63130698  0.26261399  1
  B  B4  1  0.86869300  0.36869299  0.73738601  1
  B  B5  1  0.56430200  0.56430198  0.12860399  1
  B  B6  1  0.43569800  0.43569799  0.87139600  1
