# generated using pymatgen
data_BaGa3Ni
_symmetry_space_group_name_H-M   'P 1'
_cell_length_a   4.46908998
_cell_length_b   4.46908998
_cell_length_c   5.99853754
_cell_angle_alpha   111.87080383
_cell_angle_beta   111.87080383
_cell_angle_gamma   90.00000000
_symmetry_Int_Tables_number   1
_chemical_formula_structural   BaGa3Ni
_chemical_formula_sum   'Ba1 Ga3 Ni1'
_cell_volume   101.83382550
_cell_formula_units_Z   1
loop_
 _symmetry_equiv_pos_site_id
 _symmetry_equiv_pos_as_xyz
  1  'x, y, z'
loop_
 _atom_site_type_symbol
 _atom_site_label
 _atom_site_symmetry_multiplicity
 _atom_site_fract_x
 _atom_site_fract_y
 _atom_site_fract_z
 _atom_site_occupancy
  Ba  Ba0  1  0.00034800  0.00034800  0.00069600  1
  Ga  Ga1  1  0.42359998  0.42359999  0.84719996  1
  Ga  Ga2  1  0.26012297  0.76012299  0.52024595  1
  Ga  Ga3  1  0.76012298  0.26012300  0.52024596  1
  Ni  Ni4  1  0.65780597  0.65780599  0.31561195  1
