# generated using pymatgen
data_TbInCo2
_symmetry_space_group_name_H-M   'P 1'
_cell_length_a   4.07459688
_cell_length_b   5.09759617
_cell_length_c   7.23243904
_cell_angle_alpha   90.00000000
_cell_angle_beta   90.00000000
_cell_angle_gamma   90.00000000
_symmetry_Int_Tables_number   1
_chemical_formula_structural   TbInCo2
_chemical_formula_sum   'Tb2 In2 Co4'
_cell_volume   150.22245602
_cell_formula_units_Z   2
loop_
 _symmetry_equiv_pos_site_id
 _symmetry_equiv_pos_as_xyz
  1  'x, y, z'
loop_
 _atom_site_type_symbol
 _atom_site_label
 _atom_site_symmetry_multiplicity
 _atom_site_fract_x
 _atom_site_fract_y
 _atom_site_fract_z
 _atom_site_occupancy
  Tb  Tb0  1  0.50000001  0.74999998  0.71694000  1
  Tb  Tb1  1  0.50000001  0.24999999  0.28306000  1
  In  In2  1  0.00000000  0.74999998  0.34122400  1
  In  In3  1  0.00000000  0.24999999  0.65877600  1
  Co  Co4  1  0.00000000  0.00000000  0.00000000  1
  Co  Co5  1  0.00000000  0.49999998  -0.00000000  1
  Co  Co6  1  0.50000001  0.74999998  0.09131700  1
  Co  Co7  1  0.50000001  0.24999999  0.90868299  1
