# generated using pymatgen
data_ZnGaS2
_symmetry_space_group_name_H-M   'P 1'
_cell_length_a   3.25161648
_cell_length_b   3.25161648
_cell_length_c   5.65523386
_cell_angle_alpha   73.29239655
_cell_angle_beta   73.29239655
_cell_angle_gamma   59.99998856
_symmetry_Int_Tables_number   1
_chemical_formula_structural   ZnGaS2
_chemical_formula_sum   'Zn1 Ga1 S2'
_cell_volume   48.84569208
_cell_formula_units_Z   1
loop_
 _symmetry_equiv_pos_site_id
 _symmetry_equiv_pos_as_xyz
  1  'x, y, z'
loop_
 _atom_site_type_symbol
 _atom_site_label
 _atom_site_symmetry_multiplicity
 _atom_site_fract_x
 _atom_site_fract_y
 _atom_site_fract_z
 _atom_site_occupancy
  Zn  Zn0  1  0.00000000  0.00000000  0.00000000  1
  Ga  Ga1  1  0.50000001  0.50000001  0.49999997  1
  S  S2  1  0.24620300  0.24620301  0.26139098  1
  S  S3  1  0.75379701  0.75379702  0.73860895  1
