# generated using pymatgen
data_V6O6F7
_symmetry_space_group_name_H-M   'P 1'
_cell_length_a   3.74202609
_cell_length_b   6.36678076
_cell_length_c   10.29310417
_cell_angle_alpha   100.44622040
_cell_angle_beta   90.00000000
_cell_angle_gamma   107.08985901
_symmetry_Int_Tables_number   1
_chemical_formula_structural   V6O6F7
_chemical_formula_sum   'V6 O6 F7'
_cell_volume   230.14589064
_cell_formula_units_Z   1
loop_
 _symmetry_equiv_pos_site_id
 _symmetry_equiv_pos_as_xyz
  1  'x, y, z'
loop_
 _atom_site_type_symbol
 _atom_site_label
 _atom_site_symmetry_multiplicity
 _atom_site_fract_x
 _atom_site_fract_y
 _atom_site_fract_z
 _atom_site_occupancy
  V  V0  1  0.34091103  0.68182201  0.63224095  1
  V  V1  1  0.16659402  0.33318801  0.35999498  1
  V  V2  1  0.04023400  0.08046800  0.63087597  1
  V  V3  1  0.46733404  0.93466802  0.36123395  1
  V  V4  1  0.10903701  0.21807400  0.99474096  1
  V  V5  1  0.40693504  0.81387001  0.99818594  1
  O  O6  1  0.19367302  0.38734601  0.58652797  1
  O  O7  1  0.13844501  0.27689000  0.19348198  1
  F  F8  1  0.93162703  0.86325401  0.99583193  1
  O  O9  1  0.07584401  0.15168800  0.79830697  1
  O  O10  1  0.31361803  0.62723601  0.40423496  1
  F  F11  1  0.87400702  0.74801401  0.61153395  1
  O  O12  1  0.36618403  0.73236801  0.79803895  1
  F  F13  1  0.42966804  0.85933601  0.19399096  1
  F  F14  1  0.63407800  0.26815600  0.38062398  1
  F  F15  1  0.50033099  0.00066200  0.58557498  1
  F  F16  1  0.00736000  0.01472000  0.40665199  1
  O  O17  1  0.24914402  0.49828801  0.99659795  1
  F  F18  1  0.57142400  0.14284800  0.99608096  1
