# generated using pymatgen
data_Bi4Te
_symmetry_space_group_name_H-M   'P 1'
_cell_length_a   3.20052409
_cell_length_b   3.20052409
_cell_length_c   13.33217239
_cell_angle_alpha   83.10617065
_cell_angle_beta   83.10617065
_cell_angle_gamma   60.00000000
_symmetry_Int_Tables_number   1
_chemical_formula_structural   Bi4Te
_chemical_formula_sum   'Bi4 Te1'
_cell_volume   117.12830603
_cell_formula_units_Z   1
loop_
 _symmetry_equiv_pos_site_id
 _symmetry_equiv_pos_as_xyz
  1  'x, y, z'
loop_
 _atom_site_type_symbol
 _atom_site_label
 _atom_site_symmetry_multiplicity
 _atom_site_fract_x
 _atom_site_fract_y
 _atom_site_fract_z
 _atom_site_occupancy
  Te  Te0  1  0.59970698  0.59970698  0.20087900  1
  Bi  Bi1  1  0.19993099  0.19993099  0.40020701  1
  Bi  Bi2  1  0.80006897  0.80006898  0.59979301  1
  Bi  Bi3  1  0.40029299  0.40029299  0.79912101  1
  Bi  Bi4  1  0.00000000  0.00000000  0.00000000  1
