# generated using pymatgen
data_Tb4O7
_symmetry_space_group_name_H-M   'P 1'
_cell_length_a   4.46976805
_cell_length_b   5.89821482
_cell_length_c   6.48939610
_cell_angle_alpha   107.24221039
_cell_angle_beta   90.00000000
_cell_angle_gamma   112.26609039
_symmetry_Int_Tables_number   1
_chemical_formula_structural   Tb4O7
_chemical_formula_sum   'Tb4 O7'
_cell_volume   149.98613788
_cell_formula_units_Z   1
loop_
 _symmetry_equiv_pos_site_id
 _symmetry_equiv_pos_as_xyz
  1  'x, y, z'
loop_
 _atom_site_type_symbol
 _atom_site_label
 _atom_site_symmetry_multiplicity
 _atom_site_fract_x
 _atom_site_fract_y
 _atom_site_fract_z
 _atom_site_occupancy
  O  O0  1  0.67850897  0.35701797  0.86019497  1
  O  O1  1  0.69803297  0.39606597  0.32373998  1
  O  O2  1  0.30196696  0.60393396  0.67625996  1
  O  O3  1  0.32149095  0.64298195  0.13980497  1
  O  O4  1  0.00000000  0.00000000  0.49999999  1
  O  O5  1  0.00000000  0.00000000  0.00000000  1
  Tb  Tb6  1  0.13185298  0.26370598  0.84404597  1
  Tb  Tb7  1  0.14359498  0.28718998  0.29244198  1
  Tb  Tb8  1  0.85640494  0.71280995  0.70755796  1
  Tb  Tb9  1  0.86814694  0.73629395  0.15595397  1
  O  O10  1  0.49999993  0.99999993  -0.00000004  1
