# generated using pymatgen
data_Ho(P2Os3)2
_symmetry_space_group_name_H-M   'P 1'
_cell_length_a   3.33195806
_cell_length_b   7.03065777
_cell_length_c   7.03065777
_cell_angle_alpha   120.00000000
_cell_angle_beta   90.00000000
_cell_angle_gamma   90.00000000
_symmetry_Int_Tables_number   1
_chemical_formula_structural   Ho(P2Os3)2
_chemical_formula_sum   'Ho1 P4 Os6'
_cell_volume   142.63367559
_cell_formula_units_Z   1
loop_
 _symmetry_equiv_pos_site_id
 _symmetry_equiv_pos_as_xyz
  1  'x, y, z'
loop_
 _atom_site_type_symbol
 _atom_site_label
 _atom_site_symmetry_multiplicity
 _atom_site_fract_x
 _atom_site_fract_y
 _atom_site_fract_z
 _atom_site_occupancy
  Ho  Ho0  1  0.00000000  0.00000000  0.00000000  1
  Os  Os1  1  0.49999999  0.19998000  0.80001998  1
  Os  Os2  1  0.99999998  0.92618201  0.46309096  1
  Os  Os3  1  0.99999998  0.53690901  0.46309097  1
  Os  Os4  1  0.49999999  0.19998000  0.39995998  1
  Os  Os5  1  0.99999998  0.53690901  0.07381798  1
  Os  Os6  1  0.49999999  0.60004001  0.80001996  1
  P  P7  1  0.00000000  0.33333334  0.66666664  1
  P  P8  1  0.49999999  0.81209601  0.62419196  1
  P  P9  1  0.49999999  0.81209601  0.18790497  1
  P  P10  1  0.49999999  0.37580901  0.18790498  1
