# generated using pymatgen
data_Ba2CoF7
_symmetry_space_group_name_H-M   'P 1'
_cell_length_a   5.48222589
_cell_length_b   5.50470972
_cell_length_c   7.79002810
_cell_angle_alpha   89.99564362
_cell_angle_beta   89.99878693
_cell_angle_gamma   89.77194214
_symmetry_Int_Tables_number   1
_chemical_formula_structural   Ba2CoF7
_chemical_formula_sum   'Ba4 Co2 F14'
_cell_volume   235.08608919
_cell_formula_units_Z   2
loop_
 _symmetry_equiv_pos_site_id
 _symmetry_equiv_pos_as_xyz
  1  'x, y, z'
loop_
 _atom_site_type_symbol
 _atom_site_label
 _atom_site_symmetry_multiplicity
 _atom_site_fract_x
 _atom_site_fract_y
 _atom_site_fract_z
 _atom_site_occupancy
  Ba  Ba0  1  0.51541600  0.49681502  0.75002000  1
  Ba  Ba1  1  0.48787900  0.50056302  0.25000200  1
  Ba  Ba2  1  0.01088100  0.00140200  0.74999499  1
  Ba  Ba3  1  0.97293600  0.99820403  0.25004901  1
  F  F4  1  0.00121300  0.49990802  0.00193400  1
  F  F5  1  0.49832900  0.00002100  0.00165300  1
  Co  Co6  1  0.49838300  0.00007700  0.49833100  1
  Co  Co7  1  0.00118500  0.49988102  0.49801100  1
  F  F8  1  0.73392700  0.73214603  0.02060401  1
  F  F9  1  0.77141999  0.23030101  0.98225700  1
  F  F10  1  0.22232100  0.77651303  0.46933000  1
  F  F11  1  0.27188200  0.27314001  0.51776300  1
  F  F12  1  0.27193200  0.27313101  0.98215799  1
  F  F13  1  0.22239700  0.77657503  0.03064800  1
  F  F14  1  0.77151999  0.23043501  0.51772400  1
  F  F15  1  0.73392800  0.73218103  0.47943000  1
  F  F16  1  0.51708500  0.03599200  0.25000400  1
  F  F17  1  0.00388500  0.53698402  0.75003899  1
  F  F18  1  0.99917499  0.44300702  0.25005301  1
  F  F19  1  0.49430700  0.96272303  0.74999300  1
