# generated using pymatgen
data_Ga13Rh3
_symmetry_space_group_name_H-M   'P 1'
_cell_length_a   4.92935419
_cell_length_b   7.26224756
_cell_length_c   7.26224756
_cell_angle_alpha   83.38597870
_cell_angle_beta   70.16076660
_cell_angle_gamma   70.16076660
_symmetry_Int_Tables_number   1
_chemical_formula_structural   Ga13Rh3
_chemical_formula_sum   'Ga13 Rh3'
_cell_volume   230.03130743
_cell_formula_units_Z   1
loop_
 _symmetry_equiv_pos_site_id
 _symmetry_equiv_pos_as_xyz
  1  'x, y, z'
loop_
 _atom_site_type_symbol
 _atom_site_label
 _atom_site_symmetry_multiplicity
 _atom_site_fract_x
 _atom_site_fract_y
 _atom_site_fract_z
 _atom_site_occupancy
  Ga  Ga0  1  0.16758201  0.49999999  0.16483599  1
  Ga  Ga1  1  0.83241798  0.49999999  0.83516399  1
  Rh  Rh2  1  0.33241802  0.83516398  0.49999998  1
  Rh  Rh3  1  0.66758198  0.16483600  0.50000000  1
  Rh  Rh4  1  0.74999997  0.00000000  0.00000001  1
  Ga  Ga5  1  0.72166100  0.85242698  0.70080898  1
  Ga  Ga6  1  0.27489699  0.14757300  0.29919100  1
  Ga  Ga7  1  0.77833898  0.29919099  0.14757300  1
  Ga  Ga8  1  0.22510302  0.70080899  0.85242698  1
  Ga  Ga9  1  0.57408700  0.70080899  0.14757299  1
  Ga  Ga10  1  0.42246999  0.29919099  0.85242699  1
  Ga  Ga11  1  0.07753100  0.14757300  0.70080899  1
  Ga  Ga12  1  0.92591199  0.85242698  0.29919099  1
  Ga  Ga13  1  0.74999999  0.49999999  0.49999999  1
  Ga  Ga14  1  0.25000001  0.49999999  0.49999999  1
  Ga  Ga15  1  0.24999999  0.00000000  0.99999999  1
