# generated using pymatgen
data_Ba3Cu4Cl2O5
_symmetry_space_group_name_H-M   'P 1'
_cell_length_a   4.09630203
_cell_length_b   4.09630203
_cell_length_c   13.39607525
_cell_angle_alpha   98.79455566
_cell_angle_beta   98.79455566
_cell_angle_gamma   90.00000000
_symmetry_Int_Tables_number   1
_chemical_formula_structural   Ba3Cu4Cl2O5
_chemical_formula_sum   'Ba3 Cu4 Cl2 O5'
_cell_volume   219.46461003
_cell_formula_units_Z   1
loop_
 _symmetry_equiv_pos_site_id
 _symmetry_equiv_pos_as_xyz
  1  'x, y, z'
loop_
 _atom_site_type_symbol
 _atom_site_label
 _atom_site_symmetry_multiplicity
 _atom_site_fract_x
 _atom_site_fract_y
 _atom_site_fract_z
 _atom_site_occupancy
  Ba  Ba0  1  0.50000001  0.50000000  0.00000002  1
  Ba  Ba1  1  0.64488101  0.64488100  0.28976201  1
  Ba  Ba2  1  0.35511901  0.35511900  0.71023799  1
  Cu  Cu3  1  0.92370902  0.92370900  0.84741801  1
  Cu  Cu4  1  0.07629100  0.07629100  0.15258200  1
  Cl  Cl5  1  0.75000001  0.25000000  0.50000000  1
  Cl  Cl6  1  0.25000001  0.75000000  0.50000000  1
  Cu  Cu7  1  0.80081902  0.80081900  0.60163801  1
  Cu  Cu8  1  0.19918100  0.19918100  0.39836199  1
  O  O9  1  0.00000000  0.00000000  0.00000000  1
  O  O10  1  0.91328101  0.41328100  0.82656200  1
  O  O11  1  0.41328102  0.91328100  0.82656200  1
  O  O12  1  0.58671900  0.08671900  0.17343801  1
  O  O13  1  0.08671901  0.58671900  0.17343801  1
