# generated using pymatgen
data_Cs2TlCoBr5O
_symmetry_space_group_name_H-M   'P 1'
_cell_length_a   7.09944201
_cell_length_b   7.19683266
_cell_length_c   7.09944201
_cell_angle_alpha   60.44664764
_cell_angle_beta   90.00000000
_cell_angle_gamma   119.55335236
_symmetry_Int_Tables_number   1
_chemical_formula_structural   Cs2TlCoBr5O
_chemical_formula_sum   'Cs2 Tl1 Co1 Br5 O1'
_cell_volume   259.91721237
_cell_formula_units_Z   1
loop_
 _symmetry_equiv_pos_site_id
 _symmetry_equiv_pos_as_xyz
  1  'x, y, z'
loop_
 _atom_site_type_symbol
 _atom_site_label
 _atom_site_symmetry_multiplicity
 _atom_site_fract_x
 _atom_site_fract_y
 _atom_site_fract_z
 _atom_site_occupancy
  Cs  Cs0  1  0.50000000  0.00000000  0.50000000  1
  Tl  Tl1  1  0.25000001  0.50000000  0.24999999  1
  Cs  Cs2  1  0.75000001  0.50000000  0.74999999  1
  Co  Co3  1  0.00000000  0.00000000  0.00000000  1
  Br  Br4  1  0.69406600  0.00000000  0.00000000  1
  O  O5  1  0.77703801  0.55407599  0.22296199  1
  Br  Br6  1  1.00000000  0.00000000  0.69406600  1
  Br  Br7  1  0.22296200  0.44592400  0.77703800  1
  Br  Br8  1  0.30593401  0.99999999  -0.00000001  1
  Br  Br9  1  0.00000000  0.00000000  0.30593400  1
