# generated using pymatgen
data_LuHO2
_symmetry_space_group_name_H-M   'P 1'
_cell_length_a   3.55812907
_cell_length_b   4.92174292
_cell_length_c   11.21878147
_cell_angle_alpha   90.00000000
_cell_angle_beta   90.00000000
_cell_angle_gamma   90.00000000
_symmetry_Int_Tables_number   1
_chemical_formula_structural   LuHO2
_chemical_formula_sum   'Lu4 H4 O8'
_cell_volume   196.46550624
_cell_formula_units_Z   4
loop_
 _symmetry_equiv_pos_site_id
 _symmetry_equiv_pos_as_xyz
  1  'x, y, z'
loop_
 _atom_site_type_symbol
 _atom_site_label
 _atom_site_symmetry_multiplicity
 _atom_site_fract_x
 _atom_site_fract_y
 _atom_site_fract_z
 _atom_site_occupancy
  Lu  Lu0  1  0.24999999  0.06130300  0.85573696  1
  Lu  Lu1  1  0.24999999  0.43869701  0.35573699  1
  Lu  Lu2  1  0.74999998  0.56130301  0.64426297  1
  Lu  Lu3  1  0.74999998  0.93869702  0.14426299  1
  H  H4  1  0.24999999  0.10072500  0.58746598  1
  H  H5  1  0.24999999  0.39927501  0.08746600  1
  H  H6  1  0.74999998  0.60072501  0.91253396  1
  H  H7  1  0.74999998  0.89927502  0.41253398  1
  O  O8  1  0.24999999  0.20842500  0.05850800  1
  O  O9  1  0.74999998  0.19191800  0.30770299  1
  O  O10  1  0.74999998  0.30808201  0.80770297  1
  O  O11  1  0.24999999  0.29157500  0.55850798  1
  O  O12  1  0.74999998  0.70842501  0.44149198  1
  O  O13  1  0.24999999  0.69191801  0.19229699  1
  O  O14  1  0.24999999  0.80808201  0.69229697  1
  O  O15  1  0.74999998  0.79157501  0.94149196  1
