# generated using pymatgen
data_Ga15Pt
_symmetry_space_group_name_H-M   'P 1'
_cell_length_a   4.00528479
_cell_length_b   5.46790791
_cell_length_c   10.89304447
_cell_angle_alpha   90.00000000
_cell_angle_beta   90.00000000
_cell_angle_gamma   90.00000000
_symmetry_Int_Tables_number   1
_chemical_formula_structural   Ga15Pt
_chemical_formula_sum   'Ga15 Pt1'
_cell_volume   238.56342924
_cell_formula_units_Z   1
loop_
 _symmetry_equiv_pos_site_id
 _symmetry_equiv_pos_as_xyz
  1  'x, y, z'
loop_
 _atom_site_type_symbol
 _atom_site_label
 _atom_site_symmetry_multiplicity
 _atom_site_fract_x
 _atom_site_fract_y
 _atom_site_fract_z
 _atom_site_occupancy
  Ga  Ga0  1  0.50000003  0.18142500  0.63991797  1
  Ga  Ga1  1  0.50000003  0.81857501  0.36008198  1
  Ga  Ga2  1  0.50000003  0.68142501  0.86008196  1
  Ga  Ga3  1  0.50000003  0.31857501  0.13991799  1
  Pt  Pt4  1  0.00000000  0.50000001  0.49999998  1
  Ga  Ga5  1  0.00000000  0.00000000  0.00000000  1
  Ga  Ga6  1  0.50000003  0.29292201  0.39275298  1
  Ga  Ga7  1  0.50000003  0.70707801  0.60724697  1
  Ga  Ga8  1  0.50000003  0.79292201  0.10724700  1
  Ga  Ga9  1  0.50000003  0.20707800  0.89275296  1
  Ga  Ga10  1  0.00000000  0.42860901  0.73091797  1
  Ga  Ga11  1  0.00000000  0.57139101  0.26908199  1
  Ga  Ga12  1  0.00000000  0.92860902  0.76908197  1
  Ga  Ga13  1  0.00000000  0.07139100  0.23091799  1
  Ga  Ga14  1  0.00000000  0.50000001  -0.00000000  1
  Ga  Ga15  1  0.00000000  0.00000000  0.49999998  1
