# generated using pymatgen
data_Mg2AgIr
_symmetry_space_group_name_H-M   'P 1'
_cell_length_a   3.85810757
_cell_length_b   3.85810757
_cell_length_c   7.06240606
_cell_angle_alpha   74.14855957
_cell_angle_beta   74.14855957
_cell_angle_gamma   60.00000763
_symmetry_Int_Tables_number   1
_chemical_formula_structural   Mg2AgIr
_chemical_formula_sum   'Mg2 Ag1 Ir1'
_cell_volume   86.39317727
_cell_formula_units_Z   1
loop_
 _symmetry_equiv_pos_site_id
 _symmetry_equiv_pos_as_xyz
  1  'x, y, z'
loop_
 _atom_site_type_symbol
 _atom_site_label
 _atom_site_symmetry_multiplicity
 _atom_site_fract_x
 _atom_site_fract_y
 _atom_site_fract_z
 _atom_site_occupancy
  Ag  Ag0  1  0.50000002  0.50000000  0.50000001  1
  Ir  Ir1  1  0.00000000  0.00000000  0.00000000  1
  Mg  Mg2  1  0.74003302  0.74003300  0.77990101  1
  Mg  Mg3  1  0.25996701  0.25996700  0.22009900  1
