# generated using pymatgen
data_Mn8O11F
_symmetry_space_group_name_H-M   'P 1'
_cell_length_a   5.24152613
_cell_length_b   5.54168034
_cell_length_c   7.63777161
_cell_angle_alpha   85.27371216
_cell_angle_beta   89.95201874
_cell_angle_gamma   89.95004272
_symmetry_Int_Tables_number   1
_chemical_formula_structural   Mn8O11F
_chemical_formula_sum   'Mn8 O11 F1'
_cell_volume   221.09878011
_cell_formula_units_Z   1
loop_
 _symmetry_equiv_pos_site_id
 _symmetry_equiv_pos_as_xyz
  1  'x, y, z'
loop_
 _atom_site_type_symbol
 _atom_site_label
 _atom_site_symmetry_multiplicity
 _atom_site_fract_x
 _atom_site_fract_y
 _atom_site_fract_z
 _atom_site_occupancy
  Mn  Mn0  1  0.00617700  0.50394299  0.76501198  1
  Mn  Mn1  1  0.50852100  0.02577700  0.27283699  1
  Mn  Mn2  1  0.50751601  0.94100299  0.73214599  1
  Mn  Mn3  1  0.01077000  0.43605999  0.22998300  1
  Mn  Mn4  1  0.50906800  0.49534199  0.00866800  1
  Mn  Mn5  1  0.00725701  0.99652799  0.51019900  1
  Mn  Mn6  1  0.50778500  0.49367999  0.50654499  1
  Mn  Mn7  1  0.00865901  0.98903499  0.00768301  1
  O  O8  1  0.18389400  0.31213200  0.95357498  1
  F  F9  1  0.68671701  0.81602799  0.44978800  1
  O  O10  1  0.19993700  0.68184199  0.58010699  1
  O  O11  1  0.70423100  0.18710700  0.07799200  1
  O  O12  1  0.63335500  0.51178799  0.75557399  1
  O  O13  1  0.13899400  0.00544500  0.25838899  1
  O  O14  1  0.32396000  0.18044200  0.57423399  1
  O  O15  1  0.83055900  0.67812799  0.06844200  1
  O  O16  1  0.87472501  0.99780399  0.76019099  1
  O  O17  1  0.38402700  0.48349599  0.26101500  1
  O  O18  1  0.31941800  0.80649599  0.94396598  1
  O  O19  1  0.82110200  0.31376200  0.44133299  1
