# generated using pymatgen
data_Ga8Fe
_symmetry_space_group_name_H-M   'P 1'
_cell_length_a   5.86739016
_cell_length_b   8.50811005
_cell_length_c   8.50811005
_cell_angle_alpha   120.00000000
_cell_angle_beta   90.00000000
_cell_angle_gamma   90.00000000
_symmetry_Int_Tables_number   1
_chemical_formula_structural   Ga8Fe
_chemical_formula_sum   'Ga16 Fe2'
_cell_volume   367.82546839
_cell_formula_units_Z   2
loop_
 _symmetry_equiv_pos_site_id
 _symmetry_equiv_pos_as_xyz
  1  'x, y, z'
loop_
 _atom_site_type_symbol
 _atom_site_label
 _atom_site_symmetry_multiplicity
 _atom_site_fract_x
 _atom_site_fract_y
 _atom_site_fract_z
 _atom_site_occupancy
  Ga  Ga0  1  0.49999999  0.66666668  0.33333338  1
  Ga  Ga1  1  0.49999999  0.33333334  0.66666672  1
  Ga  Ga2  1  0.00000000  0.33333334  0.66666672  1
  Ga  Ga3  1  0.00000000  0.66666668  0.33333338  1
  Ga  Ga4  1  0.24999999  0.78216801  0.78216808  1
  Ga  Ga5  1  0.74999998  0.21783200  0.21783202  1
  Ga  Ga6  1  0.24999999  0.00000000  0.21783201  1
  Ga  Ga7  1  0.74999998  0.00000000  0.78216804  1
  Ga  Ga8  1  0.24999999  0.21783200  0.00000001  1
  Ga  Ga9  1  0.74999998  0.78216801  1.00000009  1
  Ga  Ga10  1  0.24999999  0.40288301  0.40288304  1
  Ga  Ga11  1  0.74999998  0.59711701  0.59711706  1
  Ga  Ga12  1  0.24999999  0.00000000  0.59711703  1
  Ga  Ga13  1  0.74999998  0.00000000  0.40288302  1
  Ga  Ga14  1  0.24999999  0.59711701  1.00000008  1
  Ga  Ga15  1  0.74999998  0.40288301  0.00000002  1
  Fe  Fe16  1  0.49999999  0.00000000  -0.00000000  1
  Fe  Fe17  1  0.00000000  0.00000000  0.00000000  1
