# generated using pymatgen
data_Zn(CO2)2
_symmetry_space_group_name_H-M   'P 1'
_cell_length_a   5.08677101
_cell_length_b   5.72031021
_cell_length_c   5.36429501
_cell_angle_alpha   113.96935272
_cell_angle_beta   90.00000000
_cell_angle_gamma   90.00000000
_symmetry_Int_Tables_number   1
_chemical_formula_structural   Zn(CO2)2
_chemical_formula_sum   'Zn2 C4 O8'
_cell_volume   142.62903311
_cell_formula_units_Z   2
loop_
 _symmetry_equiv_pos_site_id
 _symmetry_equiv_pos_as_xyz
  1  'x, y, z'
loop_
 _atom_site_type_symbol
 _atom_site_label
 _atom_site_symmetry_multiplicity
 _atom_site_fract_x
 _atom_site_fract_y
 _atom_site_fract_z
 _atom_site_occupancy
  Zn  Zn0  1  0.50000000  0.49999998  0.49999997  1
  Zn  Zn1  1  0.00000000  0.00000000  0.00000000  1
  C  C2  1  0.62048700  0.58917098  0.04405198  1
  C  C3  1  0.12048700  0.91082896  0.45594796  1
  C  C4  1  0.37951300  0.41082898  0.95594795  1
  C  C5  1  0.87951300  0.08917100  0.54405198  1
  O  O6  1  0.29255400  0.32144199  0.12260599  1
  O  O7  1  0.79255400  0.17855799  0.37739398  1
  O  O8  1  0.70744600  0.67855797  0.87739395  1
  O  O9  1  0.20744600  0.82144197  0.62260595  1
  O  O10  1  0.71567600  0.63372098  0.27614997  1
  O  O11  1  0.21567600  0.86627897  0.22384996  1
  O  O12  1  0.28432400  0.36627899  0.72384996  1
  O  O13  1  0.78432400  0.13372099  0.77614997  1
