# generated using pymatgen
data_La2Cu3O8
_symmetry_space_group_name_H-M   'P 1'
_cell_length_a   3.72331190
_cell_length_b   3.72331190
_cell_length_c   12.78626156
_cell_angle_alpha   90.00000000
_cell_angle_beta   90.00000000
_cell_angle_gamma   90.00000000
_symmetry_Int_Tables_number   1
_chemical_formula_structural   La2Cu3O8
_chemical_formula_sum   'La2 Cu3 O8'
_cell_volume   177.25660264
_cell_formula_units_Z   1
loop_
 _symmetry_equiv_pos_site_id
 _symmetry_equiv_pos_as_xyz
  1  'x, y, z'
loop_
 _atom_site_type_symbol
 _atom_site_label
 _atom_site_symmetry_multiplicity
 _atom_site_fract_x
 _atom_site_fract_y
 _atom_site_fract_z
 _atom_site_occupancy
  La  La0  1  0.00000000  0.50000001  0.38618901  1
  La  La1  1  0.50000001  0.00000000  0.61381102  1
  Cu  Cu2  1  0.00000000  0.50000001  0.79026203  1
  Cu  Cu3  1  0.50000001  0.00000000  0.20973801  1
  Cu  Cu4  1  0.50000001  0.50000001  -0.00000000  1
  O  O5  1  0.50000001  0.50000001  0.25001901  1
  O  O6  1  0.00000000  0.00000000  0.74649303  1
  O  O7  1  0.50000001  0.50000001  0.74998103  1
  O  O8  1  0.00000000  0.00000000  0.25350701  1
  O  O9  1  0.00000000  0.50000001  0.93194003  1
  O  O10  1  0.50000001  0.00000000  0.06806000  1
  O  O11  1  0.00000000  0.50000001  0.57284402  1
  O  O12  1  0.50000001  0.00000000  0.42715601  1
