# generated using pymatgen
data_Ba2Li4YN4
_symmetry_space_group_name_H-M   'P 1'
_cell_length_a   5.54044008
_cell_length_b   5.71900272
_cell_length_c   6.29971647
_cell_angle_alpha   77.70156097
_cell_angle_beta   63.91287994
_cell_angle_gamma   61.02757263
_symmetry_Int_Tables_number   1
_chemical_formula_structural   Ba2Li4YN4
_chemical_formula_sum   'Ba2 Li4 Y1 N4'
_cell_volume   156.84045678
_cell_formula_units_Z   1
loop_
 _symmetry_equiv_pos_site_id
 _symmetry_equiv_pos_as_xyz
  1  'x, y, z'
loop_
 _atom_site_type_symbol
 _atom_site_label
 _atom_site_symmetry_multiplicity
 _atom_site_fract_x
 _atom_site_fract_y
 _atom_site_fract_z
 _atom_site_occupancy
  Ba  Ba0  1  0.85646401  0.99999996  0.28707194  1
  Ba  Ba1  1  0.14353600  0.00000000  0.71292799  1
  N  N2  1  0.20876400  0.32343099  0.25904098  1
  N  N3  1  0.79123601  0.67656897  0.74095895  1
  N  N4  1  0.53219501  0.67656897  0.25904096  1
  N  N5  1  0.46780500  0.32343099  0.74095897  1
  Y  Y6  1  0.00000001  0.49999998  -0.00000001  1
  Li  Li7  1  0.25000001  0.49999998  0.49999997  1
  Li  Li8  1  0.75000001  0.49999998  0.49999996  1
  Li  Li9  1  0.50000001  0.49999998  -0.00000003  1
  Li  Li10  1  0.50000000  0.00000000  -0.00000001  1
