# generated using pymatgen
data_Cs(SiP)2
_symmetry_space_group_name_H-M   'P 1'
_cell_length_a   4.07346201
_cell_length_b   4.07346201
_cell_length_c   7.51551151
_cell_angle_alpha   105.72399902
_cell_angle_beta   105.72399902
_cell_angle_gamma   90.00000000
_symmetry_Int_Tables_number   1
_chemical_formula_structural   Cs(SiP)2
_chemical_formula_sum   'Cs1 Si2 P2'
_cell_volume   115.18327656
_cell_formula_units_Z   1
loop_
 _symmetry_equiv_pos_site_id
 _symmetry_equiv_pos_as_xyz
  1  'x, y, z'
loop_
 _atom_site_type_symbol
 _atom_site_label
 _atom_site_symmetry_multiplicity
 _atom_site_fract_x
 _atom_site_fract_y
 _atom_site_fract_z
 _atom_site_occupancy
  P  P0  1  0.33422200  0.33422200  0.66844400  1
  P  P1  1  0.65956801  0.65956800  0.31913601  1
  Cs  Cs2  1  0.99334701  0.99334700  0.98669400  1
  Si  Si3  1  0.75643100  0.25643100  0.51286200  1
  Si  Si4  1  0.25643101  0.75643100  0.51286200  1
