# generated using pymatgen
data_Na2Cu2O3
_symmetry_space_group_name_H-M   'P 1'
_cell_length_a   5.76913214
_cell_length_b   5.82438707
_cell_length_c   6.06059980
_cell_angle_alpha   62.44957352
_cell_angle_beta   90.00225067
_cell_angle_gamma   90.00164032
_symmetry_Int_Tables_number   1
_chemical_formula_structural   Na2Cu2O3
_chemical_formula_sum   'Na4 Cu4 O6'
_cell_volume   180.55356106
_cell_formula_units_Z   2
loop_
 _symmetry_equiv_pos_site_id
 _symmetry_equiv_pos_as_xyz
  1  'x, y, z'
loop_
 _atom_site_type_symbol
 _atom_site_label
 _atom_site_symmetry_multiplicity
 _atom_site_fract_x
 _atom_site_fract_y
 _atom_site_fract_z
 _atom_site_occupancy
  Na  Na0  1  0.34240401  0.76083600  0.10096003  1
  Na  Na1  1  0.15757000  0.26082200  0.60096303  1
  Na  Na2  1  0.84240600  0.73918100  0.39904206  1
  Na  Na3  1  0.65760299  0.23917500  0.89903506  1
  Cu  Cu4  1  0.13244300  0.26343400  0.07912501  1
  Cu  Cu5  1  0.36753401  0.76335200  0.57917304  1
  Cu  Cu6  1  0.63243499  0.23661800  0.42087505  1
  Cu  Cu7  1  0.86760000  0.73661000  0.92086807  1
  O  O8  1  0.49998600  0.50000200  0.49999104  1
  O  O9  1  0.00001700  0.00001400  0.99998802  1
  O  O10  1  0.91863499  0.40554300  0.24324106  1
  O  O11  1  0.58137601  0.90552999  0.74324206  1
  O  O12  1  0.41864899  0.09444300  0.25675303  1
  O  O13  1  0.08134101  0.59443900  0.75674303  1
