# generated using pymatgen
data_Ga9Co7
_symmetry_space_group_name_H-M   'P 1'
_cell_length_a   4.72320080
_cell_length_b   6.86266899
_cell_length_c   6.86266899
_cell_angle_alpha   119.40609741
_cell_angle_beta   90.00000000
_cell_angle_gamma   90.00000000
_symmetry_Int_Tables_number   1
_chemical_formula_structural   Ga9Co7
_chemical_formula_sum   'Ga9 Co7'
_cell_volume   193.78547381
_cell_formula_units_Z   1
loop_
 _symmetry_equiv_pos_site_id
 _symmetry_equiv_pos_as_xyz
  1  'x, y, z'
loop_
 _atom_site_type_symbol
 _atom_site_label
 _atom_site_symmetry_multiplicity
 _atom_site_fract_x
 _atom_site_fract_y
 _atom_site_fract_z
 _atom_site_occupancy
  Ga  Ga0  1  -0.00000000  0.77113603  0.99276906  1
  Ga  Ga1  1  -0.00000000  0.99276904  0.77113608  1
  Ga  Ga2  1  0.50000002  0.76921603  0.76921606  1
  Co  Co3  1  0.50000002  0.22268201  0.99524702  1
  Ga  Ga4  1  0.50000002  0.99524704  0.22268208  1
  Co  Co5  1  0.74974103  0.33610601  0.67214903  1
  Co  Co6  1  0.74974103  0.67214903  0.33610605  1
  Co  Co7  1  0.25025901  0.67214903  0.33610605  1
  Ga  Ga8  1  0.25025901  0.33610601  0.67214903  1
  Co  Co9  1  -0.00000000  0.24136501  0.24136502  1
  Ga  Ga10  1  1.00000004  0.58206302  0.58206305  1
  Ga  Ga11  1  -0.00000000  0.40445602  0.00784503  1
  Ga  Ga12  1  1.00000004  0.00784500  0.40445600  1
  Co  Co13  1  0.50000002  0.40473002  0.40473003  1
  Ga  Ga14  1  0.50000002  0.58962202  0.00232304  1
  Co  Co15  1  0.50000002  0.00232300  0.58962200  1
