# generated using pymatgen
data_Tb3Ga11
_symmetry_space_group_name_H-M   'P 1'
_cell_length_a   4.51558590
_cell_length_b   8.36951160
_cell_length_c   8.36951160
_cell_angle_alpha   65.12239075
_cell_angle_beta   74.34977722
_cell_angle_gamma   74.34977722
_symmetry_Int_Tables_number   1
_chemical_formula_structural   Tb3Ga11
_chemical_formula_sum   'Tb3 Ga11'
_cell_volume   271.86379771
_cell_formula_units_Z   1
loop_
 _symmetry_equiv_pos_site_id
 _symmetry_equiv_pos_as_xyz
  1  'x, y, z'
loop_
 _atom_site_type_symbol
 _atom_site_label
 _atom_site_symmetry_multiplicity
 _atom_site_fract_x
 _atom_site_fract_y
 _atom_site_fract_z
 _atom_site_occupancy
  Tb  Tb0  1  0.00000000  0.00000000  0.00000000  1
  Tb  Tb1  1  0.30078902  0.69921101  0.69921104  1
  Tb  Tb2  1  0.69921102  0.30078901  0.30078902  1
  Ga  Ga3  1  0.00000001  0.50000001  0.50000003  1
  Ga  Ga4  1  0.50000001  0.30215901  0.69784104  1
  Ga  Ga5  1  0.50000002  0.69784101  0.30215903  1
  Ga  Ga6  1  0.33848901  0.30183101  0.02119101  1
  Ga  Ga7  1  0.66151102  0.69816901  0.97880906  1
  Ga  Ga8  1  0.33848901  0.02119100  0.30183101  1
  Ga  Ga9  1  0.66151103  0.97880902  0.69816905  1
  Ga  Ga10  1  0.13717201  0.58179601  0.14386002  1
  Ga  Ga11  1  0.86282802  0.41820401  0.85614005  1
  Ga  Ga12  1  0.13717200  0.14386000  0.58179602  1
  Ga  Ga13  1  0.86282803  0.85614002  0.41820404  1
