# generated using pymatgen
data_BaNa7S10
_symmetry_space_group_name_H-M   'P 1'
_cell_length_a   6.77985764
_cell_length_b   7.28834391
_cell_length_c   9.96647167
_cell_angle_alpha   69.07744598
_cell_angle_beta   75.35387421
_cell_angle_gamma   69.31150055
_symmetry_Int_Tables_number   1
_chemical_formula_structural   BaNa7S10
_chemical_formula_sum   'Ba1 Na7 S10'
_cell_volume   425.79970117
_cell_formula_units_Z   1
loop_
 _symmetry_equiv_pos_site_id
 _symmetry_equiv_pos_as_xyz
  1  'x, y, z'
loop_
 _atom_site_type_symbol
 _atom_site_label
 _atom_site_symmetry_multiplicity
 _atom_site_fract_x
 _atom_site_fract_y
 _atom_site_fract_z
 _atom_site_occupancy
  Ba  Ba0  1  0.38942899  0.19743401  0.85492805  1
  Na  Na1  1  0.61057094  0.80256604  0.14507204  1
  Na  Na2  1  0.82680498  0.32021102  0.97280007  1
  Na  Na3  1  0.17319495  0.67978903  0.02720001  1
  Na  Na4  1  0.58947699  0.20436601  0.34379004  1
  Na  Na5  1  0.41052294  0.79563404  0.65621005  1
  Na  Na6  1  0.08735094  0.74500604  0.44476303  1
  Na  Na7  1  0.91264899  0.25499401  0.55523706  1
  S  S8  1  0.17754699  0.18423401  0.21835302  1
  S  S9  1  0.82245294  0.81576604  0.78164707  1
  S  S10  1  0.24531400  0.05296100  0.40570602  1
  S  S11  1  0.75468593  0.94703905  0.59429406  1
  S  S12  1  0.14242492  0.99356605  0.15217602  1
  S  S13  1  0.85757501  0.00643400  0.84782407  1
  S  S14  1  0.41331198  0.26157201  0.10433402  1
  S  S15  1  0.58668795  0.73842804  0.89566606  1
  S  S16  1  0.06186295  0.59693003  0.78522003  1
  S  S17  1  0.93813698  0.40307002  0.21478005  1
