# generated using pymatgen
data_HoGe2
_symmetry_space_group_name_H-M   'P 1'
_cell_length_a   4.17334080
_cell_length_b   6.97254610
_cell_length_c   6.97254610
_cell_angle_alpha   120.00000000
_cell_angle_beta   90.00000000
_cell_angle_gamma   90.00000000
_symmetry_Int_Tables_number   1
_chemical_formula_structural   HoGe2
_chemical_formula_sum   'Ho3 Ge6'
_cell_volume   175.71032068
_cell_formula_units_Z   3
loop_
 _symmetry_equiv_pos_site_id
 _symmetry_equiv_pos_as_xyz
  1  'x, y, z'
loop_
 _atom_site_type_symbol
 _atom_site_label
 _atom_site_symmetry_multiplicity
 _atom_site_fract_x
 _atom_site_fract_y
 _atom_site_fract_z
 _atom_site_occupancy
  Ho  Ho0  1  0.50000002  0.57467699  0.00000000  1
  Ho  Ho1  1  0.50000002  0.42532299  0.42532300  1
  Ho  Ho2  1  0.50000002  0.00000000  0.57467699  1
  Ge  Ge3  1  1.00000005  0.23742900  0.00000000  1
  Ge  Ge4  1  1.00000005  0.76257099  0.76257099  1
  Ge  Ge5  1  -0.00000000  0.99999999  0.23742900  1
  Ge  Ge6  1  1.00000005  0.33333333  0.66666666  1
  Ge  Ge7  1  -0.00000000  0.66666666  0.33333333  1
  Ge  Ge8  1  0.50000002  0.00000000  -0.00000000  1
