# generated using pymatgen
data_Ho5CoGe3Bi
_symmetry_space_group_name_H-M   'P 1'
_cell_length_a   4.08974218
_cell_length_b   4.08974171
_cell_length_c   17.53737831
_cell_angle_alpha   90.00000000
_cell_angle_beta   90.00000000
_cell_angle_gamma   120.00000000
_symmetry_Int_Tables_number   1
_chemical_formula_structural   Ho5CoGe3Bi
_chemical_formula_sum   'Ho5 Co1 Ge3 Bi1'
_cell_volume   254.03123157
_cell_formula_units_Z   1
loop_
 _symmetry_equiv_pos_site_id
 _symmetry_equiv_pos_as_xyz
  1  'x, y, z'
loop_
 _atom_site_type_symbol
 _atom_site_label
 _atom_site_symmetry_multiplicity
 _atom_site_fract_x
 _atom_site_fract_y
 _atom_site_fract_z
 _atom_site_occupancy
  Ho  Ho0  1  0.00000000  0.00000000  0.39426999  1
  Ho  Ho1  1  0.00000000  0.00000000  0.60572999  1
  Ge  Ge2  1  0.00000000  0.00000000  0.89426998  1
  Ho  Ho3  1  0.00000000  0.00000000  0.10573000  1
  Ge  Ge4  1  0.33333327  0.66666663  0.49926299  1
  Ho  Ho5  1  0.66666662  0.33333331  0.99926298  1
  Ge  Ge6  1  0.33333327  0.66666663  0.00073700  1
  Co  Co7  1  0.66666662  0.33333331  0.50073699  1
  Ho  Ho8  1  0.33333327  0.66666663  0.74999999  1
  Bi  Bi9  1  0.66666662  0.33333331  0.25000000  1
