# generated using pymatgen
data_Hg
_symmetry_space_group_name_H-M   'P 1'
_cell_length_a   5.48663378
_cell_length_b   6.85983801
_cell_length_c   6.85983896
_cell_angle_alpha   60.00000381
_cell_angle_beta   90.00000000
_cell_angle_gamma   90.00000000
_symmetry_Int_Tables_number   1
_chemical_formula_structural   Hg
_chemical_formula_sum   Hg8
_cell_volume   223.59619153
_cell_formula_units_Z   8
loop_
 _symmetry_equiv_pos_site_id
 _symmetry_equiv_pos_as_xyz
  1  'x, y, z'
loop_
 _atom_site_type_symbol
 _atom_site_label
 _atom_site_symmetry_multiplicity
 _atom_site_fract_x
 _atom_site_fract_y
 _atom_site_fract_z
 _atom_site_occupancy
  Hg  Hg0  1  0.25000001  0.82980000  0.34039999  1
  Hg  Hg1  1  0.25000001  0.82980000  0.82980098  1
  Hg  Hg2  1  0.25000001  0.34039900  0.82980099  1
  Hg  Hg3  1  0.75000003  0.17020000  0.65959999  1
  Hg  Hg4  1  0.75000003  0.17020000  0.17019900  1
  Hg  Hg5  1  0.75000003  0.65960100  0.17019899  1
  Hg  Hg6  1  0.75000003  0.66666667  0.66666665  1
  Hg  Hg7  1  0.25000001  0.33333333  0.33333333  1
