# generated using pymatgen
data_P2PbS5
_symmetry_space_group_name_H-M   'P 1'
_cell_length_a   3.01703191
_cell_length_b   3.01703167
_cell_length_c   27.31173134
_cell_angle_alpha   90.00000000
_cell_angle_beta   90.00000000
_cell_angle_gamma   120.00000000
_symmetry_Int_Tables_number   1
_chemical_formula_structural   P2PbS5
_chemical_formula_sum   'P4 Pb2 S10'
_cell_volume   215.29782161
_cell_formula_units_Z   2
loop_
 _symmetry_equiv_pos_site_id
 _symmetry_equiv_pos_as_xyz
  1  'x, y, z'
loop_
 _atom_site_type_symbol
 _atom_site_label
 _atom_site_symmetry_multiplicity
 _atom_site_fract_x
 _atom_site_fract_y
 _atom_site_fract_z
 _atom_site_occupancy
  S  S0  1  0.33333330  0.66666665  0.54258901  1
  P  P1  1  0.33333330  0.66666665  0.04247600  1
  S  S2  1  0.66666666  0.33333332  0.45741101  1
  S  S3  1  0.66666666  0.33333332  0.95752402  1
  S  S4  1  0.66666666  0.33333332  0.29197701  1
  S  S5  1  0.66666666  0.33333332  0.79257002  1
  S  S6  1  0.33333330  0.66666665  0.70802302  1
  S  S7  1  0.33333330  0.66666665  0.20743001  1
  Pb  Pb8  1  0.33333330  0.66666665  0.37429901  1
  S  S9  1  0.33333330  0.66666665  0.87503302  1
  Pb  Pb10  1  0.66666666  0.33333332  0.62570102  1
  S  S11  1  0.66666666  0.33333332  0.12496700  1
  P  P12  1  0.00000000  0.00000000  0.50000001  1
  S  S13  1  0.00000000  0.00000000  0.00000000  1
  P  P14  1  0.00000000  0.00000000  0.25002401  1
  P  P15  1  0.00000000  0.00000000  0.74997602  1
