# generated using pymatgen
data_TeMo
_symmetry_space_group_name_H-M   'P 1'
_cell_length_a   3.13657093
_cell_length_b   3.13657093
_cell_length_c   16.98662949
_cell_angle_alpha   90.00000000
_cell_angle_beta   90.00000000
_cell_angle_gamma   90.00000000
_symmetry_Int_Tables_number   1
_chemical_formula_structural   TeMo
_chemical_formula_sum   'Te5 Mo5'
_cell_volume   167.11577228
_cell_formula_units_Z   5
loop_
 _symmetry_equiv_pos_site_id
 _symmetry_equiv_pos_as_xyz
  1  'x, y, z'
loop_
 _atom_site_type_symbol
 _atom_site_label
 _atom_site_symmetry_multiplicity
 _atom_site_fract_x
 _atom_site_fract_y
 _atom_site_fract_z
 _atom_site_occupancy
  Te  Te0  1  0.50000001  0.50000001  0.10000000  1
  Te  Te1  1  0.50000001  0.50000001  0.30503701  1
  Te  Te2  1  0.50000001  0.50000001  0.50068502  1
  Te  Te3  1  0.50000001  0.50000001  0.69931502  1
  Te  Te4  1  0.50000001  0.50000001  0.89496303  1
  Mo  Mo5  1  0.00000000  0.00000000  0.99131303  1
  Mo  Mo6  1  0.00000000  0.00000000  0.20868701  1
  Mo  Mo7  1  0.00000000  0.00000000  0.40274201  1
  Mo  Mo8  1  0.00000000  0.00000000  0.60000002  1
  Mo  Mo9  1  0.00000000  0.00000000  0.79725802  1
