# generated using pymatgen
data_Tb2In4GePd
_symmetry_space_group_name_H-M   'P 1'
_cell_length_a   4.44953394
_cell_length_b   5.62542915
_cell_length_c   8.04805946
_cell_angle_alpha   90.00000000
_cell_angle_beta   90.00000000
_cell_angle_gamma   113.29615784
_symmetry_Int_Tables_number   1
_chemical_formula_structural   Tb2In4GePd
_chemical_formula_sum   'Tb2 In4 Ge1 Pd1'
_cell_volume   185.02384782
_cell_formula_units_Z   1
loop_
 _symmetry_equiv_pos_site_id
 _symmetry_equiv_pos_as_xyz
  1  'x, y, z'
loop_
 _atom_site_type_symbol
 _atom_site_label
 _atom_site_symmetry_multiplicity
 _atom_site_fract_x
 _atom_site_fract_y
 _atom_site_fract_z
 _atom_site_occupancy
  Tb  Tb0  1  0.43170593  0.86341196  0.74999996  1
  Tb  Tb1  1  0.56829400  0.13658799  0.24999999  1
  In  In2  1  0.14513498  0.29026999  0.94830395  1
  In  In3  1  0.85486495  0.70972997  0.05169600  1
  In  In4  1  0.85486495  0.70972997  0.44830397  1
  In  In5  1  0.14513498  0.29026999  0.55169597  1
  Ge  Ge6  1  0.71778497  0.43556998  0.74999996  1
  Pd  Pd7  1  0.28221496  0.56442997  0.24999999  1
