# generated using pymatgen
data_Tb2Br3
_symmetry_space_group_name_H-M   'P 1'
_cell_length_a   4.34358311
_cell_length_b   7.32427406
_cell_length_c   7.32427406
_cell_angle_alpha   90.00000000
_cell_angle_beta   90.00000000
_cell_angle_gamma   90.00000000
_symmetry_Int_Tables_number   1
_chemical_formula_structural   Tb2Br3
_chemical_formula_sum   'Tb4 Br6'
_cell_volume   233.01147473
_cell_formula_units_Z   2
loop_
 _symmetry_equiv_pos_site_id
 _symmetry_equiv_pos_as_xyz
  1  'x, y, z'
loop_
 _atom_site_type_symbol
 _atom_site_label
 _atom_site_symmetry_multiplicity
 _atom_site_fract_x
 _atom_site_fract_y
 _atom_site_fract_z
 _atom_site_occupancy
  Br  Br0  1  0.49999999  0.67698599  0.17698600  1
  Br  Br1  1  0.49999999  0.32301400  0.82301399  1
  Br  Br2  1  0.49999999  0.17698600  0.32301400  1
  Br  Br3  1  0.49999999  0.82301399  0.67698599  1
  Br  Br4  1  0.00000000  0.00000000  0.00000000  1
  Br  Br5  1  0.99999998  0.50000000  0.50000000  1
  Tb  Tb6  1  0.00000000  0.11864500  0.61864499  1
  Tb  Tb7  1  0.99999998  0.88135499  0.38135500  1
  Tb  Tb8  1  0.00000000  0.61864499  0.88135499  1
  Tb  Tb9  1  0.99999998  0.38135500  0.11864500  1
