# generated using pymatgen
data_Mn5O8F
_symmetry_space_group_name_H-M   'P 1'
_cell_length_a   5.99174118
_cell_length_b   5.99218702
_cell_length_c   6.08700657
_cell_angle_alpha   118.24174500
_cell_angle_beta   118.23392487
_cell_angle_gamma   91.15789795
_symmetry_Int_Tables_number   1
_chemical_formula_structural   Mn5O8F
_chemical_formula_sum   'Mn5 O8 F1'
_cell_volume   161.01869058
_cell_formula_units_Z   1
loop_
 _symmetry_equiv_pos_site_id
 _symmetry_equiv_pos_as_xyz
  1  'x, y, z'
loop_
 _atom_site_type_symbol
 _atom_site_label
 _atom_site_symmetry_multiplicity
 _atom_site_fract_x
 _atom_site_fract_y
 _atom_site_fract_z
 _atom_site_occupancy
  Mn  Mn0  1  0.62411600  0.87535006  0.24920205  1
  Mn  Mn1  1  0.24493301  0.75440205  0.50014205  1
  Mn  Mn2  1  0.12544600  0.37417903  0.74892304  1
  O  O3  1  0.00446301  0.99537607  0.00022407  1
  Mn  Mn4  1  0.62584899  0.37468903  0.75021803  1
  Mn  Mn5  1  0.62437099  0.37573403  0.25004402  1
  O  O6  1  0.40595800  0.62903105  0.24755004  1
  O  O7  1  0.37245000  0.59236504  0.75254305  1
  O  O8  1  0.84235399  0.12221801  0.25237400  1
  O  O9  1  0.87921499  0.15599801  0.74763801  1
  O  O10  1  0.83031099  0.61151004  0.20615703  1
  F  F11  1  0.86149299  0.58020404  0.70594404  1
  O  O12  1  0.41959499  0.13942201  0.29459501  1
  O  O13  1  0.38944500  0.16952201  0.79444902  1
