# generated using pymatgen
data_Ga
_symmetry_space_group_name_H-M   'P 1'
_cell_length_a   3.79071808
_cell_length_b   3.80573201
_cell_length_c   20.48964500
_cell_angle_alpha   84.67127991
_cell_angle_beta   90.00000000
_cell_angle_gamma   90.00000000
_symmetry_Int_Tables_number   1
_chemical_formula_structural   Ga
_chemical_formula_sum   Ga18
_cell_volume   294.31551280
_cell_formula_units_Z   18
loop_
 _symmetry_equiv_pos_site_id
 _symmetry_equiv_pos_as_xyz
  1  'x, y, z'
loop_
 _atom_site_type_symbol
 _atom_site_label
 _atom_site_symmetry_multiplicity
 _atom_site_fract_x
 _atom_site_fract_y
 _atom_site_fract_z
 _atom_site_occupancy
  Ga  Ga0  1  0.49999999  0.10797900  0.78404202  1
  Ga  Ga1  1  0.49999999  0.89202100  0.21595800  1
  Ga  Ga2  1  0.99999998  0.28391500  0.43217001  1
  Ga  Ga3  1  0.00000000  0.71608500  0.56783001  1
  Ga  Ga4  1  0.00000000  0.50000000  -0.00000001  1
  Ga  Ga5  1  0.49999999  0.44514200  0.10971600  1
  Ga  Ga6  1  0.49999999  0.55485800  0.89028402  1
  Ga  Ga7  1  0.49999999  0.33565600  0.32868801  1
  Ga  Ga8  1  0.49999999  0.66434400  0.67131201  1
  Ga  Ga9  1  0.49999999  0.22817900  0.54364201  1
  Ga  Ga10  1  0.49999999  0.00000000  0.00000000  1
  Ga  Ga11  1  0.00000000  0.94538900  0.10922199  1
  Ga  Ga12  1  0.99999998  0.05461100  0.89077802  1
  Ga  Ga13  1  0.00000000  0.83504500  0.32991000  1
  Ga  Ga14  1  0.99999998  0.16495500  0.67009002  1
  Ga  Ga15  1  0.00000000  0.61189300  0.77621402  1
  Ga  Ga16  1  0.00000000  0.38810700  0.22378600  1
  Ga  Ga17  1  0.49999999  0.77182100  0.45635801  1
