# generated using pymatgen
data_Ho3Ge2
_symmetry_space_group_name_H-M   'P 1'
_cell_length_a   3.89633608
_cell_length_b   7.57723188
_cell_length_c   7.57723188
_cell_angle_alpha   90.00000000
_cell_angle_beta   90.00000000
_cell_angle_gamma   90.00000000
_symmetry_Int_Tables_number   1
_chemical_formula_structural   Ho3Ge2
_chemical_formula_sum   'Ho6 Ge4'
_cell_volume   223.70596579
_cell_formula_units_Z   2
loop_
 _symmetry_equiv_pos_site_id
 _symmetry_equiv_pos_as_xyz
  1  'x, y, z'
loop_
 _atom_site_type_symbol
 _atom_site_label
 _atom_site_symmetry_multiplicity
 _atom_site_fract_x
 _atom_site_fract_y
 _atom_site_fract_z
 _atom_site_occupancy
  Ho  Ho0  1  0.49999999  0.16971300  0.66971301  1
  Ho  Ho1  1  0.49999999  0.83028701  0.33028701  1
  Ho  Ho2  1  0.49999999  0.33028701  0.16971300  1
  Ho  Ho3  1  0.49999999  0.66971301  0.83028701  1
  Ho  Ho4  1  0.00000000  0.00000000  0.00000000  1
  Ho  Ho5  1  0.00000000  0.50000001  0.50000001  1
  Ge  Ge6  1  0.00000000  0.63173501  0.13173500  1
  Ge  Ge7  1  0.00000000  0.36826501  0.86826501  1
  Ge  Ge8  1  0.00000000  0.86826501  0.63173501  1
  Ge  Ge9  1  0.00000000  0.13173500  0.36826501  1
