# generated using pymatgen
data_ThAu
_symmetry_space_group_name_H-M   'P 1'
_cell_length_a   4.25906801
_cell_length_b   6.05305004
_cell_length_c   7.43873930
_cell_angle_alpha   114.00773621
_cell_angle_beta   106.63514709
_cell_angle_gamma   90.00000000
_symmetry_Int_Tables_number   1
_chemical_formula_structural   ThAu
_chemical_formula_sum   'Th3 Au3'
_cell_volume   166.35833891
_cell_formula_units_Z   3
loop_
 _symmetry_equiv_pos_site_id
 _symmetry_equiv_pos_as_xyz
  1  'x, y, z'
loop_
 _atom_site_type_symbol
 _atom_site_label
 _atom_site_symmetry_multiplicity
 _atom_site_fract_x
 _atom_site_fract_y
 _atom_site_fract_z
 _atom_site_occupancy
  Au  Au0  1  0.33161000  0.33161001  0.66322001  1
  Au  Au1  1  0.66839000  0.66839001  0.33678003  1
  Au  Au2  1  0.00000000  0.00000000  0.00000000  1
  Th  Th3  1  0.00000001  0.50000001  0.00000003  1
  Th  Th4  1  0.34526101  0.84526102  0.69052204  1
  Th  Th5  1  0.65473900  0.15473900  0.30947800  1
