# generated using pymatgen
data_KH8Br(NF3)2
_symmetry_space_group_name_H-M   'P 1'
_cell_length_a   6.59725380
_cell_length_b   6.59725380
_cell_length_c   6.59725380
_cell_angle_alpha   60.00000000
_cell_angle_beta   60.00000000
_cell_angle_gamma   60.00000000
_symmetry_Int_Tables_number   1
_chemical_formula_structural   KH8Br(NF3)2
_chemical_formula_sum   'K1 H8 Br1 N2 F6'
_cell_volume   203.03671486
_cell_formula_units_Z   1
loop_
 _symmetry_equiv_pos_site_id
 _symmetry_equiv_pos_as_xyz
  1  'x, y, z'
loop_
 _atom_site_type_symbol
 _atom_site_label
 _atom_site_symmetry_multiplicity
 _atom_site_fract_x
 _atom_site_fract_y
 _atom_site_fract_z
 _atom_site_occupancy
  K  K0  1  0.50000001  0.50000001  0.50000001  1
  Br  Br1  1  0.00000000  0.00000000  0.00000000  1
  H  H2  1  0.44189201  0.18603600  0.18603600  1
  H  H3  1  0.55810801  0.81396402  0.81396402  1
  H  H4  1  0.18603500  0.18603600  0.44189301  1
  H  H5  1  0.18603500  0.18603600  0.18603600  1
  H  H6  1  0.81396502  0.81396402  0.55810701  1
  H  H7  1  0.81396502  0.81396402  0.81396402  1
  H  H8  1  0.18603500  0.44189301  0.18603600  1
  H  H9  1  0.81396502  0.55810701  0.81396402  1
  N  N10  1  0.25000001  0.25000001  0.25000001  1
  N  N11  1  0.75000002  0.75000002  0.75000002  1
  F  F12  1  0.77594202  0.77594202  0.22405800  1
  F  F13  1  0.22405800  0.22405800  0.77594202  1
  F  F14  1  0.77594202  0.22405800  0.22405800  1
  F  F15  1  0.22405800  0.77594202  0.77594202  1
  F  F16  1  0.77594202  0.22405800  0.77594202  1
  F  F17  1  0.22405800  0.77594202  0.22405800  1
