# generated using pymatgen
data_Co
_symmetry_space_group_name_H-M   'P 1'
_cell_length_a   5.42876196
_cell_length_b   5.42876196
_cell_length_c   6.72479486
_cell_angle_alpha   113.80578613
_cell_angle_beta   113.80578613
_cell_angle_gamma   90.00000000
_symmetry_Int_Tables_number   1
_chemical_formula_structural   Co
_chemical_formula_sum   Co14
_cell_volume   162.72712343
_cell_formula_units_Z   14
loop_
 _symmetry_equiv_pos_site_id
 _symmetry_equiv_pos_as_xyz
  1  'x, y, z'
loop_
 _atom_site_type_symbol
 _atom_site_label
 _atom_site_symmetry_multiplicity
 _atom_site_fract_x
 _atom_site_fract_y
 _atom_site_fract_z
 _atom_site_occupancy
  Co  Co0  1  0.49652295  0.99652298  0.99304594  1
  Co  Co1  1  0.74652296  0.74652298  0.49304594  1
  Co  Co2  1  0.00347698  0.50347699  0.00695397  1
  Co  Co3  1  0.25347698  0.25347699  0.50695398  1
  Co  Co4  1  0.37499995  0.89414698  0.24999994  1
  Co  Co5  1  0.87499997  0.35585299  0.24999995  1
  Co  Co6  1  0.64414696  0.62499999  0.74999995  1
  Co  Co7  1  0.10585299  0.12500000  0.75000000  1
  Co  Co8  1  0.37499998  0.35585299  0.24999997  1
  Co  Co9  1  0.87499995  0.89414698  0.24999992  1
  Co  Co10  1  0.64414699  0.12500000  0.74999998  1
  Co  Co11  1  0.10585297  0.62499999  0.74999997  1
  Co  Co12  1  0.24999996  0.74999998  0.49999996  1
  Co  Co13  1  0.49999997  0.49999999  -0.00000005  1
