# generated using pymatgen
data_Tb2Ga7
_symmetry_space_group_name_H-M   'P 1'
_cell_length_a   5.55318689
_cell_length_b   5.86976480
_cell_length_c   11.49104023
_cell_angle_alpha   90.00000000
_cell_angle_beta   90.00000000
_cell_angle_gamma   90.00000000
_symmetry_Int_Tables_number   1
_chemical_formula_structural   Tb2Ga7
_chemical_formula_sum   'Tb4 Ga14'
_cell_volume   374.56080951
_cell_formula_units_Z   2
loop_
 _symmetry_equiv_pos_site_id
 _symmetry_equiv_pos_as_xyz
  1  'x, y, z'
loop_
 _atom_site_type_symbol
 _atom_site_label
 _atom_site_symmetry_multiplicity
 _atom_site_fract_x
 _atom_site_fract_y
 _atom_site_fract_z
 _atom_site_occupancy
  Tb  Tb0  1  0.00000000  0.85609403  0.85272698  1
  Tb  Tb1  1  0.00000000  0.14390600  0.14727300  1
  Tb  Tb2  1  0.00000000  0.35609401  0.64727299  1
  Tb  Tb3  1  0.00000000  0.64390602  0.35272699  1
  Ga  Ga4  1  0.50000001  0.00000000  0.00000000  1
  Ga  Ga5  1  0.50000001  0.50000002  0.49999999  1
  Ga  Ga6  1  0.50000001  0.59722702  0.75174298  1
  Ga  Ga7  1  0.50000001  0.40277301  0.24825700  1
  Ga  Ga8  1  0.50000001  0.09722700  0.74825699  1
  Ga  Ga9  1  0.50000001  0.90277303  0.25174299  1
  Ga  Ga10  1  0.76219501  0.85237303  0.59127599  1
  Ga  Ga11  1  0.76219501  0.14762700  0.40872399  1
  Ga  Ga12  1  0.23780500  0.35237301  0.90872398  1
  Ga  Ga13  1  0.23780500  0.64762702  0.09127600  1
  Ga  Ga14  1  0.23780500  0.14762700  0.40872399  1
  Ga  Ga15  1  0.23780500  0.85237303  0.59127599  1
  Ga  Ga16  1  0.76219501  0.64762702  0.09127600  1
  Ga  Ga17  1  0.76219501  0.35237301  0.90872398  1
