# generated using pymatgen
data_Co6SiB8Mo
_symmetry_space_group_name_H-M   'P 1'
_cell_length_a   5.45152187
_cell_length_b   5.45152187
_cell_length_c   6.43753052
_cell_angle_alpha   115.05051422
_cell_angle_beta   115.05051422
_cell_angle_gamma   90.00000000
_symmetry_Int_Tables_number   1
_chemical_formula_structural   Co6SiB8Mo
_chemical_formula_sum   'Co6 Si1 B8 Mo1'
_cell_volume   153.22563756
_cell_formula_units_Z   1
loop_
 _symmetry_equiv_pos_site_id
 _symmetry_equiv_pos_as_xyz
  1  'x, y, z'
loop_
 _atom_site_type_symbol
 _atom_site_label
 _atom_site_symmetry_multiplicity
 _atom_site_fract_x
 _atom_site_fract_y
 _atom_site_fract_z
 _atom_site_occupancy
  Co  Co0  1  0.49999997  0.49999999  -0.00000006  1
  Co  Co1  1  0.30994195  0.80994199  0.27723093  1
  Co  Co2  1  0.80994194  0.96728899  0.27723090  1
  B  B3  1  0.69005799  0.19005800  0.72276895  1
  B  B4  1  0.03271097  0.53271099  0.72276896  1
  B  B5  1  0.53271096  0.69005799  0.72276893  1
  B  B6  1  0.19005800  0.03271100  0.72276899  1
  Co  Co7  1  0.46728898  0.30994200  0.27723096  1
  Co  Co8  1  0.00000000  0.00000000  0.00000000  1
  Co  Co9  1  0.96728897  0.46728899  0.27723092  1
  B  B10  1  0.88146196  0.61853799  -0.00000008  1
  B  B11  1  0.38146195  0.88146199  -0.00000008  1
  B  B12  1  0.11853798  0.38146200  -0.00000003  1
  B  B13  1  0.61853799  0.11853800  -0.00000004  1
  Mo  Mo14  1  0.24999999  0.25000000  0.49999997  1
  Si  Si15  1  0.74999996  0.74999999  0.49999991  1
