# generated using pymatgen
data_MgAu15
_symmetry_space_group_name_H-M   'P 1'
_cell_length_a   4.90178013
_cell_length_b   5.36030006
_cell_length_c   11.74317932
_cell_angle_alpha   90.00000000
_cell_angle_beta   90.00000000
_cell_angle_gamma   90.00000000
_symmetry_Int_Tables_number   1
_chemical_formula_structural   MgAu15
_chemical_formula_sum   'Mg1 Au15'
_cell_volume   308.55218154
_cell_formula_units_Z   1
loop_
 _symmetry_equiv_pos_site_id
 _symmetry_equiv_pos_as_xyz
  1  'x, y, z'
loop_
 _atom_site_type_symbol
 _atom_site_label
 _atom_site_symmetry_multiplicity
 _atom_site_fract_x
 _atom_site_fract_y
 _atom_site_fract_z
 _atom_site_occupancy
  Mg  Mg0  1  0.49999999  0.66753499  0.49999999  1
  Au  Au1  1  0.00000000  0.33362400  0.74927898  1
  Au  Au2  1  0.00000000  0.33362400  0.25072099  1
  Au  Au3  1  0.49999999  0.66580299  -0.00000000  1
  Au  Au4  1  0.00000000  0.32671800  -0.00000000  1
  Au  Au5  1  0.00000000  0.33318300  0.49999999  1
  Au  Au6  1  0.49999999  0.66756899  0.74748698  1
  Au  Au7  1  0.49999999  0.66756899  0.25251299  1
  Au  Au8  1  0.49999999  0.16641200  0.62556498  1
  Au  Au9  1  0.49999999  0.16565000  0.12750100  1
  Au  Au10  1  0.49999999  0.16565000  0.87249898  1
  Au  Au11  1  0.49999999  0.16641200  0.37443499  1
  Au  Au12  1  0.00000000  0.83502799  0.62358198  1
  Au  Au13  1  0.00000000  0.83509799  0.12538200  1
  Au  Au14  1  0.00000000  0.83509799  0.87461798  1
  Au  Au15  1  0.00000000  0.83502799  0.37641799  1
