# generated using pymatgen
data_Na2V2Co2O9F
_symmetry_space_group_name_H-M   'P 1'
_cell_length_a   5.45570183
_cell_length_b   5.60612154
_cell_length_c   7.05155802
_cell_angle_alpha   105.36141205
_cell_angle_beta   103.00144196
_cell_angle_gamma   106.14216614
_symmetry_Int_Tables_number   1
_chemical_formula_structural   Na2V2Co2O9F
_chemical_formula_sum   'Na2 V2 Co2 O9 F1'
_cell_volume   189.10281739
_cell_formula_units_Z   1
loop_
 _symmetry_equiv_pos_site_id
 _symmetry_equiv_pos_as_xyz
  1  'x, y, z'
loop_
 _atom_site_type_symbol
 _atom_site_label
 _atom_site_symmetry_multiplicity
 _atom_site_fract_x
 _atom_site_fract_y
 _atom_site_fract_z
 _atom_site_occupancy
  Na  Na0  1  0.66648005  0.31417200  0.76238704  1
  Na  Na1  1  0.33352006  0.68582801  0.23761305  1
  V  V2  1  0.68467905  0.31923000  0.24871704  1
  V  V3  1  0.31532106  0.68077001  0.75128305  1
  Co  Co4  1  0.00000000  0.00000000  0.50000000  1
  Co  Co5  1  0.00000000  0.00000000  0.00000000  1
  O  O6  1  0.29074407  0.87278401  0.58937106  1
  O  O7  1  0.70925604  0.12721600  0.41062903  1
  O  O8  1  0.62906408  0.77569901  0.94534107  1
  O  O9  1  0.37093603  0.22430100  0.05465903  1
  O  O10  1  0.07342105  0.67904301  0.88433104  1
  O  O11  1  0.92657906  0.32095700  0.11566905  1
  O  O12  1  0.08535507  0.94468701  0.25279906  1
  F  F13  1  0.91464504  0.05531300  0.74720103  1
  O  O14  1  0.72387207  0.64544501  0.39776106  1
  O  O15  1  0.27612804  0.35455500  0.60223903  1
