# generated using pymatgen
data_Ta5Mn3Ge10
_symmetry_space_group_name_H-M   'P 1'
_cell_length_a   3.75457406
_cell_length_b   6.61386681
_cell_length_c   11.30133152
_cell_angle_alpha   89.61783600
_cell_angle_beta   90.00000000
_cell_angle_gamma   90.00000000
_symmetry_Int_Tables_number   1
_chemical_formula_structural   Ta5Mn3Ge10
_chemical_formula_sum   'Ta5 Mn3 Ge10'
_cell_volume   280.63127807
_cell_formula_units_Z   1
loop_
 _symmetry_equiv_pos_site_id
 _symmetry_equiv_pos_as_xyz
  1  'x, y, z'
loop_
 _atom_site_type_symbol
 _atom_site_label
 _atom_site_symmetry_multiplicity
 _atom_site_fract_x
 _atom_site_fract_y
 _atom_site_fract_z
 _atom_site_occupancy
  Ta  Ta0  1  0.49999999  0.28969101  0.29126799  1
  Ta  Ta1  1  0.49999999  0.29086801  0.70916698  1
  Ta  Ta2  1  0.49999999  0.78991502  0.20859998  1
  Ge  Ge3  1  0.49999999  0.42092601  0.99946598  1
  Ta  Ta4  1  0.49999999  0.91735903  0.50092797  1
  Ta  Ta5  1  0.49999999  0.79084502  0.79158597  1
  Ge  Ge6  1  0.00000000  0.99260903  0.66647396  1
  Ge  Ge7  1  0.00000000  0.49841701  0.16258598  1
  Ge  Ge8  1  0.00000000  0.50341901  0.83566898  1
  Ge  Ge9  1  0.00000000  0.99756503  0.33735497  1
  Ge  Ge10  1  0.49999999  0.00416200  0.99674199  1
  Ge  Ge11  1  0.49999999  0.50654202  0.50008998  1
  Ge  Ge12  1  0.00000000  0.75448502  0.99818697  1
  Mn  Mn13  1  0.00000000  0.25409101  0.50130799  1
  Mn  Mn14  1  0.00000000  0.62301002  0.62305498  1
  Ge  Ge15  1  0.00000000  0.12253600  0.12178400  1
  Ge  Ge16  1  0.00000000  0.12155200  0.87723099  1
  Mn  Mn17  1  0.00000000  0.62220602  0.37850498  1
