# generated using pymatgen
data_CrCo6Ge11
_symmetry_space_group_name_H-M   'P 1'
_cell_length_a   3.55905700
_cell_length_b   5.98827314
_cell_length_c   12.44866753
_cell_angle_alpha   100.08837128
_cell_angle_beta   90.00000000
_cell_angle_gamma   90.00000000
_symmetry_Int_Tables_number   1
_chemical_formula_structural   CrCo6Ge11
_chemical_formula_sum   'Cr1 Co6 Ge11'
_cell_volume   261.21146075
_cell_formula_units_Z   1
loop_
 _symmetry_equiv_pos_site_id
 _symmetry_equiv_pos_as_xyz
  1  'x, y, z'
loop_
 _atom_site_type_symbol
 _atom_site_label
 _atom_site_symmetry_multiplicity
 _atom_site_fract_x
 _atom_site_fract_y
 _atom_site_fract_z
 _atom_site_occupancy
  Cr  Cr0  1  0.25000000  0.51295899  0.07739802  1
  Ge  Ge1  1  0.25000000  0.97985299  0.13982403  1
  Ge  Ge2  1  0.75000000  0.63848999  0.63535503  1
  Ge  Ge3  1  0.75000000  0.89320899  0.42245003  1
  Ge  Ge4  1  0.75000000  0.46711299  0.22384202  1
  Ge  Ge5  1  0.75000000  0.48704099  0.92260203  1
  Ge  Ge6  1  0.25000000  0.36150999  0.36464502  1
  Ge  Ge7  1  0.25000000  0.53288699  0.77615803  1
  Ge  Ge8  1  0.75000000  0.02014700  0.86017602  1
  Ge  Ge9  1  0.25000000  0.10679100  0.57755002  1
  Co  Co10  1  0.75000000  0.30008800  0.50003702  1
  Co  Co11  1  0.25000000  0.69991199  0.49996303  1
  Co  Co12  1  0.25000000  0.89232299  0.72668804  1
  Co  Co13  1  0.75000000  0.10767700  0.27331201  1
  Co  Co14  1  0.75000000  0.28528700  0.73017202  1
  Ge  Ge15  1  0.75000000  0.20905700  0.05011901  1
  Ge  Ge16  1  0.25000000  0.79094299  0.94988104  1
  Co  Co17  1  0.25000000  0.71471299  0.26982802  1
