# generated using pymatgen
data_Ga3Co
_symmetry_space_group_name_H-M   'P 1'
_cell_length_a   4.78626966
_cell_length_b   4.78626966
_cell_length_c   7.89845181
_cell_angle_alpha   90.00000000
_cell_angle_beta   90.00000000
_cell_angle_gamma   119.23625183
_symmetry_Int_Tables_number   1
_chemical_formula_structural   Ga3Co
_chemical_formula_sum   'Ga9 Co3'
_cell_volume   157.89126040
_cell_formula_units_Z   3
loop_
 _symmetry_equiv_pos_site_id
 _symmetry_equiv_pos_as_xyz
  1  'x, y, z'
loop_
 _atom_site_type_symbol
 _atom_site_label
 _atom_site_symmetry_multiplicity
 _atom_site_fract_x
 _atom_site_fract_y
 _atom_site_fract_z
 _atom_site_occupancy
  Ga  Ga0  1  0.33341302  0.66658701  0.69705102  1
  Ga  Ga1  1  0.66744301  0.33255701  0.81714902  1
  Ga  Ga2  1  0.66744301  0.33255701  0.18285100  1
  Ga  Ga3  1  0.33341302  0.66658701  0.30294901  1
  Co  Co4  1  0.83007801  0.16992200  0.50000001  1
  Co  Co5  1  0.17147001  0.34273301  -0.00000000  1
  Ga  Ga6  1  0.65726703  0.82853001  1.00000002  1
  Ga  Ga7  1  0.17207303  0.82792701  -0.00000000  1
  Ga  Ga8  1  0.99768400  0.00231600  0.75919802  1
  Ga  Ga9  1  0.99768400  0.00231600  0.24080201  1
  Ga  Ga10  1  0.83374202  0.66175301  0.50000001  1
  Co  Co11  1  0.33824701  0.16625800  0.50000001  1
