# generated using pymatgen
data_HoGa3
_symmetry_space_group_name_H-M   'P 1'
_cell_length_a   3.87028193
_cell_length_b   7.66708612
_cell_length_c   10.48034286
_cell_angle_alpha   90.00000000
_cell_angle_beta   90.00000000
_cell_angle_gamma   90.00000000
_symmetry_Int_Tables_number   1
_chemical_formula_structural   HoGa3
_chemical_formula_sum   'Ho4 Ga12'
_cell_volume   310.99144006
_cell_formula_units_Z   4
loop_
 _symmetry_equiv_pos_site_id
 _symmetry_equiv_pos_as_xyz
  1  'x, y, z'
loop_
 _atom_site_type_symbol
 _atom_site_label
 _atom_site_symmetry_multiplicity
 _atom_site_fract_x
 _atom_site_fract_y
 _atom_site_fract_z
 _atom_site_occupancy
  Ga  Ga0  1  0.25000000  0.99450598  0.39029401  1
  Ga  Ga1  1  0.25000000  0.49450599  0.10970600  1
  Ga  Ga2  1  0.75000001  0.00549400  0.60970601  1
  Ga  Ga3  1  0.75000001  0.50549399  0.89029401  1
  Ho  Ho4  1  0.25000000  0.13824700  0.86400301  1
  Ho  Ho5  1  0.25000000  0.63824699  0.63599701  1
  Ho  Ho6  1  0.75000001  0.86175299  0.13599700  1
  Ho  Ho7  1  0.75000001  0.36175299  0.36400300  1
  Ga  Ga8  1  0.25000000  0.23106300  0.56951301  1
  Ga  Ga9  1  0.25000000  0.73106299  0.93048701  1
  Ga  Ga10  1  0.75000001  0.76893699  0.43048701  1
  Ga  Ga11  1  0.75000001  0.26893700  0.06951300  1
  Ga  Ga12  1  0.25000000  0.66349999  0.32094600  1
  Ga  Ga13  1  0.25000000  0.16350000  0.17905400  1
  Ga  Ga14  1  0.75000001  0.33649999  0.67905401  1
  Ga  Ga15  1  0.75000001  0.83649999  0.82094601  1
