# generated using pymatgen
data_HoGa3
_symmetry_space_group_name_H-M   'P 1'
_cell_length_a   3.91768909
_cell_length_b   7.96165609
_cell_length_c   10.61510086
_cell_angle_alpha   90.00000000
_cell_angle_beta   90.00000000
_cell_angle_gamma   90.00000000
_symmetry_Int_Tables_number   1
_chemical_formula_structural   HoGa3
_chemical_formula_sum   'Ho4 Ga12'
_cell_volume   331.09872304
_cell_formula_units_Z   4
loop_
 _symmetry_equiv_pos_site_id
 _symmetry_equiv_pos_as_xyz
  1  'x, y, z'
loop_
 _atom_site_type_symbol
 _atom_site_label
 _atom_site_symmetry_multiplicity
 _atom_site_fract_x
 _atom_site_fract_y
 _atom_site_fract_z
 _atom_site_occupancy
  Ga  Ga0  1  0.24999999  0.48930799  0.39111901  1
  Ga  Ga1  1  0.74999998  0.51069199  0.60888101  1
  Ga  Ga2  1  0.24999999  0.98930799  0.10888100  1
  Ga  Ga3  1  0.74999998  0.01069200  0.89111901  1
  Ho  Ho4  1  0.24999999  0.13463000  0.63667901  1
  Ho  Ho5  1  0.74999998  0.86536999  0.36332100  1
  Ho  Ho6  1  0.24999999  0.63462999  0.86332101  1
  Ho  Ho7  1  0.74999998  0.36537000  0.13667900  1
  Ga  Ga8  1  0.74999998  0.34503200  0.81985201  1
  Ga  Ga9  1  0.24999999  0.65496799  0.18014800  1
  Ga  Ga10  1  0.74999998  0.84503199  0.68014801  1
  Ga  Ga11  1  0.24999999  0.15496800  0.31985200  1
  Ga  Ga12  1  0.74999998  0.26692400  0.43952801  1
  Ga  Ga13  1  0.24999999  0.73307599  0.56047201  1
  Ga  Ga14  1  0.74999998  0.76692399  0.06047200  1
  Ga  Ga15  1  0.24999999  0.23307600  0.93952801  1
