# generated using pymatgen
data_Na4Mo5O11
_symmetry_space_group_name_H-M   'P 1'
_cell_length_a   5.41821718
_cell_length_b   5.80118513
_cell_length_c   7.80417681
_cell_angle_alpha   90.00000000
_cell_angle_beta   90.13208008
_cell_angle_gamma   90.00000000
_symmetry_Int_Tables_number   1
_chemical_formula_structural   Na4Mo5O11
_chemical_formula_sum   'Na4 Mo5 O11'
_cell_volume   245.30086541
_cell_formula_units_Z   1
loop_
 _symmetry_equiv_pos_site_id
 _symmetry_equiv_pos_as_xyz
  1  'x, y, z'
loop_
 _atom_site_type_symbol
 _atom_site_label
 _atom_site_symmetry_multiplicity
 _atom_site_fract_x
 _atom_site_fract_y
 _atom_site_fract_z
 _atom_site_occupancy
  Na  Na0  1  0.97649997  0.42796799  0.25347503  1
  Na  Na1  1  0.02350000  0.57203199  0.74652499  1
  Na  Na2  1  0.52349998  0.92796798  0.24652502  1
  Na  Na3  1  0.47649998  0.07203200  0.75347501  1
  Mo  Mo4  1  0.00000000  0.99999998  0.50000000  1
  Mo  Mo5  1  0.49999998  0.49999999  1.00000001  1
  Mo  Mo6  1  0.00000000  0.00000000  0.00000000  1
  Mo  Mo7  1  0.49999998  0.49999999  0.50000001  1
  O  O8  1  0.12096700  0.04827900  0.24604000  1
  Mo  Mo9  1  0.87903297  0.95172098  0.75396003  1
  O  O10  1  0.37903299  0.54827899  0.25396001  1
  O  O11  1  0.62096698  0.45172099  0.74604002  1
  O  O12  1  0.81419597  0.70289998  0.06465803  1
  O  O13  1  0.18580399  0.29709999  0.93534200  1
  O  O14  1  0.68580398  0.20290000  0.43534202  1
  O  O15  1  0.31419599  0.79709998  0.56465801  1
  O  O16  1  0.69156198  0.19135100  0.05526903  1
  O  O17  1  0.30843799  0.80864898  0.94473100  1
  O  O18  1  0.80843797  0.69135098  0.44473103  1
  O  O19  1  0.19156199  0.30864899  0.55526900  1
