# generated using pymatgen
data_Na3Mn6O11
_symmetry_space_group_name_H-M   'P 1'
_cell_length_a   5.31865692
_cell_length_b   5.63116598
_cell_length_c   7.71234703
_cell_angle_alpha   90.00000000
_cell_angle_beta   90.58515930
_cell_angle_gamma   90.00000000
_symmetry_Int_Tables_number   1
_chemical_formula_structural   Na3Mn6O11
_chemical_formula_sum   'Na3 Mn6 O11'
_cell_volume   230.97459756
_cell_formula_units_Z   1
loop_
 _symmetry_equiv_pos_site_id
 _symmetry_equiv_pos_as_xyz
  1  'x, y, z'
loop_
 _atom_site_type_symbol
 _atom_site_label
 _atom_site_symmetry_multiplicity
 _atom_site_fract_x
 _atom_site_fract_y
 _atom_site_fract_z
 _atom_site_occupancy
  Na  Na0  1  0.51896001  0.93479500  0.24532903  1
  Na  Na1  1  0.48104001  0.06520500  0.75467104  1
  Na  Na2  1  0.98104002  0.43479500  0.25467105  1
  Mn  Mn3  1  0.01896000  0.56520500  0.74532902  1
  Mn  Mn4  1  0.50000001  0.50000000  0.00000002  1
  Mn  Mn5  1  0.00000000  0.00000000  0.50000001  1
  Mn  Mn6  1  0.50000001  0.50000000  0.50000003  1
  Mn  Mn7  1  0.00000000  0.00000000  0.00000000  1
  O  O8  1  0.38185201  0.54925500  0.25771902  1
  O  O9  1  0.61814801  0.45074500  0.74228104  1
  O  O10  1  0.11814800  0.04925500  0.24228101  1
  Mn  Mn11  1  0.88185201  0.95074500  0.75771906  1
  O  O12  1  0.68564201  0.20559300  0.43329704  1
  O  O13  1  0.31435800  0.79440700  0.56670303  1
  O  O14  1  0.81435801  0.70559300  0.06670304  1
  O  O15  1  0.18564200  0.29440700  0.93329703  1
  O  O16  1  0.80105801  0.68808200  0.44589805  1
  O  O17  1  0.19894200  0.31191800  0.55410202  1
  O  O18  1  0.69894201  0.18808200  0.05410203  1
  O  O19  1  0.30105800  0.81191800  0.94589803  1
