# generated using pymatgen
data_Ba(CuS)2
_symmetry_space_group_name_H-M   'P 1'
_cell_length_a   3.75405192
_cell_length_b   3.75405192
_cell_length_c   22.52899170
_cell_angle_alpha   90.00000000
_cell_angle_beta   90.00000000
_cell_angle_gamma   90.00000000
_symmetry_Int_Tables_number   1
_chemical_formula_structural   Ba(CuS)2
_chemical_formula_sum   'Ba4 Cu8 S8'
_cell_volume   317.49895883
_cell_formula_units_Z   4
loop_
 _symmetry_equiv_pos_site_id
 _symmetry_equiv_pos_as_xyz
  1  'x, y, z'
loop_
 _atom_site_type_symbol
 _atom_site_label
 _atom_site_symmetry_multiplicity
 _atom_site_fract_x
 _atom_site_fract_y
 _atom_site_fract_z
 _atom_site_occupancy
  Ba  Ba0  1  0.00000000  0.00000000  0.24978000  1
  Ba  Ba1  1  0.50000001  0.50000001  0.50000001  1
  Ba  Ba2  1  0.00000000  0.00000000  0.75022001  1
  Ba  Ba3  1  0.50000001  0.50000001  0.00000000  1
  Cu  Cu4  1  0.00000000  0.50000001  0.12355500  1
  Cu  Cu5  1  0.50000001  0.00000000  0.37502901  1
  Cu  Cu6  1  0.00000000  0.50000001  0.62497101  1
  Cu  Cu7  1  0.50000001  0.00000000  0.87644501  1
  Cu  Cu8  1  0.50000001  0.00000000  0.12355500  1
  Cu  Cu9  1  0.00000000  0.50000001  0.37502901  1
  Cu  Cu10  1  0.50000001  0.00000000  0.62497101  1
  Cu  Cu11  1  0.00000000  0.50000001  0.87644501  1
  S  S12  1  0.50000001  0.50000001  0.17532600  1
  S  S13  1  0.00000000  0.00000000  0.42683201  1
  S  S14  1  0.50000001  0.50000001  0.67703501  1
  S  S15  1  0.00000000  0.00000000  0.92879701  1
  S  S16  1  0.00000000  0.00000000  0.07120300  1
  S  S17  1  0.50000001  0.50000001  0.32296500  1
  S  S18  1  0.00000000  0.00000000  0.57316801  1
  S  S19  1  0.50000001  0.50000001  0.82467401  1
