# generated using pymatgen
data_BaGe5
_symmetry_space_group_name_H-M   'P 1'
_cell_length_a   4.55934191
_cell_length_b   7.43161678
_cell_length_c   8.90241718
_cell_angle_alpha   90.00000000
_cell_angle_beta   104.83718872
_cell_angle_gamma   90.00000000
_symmetry_Int_Tables_number   1
_chemical_formula_structural   BaGe5
_chemical_formula_sum   'Ba2 Ge10'
_cell_volume   291.58554003
_cell_formula_units_Z   2
loop_
 _symmetry_equiv_pos_site_id
 _symmetry_equiv_pos_as_xyz
  1  'x, y, z'
loop_
 _atom_site_type_symbol
 _atom_site_label
 _atom_site_symmetry_multiplicity
 _atom_site_fract_x
 _atom_site_fract_y
 _atom_site_fract_z
 _atom_site_occupancy
  Ba  Ba0  1  0.12138300  0.75000002  0.24276599  1
  Ba  Ba1  1  0.87861701  0.25000001  0.75723396  1
  Ge  Ge2  1  0.68969501  0.05023700  0.37938998  1
  Ge  Ge3  1  0.31030500  0.94976303  0.62060998  1
  Ge  Ge4  1  0.68969501  0.44976301  0.37938998  1
  Ge  Ge5  1  0.07548800  0.25000001  0.15097599  1
  Ge  Ge6  1  0.50000001  0.00000000  -0.00000001  1
  Ge  Ge7  1  0.31030500  0.55023702  0.62060998  1
  Ge  Ge8  1  0.50000001  0.50000001  -0.00000001  1
  Ge  Ge9  1  0.92451201  0.75000002  0.84902396  1
  Ge  Ge10  1  0.22590100  0.25000001  0.45180198  1
  Ge  Ge11  1  0.77409901  0.75000002  0.54819797  1
