# generated using pymatgen
data_Li7Co3O10
_symmetry_space_group_name_H-M   'P 1'
_cell_length_a   5.16296577
_cell_length_b   5.92231321
_cell_length_c   6.52585602
_cell_angle_alpha   104.29725647
_cell_angle_beta   96.21578979
_cell_angle_gamma   108.74095917
_symmetry_Int_Tables_number   1
_chemical_formula_structural   Li7Co3O10
_chemical_formula_sum   'Li7 Co3 O10'
_cell_volume   179.23930086
_cell_formula_units_Z   1
loop_
 _symmetry_equiv_pos_site_id
 _symmetry_equiv_pos_as_xyz
  1  'x, y, z'
loop_
 _atom_site_type_symbol
 _atom_site_label
 _atom_site_symmetry_multiplicity
 _atom_site_fract_x
 _atom_site_fract_y
 _atom_site_fract_z
 _atom_site_occupancy
  Li  Li0  1  0.80055104  0.10440300  0.59600903  1
  Li  Li1  1  0.60335707  0.69398900  0.20215506  1
  Li  Li2  1  0.20012107  0.90635400  0.39196807  1
  Li  Li3  1  0.99018508  0.49692400  0.00947705  1
  Li  Li4  1  0.40619604  0.29860200  0.80339104  1
  Li  Li5  1  0.60299504  0.20321700  0.20403303  1
  Co  Co6  1  0.00053000  0.00177300  0.00186000  1
  Co  Co7  1  0.79712408  0.59239600  0.59279307  1
  Li  Li8  1  0.40109407  0.80349500  0.80423908  1
  Co  Co9  1  0.20218304  0.39347800  0.39237804  1
  O  O10  1  0.07608907  0.94158500  0.70864708  1
  O  O11  1  0.89936608  0.55848900  0.32426106  1
  O  O12  1  0.50428607  0.72158500  0.50916407  1
  O  O13  1  0.27214104  0.33662100  0.10282903  1
  O  O14  1  0.70911404  0.11957200  0.90304304  1
  O  O15  1  0.51338704  0.27259200  0.51244704  1
  O  O16  1  0.28073107  0.86016300  0.07791906  1
  O  O17  1  0.92791305  0.06443400  0.28810403  1
  O  O18  1  0.72182108  0.65915100  0.89465808  1
  O  O19  1  0.09081704  0.47117700  0.68062505  1
