# generated using pymatgen
data_Bi
_symmetry_space_group_name_H-M   'P 1'
_cell_length_a   4.53022003
_cell_length_b   4.53022003
_cell_length_c   16.63715172
_cell_angle_alpha   97.82498932
_cell_angle_beta   97.82498932
_cell_angle_gamma   90.00000000
_symmetry_Int_Tables_number   1
_chemical_formula_structural   Bi
_chemical_formula_sum   Bi10
_cell_volume   335.05367985
_cell_formula_units_Z   10
loop_
 _symmetry_equiv_pos_site_id
 _symmetry_equiv_pos_as_xyz
  1  'x, y, z'
loop_
 _atom_site_type_symbol
 _atom_site_label
 _atom_site_symmetry_multiplicity
 _atom_site_fract_x
 _atom_site_fract_y
 _atom_site_fract_z
 _atom_site_occupancy
  Bi  Bi0  1  0.39998099  0.39998100  0.79996200  1
  Bi  Bi1  1  0.79999398  0.79999399  0.59998799  1
  Bi  Bi2  1  0.20000600  0.20000600  0.40001200  1
  Bi  Bi3  1  0.60001899  0.60001899  0.20003799  1
  Bi  Bi4  1  0.10059000  0.10059000  0.20118000  1
  Bi  Bi5  1  0.49999999  0.49999999  -0.00000001  1
  Bi  Bi6  1  0.89940998  0.89940999  0.79882000  1
  Bi  Bi7  1  0.30003599  0.30003600  0.60007200  1
  Bi  Bi8  1  0.69996399  0.69996399  0.39992799  1
  Bi  Bi9  1  0.00000000  0.00000000  0.00000000  1
