# generated using pymatgen
data_BaBi7O12
_symmetry_space_group_name_H-M   'P 1'
_cell_length_a   5.69140816
_cell_length_b   5.94978809
_cell_length_c   8.33352661
_cell_angle_alpha   90.00000000
_cell_angle_beta   90.00000000
_cell_angle_gamma   90.00000000
_symmetry_Int_Tables_number   1
_chemical_formula_structural   BaBi7O12
_chemical_formula_sum   'Ba1 Bi7 O12'
_cell_volume   282.19548233
_cell_formula_units_Z   1
loop_
 _symmetry_equiv_pos_site_id
 _symmetry_equiv_pos_as_xyz
  1  'x, y, z'
loop_
 _atom_site_type_symbol
 _atom_site_label
 _atom_site_symmetry_multiplicity
 _atom_site_fract_x
 _atom_site_fract_y
 _atom_site_fract_z
 _atom_site_occupancy
  Ba  Ba0  1  0.98674097  0.05314600  0.25000001  1
  Bi  Bi1  1  0.48674099  0.44685399  0.75000003  1
  Bi  Bi2  1  0.51325899  0.55314599  0.25000001  1
  Bi  Bi3  1  0.01325900  0.94685399  0.75000003  1
  Bi  Bi4  1  0.49999999  0.00000000  0.00000000  1
  Bi  Bi5  1  0.49999999  0.00000000  0.50000002  1
  Bi  Bi6  1  0.00000000  0.49999999  -0.00000000  1
  Bi  Bi7  1  0.00000000  0.49999999  0.50000002  1
  O  O8  1  0.63787498  0.06885100  0.75000003  1
  O  O9  1  0.18014800  0.18377500  0.57133103  1
  O  O10  1  0.18014800  0.18377500  0.92866904  1
  O  O11  1  0.68014798  0.31622500  0.07133100  1
  O  O12  1  0.68014798  0.31622500  0.42866902  1
  O  O13  1  0.13787500  0.43114899  0.25000001  1
  O  O14  1  0.86212498  0.56885099  0.75000003  1
  O  O15  1  0.31985199  0.68377499  0.92866904  1
  O  O16  1  0.31985199  0.68377499  0.57133103  1
  O  O17  1  0.81985198  0.81622499  0.07133100  1
  O  O18  1  0.81985198  0.81622499  0.42866902  1
  O  O19  1  0.36212499  0.93114899  0.25000001  1
