# generated using pymatgen
data_Sr2IrO4
_symmetry_space_group_name_H-M   'P 1'
_cell_length_a   3.83437991
_cell_length_b   3.83437991
_cell_length_c   7.11198521
_cell_angle_alpha   105.63877869
_cell_angle_beta   105.63877869
_cell_angle_gamma   90.00000000
_symmetry_Int_Tables_number   1
_chemical_formula_structural   Sr2IrO4
_chemical_formula_sum   'Sr2 Ir1 O4'
_cell_volume   96.66703304
_cell_formula_units_Z   1
loop_
 _symmetry_equiv_pos_site_id
 _symmetry_equiv_pos_as_xyz
  1  'x, y, z'
loop_
 _atom_site_type_symbol
 _atom_site_label
 _atom_site_symmetry_multiplicity
 _atom_site_fract_x
 _atom_site_fract_y
 _atom_site_fract_z
 _atom_site_occupancy
  Sr  Sr0  1  0.63591398  0.63591400  0.27182795  1
  Sr  Sr1  1  0.36123999  0.36124000  0.72247998  1
  Ir  Ir2  1  0.98071497  0.98071500  0.96142993  1
  O  O3  1  0.50234200  0.00234200  0.00468398  1
  O  O4  1  0.00234198  0.50234200  0.00468398  1
  O  O5  1  0.82744997  0.82745000  0.65489994  1
  O  O6  1  0.17249699  0.17249700  0.34499399  1
