# generated using pymatgen
data_Bi9Br5
_symmetry_space_group_name_H-M   'P 1'
_cell_length_a   4.47242117
_cell_length_b   8.65464783
_cell_length_c   14.08298588
_cell_angle_alpha   92.80010986
_cell_angle_beta   90.00000000
_cell_angle_gamma   90.00000000
_symmetry_Int_Tables_number   1
_chemical_formula_structural   Bi9Br5
_chemical_formula_sum   'Bi9 Br5'
_cell_volume   544.46253408
_cell_formula_units_Z   1
loop_
 _symmetry_equiv_pos_site_id
 _symmetry_equiv_pos_as_xyz
  1  'x, y, z'
loop_
 _atom_site_type_symbol
 _atom_site_label
 _atom_site_symmetry_multiplicity
 _atom_site_fract_x
 _atom_site_fract_y
 _atom_site_fract_z
 _atom_site_occupancy
  Bi  Bi0  1  0.24999999  0.92230302  0.85768400  1
  Bi  Bi1  1  0.74999997  0.07769700  0.14231600  1
  Bi  Bi2  1  0.74999997  0.57669901  0.65227399  1
  Bi  Bi3  1  0.24999999  0.42330101  0.34772600  1
  Bi  Bi4  1  0.74999997  0.91939602  0.67985300  1
  Bi  Bi5  1  0.24999999  0.85731502  0.07284202  1
  Br  Br6  1  0.24999999  0.67623401  0.51814800  1
  Bi  Bi7  1  0.74999997  0.65309801  0.86069799  1
  Br  Br8  1  0.74999997  0.62403401  0.29121101  1
  Br  Br9  1  0.24999999  0.37596601  0.70878899  1
  Br  Br10  1  0.24999999  0.34690201  0.13930200  1
  Br  Br11  1  0.74999997  0.32376601  0.48185199  1
  Bi  Bi12  1  0.74999997  0.14268500  0.92715797  1
  Bi  Bi13  1  0.24999999  0.08060400  0.32014699  1
