# generated using pymatgen
data_P
_symmetry_space_group_name_H-M   'P 1'
_cell_length_a   5.57895279
_cell_length_b   5.57895279
_cell_length_c   10.23143387
_cell_angle_alpha   90.00000000
_cell_angle_beta   90.00000000
_cell_angle_gamma   90.00000000
_symmetry_Int_Tables_number   1
_chemical_formula_structural   P
_chemical_formula_sum   P12
_cell_volume   318.45045527
_cell_formula_units_Z   12
loop_
 _symmetry_equiv_pos_site_id
 _symmetry_equiv_pos_as_xyz
  1  'x, y, z'
loop_
 _atom_site_type_symbol
 _atom_site_label
 _atom_site_symmetry_multiplicity
 _atom_site_fract_x
 _atom_site_fract_y
 _atom_site_fract_z
 _atom_site_occupancy
  P  P0  1  0.50000002  0.00000000  0.25000000  1
  P  P1  1  0.00000000  0.50000002  0.75000001  1
  P  P2  1  0.00000000  0.00000000  0.00000000  1
  P  P3  1  0.00000000  0.00000000  0.50000001  1
  P  P4  1  0.77181503  0.73236403  0.62540101  1
  P  P5  1  0.73236403  0.22818501  0.37459900  1
  P  P6  1  0.26763601  0.77181503  0.37459900  1
  P  P7  1  0.77181503  0.26763601  0.87459901  1
  P  P8  1  0.22818501  0.73236403  0.87459901  1
  P  P9  1  0.22818501  0.26763601  0.62540101  1
  P  P10  1  0.26763601  0.22818501  0.12540100  1
  P  P11  1  0.73236403  0.77181503  0.12540100  1
