# generated using pymatgen
data_TlBi2Te3
_symmetry_space_group_name_H-M   'P 1'
_cell_length_a   4.66959000
_cell_length_b   4.66959000
_cell_length_c   9.72833061
_cell_angle_alpha   103.88651276
_cell_angle_beta   103.88651276
_cell_angle_gamma   90.00000000
_symmetry_Int_Tables_number   1
_chemical_formula_structural   TlBi2Te3
_chemical_formula_sum   'Tl1 Bi2 Te3'
_cell_volume   199.53472576
_cell_formula_units_Z   1
loop_
 _symmetry_equiv_pos_site_id
 _symmetry_equiv_pos_as_xyz
  1  'x, y, z'
loop_
 _atom_site_type_symbol
 _atom_site_label
 _atom_site_symmetry_multiplicity
 _atom_site_fract_x
 _atom_site_fract_y
 _atom_site_fract_z
 _atom_site_occupancy
  Te  Te0  1  0.99999998  0.50000000  -0.00000003  1
  Bi  Bi1  1  0.50000000  0.00000000  -0.00000001  1
  Tl  Tl2  1  0.67877698  0.67877699  0.35755396  1
  Bi  Bi3  1  0.32122299  0.32122300  0.64244596  1
  Te  Te4  1  0.86109698  0.86109699  0.72219394  1
  Te  Te5  1  0.13890300  0.13890300  0.27780598  1
