# generated using pymatgen
data_Ga3S4
_symmetry_space_group_name_H-M   'P 1'
_cell_length_a   7.22468090
_cell_length_b   7.22476625
_cell_length_c   7.22469044
_cell_angle_alpha   60.10231781
_cell_angle_beta   60.10359955
_cell_angle_gamma   60.10476685
_symmetry_Int_Tables_number   1
_chemical_formula_structural   Ga3S4
_chemical_formula_sum   'Ga6 S8'
_cell_volume   267.27883883
_cell_formula_units_Z   2
loop_
 _symmetry_equiv_pos_site_id
 _symmetry_equiv_pos_as_xyz
  1  'x, y, z'
loop_
 _atom_site_type_symbol
 _atom_site_label
 _atom_site_symmetry_multiplicity
 _atom_site_fract_x
 _atom_site_fract_y
 _atom_site_fract_z
 _atom_site_occupancy
  Ga  Ga0  1  0.12477265  0.12478407  0.12475775  1
  Ga  Ga1  1  0.87522869  0.87520740  0.87523563  1
  Ga  Ga2  1  0.49996939  0.49999800  0.50003832  1
  Ga  Ga3  1  0.50000269  0.50001231  0.99999676  1
  Ga  Ga4  1  0.50001282  0.99999087  0.49998204  1
  Ga  Ga5  1  0.00001256  0.50001254  0.50000190  1
  S  S6  1  0.26330342  0.26328576  0.26332117  1
  S  S7  1  0.73696078  0.73698440  0.28915720  1
  S  S8  1  0.28913911  0.73699625  0.73694962  1
  S  S9  1  0.73698267  0.28913754  0.73695867  1
  S  S10  1  0.71085055  0.26301593  0.26305707  1
  S  S11  1  0.26302913  0.71085545  0.26303341  1
  S  S12  1  0.73670413  0.73671413  0.73666640  1
  S  S13  1  0.26303646  0.26300153  0.71084310  1
