# generated using pymatgen
data_Ta2Si
_symmetry_space_group_name_H-M   'P 1'
_cell_length_a   5.07922316
_cell_length_b   6.23122501
_cell_length_c   6.23122501
_cell_angle_alpha   90.00000000
_cell_angle_beta   90.00000000
_cell_angle_gamma   90.00000000
_symmetry_Int_Tables_number   1
_chemical_formula_structural   Ta2Si
_chemical_formula_sum   'Ta8 Si4'
_cell_volume   197.21691564
_cell_formula_units_Z   4
loop_
 _symmetry_equiv_pos_site_id
 _symmetry_equiv_pos_as_xyz
  1  'x, y, z'
loop_
 _atom_site_type_symbol
 _atom_site_label
 _atom_site_symmetry_multiplicity
 _atom_site_fract_x
 _atom_site_fract_y
 _atom_site_fract_z
 _atom_site_occupancy
  Ta  Ta0  1  0.49999998  0.65634000  0.15963500  1
  Ta  Ta1  1  0.49999998  0.34366000  0.84036500  1
  Ta  Ta2  1  0.49999998  0.84036500  0.65634000  1
  Ta  Ta3  1  0.49999998  0.15963500  0.34366000  1
  Ta  Ta4  1  0.00000000  0.34366000  0.15963500  1
  Ta  Ta5  1  0.00000000  0.65634000  0.84036500  1
  Ta  Ta6  1  0.00000000  0.15963500  0.65634000  1
  Ta  Ta7  1  0.00000000  0.84036500  0.34366000  1
  Si  Si8  1  0.24999999  0.00000000  0.00000000  1
  Si  Si9  1  0.74999998  0.00000000  -0.00000000  1
  Si  Si10  1  0.24999999  0.50000000  0.50000000  1
  Si  Si11  1  0.74999998  0.50000000  0.50000000  1
