# generated using pymatgen
data_Co2P
_symmetry_space_group_name_H-M   'P 1'
_cell_length_a   3.80382895
_cell_length_b   3.80382895
_cell_length_c   5.37371683
_cell_angle_alpha   90.00000000
_cell_angle_beta   90.00000000
_cell_angle_gamma   90.00000000
_symmetry_Int_Tables_number   1
_chemical_formula_structural   Co2P
_chemical_formula_sum   'Co4 P2'
_cell_volume   77.75292529
_cell_formula_units_Z   2
loop_
 _symmetry_equiv_pos_site_id
 _symmetry_equiv_pos_as_xyz
  1  'x, y, z'
loop_
 _atom_site_type_symbol
 _atom_site_label
 _atom_site_symmetry_multiplicity
 _atom_site_fract_x
 _atom_site_fract_y
 _atom_site_fract_z
 _atom_site_occupancy
  P  P0  1  0.00000000  0.00000000  0.00000000  1
  P  P1  1  0.50000001  0.50000001  0.50000002  1
  Co  Co2  1  0.50000001  0.00000000  0.74138902  1
  Co  Co3  1  0.00000000  0.50000001  0.25861101  1
  Co  Co4  1  0.50000001  0.00000000  0.25861101  1
  Co  Co5  1  0.00000000  0.50000001  0.74138902  1
