# generated using pymatgen
data_HoCoGe
_symmetry_space_group_name_H-M   'P 1'
_cell_length_a   4.84621000
_cell_length_b   4.89465046
_cell_length_c   4.89465046
_cell_angle_alpha   60.16420746
_cell_angle_beta   60.32683945
_cell_angle_gamma   60.32683945
_symmetry_Int_Tables_number   1
_chemical_formula_structural   HoCoGe
_chemical_formula_sum   'Ho2 Co2 Ge2'
_cell_volume   82.60376662
_cell_formula_units_Z   2
loop_
 _symmetry_equiv_pos_site_id
 _symmetry_equiv_pos_as_xyz
  1  'x, y, z'
loop_
 _atom_site_type_symbol
 _atom_site_label
 _atom_site_symmetry_multiplicity
 _atom_site_fract_x
 _atom_site_fract_y
 _atom_site_fract_z
 _atom_site_occupancy
  Ho  Ho0  1  0.87353001  0.37647001  0.87646997  1
  Ho  Ho1  1  0.12646999  0.62353001  0.12352999  1
  Co  Co2  1  0.50000000  0.50000001  0.49999998  1
  Ge  Ge3  1  0.49999999  1.00000002  -0.00000003  1
  Co  Co4  1  1.00000001  0.00000000  0.49999997  1
  Ge  Ge5  1  0.50000001  0.00000000  0.49999999  1
