# generated using pymatgen
data_Pr2Co17
_symmetry_space_group_name_H-M   'P 1'
_cell_length_a   6.45293808
_cell_length_b   6.45293808
_cell_length_c   6.45293808
_cell_angle_alpha   83.08032227
_cell_angle_beta   83.08032227
_cell_angle_gamma   83.08032990
_symmetry_Int_Tables_number   1
_chemical_formula_structural   Pr2Co17
_chemical_formula_sum   'Pr2 Co17'
_cell_volume   263.26760909
_cell_formula_units_Z   1
loop_
 _symmetry_equiv_pos_site_id
 _symmetry_equiv_pos_as_xyz
  1  'x, y, z'
loop_
 _atom_site_type_symbol
 _atom_site_label
 _atom_site_symmetry_multiplicity
 _atom_site_fract_x
 _atom_site_fract_y
 _atom_site_fract_z
 _atom_site_occupancy
  Pr  Pr0  1  0.34179802  0.34179800  0.34179802  1
  Pr  Pr1  1  0.65820204  0.65820201  0.65820204  1
  Co  Co2  1  0.00000000  0.00000000  0.49999998  1
  Co  Co3  1  0.50000006  1.00000001  0.00000007  1
  Co  Co4  1  0.00000002  0.50000001  0.00000002  1
  Co  Co5  1  0.29033504  0.70966501  0.00000005  1
  Co  Co6  1  0.00000001  0.29033500  0.70966499  1
  Co  Co7  1  0.70966506  1.00000001  0.29033507  1
  Co  Co8  1  0.00000003  0.70966501  0.29033502  1
  Co  Co9  1  0.29033500  0.00000000  0.70966499  1
  Co  Co10  1  0.70966503  0.29033500  0.00000005  1
  Co  Co11  1  0.65886304  0.65886301  0.15385606  1
  Co  Co12  1  0.15385603  0.65886301  0.65886301  1
  Co  Co13  1  0.65886302  0.15385600  0.65886302  1
  Co  Co14  1  0.34113702  0.34113700  0.84614400  1
  Co  Co15  1  0.84614403  0.34113700  0.34113704  1
  Co  Co16  1  0.34113705  0.84614401  0.34113704  1
  Co  Co17  1  0.09369401  0.09369400  0.09369401  1
  Co  Co18  1  0.90630606  0.90630601  0.90630605  1
