# generated using pymatgen
data_Ta4Mn3CoGe4
_symmetry_space_group_name_H-M   'P 1'
_cell_length_a   4.79264784
_cell_length_b   4.79264784
_cell_length_c   8.32320881
_cell_angle_alpha   90.00000000
_cell_angle_beta   90.00000000
_cell_angle_gamma   120.00000000
_symmetry_Int_Tables_number   1
_chemical_formula_structural   Ta4Mn3CoGe4
_chemical_formula_sum   'Ta4 Mn3 Co1 Ge4'
_cell_volume   165.56649641
_cell_formula_units_Z   1
loop_
 _symmetry_equiv_pos_site_id
 _symmetry_equiv_pos_as_xyz
  1  'x, y, z'
loop_
 _atom_site_type_symbol
 _atom_site_label
 _atom_site_symmetry_multiplicity
 _atom_site_fract_x
 _atom_site_fract_y
 _atom_site_fract_z
 _atom_site_occupancy
  Ta  Ta0  1  0.66666669  0.33333335  0.56611801  1
  Ta  Ta1  1  0.33333335  0.66666670  0.43388201  1
  Ta  Ta2  1  0.33333335  0.66666670  0.06611800  1
  Ta  Ta3  1  0.66666669  0.33333335  0.93388202  1
  Mn  Mn4  1  0.17119201  0.34238402  0.75000002  1
  Co  Co5  1  0.17119201  0.82880804  0.75000002  1
  Ge  Ge6  1  0.65761603  0.82880804  0.75000002  1
  Ge  Ge7  1  0.82880803  0.65761603  0.25000001  1
  Mn  Mn8  1  0.82880803  0.17119201  0.25000001  1
  Mn  Mn9  1  0.34238401  0.17119201  0.25000001  1
  Ge  Ge10  1  0.00000000  0.00000000  0.50000001  1
  Ge  Ge11  1  0.00000000  0.00000000  0.00000000  1
