# generated using pymatgen
data_Mo6Se3S5
_symmetry_space_group_name_H-M   'P 1'
_cell_length_a   3.40854502
_cell_length_b   9.66783237
_cell_length_c   9.66783237
_cell_angle_alpha   120.00000000
_cell_angle_beta   90.00000000
_cell_angle_gamma   90.00000000
_symmetry_Int_Tables_number   1
_chemical_formula_structural   Mo6Se3S5
_chemical_formula_sum   'Mo6 Se3 S5'
_cell_volume   275.90393179
_cell_formula_units_Z   1
loop_
 _symmetry_equiv_pos_site_id
 _symmetry_equiv_pos_as_xyz
  1  'x, y, z'
loop_
 _atom_site_type_symbol
 _atom_site_label
 _atom_site_symmetry_multiplicity
 _atom_site_fract_x
 _atom_site_fract_y
 _atom_site_fract_z
 _atom_site_occupancy
  Mo  Mo0  1  0.25000000  0.48611498  0.37117398  1
  Mo  Mo1  1  0.75000000  0.37117398  0.88505895  1
  Mo  Mo2  1  0.75000000  0.11494100  0.48611498  1
  Mo  Mo3  1  0.25000000  0.88505896  0.51388497  1
  Mo  Mo4  1  0.25000000  0.62882597  0.11494099  1
  Mo  Mo5  1  0.75000000  0.51388498  0.62882597  1
  S  S6  1  0.25000000  0.34626699  0.05700699  1
  Se  Se7  1  0.75000000  0.05700700  0.71073996  1
  S  S8  1  0.75000000  0.28925999  0.34626698  1
  S  S9  1  0.25000000  0.71073997  0.65373296  1
  S  S10  1  0.25000000  0.94299296  0.28925998  1
  Se  Se11  1  0.75000000  0.65373297  0.94299295  1
  S  S12  1  0.75000000  0.66666664  0.33333331  1
  Se  Se13  1  0.25000000  0.33333332  0.66666663  1
