# generated using pymatgen
data_Lu3(AlSi2)2
_symmetry_space_group_name_H-M   'P 1'
_cell_length_a   3.80424094
_cell_length_b   6.97409010
_cell_length_c   6.97409010
_cell_angle_alpha   120.00000000
_cell_angle_beta   90.00000000
_cell_angle_gamma   90.00000000
_symmetry_Int_Tables_number   1
_chemical_formula_structural   Lu3(AlSi2)2
_chemical_formula_sum   'Lu3 Al2 Si4'
_cell_volume   160.24103983
_cell_formula_units_Z   1
loop_
 _symmetry_equiv_pos_site_id
 _symmetry_equiv_pos_as_xyz
  1  'x, y, z'
loop_
 _atom_site_type_symbol
 _atom_site_label
 _atom_site_symmetry_multiplicity
 _atom_site_fract_x
 _atom_site_fract_y
 _atom_site_fract_z
 _atom_site_occupancy
  Lu  Lu0  1  0.50000001  0.58331799  0.58331798  1
  Lu  Lu1  1  0.50000001  0.00000000  0.41668199  1
  Lu  Lu2  1  0.50000001  0.41668199  -0.00000000  1
  Al  Al3  1  1.00000002  0.23765300  0.23765299  1
  Si  Si4  1  0.00000000  0.00000000  0.76234698  1
  Al  Al5  1  0.00000000  0.76234699  -0.00000001  1
  Si  Si6  1  -0.00000000  0.66666665  0.33333332  1
  Si  Si7  1  1.00000002  0.33333333  0.66666665  1
  Si  Si8  1  0.50000001  0.00000000  -0.00000000  1
