# generated using pymatgen
data_Lu3Si2
_symmetry_space_group_name_H-M   'P 1'
_cell_length_a   3.74706006
_cell_length_b   7.29824400
_cell_length_c   7.29824400
_cell_angle_alpha   90.00000000
_cell_angle_beta   90.00000000
_cell_angle_gamma   90.00000000
_symmetry_Int_Tables_number   1
_chemical_formula_structural   Lu3Si2
_chemical_formula_sum   'Lu6 Si4'
_cell_volume   199.58477652
_cell_formula_units_Z   2
loop_
 _symmetry_equiv_pos_site_id
 _symmetry_equiv_pos_as_xyz
  1  'x, y, z'
loop_
 _atom_site_type_symbol
 _atom_site_label
 _atom_site_symmetry_multiplicity
 _atom_site_fract_x
 _atom_site_fract_y
 _atom_site_fract_z
 _atom_site_occupancy
  Lu  Lu0  1  0.49999999  0.67631900  0.17631900  1
  Lu  Lu1  1  0.49999999  0.32368100  0.82368100  1
  Lu  Lu2  1  0.49999999  0.17631900  0.32368100  1
  Lu  Lu3  1  0.49999999  0.82368100  0.67631900  1
  Lu  Lu4  1  0.00000000  0.00000000  0.00000000  1
  Lu  Lu5  1  0.00000000  0.50000000  0.50000000  1
  Si  Si6  1  0.00000000  0.11706400  0.61706400  1
  Si  Si7  1  0.00000000  0.88293600  0.38293600  1
  Si  Si8  1  0.00000000  0.61706400  0.88293600  1
  Si  Si9  1  0.00000000  0.38293600  0.11706400  1
