# generated using pymatgen
data_Rb(CoP)2
_symmetry_space_group_name_H-M   'P 1'
_cell_length_a   3.83396196
_cell_length_b   3.83396196
_cell_length_c   7.19126129
_cell_angle_alpha   105.46031952
_cell_angle_beta   105.46031952
_cell_angle_gamma   90.00000000
_symmetry_Int_Tables_number   1
_chemical_formula_structural   Rb(CoP)2
_chemical_formula_sum   'Rb1 Co2 P2'
_cell_volume   97.90703658
_cell_formula_units_Z   1
loop_
 _symmetry_equiv_pos_site_id
 _symmetry_equiv_pos_as_xyz
  1  'x, y, z'
loop_
 _atom_site_type_symbol
 _atom_site_label
 _atom_site_symmetry_multiplicity
 _atom_site_fract_x
 _atom_site_fract_y
 _atom_site_fract_z
 _atom_site_occupancy
  P  P0  1  0.66642403  0.66642401  0.33284803  1
  P  P1  1  0.33357602  0.33357601  0.66715200  1
  Rb  Rb2  1  0.00000000  0.00000000  0.00000000  1
  Co  Co3  1  0.75000002  0.25000001  0.50000001  1
  Co  Co4  1  0.25000002  0.75000002  0.50000002  1
