# generated using pymatgen
data_HoGe2
_symmetry_space_group_name_H-M   'P 1'
_cell_length_a   4.03158903
_cell_length_b   7.03633881
_cell_length_c   8.21039009
_cell_angle_alpha   90.00000000
_cell_angle_beta   90.00000000
_cell_angle_gamma   90.00000000
_symmetry_Int_Tables_number   1
_chemical_formula_structural   HoGe2
_chemical_formula_sum   'Ho4 Ge8'
_cell_volume   232.90927829
_cell_formula_units_Z   4
loop_
 _symmetry_equiv_pos_site_id
 _symmetry_equiv_pos_as_xyz
  1  'x, y, z'
loop_
 _atom_site_type_symbol
 _atom_site_label
 _atom_site_symmetry_multiplicity
 _atom_site_fract_x
 _atom_site_fract_y
 _atom_site_fract_z
 _atom_site_occupancy
  Ho  Ho0  1  0.74999999  0.44949201  0.18742500  1
  Ho  Ho1  1  0.74999999  0.94949203  0.31257500  1
  Ho  Ho2  1  0.25000000  0.55050802  0.81257499  1
  Ho  Ho3  1  0.25000000  0.05050800  0.68742499  1
  Ge  Ge4  1  0.74999999  0.86992702  0.93642699  1
  Ge  Ge5  1  0.74999999  0.36992701  0.56357299  1
  Ge  Ge6  1  0.25000000  0.13007300  0.06357300  1
  Ge  Ge7  1  0.25000000  0.63007302  0.43642700  1
  Ge  Ge8  1  0.74999999  0.25518601  0.87698799  1
  Ge  Ge9  1  0.74999999  0.75518602  0.62301199  1
  Ge  Ge10  1  0.25000000  0.74481402  0.12301200  1
  Ge  Ge11  1  0.25000000  0.24481401  0.37698800  1
