# generated using pymatgen
data_BaLiNb2(OF3)2
_symmetry_space_group_name_H-M   'P 1'
_cell_length_a   3.91520000
_cell_length_b   3.91520000
_cell_length_c   11.76277733
_cell_angle_alpha   90.00000000
_cell_angle_beta   90.00000000
_cell_angle_gamma   90.00000000
_symmetry_Int_Tables_number   1
_chemical_formula_structural   BaLiNb2(OF3)2
_chemical_formula_sum   'Ba1 Li1 Nb2 O2 F6'
_cell_volume   180.30915526
_cell_formula_units_Z   1
loop_
 _symmetry_equiv_pos_site_id
 _symmetry_equiv_pos_as_xyz
  1  'x, y, z'
loop_
 _atom_site_type_symbol
 _atom_site_label
 _atom_site_symmetry_multiplicity
 _atom_site_fract_x
 _atom_site_fract_y
 _atom_site_fract_z
 _atom_site_occupancy
  Ba  Ba0  1  0.00000000  0.00000000  0.00000000  1
  Nb  Nb1  1  0.50000000  0.50000000  0.80930398  1
  Nb  Nb2  1  0.50000000  0.50000000  0.19069599  1
  Li  Li3  1  0.50000000  0.50000000  0.49999999  1
  F  F4  1  0.00000000  0.00000000  0.49999999  1
  F  F5  1  0.50000000  0.00000000  0.84569698  1
  F  F6  1  0.00000000  0.50000000  0.84569698  1
  F  F7  1  0.50000000  0.00000000  0.15430300  1
  F  F8  1  0.00000000  0.50000000  0.15430300  1
  O  O9  1  0.50000000  0.50000000  0.65627098  1
  O  O10  1  0.50000000  0.50000000  0.34372899  1
  F  F11  1  0.50000000  0.50000000  0.00000000  1
