# generated using pymatgen
data_Ba4Mg2Ga2O9
_symmetry_space_group_name_H-M   'P 1'
_cell_length_a   5.92674351
_cell_length_b   5.92674351
_cell_length_c   9.03654766
_cell_angle_alpha   108.82272339
_cell_angle_beta   108.82272339
_cell_angle_gamma   90.92443085
_symmetry_Int_Tables_number   1
_chemical_formula_structural   Ba4Mg2Ga2O9
_chemical_formula_sum   'Ba4 Mg2 Ga2 O9'
_cell_volume   281.80534126
_cell_formula_units_Z   1
loop_
 _symmetry_equiv_pos_site_id
 _symmetry_equiv_pos_as_xyz
  1  'x, y, z'
loop_
 _atom_site_type_symbol
 _atom_site_label
 _atom_site_symmetry_multiplicity
 _atom_site_fract_x
 _atom_site_fract_y
 _atom_site_fract_z
 _atom_site_occupancy
  Ba  Ba0  1  0.87796495  0.87796497  0.26620503  1
  Ba  Ba1  1  0.38823998  0.38823999  0.26620501  1
  Ba  Ba2  1  0.61175997  0.61175998  0.73379502  1
  Ba  Ba3  1  0.12203499  0.12203500  0.73379500  1
  Mg  Mg4  1  0.49999999  0.00000000  0.50000001  1
  Mg  Mg5  1  -0.00000001  0.49999999  0.50000001  1
  Ga  Ga6  1  0.72651597  0.27348399  1.00000002  1
  Ga  Ga7  1  0.27348397  0.72651598  0.00000002  1
  O  O8  1  0.87480397  0.34902299  0.22382702  1
  O  O9  1  0.34902297  0.87480397  0.22382702  1
  O  O10  1  0.65097698  0.12519600  0.77617301  1
  O  O11  1  0.12519598  0.65097698  0.77617301  1
  O  O12  1  0.74760196  0.74760198  0.49520403  1
  O  O13  1  0.25239799  0.25239799  0.50479601  1
  O  O14  1  0.24999997  0.74999998  0.50000002  1
  O  O15  1  0.74999997  0.24999999  0.50000002  1
  O  O16  1  0.49999997  0.49999999  1.00000002  1
