# generated using pymatgen
data_CsMo3Se5
_symmetry_space_group_name_H-M   'P 1'
_cell_length_a   3.29556203
_cell_length_b   3.29556251
_cell_length_c   30.58743286
_cell_angle_alpha   90.00000000
_cell_angle_beta   90.00000000
_cell_angle_gamma   119.99999237
_symmetry_Int_Tables_number   1
_chemical_formula_structural   CsMo3Se5
_chemical_formula_sum   'Cs1 Mo3 Se5'
_cell_volume   287.69528056
_cell_formula_units_Z   1
loop_
 _symmetry_equiv_pos_site_id
 _symmetry_equiv_pos_as_xyz
  1  'x, y, z'
loop_
 _atom_site_type_symbol
 _atom_site_label
 _atom_site_symmetry_multiplicity
 _atom_site_fract_x
 _atom_site_fract_y
 _atom_site_fract_z
 _atom_site_occupancy
  Cs  Cs0  1  0.66666664  0.33333333  0.93728300  1
  Se  Se1  1  0.66666664  0.33333333  0.06271700  1
  Mo  Mo2  1  0.33333330  0.66666665  -0.00000000  1
  Mo  Mo3  1  0.66666664  0.33333333  0.23138500  1
  Mo  Mo4  1  0.66666664  0.33333333  0.76861500  1
  Se  Se5  1  0.33333330  0.66666665  0.28165300  1
  Se  Se6  1  0.33333330  0.66666665  0.81891600  1
  Se  Se7  1  0.33333330  0.66666665  0.18108400  1
  Se  Se8  1  0.33333330  0.66666665  0.71834700  1
