# generated using pymatgen
data_Cr7CuSe12
_symmetry_space_group_name_H-M   'P 1'
_cell_length_a   5.78688478
_cell_length_b   5.78688478
_cell_length_c   9.35456467
_cell_angle_alpha   90.00000000
_cell_angle_beta   90.00000000
_cell_angle_gamma   90.00000000
_symmetry_Int_Tables_number   1
_chemical_formula_structural   Cr7CuSe12
_chemical_formula_sum   'Cr7 Cu1 Se12'
_cell_volume   313.26599375
_cell_formula_units_Z   1
loop_
 _symmetry_equiv_pos_site_id
 _symmetry_equiv_pos_as_xyz
  1  'x, y, z'
loop_
 _atom_site_type_symbol
 _atom_site_label
 _atom_site_symmetry_multiplicity
 _atom_site_fract_x
 _atom_site_fract_y
 _atom_site_fract_z
 _atom_site_occupancy
  Se  Se0  1  0.17458701  0.17458701  0.75000003  1
  Se  Se1  1  0.82541303  0.82541303  0.75000003  1
  Se  Se2  1  0.17458701  0.82541303  0.25000001  1
  Se  Se3  1  0.82541303  0.17458701  0.25000001  1
  Se  Se4  1  0.34750201  0.21901901  0.41513901  1
  Se  Se5  1  0.65249802  0.78098103  0.41513901  1
  Se  Se6  1  0.34750201  0.78098103  0.91513903  1
  Se  Se7  1  0.65249802  0.21901901  0.91513903  1
  Se  Se8  1  0.21901901  0.65249802  0.58486102  1
  Se  Se9  1  0.78098103  0.34750201  0.58486102  1
  Se  Se10  1  0.78098103  0.65249802  0.08486100  1
  Se  Se11  1  0.21901901  0.34750201  0.08486100  1
  Cu  Cu12  1  0.50000002  0.50000002  0.25000001  1
  Cr  Cr13  1  0.50000002  0.50000002  0.75000003  1
  Cr  Cr14  1  0.00000000  0.00000000  0.50000002  1
  Cr  Cr15  1  0.00000000  0.00000000  0.00000000  1
  Cr  Cr16  1  0.50000002  0.00000000  0.12360800  1
  Cr  Cr17  1  0.50000002  0.00000000  0.62360802  1
  Cr  Cr18  1  0.00000000  0.50000002  0.87639203  1
  Cr  Cr19  1  0.00000000  0.50000002  0.37639201  1
