# generated using pymatgen
data_Ba4Zr3S13
_symmetry_space_group_name_H-M   'P 1'
_cell_length_a   3.90628600
_cell_length_b   8.40866661
_cell_length_c   14.23908615
_cell_angle_alpha   90.00000000
_cell_angle_beta   90.00000000
_cell_angle_gamma   90.00000000
_symmetry_Int_Tables_number   1
_chemical_formula_structural   Ba4Zr3S13
_chemical_formula_sum   'Ba4 Zr3 S13'
_cell_volume   467.70637410
_cell_formula_units_Z   1
loop_
 _symmetry_equiv_pos_site_id
 _symmetry_equiv_pos_as_xyz
  1  'x, y, z'
loop_
 _atom_site_type_symbol
 _atom_site_label
 _atom_site_symmetry_multiplicity
 _atom_site_fract_x
 _atom_site_fract_y
 _atom_site_fract_z
 _atom_site_occupancy
  Ba  Ba0  1  0.25000000  0.93230104  0.17530800  1
  Ba  Ba1  1  0.75000000  0.06769900  0.82469199  1
  Ba  Ba2  1  0.75000000  0.56769903  0.67530799  1
  Ba  Ba3  1  0.25000000  0.43230102  0.32469200  1
  S  S4  1  0.25000000  0.66897703  0.94249499  1
  Zr  Zr5  1  0.75000000  0.33102302  0.05750500  1
  Zr  Zr6  1  0.75000000  0.83102304  0.44249500  1
  Zr  Zr7  1  0.25000000  0.16897701  0.55750499  1
  S  S8  1  0.25000000  0.52927502  0.10526800  1
  S  S9  1  0.75000000  0.47072502  0.89473199  1
  S  S10  1  0.75000000  0.97072504  0.60526799  1
  S  S11  1  0.25000000  0.02927500  0.39473200  1
  S  S12  1  0.25000000  0.65361103  0.50533599  1
  S  S13  1  0.75000000  0.34638902  0.49466399  1
  S  S14  1  0.75000000  0.84638904  0.00533600  1
  S  S15  1  0.25000000  0.15361101  0.99466399  1
  S  S16  1  0.25000000  0.78998504  0.78481299  1
  S  S17  1  0.75000000  0.21001501  0.21518700  1
  S  S18  1  0.75000000  0.71001503  0.28481300  1
  S  S19  1  0.25000000  0.28998501  0.71518699  1
