# generated using pymatgen
data_Tb(GeRu)2
_symmetry_space_group_name_H-M   'P 1'
_cell_length_a   4.17997408
_cell_length_b   4.17997408
_cell_length_c   5.72034454
_cell_angle_alpha   111.42975616
_cell_angle_beta   111.42975616
_cell_angle_gamma   90.00000000
_symmetry_Int_Tables_number   1
_chemical_formula_structural   Tb(GeRu)2
_chemical_formula_sum   'Tb1 Ge2 Ru2'
_cell_volume   85.57135043
_cell_formula_units_Z   1
loop_
 _symmetry_equiv_pos_site_id
 _symmetry_equiv_pos_as_xyz
  1  'x, y, z'
loop_
 _atom_site_type_symbol
 _atom_site_label
 _atom_site_symmetry_multiplicity
 _atom_site_fract_x
 _atom_site_fract_y
 _atom_site_fract_z
 _atom_site_occupancy
  Tb  Tb0  1  0.00000000  0.00000000  0.00000000  1
  Ge  Ge1  1  0.61726393  0.61726397  0.23452793  1
  Ge  Ge2  1  0.38273596  0.38273598  0.76547196  1
  Ru  Ru3  1  0.74999995  0.24999999  0.49999995  1
  Ru  Ru4  1  0.24999994  0.74999996  0.49999994  1
