# generated using pymatgen
data_Mn5WF12
_symmetry_space_group_name_H-M   'P 1'
_cell_length_a   3.06228495
_cell_length_b   4.82005453
_cell_length_c   14.32606316
_cell_angle_alpha   96.51111603
_cell_angle_beta   90.00000000
_cell_angle_gamma   90.00000000
_symmetry_Int_Tables_number   1
_chemical_formula_structural   Mn5WF12
_chemical_formula_sum   'Mn5 W1 F12'
_cell_volume   210.09421067
_cell_formula_units_Z   1
loop_
 _symmetry_equiv_pos_site_id
 _symmetry_equiv_pos_as_xyz
  1  'x, y, z'
loop_
 _atom_site_type_symbol
 _atom_site_label
 _atom_site_symmetry_multiplicity
 _atom_site_fract_x
 _atom_site_fract_y
 _atom_site_fract_z
 _atom_site_occupancy
  W  W0  1  0.00000000  0.05487800  0.99834300  1
  Mn  Mn1  1  1.00000002  0.00815700  0.33350900  1
  Mn  Mn2  1  0.00000000  0.96908198  0.66666664  1
  Mn  Mn3  1  0.50000001  0.52847699  0.16838099  1
  Mn  Mn4  1  0.50000001  0.49060399  0.49897299  1
  Mn  Mn5  1  0.50000001  0.45146699  0.83176199  1
  F  F6  1  0.50000001  0.20165000  0.93594099  1
  F  F7  1  0.00000000  0.33893099  0.10236599  1
  F  F8  1  0.00000000  0.26602399  0.76807899  1
  F  F9  1  0.00000000  0.30119599  0.43416599  1
  F  F10  1  0.00000000  0.71658698  0.23309098  1
  F  F11  1  0.00000000  0.67608099  0.56637998  1
  F  F12  1  0.50000001  0.19926800  0.27011299  1
  F  F13  1  0.50000001  0.16414600  0.60630499  1
  F  F14  1  0.00000000  0.69346198  0.89828998  1
  F  F15  1  0.50000001  0.85019798  0.05647298  1
  F  F16  1  0.50000001  0.81616198  0.39648398  1
  F  F17  1  0.50000001  0.77363098  0.73470698  1
