# generated using pymatgen
data_Lu4Ge5Rh3
_symmetry_space_group_name_H-M   'P 1'
_cell_length_a   4.35954809
_cell_length_b   7.08089209
_cell_length_c   7.19668913
_cell_angle_alpha   90.00000000
_cell_angle_beta   90.00000000
_cell_angle_gamma   90.00000000
_symmetry_Int_Tables_number   1
_chemical_formula_structural   Lu4Ge5Rh3
_chemical_formula_sum   'Lu4 Ge5 Rh3'
_cell_volume   222.15812009
_cell_formula_units_Z   1
loop_
 _symmetry_equiv_pos_site_id
 _symmetry_equiv_pos_as_xyz
  1  'x, y, z'
loop_
 _atom_site_type_symbol
 _atom_site_label
 _atom_site_symmetry_multiplicity
 _atom_site_fract_x
 _atom_site_fract_y
 _atom_site_fract_z
 _atom_site_occupancy
  Lu  Lu0  1  0.24999999  0.48784699  0.68477299  1
  Lu  Lu1  1  0.24999999  0.98784699  0.81522699  1
  Lu  Lu2  1  0.74999998  0.51215299  0.31522699  1
  Lu  Lu3  1  0.74999998  0.01215300  0.18477300  1
  Ge  Ge4  1  0.24999999  0.83216899  0.42272799  1
  Ge  Ge5  1  0.24999999  0.33216900  0.07727200  1
  Rh  Rh6  1  0.74999998  0.16783100  0.57727199  1
  Ge  Ge7  1  0.74999998  0.66783099  0.92272798  1
  Ge  Ge8  1  0.24999999  0.19584600  0.39500999  1
  Rh  Rh9  1  0.24999999  0.69584599  0.10499000  1
  Rh  Rh10  1  0.74999998  0.80415399  0.60498999  1
  Ge  Ge11  1  0.74999998  0.30415400  0.89500998  1
