# generated using pymatgen
data_NaCuF3
_symmetry_space_group_name_H-M   'P 1'
_cell_length_a   5.33001900
_cell_length_b   5.76691914
_cell_length_c   7.68471861
_cell_angle_alpha   90.00000000
_cell_angle_beta   89.73756409
_cell_angle_gamma   90.00000000
_symmetry_Int_Tables_number   1
_chemical_formula_structural   NaCuF3
_chemical_formula_sum   'Na4 Cu4 F12'
_cell_volume   236.20877784
_cell_formula_units_Z   4
loop_
 _symmetry_equiv_pos_site_id
 _symmetry_equiv_pos_as_xyz
  1  'x, y, z'
loop_
 _atom_site_type_symbol
 _atom_site_label
 _atom_site_symmetry_multiplicity
 _atom_site_fract_x
 _atom_site_fract_y
 _atom_site_fract_z
 _atom_site_occupancy
  Na  Na0  1  0.47481400  0.07465700  0.24728501  1
  Na  Na1  1  0.52518600  0.92534298  0.75271501  1
  Na  Na2  1  0.02518600  0.57465699  0.25271500  1
  Na  Na3  1  0.97481400  0.42534299  0.74728502  1
  Cu  Cu4  1  0.50000000  0.49999999  0.00000001  1
  Cu  Cu5  1  0.00000000  0.00000000  0.50000000  1
  Cu  Cu6  1  0.50000000  0.49999999  0.50000001  1
  Cu  Cu7  1  0.00000000  0.00000000  0.00000000  1
  F  F8  1  0.62925800  0.44598999  0.25102002  1
  F  F9  1  0.37074200  0.55400999  0.74898001  1
  F  F10  1  0.87074200  0.94598998  0.24898002  1
  F  F11  1  0.12925800  0.05401000  0.75102000  1
  F  F12  1  0.31580500  0.80255498  0.43215501  1
  F  F13  1  0.68419500  0.19744500  0.56784502  1
  F  F14  1  0.18419500  0.30255499  0.06784500  1
  F  F15  1  0.81580500  0.69744498  0.93215502  1
  F  F16  1  0.18311000  0.31141299  0.44251200  1
  F  F17  1  0.81689000  0.68858698  0.55748802  1
  F  F18  1  0.31689000  0.81141298  0.05748801  1
  F  F19  1  0.68311000  0.18858700  0.94251202  1
