# generated using pymatgen
data_Lu3In2Co
_symmetry_space_group_name_H-M   'P 1'
_cell_length_a   5.30775595
_cell_length_b   5.31347227
_cell_length_c   5.31347227
_cell_angle_alpha   75.55429840
_cell_angle_beta   60.03557968
_cell_angle_gamma   60.03557968
_symmetry_Int_Tables_number   1
_chemical_formula_structural   Lu3In2Co
_chemical_formula_sum   'Lu3 In2 Co1'
_cell_volume   112.47091625
_cell_formula_units_Z   1
loop_
 _symmetry_equiv_pos_site_id
 _symmetry_equiv_pos_as_xyz
  1  'x, y, z'
loop_
 _atom_site_type_symbol
 _atom_site_label
 _atom_site_symmetry_multiplicity
 _atom_site_fract_x
 _atom_site_fract_y
 _atom_site_fract_z
 _atom_site_occupancy
  Co  Co0  1  0.50000001  0.00000000  -0.00000002  1
  Lu  Lu1  1  0.00000000  0.00000000  0.00000000  1
  In  In2  1  0.58724599  0.82550802  0.49999999  1
  Lu  Lu3  1  0.91275402  0.17449200  0.49999997  1
  Lu  Lu4  1  0.41275399  0.50000001  0.17449199  1
  In  In5  1  0.08724598  0.50000001  0.82550801  1
