# generated using pymatgen
data_Ho2AlSi2
_symmetry_space_group_name_H-M   'P 1'
_cell_length_a   4.09530783
_cell_length_b   5.25660992
_cell_length_c   5.41597271
_cell_angle_alpha   119.03132629
_cell_angle_beta   112.21461487
_cell_angle_gamma   90.00000000
_symmetry_Int_Tables_number   1
_chemical_formula_structural   Ho2AlSi2
_chemical_formula_sum   'Ho2 Al1 Si2'
_cell_volume   91.91958876
_cell_formula_units_Z   1
loop_
 _symmetry_equiv_pos_site_id
 _symmetry_equiv_pos_as_xyz
  1  'x, y, z'
loop_
 _atom_site_type_symbol
 _atom_site_label
 _atom_site_symmetry_multiplicity
 _atom_site_fract_x
 _atom_site_fract_y
 _atom_site_fract_z
 _atom_site_occupancy
  Ho  Ho0  1  0.19928206  0.69928202  0.39856402  1
  Ho  Ho1  1  0.80071807  0.30071801  0.60143603  1
  Al  Al2  1  0.00000000  0.00000000  0.00000000  1
  Si  Si3  1  0.50000005  0.26180301  0.00000004  1
  Si  Si4  1  0.50000008  0.73819703  1.00000001  1
