# generated using pymatgen
data_MgHO2
_symmetry_space_group_name_H-M   'P 1'
_cell_length_a   3.27667809
_cell_length_b   4.05047989
_cell_length_c   6.71846962
_cell_angle_alpha   90.00000000
_cell_angle_beta   104.11423492
_cell_angle_gamma   90.00000000
_symmetry_Int_Tables_number   1
_chemical_formula_structural   MgHO2
_chemical_formula_sum   'Mg2 H2 O4'
_cell_volume   86.47646462
_cell_formula_units_Z   2
loop_
 _symmetry_equiv_pos_site_id
 _symmetry_equiv_pos_as_xyz
  1  'x, y, z'
loop_
 _atom_site_type_symbol
 _atom_site_label
 _atom_site_symmetry_multiplicity
 _atom_site_fract_x
 _atom_site_fract_y
 _atom_site_fract_z
 _atom_site_occupancy
  Mg  Mg0  1  0.32443599  0.75088902  0.64887202  1
  Mg  Mg1  1  0.67556398  0.25088901  0.35112801  1
  H  H2  1  0.98418197  0.56504902  0.96836402  1
  H  H3  1  0.01581800  0.06504900  0.03163600  1
  O  O4  1  0.71558898  0.75046102  0.43117801  1
  O  O5  1  0.28441099  0.25046101  0.56882201  1
  O  O6  1  0.93088797  0.74420102  0.86177602  1
  O  O7  1  0.06911200  0.24420101  0.13822400  1
