# generated using pymatgen
data_BaCu2Si4P
_symmetry_space_group_name_H-M   'P 1'
_cell_length_a   3.90122890
_cell_length_b   3.90122890
_cell_length_c   9.04341698
_cell_angle_alpha   90.00000000
_cell_angle_beta   90.00000000
_cell_angle_gamma   90.00000000
_symmetry_Int_Tables_number   1
_chemical_formula_structural   BaCu2Si4P
_chemical_formula_sum   'Ba1 Si4 Cu2 P1'
_cell_volume   137.63707116
_cell_formula_units_Z   1
loop_
 _symmetry_equiv_pos_site_id
 _symmetry_equiv_pos_as_xyz
  1  'x, y, z'
loop_
 _atom_site_type_symbol
 _atom_site_label
 _atom_site_symmetry_multiplicity
 _atom_site_fract_x
 _atom_site_fract_y
 _atom_site_fract_z
 _atom_site_occupancy
  Si  Si0  1  0.00000000  0.00000000  0.00000000  1
  P  P1  1  0.50000001  0.50000001  0.27862700  1
  Si  Si2  1  0.50000001  0.50000001  0.72137300  1
  Ba  Ba3  1  0.00000000  0.00000000  0.50000000  1
  Cu  Cu4  1  0.00000000  0.50000001  0.15409100  1
  Si  Si5  1  0.50000001  0.00000000  0.84590900  1
  Cu  Cu6  1  0.50000001  0.00000000  0.15409100  1
  Si  Si7  1  0.00000000  0.50000001  0.84590900  1
