# generated using pymatgen
data_BiTe11
_symmetry_space_group_name_H-M   'P 1'
_cell_length_a   4.38042784
_cell_length_b   4.38042784
_cell_length_c   24.15756416
_cell_angle_alpha   90.00000000
_cell_angle_beta   90.00000000
_cell_angle_gamma   120.00000000
_symmetry_Int_Tables_number   1
_chemical_formula_structural   BiTe11
_chemical_formula_sum   'Bi1 Te11'
_cell_volume   401.43647812
_cell_formula_units_Z   1
loop_
 _symmetry_equiv_pos_site_id
 _symmetry_equiv_pos_as_xyz
  1  'x, y, z'
loop_
 _atom_site_type_symbol
 _atom_site_label
 _atom_site_symmetry_multiplicity
 _atom_site_fract_x
 _atom_site_fract_y
 _atom_site_fract_z
 _atom_site_occupancy
  Bi  Bi0  1  0.66666669  0.33333335  0.91939003  1
  Te  Te1  1  0.33333335  0.66666670  0.08061000  1
  Te  Te2  1  0.66666669  0.33333335  0.66596802  1
  Te  Te3  1  0.33333335  0.66666670  0.33403201  1
  Te  Te4  1  0.66666669  0.33333335  0.41560401  1
  Te  Te5  1  0.33333335  0.66666670  0.58439602  1
  Te  Te6  1  0.66666669  0.33333335  0.15033301  1
  Te  Te7  1  0.33333335  0.66666670  0.84966703  1
  Te  Te8  1  0.00000000  0.00000000  0.73479703  1
  Te  Te9  1  0.00000000  0.00000000  0.26520301  1
  Te  Te10  1  0.00000000  0.00000000  0.00000000  1
  Te  Te11  1  0.00000000  0.00000000  0.50000002  1
