# generated using pymatgen
data_EuGe4
_symmetry_space_group_name_H-M   'P 1'
_cell_length_a   4.36694193
_cell_length_b   4.36694193
_cell_length_c   6.08292866
_cell_angle_alpha   111.03576660
_cell_angle_beta   111.03576660
_cell_angle_gamma   90.00000000
_symmetry_Int_Tables_number   1
_chemical_formula_structural   EuGe4
_chemical_formula_sum   'Eu1 Ge4'
_cell_volume   99.94472418
_cell_formula_units_Z   1
loop_
 _symmetry_equiv_pos_site_id
 _symmetry_equiv_pos_as_xyz
  1  'x, y, z'
loop_
 _atom_site_type_symbol
 _atom_site_label
 _atom_site_symmetry_multiplicity
 _atom_site_fract_x
 _atom_site_fract_y
 _atom_site_fract_z
 _atom_site_occupancy
  Eu  Eu0  1  0.00000000  0.00000000  0.00000000  1
  Ge  Ge1  1  0.37872803  0.37872801  0.75745601  1
  Ge  Ge2  1  0.62127204  0.62127202  0.24254404  1
  Ge  Ge3  1  0.25000003  0.75000003  0.50000003  1
  Ge  Ge4  1  0.75000003  0.25000001  0.50000002  1
