# generated using pymatgen
data_GaGe5O12
_symmetry_space_group_name_H-M   'P 1'
_cell_length_a   5.65510750
_cell_length_b   6.85867167
_cell_length_c   6.85867167
_cell_angle_alpha   83.96344757
_cell_angle_beta   76.89802551
_cell_angle_gamma   76.89802551
_symmetry_Int_Tables_number   1
_chemical_formula_structural   GaGe5O12
_chemical_formula_sum   'Ga1 Ge5 O12'
_cell_volume   251.94829619
_cell_formula_units_Z   1
loop_
 _symmetry_equiv_pos_site_id
 _symmetry_equiv_pos_as_xyz
  1  'x, y, z'
loop_
 _atom_site_type_symbol
 _atom_site_label
 _atom_site_symmetry_multiplicity
 _atom_site_fract_x
 _atom_site_fract_y
 _atom_site_fract_z
 _atom_site_occupancy
  Ga  Ga0  1  0.25000000  0.10458900  0.89541099  1
  Ge  Ge1  1  0.74999999  0.89541100  0.10458900  1
  Ge  Ge2  1  0.23633799  0.61569600  0.78857300  1
  Ge  Ge3  1  0.26366200  0.21142700  0.38430400  1
  Ge  Ge4  1  0.76366200  0.38430400  0.21142699  1
  Ge  Ge5  1  0.73633799  0.78857300  0.61569600  1
  O  O6  1  0.49757299  0.66446900  0.61290800  1
  O  O7  1  0.00242699  0.38709200  0.33553100  1
  O  O8  1  0.50242700  0.33553100  0.38709199  1
  O  O9  1  0.99757300  0.61290800  0.66446899  1
  O  O10  1  0.80370499  0.91386700  0.38176800  1
  O  O11  1  0.69629499  0.61823200  0.08613300  1
  O  O12  1  0.19629500  0.08613300  0.61823199  1
  O  O13  1  0.30370499  0.38176800  0.91386699  1
  O  O14  1  0.12945298  0.81976500  0.95837900  1
  O  O15  1  0.37054701  0.04162100  0.18023499  1
  O  O16  1  0.87054701  0.18023500  0.04162099  1
  O  O17  1  0.62945298  0.95837900  0.81976500  1
