# generated using pymatgen
data_Cs8NaF9
_symmetry_space_group_name_H-M   'P 1'
_cell_length_a   7.00601578
_cell_length_b   7.92937088
_cell_length_c   7.92937088
_cell_angle_alpha   90.00000000
_cell_angle_beta   90.00000000
_cell_angle_gamma   90.00000000
_symmetry_Int_Tables_number   1
_chemical_formula_structural   Cs8NaF9
_chemical_formula_sum   'Cs8 Na1 F9'
_cell_volume   440.50269943
_cell_formula_units_Z   1
loop_
 _symmetry_equiv_pos_site_id
 _symmetry_equiv_pos_as_xyz
  1  'x, y, z'
loop_
 _atom_site_type_symbol
 _atom_site_label
 _atom_site_symmetry_multiplicity
 _atom_site_fract_x
 _atom_site_fract_y
 _atom_site_fract_z
 _atom_site_occupancy
  Cs  Cs0  1  0.03088300  0.19820100  0.40638901  1
  Cs  Cs1  1  0.96911703  0.59361101  0.19820100  1
  Cs  Cs2  1  0.96911703  0.40638901  0.80179901  1
  Cs  Cs3  1  0.03088300  0.80179901  0.59361101  1
  Cs  Cs4  1  0.46911701  0.69820101  0.09361100  1
  Cs  Cs5  1  0.46911701  0.30179900  0.90638901  1
  Cs  Cs6  1  0.53088302  0.90638901  0.69820101  1
  Cs  Cs7  1  0.53088302  0.09361100  0.30179900  1
  F  F8  1  0.00000000  0.00000000  0.00000000  1
  Na  Na9  1  0.50000002  0.50000001  0.50000001  1
  F  F10  1  0.68945902  0.26077600  0.59248101  1
  F  F11  1  0.68945902  0.73922401  0.40751901  1
  F  F12  1  0.18945901  0.09248100  0.76077601  1
  F  F13  1  0.81054103  0.23922400  0.09248100  1
  F  F14  1  0.81054103  0.76077601  0.90751901  1
  F  F15  1  0.18945901  0.90751901  0.23922400  1
  F  F16  1  0.31054101  0.59248101  0.73922401  1
  F  F17  1  0.31054101  0.40751901  0.26077600  1
