# generated using pymatgen
data_P
_symmetry_space_group_name_H-M   'P 1'
_cell_length_a   3.01768732
_cell_length_b   3.01974988
_cell_length_c   24.89765358
_cell_angle_alpha   93.38292694
_cell_angle_beta   90.08248901
_cell_angle_gamma   119.88618469
_symmetry_Int_Tables_number   1
_chemical_formula_structural   P
_chemical_formula_sum   P20
_cell_volume   196.24465684
_cell_formula_units_Z   20
loop_
 _symmetry_equiv_pos_site_id
 _symmetry_equiv_pos_as_xyz
  1  'x, y, z'
loop_
 _atom_site_type_symbol
 _atom_site_label
 _atom_site_symmetry_multiplicity
 _atom_site_fract_x
 _atom_site_fract_y
 _atom_site_fract_z
 _atom_site_occupancy
  P  P0  1  0.70035998  0.40091600  0.10162100  1
  P  P1  1  0.20078197  0.40123400  0.60165298  1
  P  P2  1  0.79921797  0.59876600  0.39834999  1
  P  P3  1  0.29963596  0.59907200  0.89837897  1
  P  P4  1  0.40026595  0.80036500  0.20048800  1
  P  P5  1  0.90034395  0.80043100  0.70050399  1
  P  P6  1  0.09965299  0.19956000  0.29949399  1
  P  P7  1  0.59973299  0.19962300  0.79950798  1
  P  P8  1  0.50000400  0.00002600  0.50000099  1
  P  P9  1  0.00000200  0.00002400  0.00000000  1
  P  P10  1  0.74993097  0.49992800  0.24995700  1
  P  P11  1  0.25006997  0.50006300  0.75004498  1
  P  P12  1  0.14196498  0.29025200  0.44661699  1
  P  P13  1  0.65730298  0.30202800  0.94668597  1
  P  P14  1  0.34268996  0.69796700  0.05331400  1
  P  P15  1  0.85803896  0.70976400  0.55338399  1
  P  P16  1  0.44921094  0.89889100  0.34892000  1
  P  P17  1  0.94993595  0.89949500  0.84902698  1
  P  P18  1  0.05007399  0.10050400  0.15098100  1
  P  P19  1  0.55078300  0.10109100  0.65107098  1
