# generated using pymatgen
data_Li3N
_symmetry_space_group_name_H-M   'P 1'
_cell_length_a   3.65909362
_cell_length_b   5.25936937
_cell_length_c   7.37693548
_cell_angle_alpha   98.35495758
_cell_angle_beta   90.00000000
_cell_angle_gamma   110.35672760
_symmetry_Int_Tables_number   1
_chemical_formula_structural   Li3N
_chemical_formula_sum   'Li9 N3'
_cell_volume   131.49089538
_cell_formula_units_Z   3
loop_
 _symmetry_equiv_pos_site_id
 _symmetry_equiv_pos_as_xyz
  1  'x, y, z'
loop_
 _atom_site_type_symbol
 _atom_site_label
 _atom_site_symmetry_multiplicity
 _atom_site_fract_x
 _atom_site_fract_y
 _atom_site_fract_z
 _atom_site_occupancy
  Li  Li0  1  0.76736696  0.53476099  0.43706297  1
  Li  Li1  1  0.11509398  0.23018700  0.78020297  1
  Li  Li2  1  0.45073391  0.90151699  0.11640097  1
  Li  Li3  1  0.56593900  0.13190600  0.89626997  1
  Li  Li4  1  0.88255093  0.76514999  0.21693197  1
  Li  Li5  1  0.21823996  0.43647899  0.55313097  1
  Li  Li6  1  0.49840490  0.99680499  0.49614496  1
  Li  Li7  1  0.83493394  0.66986199  0.83718795  1
  Li  Li8  1  0.16653330  0.33333333  0.16666699  1
  N  N9  1  0.66666664  0.33333333  0.66666663  1
  N  N10  1  0.00267800  0.00545900  0.00228400  1
  N  N11  1  0.33055293  0.66120799  0.33104897  1
