# generated using pymatgen
data_BaHoCdSe3
_symmetry_space_group_name_H-M   'P 1'
_cell_length_a   4.29840422
_cell_length_b   7.50155354
_cell_length_c   10.75484085
_cell_angle_alpha   90.00000000
_cell_angle_beta   90.00000000
_cell_angle_gamma   106.64859009
_symmetry_Int_Tables_number   1
_chemical_formula_structural   BaHoCdSe3
_chemical_formula_sum   'Ba2 Ho2 Cd2 Se6'
_cell_volume   332.24940075
_cell_formula_units_Z   2
loop_
 _symmetry_equiv_pos_site_id
 _symmetry_equiv_pos_as_xyz
  1  'x, y, z'
loop_
 _atom_site_type_symbol
 _atom_site_label
 _atom_site_symmetry_multiplicity
 _atom_site_fract_x
 _atom_site_fract_y
 _atom_site_fract_z
 _atom_site_occupancy
  Ba  Ba0  1  0.74856701  0.49713400  0.75000001  1
  Ba  Ba1  1  0.25143303  0.50286600  0.25000000  1
  Ho  Ho2  1  0.00000000  0.00000000  0.50000001  1
  Ho  Ho3  1  0.00000000  0.00000000  0.00000000  1
  Cd  Cd4  1  0.46659606  0.93319200  0.75000001  1
  Cd  Cd5  1  0.53340398  0.06680800  0.25000000  1
  Se  Se6  1  0.36507405  0.73014800  0.54699601  1
  Se  Se7  1  0.63492599  0.26985200  0.45300401  1
  Se  Se8  1  0.36507405  0.73014800  0.95300401  1
  Se  Se9  1  0.63492599  0.26985200  0.04699600  1
  Se  Se10  1  0.07729801  0.15459600  0.75000001  1
  Se  Se11  1  0.92270203  0.84540400  0.25000000  1
