# generated using pymatgen
data_Ho2(GaCo)5
_symmetry_space_group_name_H-M   'P 1'
_cell_length_a   5.08364439
_cell_length_b   5.08364439
_cell_length_c   8.61411285
_cell_angle_alpha   72.83786774
_cell_angle_beta   72.83786774
_cell_angle_gamma   59.99999619
_symmetry_Int_Tables_number   1
_chemical_formula_structural   Ho2(GaCo)5
_chemical_formula_sum   'Ho2 Ga5 Co5'
_cell_volume   181.25693589
_cell_formula_units_Z   1
loop_
 _symmetry_equiv_pos_site_id
 _symmetry_equiv_pos_as_xyz
  1  'x, y, z'
loop_
 _atom_site_type_symbol
 _atom_site_label
 _atom_site_symmetry_multiplicity
 _atom_site_fract_x
 _atom_site_fract_y
 _atom_site_fract_z
 _atom_site_occupancy
  Ga  Ga0  1  0.00000000  0.00000000  0.00000000  1
  Ho  Ho1  1  0.14189500  0.14189500  0.57431498  1
  Ho  Ho2  1  0.85810499  0.85810498  0.42568496  1
  Co  Co3  1  0.49999999  0.49999999  0.49999997  1
  Ga  Ga4  1  0.33276299  0.33276299  0.00171099  1
  Ga  Ga5  1  0.66723699  0.66723699  0.99828896  1
  Co  Co6  1  0.58102899  0.08197400  0.75596797  1
  Co  Co7  1  0.58102899  0.58102899  0.75596796  1
  Ga  Ga8  1  0.08197400  0.58102899  0.75596797  1
  Ga  Ga9  1  0.91802598  0.41897099  0.24403197  1
  Co  Co10  1  0.41897099  0.91802598  0.24403197  1
  Co  Co11  1  0.41897099  0.41897099  0.24403198  1
