# generated using pymatgen
data_Cs2Br3Cl
_symmetry_space_group_name_H-M   'P 1'
_cell_length_a   5.29380655
_cell_length_b   5.29380655
_cell_length_c   7.09793520
_cell_angle_alpha   90.00000000
_cell_angle_beta   90.00000000
_cell_angle_gamma   100.88159943
_symmetry_Int_Tables_number   1
_chemical_formula_structural   Cs2Br3Cl
_chemical_formula_sum   'Cs2 Br3 Cl1'
_cell_volume   195.33867056
_cell_formula_units_Z   1
loop_
 _symmetry_equiv_pos_site_id
 _symmetry_equiv_pos_as_xyz
  1  'x, y, z'
loop_
 _atom_site_type_symbol
 _atom_site_label
 _atom_site_symmetry_multiplicity
 _atom_site_fract_x
 _atom_site_fract_y
 _atom_site_fract_z
 _atom_site_occupancy
  Cs  Cs0  1  0.37554902  0.62445102  0.74999998  1
  Cs  Cs1  1  0.62445103  0.37554901  0.24999999  1
  Br  Br2  1  0.00000000  0.00000000  0.00000000  1
  Br  Br3  1  0.00000000  0.00000000  0.49999999  1
  Cl  Cl4  1  0.81371603  0.18628401  0.74999998  1
  Br  Br5  1  0.18628402  0.81371603  0.24999999  1
