# generated using pymatgen
data_Cs3Tl2Br15
_symmetry_space_group_name_H-M   'P 1'
_cell_length_a   4.49742079
_cell_length_b   10.39580727
_cell_length_c   16.63770485
_cell_angle_alpha   90.00000000
_cell_angle_beta   90.00000000
_cell_angle_gamma   90.00000000
_symmetry_Int_Tables_number   1
_chemical_formula_structural   Cs3Tl2Br15
_chemical_formula_sum   'Cs3 Tl2 Br15'
_cell_volume   777.88457168
_cell_formula_units_Z   1
loop_
 _symmetry_equiv_pos_site_id
 _symmetry_equiv_pos_as_xyz
  1  'x, y, z'
loop_
 _atom_site_type_symbol
 _atom_site_label
 _atom_site_symmetry_multiplicity
 _atom_site_fract_x
 _atom_site_fract_y
 _atom_site_fract_z
 _atom_site_occupancy
  Cs  Cs0  1  0.25000001  0.45259699  0.17534599  1
  Cs  Cs1  1  0.75000004  0.54740299  0.82465396  1
  Cs  Cs2  1  0.25000001  0.95259698  0.32465398  1
  Br  Br3  1  0.75000004  0.04740300  0.67534597  1
  Br  Br4  1  0.25000001  0.16777100  0.94595295  1
  Br  Br5  1  0.75000004  0.83222898  0.05404700  1
  Tl  Tl6  1  0.25000001  0.66777098  0.55404697  1
  Tl  Tl7  1  0.75000004  0.33222899  0.44595298  1
  Br  Br8  1  0.75000004  0.48125699  0.60529997  1
  Br  Br9  1  0.25000001  0.51874299  0.39469998  1
  Br  Br10  1  0.75000004  0.98125697  0.89469995  1
  Br  Br11  1  0.25000001  0.01874300  0.10529999  1
  Br  Br12  1  0.75000004  0.33589299  0.01029500  1
  Br  Br13  1  0.25000001  0.66410698  0.98970495  1
  Br  Br14  1  0.75000004  0.83589298  0.48970498  1
  Br  Br15  1  0.25000001  0.16410700  0.51029497  1
  Br  Br16  1  0.75000004  0.21015199  0.28790599  1
  Br  Br17  1  0.25000001  0.78984798  0.71209396  1
  Br  Br18  1  0.75000004  0.71015198  0.21209399  1
  Br  Br19  1  0.25000001  0.28984799  0.78790596  1
