# generated using pymatgen
data_NaGeO3
_symmetry_space_group_name_H-M   'P 1'
_cell_length_a   5.60195684
_cell_length_b   7.29770231
_cell_length_c   7.29770231
_cell_angle_alpha   86.78467560
_cell_angle_beta   82.89048767
_cell_angle_gamma   82.89048767
_symmetry_Int_Tables_number   1
_chemical_formula_structural   NaGeO3
_chemical_formula_sum   'Na4 Ge4 O12'
_cell_volume   293.51846328
_cell_formula_units_Z   4
loop_
 _symmetry_equiv_pos_site_id
 _symmetry_equiv_pos_as_xyz
  1  'x, y, z'
loop_
 _atom_site_type_symbol
 _atom_site_label
 _atom_site_symmetry_multiplicity
 _atom_site_fract_x
 _atom_site_fract_y
 _atom_site_fract_z
 _atom_site_occupancy
  Ge  Ge0  1  0.71450599  0.11289000  0.28517098  1
  Ge  Ge1  1  0.21450599  0.28517100  0.11288999  1
  Ge  Ge2  1  0.28549397  0.88710999  0.71482896  1
  Ge  Ge3  1  0.78549397  0.71482899  0.88710995  1
  Na  Na4  1  0.74999998  0.21869300  0.78130697  1
  Na  Na5  1  0.24999999  0.41076200  0.58923797  1
  Na  Na6  1  0.74999997  0.58923799  0.41076196  1
  Na  Na7  1  0.24999998  0.78130699  0.21869297  1
  O  O8  1  0.66488897  0.63782099  0.09535097  1
  O  O9  1  0.57393697  0.90368199  0.80252995  1
  O  O10  1  0.42606299  0.09631800  0.19746999  1
  O  O11  1  0.07393698  0.80252999  0.90368196  1
  O  O12  1  0.67028198  0.26650500  0.45761297  1
  O  O13  1  0.32971798  0.73349499  0.54238696  1
  O  O14  1  0.17028199  0.45761300  0.26650498  1
  O  O15  1  0.33511099  0.36217900  0.90464897  1
  O  O16  1  0.82971797  0.54238699  0.73349496  1
  O  O17  1  0.83511096  0.90464899  0.36217895  1
  O  O18  1  0.92606298  0.19747000  0.09631797  1
  O  O19  1  0.16488900  0.09535100  0.63782099  1
