# generated using pymatgen
data_Th7I9
_symmetry_space_group_name_H-M   'P 1'
_cell_length_a   8.12944221
_cell_length_b   8.12944221
_cell_length_c   9.68557453
_cell_angle_alpha   114.81359863
_cell_angle_beta   114.81359863
_cell_angle_gamma   90.00000000
_symmetry_Int_Tables_number   1
_chemical_formula_structural   Th7I9
_chemical_formula_sum   'Th7 I9'
_cell_volume   515.17335229
_cell_formula_units_Z   1
loop_
 _symmetry_equiv_pos_site_id
 _symmetry_equiv_pos_as_xyz
  1  'x, y, z'
loop_
 _atom_site_type_symbol
 _atom_site_label
 _atom_site_symmetry_multiplicity
 _atom_site_fract_x
 _atom_site_fract_y
 _atom_site_fract_z
 _atom_site_occupancy
  I  I0  1  0.81735898  0.96823097  0.28559000  1
  Th  Th1  1  0.18264100  0.03176900  0.71440999  1
  I  I2  1  0.46823099  0.31735899  0.28559000  1
  I  I3  1  0.31735899  0.81735898  0.28559000  1
  I  I4  1  0.03176900  0.53176899  0.71440999  1
  I  I5  1  0.53176899  0.68264098  0.71440999  1
  I  I6  1  0.68264098  0.18264100  0.71440999  1
  I  I7  1  0.96823097  0.46823099  0.28559000  1
  Th  Th8  1  0.00000000  0.00000000  0.00000000  1
  I  I9  1  0.49999999  0.49999999  0.00000000  1
  I  I10  1  0.12571400  0.37428499  0.99999898  1
  Th  Th11  1  0.87428598  0.62571498  0.00000100  1
  Th  Th12  1  0.62571398  0.12571400  0.00000000  1
  Th  Th13  1  0.37428599  0.87428598  0.99999998  1
  Th  Th14  1  0.24999999  0.24999999  0.49999999  1
  Th  Th15  1  0.74999998  0.74999998  0.49999999  1
