# generated using pymatgen
data_Mn8B3N
_symmetry_space_group_name_H-M   'P 1'
_cell_length_a   2.88905811
_cell_length_b   4.95286512
_cell_length_c   8.43742085
_cell_angle_alpha   100.80966949
_cell_angle_beta   90.00000000
_cell_angle_gamma   106.95707703
_symmetry_Int_Tables_number   1
_chemical_formula_structural   Mn8B3N
_chemical_formula_sum   'Mn8 B3 N1'
_cell_volume   113.24144915
_cell_formula_units_Z   1
loop_
 _symmetry_equiv_pos_site_id
 _symmetry_equiv_pos_as_xyz
  1  'x, y, z'
loop_
 _atom_site_type_symbol
 _atom_site_label
 _atom_site_symmetry_multiplicity
 _atom_site_fract_x
 _atom_site_fract_y
 _atom_site_fract_z
 _atom_site_occupancy
  Mn  Mn0  1  0.13839099  0.27678301  0.52529400  1
  Mn  Mn1  1  0.86160895  0.72321701  0.47470602  1
  Mn  Mn2  1  0.21896798  0.43793601  0.25057301  1
  Mn  Mn3  1  0.78103196  0.56206401  0.74942701  1
  Mn  Mn4  1  0.49559496  0.99119002  0.28771303  1
  Mn  Mn5  1  0.50440498  0.00881000  0.71228699  1
  Mn  Mn6  1  0.63868197  0.27736501  0.00274901  1
  Mn  Mn7  1  0.36131797  0.72263501  0.99725101  1
  B  B8  1  0.15531699  0.31063401  0.81591200  1
  B  B9  1  0.84468295  0.68936601  0.18408802  1
  N  N10  1  0.01486100  0.02972300  0.11126300  1
  B  B11  1  0.98513894  0.97027702  0.88873702  1
