# generated using pymatgen
data_Ca2Ir2O5
_symmetry_space_group_name_H-M   'P 1'
_cell_length_a   5.59504318
_cell_length_b   6.66076279
_cell_length_c   6.66076279
_cell_angle_alpha   90.00000000
_cell_angle_beta   90.00000000
_cell_angle_gamma   90.00000000
_symmetry_Int_Tables_number   1
_chemical_formula_structural   Ca2Ir2O5
_chemical_formula_sum   'Ca4 Ir4 O10'
_cell_volume   248.22834807
_cell_formula_units_Z   2
loop_
 _symmetry_equiv_pos_site_id
 _symmetry_equiv_pos_as_xyz
  1  'x, y, z'
loop_
 _atom_site_type_symbol
 _atom_site_label
 _atom_site_symmetry_multiplicity
 _atom_site_fract_x
 _atom_site_fract_y
 _atom_site_fract_z
 _atom_site_occupancy
  Ca  Ca0  1  0.49999998  0.73385802  0.11084000  1
  Ca  Ca1  1  0.99999997  0.88916003  0.73385802  1
  Ca  Ca2  1  0.49999998  0.26614201  0.88916003  1
  Ca  Ca3  1  0.99999997  0.11084000  0.26614201  1
  Ir  Ir4  1  0.99999997  0.58957602  0.31289101  1
  Ir  Ir5  1  0.49999998  0.31289101  0.41042401  1
  Ir  Ir6  1  0.99999997  0.41042401  0.68710902  1
  Ir  Ir7  1  0.49999998  0.68710902  0.58957602  1
  O  O8  1  0.25888799  0.59324202  0.78782403  1
  O  O9  1  0.75888798  0.78782403  0.40675801  1
  O  O10  1  0.74111198  0.40675801  0.21217601  1
  O  O11  1  0.25888799  0.40675801  0.21217601  1
  O  O12  1  0.74999998  0.00000000  0.00000000  1
  O  O13  1  0.75888798  0.21217601  0.59324202  1
  O  O14  1  0.24111199  0.21217601  0.59324202  1
  O  O15  1  0.74111198  0.59324202  0.78782403  1
  O  O16  1  0.24999999  0.00000000  0.00000000  1
  O  O17  1  0.24111199  0.78782403  0.40675801  1
