# generated using pymatgen
data_Ga4MoSe9
_symmetry_space_group_name_H-M   'P 1'
_cell_length_a   7.67412663
_cell_length_b   7.67412663
_cell_length_c   7.67412663
_cell_angle_alpha   60.00000000
_cell_angle_beta   60.00000000
_cell_angle_gamma   60.00000000
_symmetry_Int_Tables_number   1
_chemical_formula_structural   Ga4MoSe9
_chemical_formula_sum   'Ga4 Mo1 Se9'
_cell_volume   319.57432836
_cell_formula_units_Z   1
loop_
 _symmetry_equiv_pos_site_id
 _symmetry_equiv_pos_as_xyz
  1  'x, y, z'
loop_
 _atom_site_type_symbol
 _atom_site_label
 _atom_site_symmetry_multiplicity
 _atom_site_fract_x
 _atom_site_fract_y
 _atom_site_fract_z
 _atom_site_occupancy
  Ga  Ga0  1  0.13684100  0.62105300  0.62105300  1
  Mo  Mo1  1  0.62105200  0.62105300  0.62105300  1
  Ga  Ga2  1  0.62105200  0.62105300  0.13684200  1
  Ga  Ga3  1  0.62105200  0.13684200  0.62105300  1
  Se  Se4  1  0.00000000  0.00000000  0.00000000  1
  Ga  Ga5  1  0.25000000  0.25000000  0.25000000  1
  Se  Se6  1  0.42097800  0.85967400  0.85967400  1
  Se  Se7  1  0.85967300  0.85967400  0.85967400  1
  Se  Se8  1  0.85967300  0.85967400  0.42097900  1
  Se  Se9  1  0.85967300  0.42097900  0.85967400  1
  Se  Se10  1  0.83087300  0.38970900  0.38970900  1
  Se  Se11  1  0.38971000  0.38970900  0.38970900  1
  Se  Se12  1  0.38971000  0.38970900  0.83087200  1
  Se  Se13  1  0.38971000  0.83087200  0.38970900  1
