# generated using pymatgen
data_ThBr3
_symmetry_space_group_name_H-M   'P 1'
_cell_length_a   4.01455212
_cell_length_b   11.37454605
_cell_length_c   11.37454510
_cell_angle_alpha   120.00000000
_cell_angle_beta   90.00000000
_cell_angle_gamma   90.00000000
_symmetry_Int_Tables_number   1
_chemical_formula_structural   ThBr3
_chemical_formula_sum   'Th2 Br6'
_cell_volume   449.81697662
_cell_formula_units_Z   2
loop_
 _symmetry_equiv_pos_site_id
 _symmetry_equiv_pos_as_xyz
  1  'x, y, z'
loop_
 _atom_site_type_symbol
 _atom_site_label
 _atom_site_symmetry_multiplicity
 _atom_site_fract_x
 _atom_site_fract_y
 _atom_site_fract_z
 _atom_site_occupancy
  Th  Th0  1  0.24999999  0.66666665  0.33333331  1
  Th  Th1  1  0.74999998  0.33333333  0.66666667  1
  Br  Br2  1  0.74999998  0.78499898  0.21500097  1
  Br  Br3  1  0.74999998  0.43000199  0.21500099  1
  Br  Br4  1  0.74999998  0.78499898  0.56999798  1
  Br  Br5  1  0.24999999  0.21500099  0.78499901  1
  Br  Br6  1  0.24999999  0.56999799  0.78499899  1
  Br  Br7  1  0.24999999  0.21500099  0.43000200  1
