# generated using pymatgen
data_Ga2Se5
_symmetry_space_group_name_H-M   'P 1'
_cell_length_a   4.26302910
_cell_length_b   6.35229015
_cell_length_c   6.35229015
_cell_angle_alpha   115.14669037
_cell_angle_beta   102.92646027
_cell_angle_gamma   102.92646027
_symmetry_Int_Tables_number   1
_chemical_formula_structural   Ga2Se5
_chemical_formula_sum   'Ga2 Se5'
_cell_volume   141.51878663
_cell_formula_units_Z   1
loop_
 _symmetry_equiv_pos_site_id
 _symmetry_equiv_pos_as_xyz
  1  'x, y, z'
loop_
 _atom_site_type_symbol
 _atom_site_label
 _atom_site_symmetry_multiplicity
 _atom_site_fract_x
 _atom_site_fract_y
 _atom_site_fract_z
 _atom_site_occupancy
  Se  Se0  1  0.45050401  0.43592000  1.00000000  1
  Se  Se1  1  0.01458400  0.56408000  0.56407999  1
  Se  Se2  1  0.45050400  0.00000000  0.43592000  1
  Se  Se3  1  0.86626401  0.00000000  0.00000000  1
  Se  Se4  1  0.02239100  0.64894900  -0.00000002  1
  Ga  Ga5  1  0.37344200  0.35105100  0.35105099  1
  Ga  Ga6  1  0.02239100  0.00000000  0.64894900  1
