# generated using pymatgen
data_Ba3Bi9(SeI)2
_symmetry_space_group_name_H-M   'P 1'
_cell_length_a   9.36607838
_cell_length_b   9.36607838
_cell_length_c   9.44150162
_cell_angle_alpha   119.73609924
_cell_angle_beta   119.73608398
_cell_angle_gamma   90.00000000
_symmetry_Int_Tables_number   1
_chemical_formula_structural   Ba3Bi9(SeI)2
_chemical_formula_sum   'Ba3 Bi9 Se2 I2'
_cell_volume   590.29616164
_cell_formula_units_Z   1
loop_
 _symmetry_equiv_pos_site_id
 _symmetry_equiv_pos_as_xyz
  1  'x, y, z'
loop_
 _atom_site_type_symbol
 _atom_site_label
 _atom_site_symmetry_multiplicity
 _atom_site_fract_x
 _atom_site_fract_y
 _atom_site_fract_z
 _atom_site_occupancy
  Ba  Ba0  1  0.24999999  0.24999999  0.50000002  1
  Ba  Ba1  1  0.74999998  0.74999998  0.50000003  1
  Bi  Bi2  1  0.83569797  0.66430198  0.00000002  1
  Ba  Ba3  1  0.16430200  0.33569799  1.00000003  1
  I  I4  1  0.33569800  0.83569798  0.00000003  1
  I  I5  1  0.66430197  0.16430200  0.00000000  1
  Bi  Bi6  1  0.55349798  0.33092299  0.38442102  1
  Bi  Bi7  1  0.44650199  0.66907698  0.61557904  1
  Bi  Bi8  1  0.83092197  0.05349900  0.38442101  1
  Bi  Bi9  1  0.05349801  0.55349899  0.38442103  1
  Bi  Bi10  1  0.66907797  0.16907700  0.61557902  1
  Bi  Bi11  1  0.16907801  0.94650098  0.61557905  1
  Bi  Bi12  1  0.94650197  0.44650099  0.61557903  1
  Bi  Bi13  1  0.33092200  0.83092298  0.38442104  1
  Se  Se14  1  0.00000000  0.00000000  0.00000000  1
  Se  Se15  1  0.49999999  0.49999999  1.00000004  1
