# generated using pymatgen
data_Ba2Ag4Ge2S5N
_symmetry_space_group_name_H-M   'P 1'
_cell_length_a   7.80062771
_cell_length_b   7.80062771
_cell_length_c   7.83448505
_cell_angle_alpha   94.71924591
_cell_angle_beta   94.71924591
_cell_angle_gamma   116.45573425
_symmetry_Int_Tables_number   1
_chemical_formula_structural   Ba2Ag4Ge2S5N
_chemical_formula_sum   'Ba2 Ag4 Ge2 S5 N1'
_cell_volume   421.56107007
_cell_formula_units_Z   1
loop_
 _symmetry_equiv_pos_site_id
 _symmetry_equiv_pos_as_xyz
  1  'x, y, z'
loop_
 _atom_site_type_symbol
 _atom_site_label
 _atom_site_symmetry_multiplicity
 _atom_site_fract_x
 _atom_site_fract_y
 _atom_site_fract_z
 _atom_site_occupancy
  Ba  Ba0  1  0.35439801  0.35439800  0.64852904  1
  Ag  Ag1  1  0.21228401  0.78771601  0.50000005  1
  Ag  Ag2  1  0.78771601  0.21228400  0.50000005  1
  Ag  Ag3  1  0.25802501  0.74197501  0.00000005  1
  Ag  Ag4  1  0.74197501  0.25802500  0.00000005  1
  Ba  Ba5  1  0.64560201  0.64560201  0.35147106  1
  Ge  Ge6  1  0.18130800  0.18130800  0.15370502  1
  Ge  Ge7  1  0.81869202  0.81869201  0.84629508  1
  N  N8  1  0.10196800  0.10196800  0.85331301  1
  S  S9  1  0.45314401  0.17416800  0.26878403  1
  S  S10  1  0.17416801  0.45314401  0.26878403  1
  S  S11  1  0.54685602  0.82583201  0.73121607  1
  S  S12  1  0.82583201  0.54685601  0.73121607  1
  S  S13  1  0.89803202  0.89803201  0.14668708  1
