# generated using pymatgen
data_Ba3Hg2Au
_symmetry_space_group_name_H-M   'P 1'
_cell_length_a   6.38794184
_cell_length_b   6.38794184
_cell_length_c   6.86039352
_cell_angle_alpha   62.25309372
_cell_angle_beta   62.25309372
_cell_angle_gamma   60.00000000
_symmetry_Int_Tables_number   1
_chemical_formula_structural   Ba3Hg2Au
_chemical_formula_sum   'Ba3 Hg2 Au1'
_cell_volume   204.42565407
_cell_formula_units_Z   1
loop_
 _symmetry_equiv_pos_site_id
 _symmetry_equiv_pos_as_xyz
  1  'x, y, z'
loop_
 _atom_site_type_symbol
 _atom_site_label
 _atom_site_symmetry_multiplicity
 _atom_site_fract_x
 _atom_site_fract_y
 _atom_site_fract_z
 _atom_site_occupancy
  Ba  Ba0  1  0.86526801  0.13473200  0.50000000  1
  Ba  Ba1  1  0.13473199  0.50000001  0.50000001  1
  Ba  Ba2  1  0.49999999  0.86526802  0.50000000  1
  Hg  Hg3  1  0.66026599  0.66026601  0.01920199  1
  Hg  Hg4  1  0.33973400  0.33973401  0.98079801  1
  Au  Au5  1  0.00000000  0.00000000  0.00000000  1
