# generated using pymatgen
data_LiCoO2
_symmetry_space_group_name_H-M   'P 1'
_cell_length_a   5.36753702
_cell_length_b   5.68791199
_cell_length_c   6.57129288
_cell_angle_alpha   90.00000000
_cell_angle_beta   90.00000000
_cell_angle_gamma   90.00000000
_symmetry_Int_Tables_number   1
_chemical_formula_structural   LiCoO2
_chemical_formula_sum   'Li4 Co4 O8'
_cell_volume   200.62208520
_cell_formula_units_Z   4
loop_
 _symmetry_equiv_pos_site_id
 _symmetry_equiv_pos_as_xyz
  1  'x, y, z'
loop_
 _atom_site_type_symbol
 _atom_site_label
 _atom_site_symmetry_multiplicity
 _atom_site_fract_x
 _atom_site_fract_y
 _atom_site_fract_z
 _atom_site_occupancy
  Li  Li0  1  0.26902100  0.16785500  0.74851401  1
  Li  Li1  1  0.76902100  0.83214500  0.75148601  1
  Co  Co2  1  0.26902100  0.16785500  0.25148600  1
  Co  Co3  1  0.76902100  0.83214500  0.24851400  1
  Li  Li4  1  0.27028800  0.66591700  0.00000000  1
  Li  Li5  1  0.77028800  0.33408300  0.50000001  1
  Co  Co6  1  0.77069200  0.32970900  0.00000000  1
  Co  Co7  1  0.27069200  0.67029100  0.50000001  1
  O  O8  1  0.88639900  0.17349000  0.23663800  1
  O  O9  1  0.38639900  0.82651000  0.26336200  1
  O  O10  1  0.88639900  0.17349000  0.76336201  1
  O  O11  1  0.38639900  0.82651000  0.73663801  1
  O  O12  1  0.88694800  0.64227400  0.00000000  1
  O  O13  1  0.38694800  0.35772600  0.50000001  1
  O  O14  1  0.42197300  0.32851400  0.00000000  1
  O  O15  1  0.92197300  0.67148600  0.50000001  1
