# generated using pymatgen
data_MgBO3
_symmetry_space_group_name_H-M   'P 1'
_cell_length_a   4.64761782
_cell_length_b   4.64761734
_cell_length_c   5.55272007
_cell_angle_alpha   65.26013947
_cell_angle_beta   65.26013947
_cell_angle_gamma   60.00000381
_symmetry_Int_Tables_number   1
_chemical_formula_structural   MgBO3
_chemical_formula_sum   'Mg2 B2 O6'
_cell_volume   90.93835013
_cell_formula_units_Z   2
loop_
 _symmetry_equiv_pos_site_id
 _symmetry_equiv_pos_as_xyz
  1  'x, y, z'
loop_
 _atom_site_type_symbol
 _atom_site_label
 _atom_site_symmetry_multiplicity
 _atom_site_fract_x
 _atom_site_fract_y
 _atom_site_fract_z
 _atom_site_occupancy
  Mg  Mg0  1  0.49999997  0.49999997  0.50000005  1
  Mg  Mg1  1  0.00000000  0.00000000  0.00000000  1
  B  B2  1  0.74999996  0.74999995  0.75000007  1
  B  B3  1  0.24999999  0.24999998  0.25000002  1
  O  O4  1  0.04799099  0.45200897  0.75000003  1
  O  O5  1  0.45200897  0.74999995  0.75000006  1
  O  O6  1  0.24999997  0.95200894  0.25000005  1
  O  O7  1  0.95200895  0.54799097  0.25000007  1
  O  O8  1  0.54799097  0.24999998  0.25000004  1
  O  O9  1  0.74999997  0.04799100  0.75000004  1
