# generated using pymatgen
data_Cs3Ba2OF4
_symmetry_space_group_name_H-M   'P 1'
_cell_length_a   3.91315508
_cell_length_b   11.72810173
_cell_length_c   11.72810173
_cell_angle_alpha   120.00000000
_cell_angle_beta   90.00000000
_cell_angle_gamma   90.00000000
_symmetry_Int_Tables_number   1
_chemical_formula_structural   Cs3Ba2OF4
_chemical_formula_sum   'Cs6 Ba4 O2 F8'
_cell_volume   466.13653111
_cell_formula_units_Z   2
loop_
 _symmetry_equiv_pos_site_id
 _symmetry_equiv_pos_as_xyz
  1  'x, y, z'
loop_
 _atom_site_type_symbol
 _atom_site_label
 _atom_site_symmetry_multiplicity
 _atom_site_fract_x
 _atom_site_fract_y
 _atom_site_fract_z
 _atom_site_occupancy
  Cs  Cs0  1  0.00000000  0.71640101  -0.00000001  1
  Ba  Ba1  1  0.99999998  0.28359900  0.28359900  1
  Ba  Ba2  1  0.00000000  1.00000002  0.71640099  1
  Cs  Cs3  1  0.99999998  0.33333334  0.66666666  1
  Cs  Cs4  1  0.00000000  0.66666668  0.33333333  1
  O  O5  1  0.49999999  0.32647401  1.00000000  1
  O  O6  1  0.49999999  0.67352601  0.67352599  1
  Ba  Ba7  1  0.49999999  1.00000002  0.32647399  1
  F  F8  1  0.49999999  0.25210000  0.44696700  1
  F  F9  1  0.49999999  0.19486700  0.74790000  1
  Ba  Ba10  1  0.49999999  0.55303301  0.80513300  1
  F  F11  1  0.49999999  0.80513301  0.55303299  1
  F  F12  1  0.49999999  0.44696701  0.25209999  1
  F  F13  1  0.49999999  0.74790001  0.19486699  1
  Cs  Cs14  1  0.00000000  0.17776500  -0.00000000  1
  Cs  Cs15  1  0.99999998  0.82223501  0.82223499  1
  F  F16  1  0.00000000  1.00000002  0.17776499  1
  Cs  Cs17  1  0.00000000  0.46876801  1.00000000  1
  F  F18  1  0.99999998  0.53123201  0.53123199  1
  F  F19  1  0.00000000  1.00000002  0.46876799  1
