# generated using pymatgen
data_Ba4Au3Br8
_symmetry_space_group_name_H-M   'P 1'
_cell_length_a   4.67526102
_cell_length_b   4.67526102
_cell_length_c   19.20934486
_cell_angle_alpha   90.00000000
_cell_angle_beta   90.00000000
_cell_angle_gamma   90.00000000
_symmetry_Int_Tables_number   1
_chemical_formula_structural   Ba4Au3Br8
_chemical_formula_sum   'Ba4 Au3 Br8'
_cell_volume   419.87912039
_cell_formula_units_Z   1
loop_
 _symmetry_equiv_pos_site_id
 _symmetry_equiv_pos_as_xyz
  1  'x, y, z'
loop_
 _atom_site_type_symbol
 _atom_site_label
 _atom_site_symmetry_multiplicity
 _atom_site_fract_x
 _atom_site_fract_y
 _atom_site_fract_z
 _atom_site_occupancy
  Ba  Ba0  1  0.50000000  0.00000000  0.11171599  1
  Ba  Ba1  1  0.50000000  0.00000000  0.61629297  1
  Ba  Ba2  1  0.00000000  0.50000000  0.88828396  1
  Ba  Ba3  1  0.00000000  0.50000000  0.38370698  1
  Br  Br4  1  0.50000000  0.00000000  0.92014296  1
  Br  Br5  1  0.50000000  0.00000000  0.41253898  1
  Br  Br6  1  0.00000000  0.50000000  0.07985700  1
  Br  Br7  1  0.00000000  0.50000000  0.58746097  1
  Br  Br8  1  0.50000000  0.50000000  0.75063997  1
  Br  Br9  1  0.50000000  0.50000000  0.24935999  1
  Br  Br10  1  0.00000000  0.00000000  0.75046497  1
  Br  Br11  1  0.00000000  0.00000000  0.24953499  1
  Au  Au12  1  0.50000000  0.50000000  0.49999998  1
  Au  Au13  1  0.00000000  0.00000000  0.00000000  1
  Au  Au14  1  0.00000000  0.00000000  0.49999998  1
