# generated using pymatgen
data_Mn
_symmetry_space_group_name_H-M   'P 1'
_cell_length_a   3.72773910
_cell_length_b   5.00984955
_cell_length_c   10.01899433
_cell_angle_alpha   97.00192261
_cell_angle_beta   90.00000000
_cell_angle_gamma   90.00000000
_symmetry_Int_Tables_number   1
_chemical_formula_structural   Mn
_chemical_formula_sum   Mn16
_cell_volume   185.71340097
_cell_formula_units_Z   16
loop_
 _symmetry_equiv_pos_site_id
 _symmetry_equiv_pos_as_xyz
  1  'x, y, z'
loop_
 _atom_site_type_symbol
 _atom_site_label
 _atom_site_symmetry_multiplicity
 _atom_site_fract_x
 _atom_site_fract_y
 _atom_site_fract_z
 _atom_site_occupancy
  Mn  Mn0  1  0.49999999  0.27974601  0.35847402  1
  Mn  Mn1  1  0.49999999  0.28115301  0.86102704  1
  Mn  Mn2  1  0.49999999  0.71894503  0.14012202  1
  Mn  Mn3  1  0.49999999  0.71918603  0.64098604  1
  Mn  Mn4  1  0.00000000  0.00019600  0.00004900  1
  Mn  Mn5  1  0.00000000  0.00279600  0.49841202  1
  Mn  Mn6  1  0.49999999  0.77444803  0.38622304  1
  Mn  Mn7  1  0.49999999  0.77506403  0.88868505  1
  Mn  Mn8  1  0.49999999  0.22507101  0.11242401  1
  Mn  Mn9  1  0.49999999  0.22539301  0.61264703  1
  Mn  Mn10  1  0.00000000  0.99879903  0.24910404  1
  Mn  Mn11  1  0.00000000  0.00094600  0.75046703  1
  Mn  Mn12  1  0.00000000  0.50070002  0.00082401  1
  Mn  Mn13  1  0.00000000  0.50032602  0.49917603  1
  Mn  Mn14  1  0.00000000  0.49920602  0.25000102  1
  Mn  Mn15  1  0.00000000  0.49802202  0.75137704  1
