# generated using pymatgen
data_Ho(MgGe)2
_symmetry_space_group_name_H-M   'P 1'
_cell_length_a   3.68214607
_cell_length_b   7.59184122
_cell_length_c   7.59184122
_cell_angle_alpha   90.00000000
_cell_angle_beta   90.00000000
_cell_angle_gamma   90.00000000
_symmetry_Int_Tables_number   1
_chemical_formula_structural   Ho(MgGe)2
_chemical_formula_sum   'Ho2 Mg4 Ge4'
_cell_volume   212.22436663
_cell_formula_units_Z   2
loop_
 _symmetry_equiv_pos_site_id
 _symmetry_equiv_pos_as_xyz
  1  'x, y, z'
loop_
 _atom_site_type_symbol
 _atom_site_label
 _atom_site_symmetry_multiplicity
 _atom_site_fract_x
 _atom_site_fract_y
 _atom_site_fract_z
 _atom_site_occupancy
  Ho  Ho0  1  0.49999999  0.67729698  0.17729699  1
  Mg  Mg1  1  0.49999999  0.32270299  0.82270298  1
  Mg  Mg2  1  0.49999999  0.17729699  0.32270299  1
  Mg  Mg3  1  0.49999999  0.82270298  0.67729698  1
  Ho  Ho4  1  0.00000000  0.00000000  0.00000000  1
  Mg  Mg5  1  0.00000000  0.49999999  0.49999999  1
  Ge  Ge6  1  0.00000000  0.11688300  0.61688298  1
  Ge  Ge7  1  0.00000000  0.88311697  0.38311699  1
  Ge  Ge8  1  0.00000000  0.61688298  0.88311697  1
  Ge  Ge9  1  0.00000000  0.38311699  0.11688300  1
