# generated using pymatgen
data_Ba3Cu3Bi3O10
_symmetry_space_group_name_H-M   'P 1'
_cell_length_a   3.88359690
_cell_length_b   3.89897251
_cell_length_c   18.76179886
_cell_angle_alpha   84.16355896
_cell_angle_beta   84.22976685
_cell_angle_gamma   89.93529510
_symmetry_Int_Tables_number   1
_chemical_formula_structural   Ba3Cu3Bi3O10
_chemical_formula_sum   'Ba3 Cu3 Bi3 O10'
_cell_volume   281.17531709
_cell_formula_units_Z   1
loop_
 _symmetry_equiv_pos_site_id
 _symmetry_equiv_pos_as_xyz
  1  'x, y, z'
loop_
 _atom_site_type_symbol
 _atom_site_label
 _atom_site_symmetry_multiplicity
 _atom_site_fract_x
 _atom_site_fract_y
 _atom_site_fract_z
 _atom_site_occupancy
  Ba  Ba0  1  0.16909900  0.09777000  0.71836299  1
  Ba  Ba1  1  0.82546599  0.79483000  0.28271299  1
  Ba  Ba2  1  0.93032899  0.87377900  0.08981999  1
  Bi  Bi3  1  0.07034296  0.98536900  0.91156799  1
  Bi  Bi4  1  0.72327499  0.64614300  0.56273699  1
  Bi  Bi5  1  0.26952300  0.20438100  0.43802499  1
  Cu  Cu6  1  0.37947900  0.33954800  0.17251300  1
  Cu  Cu7  1  0.61849900  0.53507700  0.82868399  1
  Cu  Cu8  1  0.51286200  0.41981700  0.00006400  1
  O  O9  1  0.87665201  0.33815300  0.17746299  1
  O  O10  1  0.30607100  0.28618700  0.32686299  1
  O  O11  1  0.38289398  0.84108600  0.16965799  1
  O  O12  1  0.76543299  0.82661800  0.45089299  1
  O  O13  1  0.52350198  0.92214200  0.99341898  1
  O  O14  1  0.62189302  0.03800100  0.82320899  1
  O  O15  1  0.68649199  0.62787900  0.67381299  1
  O  O16  1  0.11715698  0.53121300  0.83211799  1
  O  O17  1  0.22868900  0.28075500  0.54964899  1
  O  O18  1  0.01030598  0.41234100  0.00746700  1
