# generated using pymatgen
data_Cs3Sb4F11
_symmetry_space_group_name_H-M   'P 1'
_cell_length_a   7.41607189
_cell_length_b   7.70788908
_cell_length_c   7.70788908
_cell_angle_alpha   62.17384338
_cell_angle_beta   61.24467468
_cell_angle_gamma   61.24467468
_symmetry_Int_Tables_number   1
_chemical_formula_structural   Cs3Sb4F11
_chemical_formula_sum   'Cs3 Sb4 F11'
_cell_volume   322.36377521
_cell_formula_units_Z   1
loop_
 _symmetry_equiv_pos_site_id
 _symmetry_equiv_pos_as_xyz
  1  'x, y, z'
loop_
 _atom_site_type_symbol
 _atom_site_label
 _atom_site_symmetry_multiplicity
 _atom_site_fract_x
 _atom_site_fract_y
 _atom_site_fract_z
 _atom_site_occupancy
  Cs  Cs0  1  0.62174502  0.12825500  0.62825499  1
  Cs  Cs1  1  0.37825499  0.87174501  0.37174501  1
  F  F2  1  0.00000000  0.00000000  0.00000000  1
  Sb  Sb3  1  -0.00000001  0.50000001  0.50000001  1
  Sb  Sb4  1  0.50000000  0.50000001  -0.00000001  1
  Sb  Sb5  1  1.00000002  0.50000001  0.99999999  1
  F  F6  1  0.06763000  0.18237000  0.68237001  1
  F  F7  1  0.68215900  0.56784101  0.06784099  1
  F  F8  1  0.06825699  0.55619601  0.69512302  1
  F  F9  1  0.68042401  0.19512400  0.05619598  1
  F  F10  1  0.68042400  0.55619701  0.69512300  1
  Sb  Sb11  1  0.06825700  0.19512300  0.05619600  1
  F  F12  1  0.93237000  0.81763001  0.31762999  1
  F  F13  1  0.31784100  0.43215901  0.93215901  1
  F  F14  1  0.93174302  0.44380401  0.30487698  1
  Cs  Cs15  1  0.31957599  0.80487601  0.94380401  1
  F  F16  1  0.31957600  0.44380301  0.30487700  1
  F  F17  1  0.93174300  0.80487701  0.94380400  1
