# generated using pymatgen
data_Ba4GeN4
_symmetry_space_group_name_H-M   'P 1'
_cell_length_a   6.75831985
_cell_length_b   6.76564121
_cell_length_c   10.11139584
_cell_angle_alpha   71.85113525
_cell_angle_beta   79.51267242
_cell_angle_gamma   66.43315887
_symmetry_Int_Tables_number   1
_chemical_formula_structural   Ba4GeN4
_chemical_formula_sum   'Ba8 Ge2 N8'
_cell_volume   401.81510836
_cell_formula_units_Z   2
loop_
 _symmetry_equiv_pos_site_id
 _symmetry_equiv_pos_as_xyz
  1  'x, y, z'
loop_
 _atom_site_type_symbol
 _atom_site_label
 _atom_site_symmetry_multiplicity
 _atom_site_fract_x
 _atom_site_fract_y
 _atom_site_fract_z
 _atom_site_occupancy
  Ba  Ba0  1  0.23980794  0.76320701  0.03033200  1
  Ba  Ba1  1  0.27518496  0.51005601  0.43895402  1
  Ba  Ba2  1  0.25651597  0.40440500  0.83932004  1
  Ba  Ba3  1  0.21748593  0.96635801  0.61976802  1
  Ba  Ba4  1  0.78251401  0.03364200  0.38023204  1
  Ba  Ba5  1  0.74348396  0.59559501  0.16068002  1
  Ba  Ba6  1  0.72481497  0.48994401  0.56104604  1
  Ba  Ba7  1  0.76019199  0.23679300  0.96966806  1
  Ge  Ge8  1  0.27204999  0.15795900  0.24777302  1
  Ge  Ge9  1  0.72794994  0.84204101  0.75222704  1
  N  N10  1  0.13839999  0.16045100  0.10291601  1
  N  N11  1  0.05296398  0.29389800  0.36723301  1
  N  N12  1  0.44813398  0.32532800  0.19069702  1
  N  N13  1  0.56493400  0.12893500  0.65468704  1
  N  N14  1  0.43506594  0.87106501  0.34531302  1
  N  N15  1  0.55186595  0.67467201  0.80930304  1
  N  N16  1  0.94703596  0.70610201  0.63276705  1
  N  N17  1  0.86159995  0.83954901  0.89708405  1
