# generated using pymatgen
data_Tm3Se4
_symmetry_space_group_name_H-M   'P 1'
_cell_length_a   3.66309500
_cell_length_b   10.83943367
_cell_length_c   10.83943462
_cell_angle_alpha   120.00000000
_cell_angle_beta   90.00000000
_cell_angle_gamma   90.00000000
_symmetry_Int_Tables_number   1
_chemical_formula_structural   Tm3Se4
_chemical_formula_sum   'Tm6 Se8'
_cell_volume   372.72801446
_cell_formula_units_Z   2
loop_
 _symmetry_equiv_pos_site_id
 _symmetry_equiv_pos_as_xyz
  1  'x, y, z'
loop_
 _atom_site_type_symbol
 _atom_site_label
 _atom_site_symmetry_multiplicity
 _atom_site_fract_x
 _atom_site_fract_y
 _atom_site_fract_z
 _atom_site_occupancy
  Tm  Tm0  1  0.25000000  0.89734805  0.51144904  1
  Tm  Tm1  1  0.25000000  0.61410103  0.10265203  1
  Tm  Tm2  1  0.25000000  0.48855103  0.38589902  1
  Tm  Tm3  1  0.75000000  0.10265201  0.48855101  1
  Tm  Tm4  1  0.75000000  0.38589902  0.89734802  1
  Tm  Tm5  1  0.75000000  0.51144903  0.61410103  1
  Se  Se6  1  0.25000000  0.33333335  0.66666668  1
  Se  Se7  1  0.75000000  0.66666670  0.33333336  1
  Se  Se8  1  0.25000000  0.72675204  0.66150703  1
  Se  Se9  1  0.25000000  0.93475505  0.27324804  1
  Se  Se10  1  0.25000000  0.33849302  0.06524501  1
  Se  Se11  1  0.75000000  0.27324801  0.33849301  1
  Se  Se12  1  0.75000000  0.06524500  0.72675201  1
  Se  Se13  1  0.75000000  0.66150703  0.93475503  1
