# generated using pymatgen
data_HoCo4Bi
_symmetry_space_group_name_H-M   'P 1'
_cell_length_a   5.05312777
_cell_length_b   5.05312777
_cell_length_c   5.05312777
_cell_angle_alpha   60.00000000
_cell_angle_beta   60.00000000
_cell_angle_gamma   60.00000000
_symmetry_Int_Tables_number   1
_chemical_formula_structural   HoCo4Bi
_chemical_formula_sum   'Ho1 Co4 Bi1'
_cell_volume   91.23591670
_cell_formula_units_Z   1
loop_
 _symmetry_equiv_pos_site_id
 _symmetry_equiv_pos_as_xyz
  1  'x, y, z'
loop_
 _atom_site_type_symbol
 _atom_site_label
 _atom_site_symmetry_multiplicity
 _atom_site_fract_x
 _atom_site_fract_y
 _atom_site_fract_z
 _atom_site_occupancy
  Ho  Ho0  1  0.50000001  0.50000001  0.50000001  1
  Bi  Bi1  1  0.25000001  0.25000001  0.25000001  1
  Co  Co2  1  0.37500001  0.87500002  0.87500002  1
  Co  Co3  1  0.87500002  0.87500002  0.37500001  1
  Co  Co4  1  0.87500002  0.87500002  0.87500002  1
  Co  Co5  1  0.87500002  0.37500001  0.87500002  1
