# generated using pymatgen
data_Ba2Lu4MgCrS10
_symmetry_space_group_name_H-M   'P 1'
_cell_length_a   3.79377794
_cell_length_b   7.22723198
_cell_length_c   16.29188919
_cell_angle_alpha   90.00000000
_cell_angle_beta   90.00000000
_cell_angle_gamma   105.21632385
_symmetry_Int_Tables_number   1
_chemical_formula_structural   Ba2Lu4MgCrS10
_chemical_formula_sum   'Ba2 Lu4 Mg1 Cr1 S10'
_cell_volume   431.03888424
_cell_formula_units_Z   1
loop_
 _symmetry_equiv_pos_site_id
 _symmetry_equiv_pos_as_xyz
  1  'x, y, z'
loop_
 _atom_site_type_symbol
 _atom_site_label
 _atom_site_symmetry_multiplicity
 _atom_site_fract_x
 _atom_site_fract_y
 _atom_site_fract_z
 _atom_site_occupancy
  Ba  Ba0  1  0.96615001  0.93230001  0.75000004  1
  Ba  Ba1  1  0.03385000  0.06770000  0.25000001  1
  Lu  Lu2  1  0.79062301  0.58124601  0.09843900  1
  Lu  Lu3  1  0.20937700  0.41875400  0.59843903  1
  Lu  Lu4  1  0.79062301  0.58124601  0.40156102  1
  Lu  Lu5  1  0.20937700  0.41875400  0.90156104  1
  Cr  Cr6  1  0.67745401  0.35490800  0.75000004  1
  Mg  Mg7  1  0.32254601  0.64509201  0.25000001  1
  S  S8  1  0.84018301  0.68036601  0.56069603  1
  S  S9  1  0.15981700  0.31963400  0.06069600  1
  S  S10  1  0.70896401  0.41792800  0.25000001  1
  S  S11  1  0.57763801  0.15527600  0.62815203  1
  S  S12  1  0.84018301  0.68036601  0.93930405  1
  S  S13  1  0.42236201  0.84472401  0.12815201  1
  S  S14  1  0.42236201  0.84472401  0.37184802  1
  S  S15  1  0.57763801  0.15527600  0.87184804  1
  S  S16  1  0.15981700  0.31963400  0.43930402  1
  S  S17  1  0.29103600  0.58207201  0.75000004  1
