# generated using pymatgen
data_Nd2Ga11Co
_symmetry_space_group_name_H-M   'P 1'
_cell_length_a   6.80614328
_cell_length_b   6.80614328
_cell_length_c   6.80614328
_cell_angle_alpha   110.03096008
_cell_angle_beta   109.19207764
_cell_angle_gamma   109.19207764
_symmetry_Int_Tables_number   1
_chemical_formula_structural   Nd2Ga11Co
_chemical_formula_sum   'Nd2 Ga11 Co1'
_cell_volume   242.68909000
_cell_formula_units_Z   1
loop_
 _symmetry_equiv_pos_site_id
 _symmetry_equiv_pos_as_xyz
  1  'x, y, z'
loop_
 _atom_site_type_symbol
 _atom_site_label
 _atom_site_symmetry_multiplicity
 _atom_site_fract_x
 _atom_site_fract_y
 _atom_site_fract_z
 _atom_site_occupancy
  Nd  Nd0  1  -0.00000001  0.24999999  0.25000000  1
  Nd  Nd1  1  -0.00000002  0.74999998  0.75000001  1
  Ga  Ga2  1  0.49999996  0.47396499  0.70149598  1
  Ga  Ga3  1  0.77246894  0.97396498  0.47396500  1
  Ga  Ga4  1  0.22753097  0.70149598  0.20149602  1
  Ga  Ga5  1  0.49999997  0.20149600  0.97396496  1
  Ga  Ga6  1  0.49999995  0.79850398  0.02603502  1
  Co  Co7  1  0.22753099  0.02603500  0.52603498  1
  Ga  Ga8  1  0.49999996  0.52603499  0.29850400  1
  Ga  Ga9  1  0.77246896  0.29850399  0.79850396  1
  Ga  Ga10  1  0.49999997  0.15975500  0.34024498  1
  Ga  Ga11  1  0.18048898  0.34024399  0.84024398  1
  Ga  Ga12  1  0.81951095  0.65975598  0.15975599  1
  Ga  Ga13  1  0.49999995  0.84024498  0.65975500  1
