# generated using pymatgen
data_Cr5CuSe8
_symmetry_space_group_name_H-M   'P 1'
_cell_length_a   3.57334709
_cell_length_b   6.03737211
_cell_length_c   11.68865395
_cell_angle_alpha   90.65764618
_cell_angle_beta   90.00000000
_cell_angle_gamma   90.00000000
_symmetry_Int_Tables_number   1
_chemical_formula_structural   Cr5CuSe8
_chemical_formula_sum   'Cr5 Cu1 Se8'
_cell_volume   252.15003873
_cell_formula_units_Z   1
loop_
 _symmetry_equiv_pos_site_id
 _symmetry_equiv_pos_as_xyz
  1  'x, y, z'
loop_
 _atom_site_type_symbol
 _atom_site_label
 _atom_site_symmetry_multiplicity
 _atom_site_fract_x
 _atom_site_fract_y
 _atom_site_fract_z
 _atom_site_occupancy
  Cr  Cr0  1  0.49999999  0.48673399  0.74406801  1
  Cr  Cr1  1  0.49999999  0.51326599  0.25593201  1
  Cr  Cr2  1  0.00000000  0.98699098  0.24299402  1
  Cr  Cr3  1  0.00000000  0.01300900  0.75700600  1
  Cr  Cr4  1  0.49999999  0.49999999  0.00000001  1
  Cu  Cu5  1  0.00000000  0.00000000  0.50000000  1
  Se  Se6  1  0.49999999  0.83714998  0.12481302  1
  Se  Se7  1  0.49999999  0.16285000  0.87518700  1
  Se  Se8  1  0.00000000  0.32183199  0.61879101  1
  Se  Se9  1  0.99999997  0.67816799  0.38120902  1
  Se  Se10  1  0.00000000  0.32476699  0.12923601  1
  Se  Se11  1  0.99999997  0.67523299  0.87076402  1
  Se  Se12  1  0.49999999  0.85365898  0.63795802  1
  Se  Se13  1  0.49999999  0.14634100  0.36204200  1
