# generated using pymatgen
data_ScGe2
_symmetry_space_group_name_H-M   'P 1'
_cell_length_a   3.59590697
_cell_length_b   7.07210207
_cell_length_c   8.35923767
_cell_angle_alpha   90.00000000
_cell_angle_beta   90.00000000
_cell_angle_gamma   90.00000000
_symmetry_Int_Tables_number   1
_chemical_formula_structural   ScGe2
_chemical_formula_sum   'Sc4 Ge8'
_cell_volume   212.58060628
_cell_formula_units_Z   4
loop_
 _symmetry_equiv_pos_site_id
 _symmetry_equiv_pos_as_xyz
  1  'x, y, z'
loop_
 _atom_site_type_symbol
 _atom_site_label
 _atom_site_symmetry_multiplicity
 _atom_site_fract_x
 _atom_site_fract_y
 _atom_site_fract_z
 _atom_site_occupancy
  Sc  Sc0  1  0.25000000  0.54655699  0.83225503  1
  Sc  Sc1  1  0.25000000  0.04655700  0.66774503  1
  Sc  Sc2  1  0.75000001  0.45344300  0.16774501  1
  Sc  Sc3  1  0.75000001  0.95344299  0.33225501  1
  Ge  Ge4  1  0.25000000  0.75244699  0.13954401  1
  Ge  Ge5  1  0.25000000  0.25244700  0.36045601  1
  Ge  Ge6  1  0.75000001  0.24755300  0.86045603  1
  Ge  Ge7  1  0.75000001  0.74755299  0.63954403  1
  Ge  Ge8  1  0.25000000  0.62807299  0.43996502  1
  Ge  Ge9  1  0.25000000  0.12807300  0.06003500  1
  Ge  Ge10  1  0.75000001  0.37192700  0.56003502  1
  Ge  Ge11  1  0.75000001  0.87192699  0.93996504  1
