# generated using pymatgen
data_Lu4Si3Au
_symmetry_space_group_name_H-M   'P 1'
_cell_length_a   5.77521563
_cell_length_b   5.77999783
_cell_length_c   7.07824135
_cell_angle_alpha   65.90232849
_cell_angle_beta   65.98269653
_cell_angle_gamma   90.00000000
_symmetry_Int_Tables_number   1
_chemical_formula_structural   Lu4Si3Au
_chemical_formula_sum   'Lu4 Si3 Au1'
_cell_volume   193.05966798
_cell_formula_units_Z   1
loop_
 _symmetry_equiv_pos_site_id
 _symmetry_equiv_pos_as_xyz
  1  'x, y, z'
loop_
 _atom_site_type_symbol
 _atom_site_label
 _atom_site_symmetry_multiplicity
 _atom_site_fract_x
 _atom_site_fract_y
 _atom_site_fract_z
 _atom_site_occupancy
  Au  Au0  1  0.88036597  0.12623100  0.74753803  1
  Si  Si1  1  0.37045397  0.62417901  0.75164202  1
  Si  Si2  1  0.11963397  0.87376902  0.25246202  1
  Si  Si3  1  0.62954597  0.37582101  0.24835803  1
  Lu  Lu4  1  0.13041798  0.37530201  0.24939601  1
  Lu  Lu5  1  0.86958195  0.62469801  0.75060404  1
  Lu  Lu6  1  0.62705195  0.87513602  0.24972804  1
  Lu  Lu7  1  0.37294798  0.12486400  0.75027201  1
