# generated using pymatgen
data_Ge7Te3
_symmetry_space_group_name_H-M   'P 1'
_cell_length_a   4.40984392
_cell_length_b   6.22491407
_cell_length_c   11.65411472
_cell_angle_alpha   105.48995209
_cell_angle_beta   100.90591431
_cell_angle_gamma   90.00000000
_symmetry_Int_Tables_number   1
_chemical_formula_structural   Ge7Te3
_chemical_formula_sum   'Ge7 Te3'
_cell_volume   302.29575952
_cell_formula_units_Z   1
loop_
 _symmetry_equiv_pos_site_id
 _symmetry_equiv_pos_as_xyz
  1  'x, y, z'
loop_
 _atom_site_type_symbol
 _atom_site_label
 _atom_site_symmetry_multiplicity
 _atom_site_fract_x
 _atom_site_fract_y
 _atom_site_fract_z
 _atom_site_occupancy
  Ge  Ge0  1  0.59998099  0.60001000  0.19996199  1
  Ge  Ge1  1  0.19999400  0.20002000  0.39998700  1
  Ge  Ge2  1  0.80000699  0.80003299  0.60001398  1
  Ge  Ge3  1  0.40001899  0.40004800  0.80003799  1
  Ge  Ge4  1  0.99999998  0.99998399  0.99999998  1
  Te  Te5  1  0.50000000  0.24998400  -0.00000001  1
  Te  Te6  1  0.09997298  0.84996199  0.19994600  1
  Te  Te7  1  0.70001699  0.44998900  0.40003398  1
  Ge  Ge8  1  0.29998200  0.04995400  0.59996499  1
  Ge  Ge9  1  0.90002699  0.65001599  0.80005398  1
