# generated using pymatgen
data_Ga4HF2
_symmetry_space_group_name_H-M   'P 1'
_cell_length_a   6.12543249
_cell_length_b   6.12543249
_cell_length_c   6.12543249
_cell_angle_alpha   60.00000000
_cell_angle_beta   60.00000000
_cell_angle_gamma   60.00000000
_symmetry_Int_Tables_number   1
_chemical_formula_structural   Ga4HF2
_chemical_formula_sum   'Ga8 H2 F4'
_cell_volume   162.51568237
_cell_formula_units_Z   2
loop_
 _symmetry_equiv_pos_site_id
 _symmetry_equiv_pos_as_xyz
  1  'x, y, z'
loop_
 _atom_site_type_symbol
 _atom_site_label
 _atom_site_symmetry_multiplicity
 _atom_site_fract_x
 _atom_site_fract_y
 _atom_site_fract_z
 _atom_site_occupancy
  Ga  Ga0  1  0.25000001  0.25000001  0.25000001  1
  H  H1  1  0.50000002  0.50000002  0.50000002  1
  Ga  Ga2  1  0.87500003  0.37500001  0.87500003  1
  Ga  Ga3  1  0.87500003  0.87500003  0.87500003  1
  Ga  Ga4  1  0.87500003  0.87500003  0.37500001  1
  Ga  Ga5  1  0.37500001  0.87500003  0.87500003  1
  F  F6  1  0.11488000  0.11487900  0.11487900  1
  Ga  Ga7  1  0.63512002  0.09463800  0.63512102  1
  Ga  Ga8  1  0.09463700  0.63512102  0.63512102  1
  Ga  Ga9  1  0.63512002  0.63512102  0.09463800  1
  F  F10  1  0.65536302  0.11487900  0.11487900  1
  F  F11  1  0.11488000  0.11487900  0.65536202  1
  H  H12  1  0.63512002  0.63512102  0.63512102  1
  F  F13  1  0.11488000  0.65536202  0.11487900  1
