# generated using pymatgen
data_Ga
_symmetry_space_group_name_H-M   'P 1'
_cell_length_a   5.54857111
_cell_length_b   5.54857111
_cell_length_c   7.96398306
_cell_angle_alpha   90.00000000
_cell_angle_beta   90.00000000
_cell_angle_gamma   90.00000000
_symmetry_Int_Tables_number   1
_chemical_formula_structural   Ga
_chemical_formula_sum   Ga16
_cell_volume   245.18429023
_cell_formula_units_Z   16
loop_
 _symmetry_equiv_pos_site_id
 _symmetry_equiv_pos_as_xyz
  1  'x, y, z'
loop_
 _atom_site_type_symbol
 _atom_site_label
 _atom_site_symmetry_multiplicity
 _atom_site_fract_x
 _atom_site_fract_y
 _atom_site_fract_z
 _atom_site_occupancy
  Ga  Ga0  1  0.00000000  0.49999999  0.75420299  1
  Ga  Ga1  1  0.49999999  0.00000000  0.24579700  1
  Ga  Ga2  1  0.00000000  0.49999999  0.24579700  1
  Ga  Ga3  1  0.49999999  0.00000000  0.75420299  1
  Ga  Ga4  1  0.22594100  0.27405899  0.00000000  1
  Ga  Ga5  1  0.78870698  0.28870699  0.50000000  1
  Ga  Ga6  1  0.72594099  0.22594100  0.00000000  1
  Ga  Ga7  1  0.77405898  0.72594099  -0.00000000  1
  Ga  Ga8  1  0.49999999  0.49999999  0.74864199  1
  Ga  Ga9  1  0.28870699  0.21129300  0.50000000  1
  Ga  Ga10  1  0.71129299  0.78870698  0.50000000  1
  Ga  Ga11  1  0.21129300  0.71129299  0.50000000  1
  Ga  Ga12  1  0.49999999  0.49999999  0.25135800  1
  Ga  Ga13  1  0.00000000  0.00000000  0.74864199  1
  Ga  Ga14  1  0.00000000  0.00000000  0.25135800  1
  Ga  Ga15  1  0.27405899  0.77405898  -0.00000000  1
