# generated using pymatgen
data_TaTe
_symmetry_space_group_name_H-M   'P 1'
_cell_length_a   4.25411606
_cell_length_b   4.25411558
_cell_length_c   5.68708611
_cell_angle_alpha   90.00000000
_cell_angle_beta   90.00000000
_cell_angle_gamma   120.00000000
_symmetry_Int_Tables_number   1
_chemical_formula_structural   TaTe
_chemical_formula_sum   'Ta2 Te2'
_cell_volume   89.13310888
_cell_formula_units_Z   2
loop_
 _symmetry_equiv_pos_site_id
 _symmetry_equiv_pos_as_xyz
  1  'x, y, z'
loop_
 _atom_site_type_symbol
 _atom_site_label
 _atom_site_symmetry_multiplicity
 _atom_site_fract_x
 _atom_site_fract_y
 _atom_site_fract_z
 _atom_site_occupancy
  Te  Te0  1  0.66666663  0.33333332  0.76088499  1
  Ta  Ta1  1  0.33333328  0.66666664  0.23911500  1
  Te  Te2  1  0.00000000  0.00000000  0.00000000  1
  Ta  Ta3  1  0.00000000  0.00000000  0.49999999  1
