# generated using pymatgen
data_Na2P5O8
_symmetry_space_group_name_H-M   'P 1'
_cell_length_a   5.00939655
_cell_length_b   5.70538187
_cell_length_c   8.01614666
_cell_angle_alpha   69.15334320
_cell_angle_beta   86.90681458
_cell_angle_gamma   81.27864075
_symmetry_Int_Tables_number   1
_chemical_formula_structural   Na2P5O8
_chemical_formula_sum   'Na2 P5 O8'
_cell_volume   211.63188246
_cell_formula_units_Z   1
loop_
 _symmetry_equiv_pos_site_id
 _symmetry_equiv_pos_as_xyz
  1  'x, y, z'
loop_
 _atom_site_type_symbol
 _atom_site_label
 _atom_site_symmetry_multiplicity
 _atom_site_fract_x
 _atom_site_fract_y
 _atom_site_fract_z
 _atom_site_occupancy
  P  P0  1  0.23669897  0.42584601  0.99999999  1
  P  P1  1  0.52299195  0.71280501  0.67831300  1
  P  P2  1  0.52299197  0.39111801  0.32168699  1
  Na  Na3  1  0.98144097  0.11752600  0.70498497  1
  Na  Na4  1  0.98144093  0.82251101  0.29501500  1
  O  O5  1  0.59705493  0.88554401  0.77090200  1
  O  O6  1  0.59705495  0.65644601  0.22909800  1
  P  P7  1  0.10696496  0.68236501  0.00000002  1
  P  P8  1  0.06157198  0.23062700  0.00000000  1
  O  O9  1  0.75504897  0.18602100  0.41436498  1
  O  O10  1  0.75504895  0.60038601  0.58563499  1
  O  O11  1  0.26784494  0.84373201  0.56266601  1
  O  O12  1  0.26784497  0.40639801  0.43733400  1
  O  O13  1  0.43781096  0.45499401  0.83181999  1
  O  O14  1  0.43781097  0.28681400  0.16818000  1
