# generated using pymatgen
data_Zn(HO)2
_symmetry_space_group_name_H-M   'P 1'
_cell_length_a   3.37010908
_cell_length_b   3.37491393
_cell_length_c   5.00514460
_cell_angle_alpha   82.38214874
_cell_angle_beta   87.94528198
_cell_angle_gamma   60.09148788
_symmetry_Int_Tables_number   1
_chemical_formula_structural   Zn(HO)2
_chemical_formula_sum   'Zn1 H2 O2'
_cell_volume   48.88035118
_cell_formula_units_Z   1
loop_
 _symmetry_equiv_pos_site_id
 _symmetry_equiv_pos_as_xyz
  1  'x, y, z'
loop_
 _atom_site_type_symbol
 _atom_site_label
 _atom_site_symmetry_multiplicity
 _atom_site_fract_x
 _atom_site_fract_y
 _atom_site_fract_z
 _atom_site_occupancy
  Zn  Zn0  1  0.94842398  0.00585900  0.02310000  1
  H  H1  1  0.56977000  0.58133402  0.43100499  1
  O  O2  1  0.15505101  0.44931801  0.61596801  1
  O  O3  1  0.62473000  0.62000302  0.23920898  1
  H  H4  1  0.26338601  0.40600801  0.80111202  1
