# generated using pymatgen
data_Au
_symmetry_space_group_name_H-M   'P 1'
_cell_length_a   3.81655192
_cell_length_b   3.84871006
_cell_length_c   7.82570601
_cell_angle_alpha   75.76486969
_cell_angle_beta   90.00000000
_cell_angle_gamma   90.00000000
_symmetry_Int_Tables_number   1
_chemical_formula_structural   Au
_chemical_formula_sum   Au6
_cell_volume   111.42066949
_cell_formula_units_Z   6
loop_
 _symmetry_equiv_pos_site_id
 _symmetry_equiv_pos_as_xyz
  1  'x, y, z'
loop_
 _atom_site_type_symbol
 _atom_site_label
 _atom_site_symmetry_multiplicity
 _atom_site_fract_x
 _atom_site_fract_y
 _atom_site_fract_z
 _atom_site_occupancy
  Au  Au0  1  0.75000001  0.10432100  0.79135802  1
  Au  Au1  1  0.25000000  0.89567898  0.20864202  1
  Au  Au2  1  0.75000001  0.44055499  0.11889001  1
  Au  Au3  1  0.25000000  0.55944499  0.88111003  1
  Au  Au4  1  0.25000000  0.25041699  0.49916602  1
  Au  Au5  1  0.75000001  0.74958298  0.50083402  1
