# generated using pymatgen
data_BaNa(GaP)2
_symmetry_space_group_name_H-M   'P 1'
_cell_length_a   4.23497820
_cell_length_b   4.23497820
_cell_length_c   7.08094215
_cell_angle_alpha   90.00000000
_cell_angle_beta   90.00000000
_cell_angle_gamma   90.00000000
_symmetry_Int_Tables_number   1
_chemical_formula_structural   BaNa(GaP)2
_chemical_formula_sum   'Ba1 Na1 Ga2 P2'
_cell_volume   126.99698322
_cell_formula_units_Z   1
loop_
 _symmetry_equiv_pos_site_id
 _symmetry_equiv_pos_as_xyz
  1  'x, y, z'
loop_
 _atom_site_type_symbol
 _atom_site_label
 _atom_site_symmetry_multiplicity
 _atom_site_fract_x
 _atom_site_fract_y
 _atom_site_fract_z
 _atom_site_occupancy
  Ba  Ba0  1  0.49999998  0.00000000  0.67991299  1
  Na  Na1  1  0.00000000  0.49999998  0.32008699  1
  P  P2  1  0.49999998  0.00000000  0.16986600  1
  P  P3  1  0.00000000  0.49999998  0.83013398  1
  Ga  Ga4  1  0.00000000  0.00000000  0.00000000  1
  Ga  Ga5  1  0.49999998  0.49999998  -0.00000000  1
