# generated using pymatgen
data_Ba10BNCl6
_symmetry_space_group_name_H-M   'P 1'
_cell_length_a   6.87821293
_cell_length_b   9.55863571
_cell_length_c   9.55863667
_cell_angle_alpha   120.00000000
_cell_angle_beta   90.00000000
_cell_angle_gamma   90.00000000
_symmetry_Int_Tables_number   1
_chemical_formula_structural   Ba10BNCl6
_chemical_formula_sum   'Ba10 B1 N1 Cl6'
_cell_volume   544.24959219
_cell_formula_units_Z   1
loop_
 _symmetry_equiv_pos_site_id
 _symmetry_equiv_pos_as_xyz
  1  'x, y, z'
loop_
 _atom_site_type_symbol
 _atom_site_label
 _atom_site_symmetry_multiplicity
 _atom_site_fract_x
 _atom_site_fract_y
 _atom_site_fract_z
 _atom_site_occupancy
  Ba  Ba0  1  0.50000001  0.33333335  0.66666665  1
  Ba  Ba1  1  0.50000001  0.66666670  0.33333334  1
  Ba  Ba2  1  0.00000000  0.66666670  0.33333334  1
  Ba  Ba3  1  0.00000000  0.33333335  0.66666665  1
  Ba  Ba4  1  0.75000001  0.21235101  0.99999997  1
  Ba  Ba5  1  0.75000001  0.78764903  0.78764899  1
  Ba  Ba6  1  0.75000001  0.00000000  0.21235099  1
  Ba  Ba7  1  0.25000000  0.78764903  0.99999999  1
  Ba  Ba8  1  0.25000000  0.21235101  0.21235100  1
  Ba  Ba9  1  0.25000000  0.00000000  0.78764897  1
  Cl  Cl10  1  0.75000001  0.58986903  0.99999998  1
  Cl  Cl11  1  0.75000001  0.41013102  0.41013100  1
  Cl  Cl12  1  0.75000001  0.00000000  0.58986898  1
  Cl  Cl13  1  0.25000000  0.41013102  0.99999998  1
  Cl  Cl14  1  0.25000000  0.58986903  0.58986899  1
  Cl  Cl15  1  0.25000000  0.00000000  0.41013099  1
  N  N16  1  0.50000001  0.00000000  -0.00000000  1
  B  B17  1  0.00000000  0.00000000  0.00000000  1
