# generated using pymatgen
data_Te4O9
_symmetry_space_group_name_H-M   'P 1'
_cell_length_a   5.34810686
_cell_length_b   5.69076157
_cell_length_c   5.92736149
_cell_angle_alpha   73.37471008
_cell_angle_beta   89.84855652
_cell_angle_gamma   62.66812515
_symmetry_Int_Tables_number   1
_chemical_formula_structural   Te4O9
_chemical_formula_sum   'Te4 O9'
_cell_volume   151.79344521
_cell_formula_units_Z   1
loop_
 _symmetry_equiv_pos_site_id
 _symmetry_equiv_pos_as_xyz
  1  'x, y, z'
loop_
 _atom_site_type_symbol
 _atom_site_label
 _atom_site_symmetry_multiplicity
 _atom_site_fract_x
 _atom_site_fract_y
 _atom_site_fract_z
 _atom_site_occupancy
  Te  Te0  1  0.55290199  0.91033301  0.75627493  1
  Te  Te1  1  0.44709801  0.08966700  0.24372498  1
  O  O2  1  0.00000000  0.00000000  0.00000000  1
  Te  Te3  1  0.76489501  0.46983201  0.36010496  1
  Te  Te4  1  0.23510499  0.53016801  0.63989496  1
  O  O5  1  0.78179300  0.76599101  0.06148396  1
  O  O6  1  0.78483300  0.72895901  0.54286894  1
  O  O7  1  0.68546901  0.23591500  0.68303096  1
  O  O8  1  0.71823801  0.23426900  0.18517697  1
  O  O9  1  0.28176199  0.76573101  0.81482294  1
  O  O10  1  0.31453099  0.76408501  0.31696896  1
  O  O11  1  0.21516700  0.27104100  0.45713097  1
  O  O12  1  0.21820700  0.23400900  0.93851596  1
