# generated using pymatgen
data_Ho(Co5Mo)2
_symmetry_space_group_name_H-M   'P 1'
_cell_length_a   4.71634007
_cell_length_b   6.38208771
_cell_length_c   6.38208771
_cell_angle_alpha   82.15296173
_cell_angle_beta   68.31532288
_cell_angle_gamma   68.31532288
_symmetry_Int_Tables_number   1
_chemical_formula_structural   Ho(Co5Mo)2
_chemical_formula_sum   'Ho1 Co10 Mo2'
_cell_volume   165.87403982
_cell_formula_units_Z   1
loop_
 _symmetry_equiv_pos_site_id
 _symmetry_equiv_pos_as_xyz
  1  'x, y, z'
loop_
 _atom_site_type_symbol
 _atom_site_label
 _atom_site_symmetry_multiplicity
 _atom_site_fract_x
 _atom_site_fract_y
 _atom_site_fract_z
 _atom_site_occupancy
  Ho  Ho0  1  0.00000000  0.00000000  0.00000000  1
  Co  Co1  1  0.50000000  0.00000000  0.49999999  1
  Co  Co2  1  0.99999995  0.50000002  -0.00000002  1
  Co  Co3  1  0.49999995  0.50000002  -0.00000000  1
  Co  Co4  1  0.00000000  0.00000000  0.50000001  1
  Co  Co5  1  0.63245296  0.36754702  0.36754699  1
  Mo  Mo6  1  -0.00000007  0.63245303  0.36754704  1
  Mo  Mo7  1  0.99999997  0.36754702  0.63245298  1
  Co  Co8  1  0.36754693  0.63245303  0.63245302  1
  Co  Co9  1  0.73248392  0.76751603  0.76751602  1
  Co  Co10  1  0.49999998  0.23248401  0.76751600  1
  Co  Co11  1  0.49999992  0.76751603  0.23248402  1
  Co  Co12  1  0.26751598  0.23248401  0.23248400  1
