# generated using pymatgen
data_Ga3Ir5
_symmetry_space_group_name_H-M   'P 1'
_cell_length_a   4.32592916
_cell_length_b   5.43462420
_cell_length_c   5.43462467
_cell_angle_alpha   60.00000381
_cell_angle_beta   90.00000000
_cell_angle_gamma   90.00000000
_symmetry_Int_Tables_number   1
_chemical_formula_structural   Ga3Ir5
_chemical_formula_sum   'Ga3 Ir5'
_cell_volume   110.64941602
_cell_formula_units_Z   1
loop_
 _symmetry_equiv_pos_site_id
 _symmetry_equiv_pos_as_xyz
  1  'x, y, z'
loop_
 _atom_site_type_symbol
 _atom_site_label
 _atom_site_symmetry_multiplicity
 _atom_site_fract_x
 _atom_site_fract_y
 _atom_site_fract_z
 _atom_site_occupancy
  Ga  Ga0  1  0.24999999  0.33333332  0.33333333  1
  Ga  Ga1  1  0.74999997  0.66666664  0.66666666  1
  Ir  Ir2  1  0.74999997  0.66458997  0.16770501  1
  Ga  Ga3  1  0.74999997  0.16770499  0.16770500  1
  Ir  Ir4  1  0.74999997  0.16770499  0.66458998  1
  Ir  Ir5  1  0.24999999  0.33540998  0.83229498  1
  Ir  Ir6  1  0.24999999  0.83229496  0.83229499  1
  Ir  Ir7  1  0.24999999  0.83229496  0.33541000  1
