# generated using pymatgen
data_Ho(Co5Mo)2
_symmetry_space_group_name_H-M   'P 1'
_cell_length_a   4.72119188
_cell_length_b   6.48386860
_cell_length_c   6.48386860
_cell_angle_alpha   82.11801910
_cell_angle_beta   68.64950562
_cell_angle_gamma   68.64950562
_symmetry_Int_Tables_number   1
_chemical_formula_structural   Ho(Co5Mo)2
_chemical_formula_sum   'Ho1 Co10 Mo2'
_cell_volume   172.17067084
_cell_formula_units_Z   1
loop_
 _symmetry_equiv_pos_site_id
 _symmetry_equiv_pos_as_xyz
  1  'x, y, z'
loop_
 _atom_site_type_symbol
 _atom_site_label
 _atom_site_symmetry_multiplicity
 _atom_site_fract_x
 _atom_site_fract_y
 _atom_site_fract_z
 _atom_site_occupancy
  Ho  Ho0  1  0.00000000  0.00000000  0.00000000  1
  Co  Co1  1  0.00000000  0.00000000  0.50000000  1
  Co  Co2  1  0.50000002  0.00000000  0.49999999  1
  Co  Co3  1  0.49999998  0.50000001  0.00000001  1
  Co  Co4  1  -0.00000004  0.50000001  0.00000003  1
  Co  Co5  1  0.49999996  0.78218201  0.21781803  1
  Co  Co6  1  0.50000000  0.21781800  0.78218200  1
  Co  Co7  1  0.72173197  0.77826801  0.77826802  1
  Co  Co8  1  0.27826799  0.22173200  0.22173200  1
  Co  Co9  1  -0.00000003  0.35733300  0.64266702  1
  Co  Co10  1  0.99999999  0.64266701  0.35733301  1
  Mo  Mo11  1  0.64359200  0.35640800  0.35640800  1
  Mo  Mo12  1  0.35640797  0.64359201  0.64359202  1
