# generated using pymatgen
data_MgP2
_symmetry_space_group_name_H-M   'P 1'
_cell_length_a   3.57636809
_cell_length_b   3.98447490
_cell_length_c   8.98387432
_cell_angle_alpha   90.00000000
_cell_angle_beta   90.00000000
_cell_angle_gamma   90.00000000
_symmetry_Int_Tables_number   1
_chemical_formula_structural   MgP2
_chemical_formula_sum   'Mg2 P4'
_cell_volume   128.01974993
_cell_formula_units_Z   2
loop_
 _symmetry_equiv_pos_site_id
 _symmetry_equiv_pos_as_xyz
  1  'x, y, z'
loop_
 _atom_site_type_symbol
 _atom_site_label
 _atom_site_symmetry_multiplicity
 _atom_site_fract_x
 _atom_site_fract_y
 _atom_site_fract_z
 _atom_site_occupancy
  P  P0  1  0.00000000  0.50000001  0.10372300  1
  P  P1  1  0.49999999  0.00000000  0.89627697  1
  Mg  Mg2  1  0.49999999  0.50000001  0.32554799  1
  Mg  Mg3  1  0.00000000  0.00000000  0.67445198  1
  P  P4  1  0.49999999  0.50000001  0.96943097  1
  P  P5  1  0.00000000  0.00000000  0.03056900  1
