# generated using pymatgen
data_Ba2NdGaO5
_symmetry_space_group_name_H-M   'P 1'
_cell_length_a   6.21964121
_cell_length_b   7.43423510
_cell_length_c   7.62085342
_cell_angle_alpha   117.76946259
_cell_angle_beta   90.00000000
_cell_angle_gamma   90.00000000
_symmetry_Int_Tables_number   1
_chemical_formula_structural   Ba2NdGaO5
_chemical_formula_sum   'Ba4 Nd2 Ga2 O10'
_cell_volume   311.79187081
_cell_formula_units_Z   2
loop_
 _symmetry_equiv_pos_site_id
 _symmetry_equiv_pos_as_xyz
  1  'x, y, z'
loop_
 _atom_site_type_symbol
 _atom_site_label
 _atom_site_symmetry_multiplicity
 _atom_site_fract_x
 _atom_site_fract_y
 _atom_site_fract_z
 _atom_site_occupancy
  Ba  Ba0  1  0.75981397  0.13591899  0.39599998  1
  Ba  Ba1  1  0.75577097  0.69224697  0.85646594  1
  Ba  Ba2  1  0.25981399  0.86408097  0.60399994  1
  Ba  Ba3  1  0.25577099  0.30775299  0.14353398  1
  Nd  Nd4  1  0.76120297  0.59810398  0.33604796  1
  Nd  Nd5  1  0.26120299  0.40189598  0.66395196  1
  Ga  Ga6  1  0.27297899  0.83168097  0.16351495  1
  Ga  Ga7  1  0.77297897  0.16831899  0.83648497  1
  O  O8  1  0.49800098  0.50055698  0.48821296  1
  O  O9  1  0.73967898  0.90683497  0.65570494  1
  O  O10  1  0.57558398  0.30509499  0.77472496  1
  O  O11  1  0.24787399  0.77537297  0.90964194  1
  O  O12  1  0.23967899  0.09316500  0.34429499  1
  O  O13  1  0.03709600  0.23514799  0.79292597  1
  O  O14  1  0.99800097  0.49944298  0.51178696  1
  O  O15  1  0.53709598  0.76485197  0.20707395  1
  O  O16  1  0.74787397  0.22462699  0.09035799  1
  O  O17  1  0.07558400  0.69490497  0.22527496  1
