# generated using pymatgen
data_SrWO3
_symmetry_space_group_name_H-M   'P 1'
_cell_length_a   5.52336693
_cell_length_b   5.52719450
_cell_length_c   7.87512922
_cell_angle_alpha   89.56349182
_cell_angle_beta   89.93630981
_cell_angle_gamma   90.12496185
_symmetry_Int_Tables_number   1
_chemical_formula_structural   SrWO3
_chemical_formula_sum   'Sr4 W4 O12'
_cell_volume   240.40993916
_cell_formula_units_Z   4
loop_
 _symmetry_equiv_pos_site_id
 _symmetry_equiv_pos_as_xyz
  1  'x, y, z'
loop_
 _atom_site_type_symbol
 _atom_site_label
 _atom_site_symmetry_multiplicity
 _atom_site_fract_x
 _atom_site_fract_y
 _atom_site_fract_z
 _atom_site_occupancy
  Sr  Sr0  1  0.48085704  0.49839801  0.24929698  1
  Sr  Sr1  1  0.51453504  0.49873801  0.75030897  1
  Sr  Sr2  1  0.98682103  0.00554200  0.24969097  1
  Sr  Sr3  1  0.03127805  0.99202303  0.74912997  1
  W  W4  1  0.99845105  0.49974501  0.50261496  1
  W  W5  1  0.50263501  0.00052700  0.99812097  1
  W  W6  1  0.99869305  0.50095901  0.99664195  1
  W  W7  1  0.50333506  0.99861803  0.50130396  1
  O  O8  1  0.48082202  0.03404300  0.75329898  1
  O  O9  1  0.99723405  0.54830401  0.26208596  1
  O  O10  1  0.00138302  0.42743701  0.73927398  1
  O  O11  1  0.50472706  0.96549802  0.24604097  1
  O  O12  1  0.26179004  0.72485602  0.97740897  1
  O  O13  1  0.26577504  0.72009202  0.52450297  1
  O  O14  1  0.21995202  0.23654001  0.01936299  1
  O  O15  1  0.22013302  0.23152301  0.47709998  1
  O  O16  1  0.78784906  0.77414402  0.53871796  1
  O  O17  1  0.78543806  0.77363602  0.96676395  1
  O  O18  1  0.72805303  0.28602301  0.47847697  1
  O  O19  1  0.73023803  0.28335401  0.01985498  1
