# generated using pymatgen
data_Cs5Ga4O9
_symmetry_space_group_name_H-M   'P 1'
_cell_length_a   7.30593777
_cell_length_b   7.30593777
_cell_length_c   7.30593777
_cell_angle_alpha   60.00000000
_cell_angle_beta   60.00000000
_cell_angle_gamma   60.00000000
_symmetry_Int_Tables_number   1
_chemical_formula_structural   Cs5Ga4O9
_chemical_formula_sum   'Cs5 Ga4 O9'
_cell_volume   275.74834065
_cell_formula_units_Z   1
loop_
 _symmetry_equiv_pos_site_id
 _symmetry_equiv_pos_as_xyz
  1  'x, y, z'
loop_
 _atom_site_type_symbol
 _atom_site_label
 _atom_site_symmetry_multiplicity
 _atom_site_fract_x
 _atom_site_fract_y
 _atom_site_fract_z
 _atom_site_occupancy
  Cs  Cs0  1  0.74999998  0.74999998  0.74999998  1
  Cs  Cs1  1  0.00000000  0.00000000  0.00000000  1
  Ga  Ga2  1  0.37499999  0.37499999  0.87499998  1
  Ga  Ga3  1  0.37499999  0.87499998  0.37499999  1
  Ga  Ga4  1  0.37499999  0.37499999  0.37499999  1
  Ga  Ga5  1  0.87499998  0.37499999  0.37499999  1
  Cs  Cs6  1  0.05846100  0.44153899  0.05846100  1
  O  O7  1  0.30846099  0.30846099  0.69153898  1
  O  O8  1  0.69153898  0.69153898  0.30846099  1
  O  O9  1  0.44153899  0.05846100  0.44153899  1
  O  O10  1  0.69153898  0.30846099  0.69153898  1
  O  O11  1  0.44153899  0.44153899  0.05846100  1
  O  O12  1  0.05846100  0.44153899  0.44153899  1
  O  O13  1  0.69153898  0.30846099  0.30846099  1
  O  O14  1  0.30846099  0.69153898  0.69153898  1
  Cs  Cs15  1  0.44153899  0.05846100  0.05846100  1
  O  O16  1  0.30846099  0.69153898  0.30846099  1
  Cs  Cs17  1  0.05846100  0.05846100  0.44153899  1
