# generated using pymatgen
data_Ba3In2H2O9
_symmetry_space_group_name_H-M   'P 1'
_cell_length_a   5.04108191
_cell_length_b   6.93790579
_cell_length_c   7.90542269
_cell_angle_alpha   90.00000000
_cell_angle_beta   106.46690369
_cell_angle_gamma   90.00000000
_symmetry_Int_Tables_number   1
_chemical_formula_structural   Ba3In2H2O9
_chemical_formula_sum   'Ba3 In2 H2 O9'
_cell_volume   265.14805333
_cell_formula_units_Z   1
loop_
 _symmetry_equiv_pos_site_id
 _symmetry_equiv_pos_as_xyz
  1  'x, y, z'
loop_
 _atom_site_type_symbol
 _atom_site_label
 _atom_site_symmetry_multiplicity
 _atom_site_fract_x
 _atom_site_fract_y
 _atom_site_fract_z
 _atom_site_occupancy
  Ba  Ba0  1  0.63049202  0.89587603  0.29221902  1
  Ba  Ba1  1  0.36950801  0.39587601  0.70778100  1
  In  In2  1  0.94127804  0.87142803  0.81935103  1
  In  In3  1  0.05872200  0.37142801  0.18064900  1
  H  H4  1  0.75269903  0.39098901  0.37393503  1
  H  H5  1  0.24730101  0.89098903  0.62606500  1
  O  O6  1  0.94781704  0.34734401  0.39353104  1
  O  O7  1  0.05218300  0.84734403  0.60646899  1
  O  O8  1  0.92964804  0.64994902  0.17445204  1
  O  O9  1  0.66747303  0.28866801  0.05721103  1
  O  O10  1  0.42979602  0.45271101  0.36562301  1
  O  O11  1  0.57020402  0.95271103  0.63437701  1
  O  O12  1  0.84230503  0.58803402  0.77134002  1
  O  O13  1  0.07035200  0.14994900  0.82554799  1
  O  O14  1  0.15769501  0.08803400  0.22866000  1
  Ba  Ba15  1  0.33252701  0.78866802  0.94278900  1
