# generated using pymatgen
data_Pr4InPt5
_symmetry_space_group_name_H-M   'P 1'
_cell_length_a   4.24805021
_cell_length_b   7.23179579
_cell_length_c   7.23179579
_cell_angle_alpha   90.00000000
_cell_angle_beta   90.00000000
_cell_angle_gamma   90.00000000
_symmetry_Int_Tables_number   1
_chemical_formula_structural   Pr4InPt5
_chemical_formula_sum   'Pr4 In1 Pt5'
_cell_volume   222.16822718
_cell_formula_units_Z   1
loop_
 _symmetry_equiv_pos_site_id
 _symmetry_equiv_pos_as_xyz
  1  'x, y, z'
loop_
 _atom_site_type_symbol
 _atom_site_label
 _atom_site_symmetry_multiplicity
 _atom_site_fract_x
 _atom_site_fract_y
 _atom_site_fract_z
 _atom_site_occupancy
  Pr  Pr0  1  0.49999997  0.67949802  0.17949801  1
  Pr  Pr1  1  0.49999997  0.32050201  0.82050202  1
  Pr  Pr2  1  0.49999997  0.17949801  0.32050201  1
  Pr  Pr3  1  0.49999997  0.82050202  0.67949802  1
  Pt  Pt4  1  0.00000000  0.00000000  0.00000000  1
  In  In5  1  0.00000000  0.50000001  0.50000001  1
  Pt  Pt6  1  0.00000000  0.11668000  0.61668002  1
  Pt  Pt7  1  0.99999995  0.88332003  0.38332001  1
  Pt  Pt8  1  0.00000000  0.61668002  0.88332003  1
  Pt  Pt9  1  0.99999995  0.38332001  0.11668000  1
