# generated using pymatgen
data_MgO
_symmetry_space_group_name_H-M   'P 1'
_cell_length_a   3.07494807
_cell_length_b   6.12272453
_cell_length_c   6.79573822
_cell_angle_alpha   102.68460846
_cell_angle_beta   103.07585907
_cell_angle_gamma   90.00000000
_symmetry_Int_Tables_number   1
_chemical_formula_structural   MgO
_chemical_formula_sum   'Mg6 O6'
_cell_volume   121.41842698
_cell_formula_units_Z   6
loop_
 _symmetry_equiv_pos_site_id
 _symmetry_equiv_pos_as_xyz
  1  'x, y, z'
loop_
 _atom_site_type_symbol
 _atom_site_label
 _atom_site_symmetry_multiplicity
 _atom_site_fract_x
 _atom_site_fract_y
 _atom_site_fract_z
 _atom_site_occupancy
  Mg  Mg0  1  0.00000000  0.00000000  0.00000000  1
  Mg  Mg1  1  0.32703199  0.66761202  0.65406399  1
  Mg  Mg2  1  0.67296798  0.33238801  0.34593599  1
  Mg  Mg3  1  0.32641899  0.14907000  0.65283799  1
  Mg  Mg4  1  0.67358098  0.85093002  0.34716199  1
  Mg  Mg5  1  -0.00000000  0.50000001  -0.00000000  1
  O  O6  1  0.83933498  0.40249801  0.67866999  1
  O  O7  1  0.16663300  0.07451000  0.33326600  1
  O  O8  1  0.16066499  0.59750201  0.32132999  1
  O  O9  1  0.50181199  0.73769202  0.00362399  1
  O  O10  1  0.49818799  0.26230801  0.99637598  1
  O  O11  1  0.83336698  0.92549002  0.66673398  1
