# generated using pymatgen
data_CoGe2
_symmetry_space_group_name_H-M   'P 1'
_cell_length_a   4.53942776
_cell_length_b   4.53942776
_cell_length_c   12.96196175
_cell_angle_alpha   94.93704987
_cell_angle_beta   94.93704987
_cell_angle_gamma   119.64949799
_symmetry_Int_Tables_number   1
_chemical_formula_structural   CoGe2
_chemical_formula_sum   'Co6 Ge12'
_cell_volume   228.69982173
_cell_formula_units_Z   6
loop_
 _symmetry_equiv_pos_site_id
 _symmetry_equiv_pos_as_xyz
  1  'x, y, z'
loop_
 _atom_site_type_symbol
 _atom_site_label
 _atom_site_symmetry_multiplicity
 _atom_site_fract_x
 _atom_site_fract_y
 _atom_site_fract_z
 _atom_site_occupancy
  Ge  Ge0  1  0.87551099  0.62448900  0.25000002  1
  Ge  Ge1  1  0.54084200  0.29060200  0.58332400  1
  Ge  Ge2  1  0.20939799  0.95915799  0.91667600  1
  Ge  Ge3  1  0.79796200  0.04971300  0.08842101  1
  Ge  Ge4  1  0.45028699  0.70203800  0.41157901  1
  Ge  Ge5  1  0.12249499  0.37750500  0.74999999  1
  Ge  Ge6  1  0.86920499  0.96045999  0.58159002  1
  Ge  Ge7  1  0.53953999  0.63079500  0.91841000  1
  Ge  Ge8  1  0.12150299  0.71033599  0.08253801  1
  Co  Co9  1  0.78966399  0.37849700  0.41746201  1
  Ge  Ge10  1  0.45602300  0.04397700  0.74999999  1
  Co  Co11  1  0.46264999  0.37076900  0.08583301  1
  Ge  Ge12  1  0.12923100  0.03735000  0.41416700  1
  Co  Co13  1  0.79490099  0.70509899  0.75000001  1
  Co  Co14  1  0.54478199  0.95521799  0.25000002  1
  Co  Co15  1  0.21393899  0.62079000  0.58257300  1
  Ge  Ge16  1  0.87921000  0.28606100  0.91742700  1
  Co  Co17  1  0.20285800  0.29714200  0.25000000  1
