# generated using pymatgen
data_LaMg5
_symmetry_space_group_name_H-M   'P 1'
_cell_length_a   3.49089193
_cell_length_b   6.84150553
_cell_length_c   7.77866936
_cell_angle_alpha   104.55718994
_cell_angle_beta   90.00000000
_cell_angle_gamma   104.78105164
_symmetry_Int_Tables_number   1
_chemical_formula_structural   LaMg5
_chemical_formula_sum   'La1 Mg5'
_cell_volume   173.45460605
_cell_formula_units_Z   1
loop_
 _symmetry_equiv_pos_site_id
 _symmetry_equiv_pos_as_xyz
  1  'x, y, z'
loop_
 _atom_site_type_symbol
 _atom_site_label
 _atom_site_symmetry_multiplicity
 _atom_site_fract_x
 _atom_site_fract_y
 _atom_site_fract_z
 _atom_site_occupancy
  Mg  Mg0  1  0.64577401  0.29154800  0.03223001  1
  Mg  Mg1  1  0.35422600  0.70845199  0.96777002  1
  Mg  Mg2  1  0.97374801  0.94749599  0.72452804  1
  Mg  Mg3  1  0.69290901  0.38581800  0.65055601  1
  La  La4  1  0.30709100  0.61418199  0.34944402  1
  Mg  Mg5  1  0.02625200  0.05250400  0.27547200  1
