# generated using pymatgen
data_BaCo7O12
_symmetry_space_group_name_H-M   'P 1'
_cell_length_a   6.43482256
_cell_length_b   6.43468571
_cell_length_c   6.43458986
_cell_angle_alpha   109.48992920
_cell_angle_beta   109.45381927
_cell_angle_gamma   109.47029877
_symmetry_Int_Tables_number   1
_chemical_formula_structural   BaCo7O12
_chemical_formula_sum   'Ba1 Co7 O12'
_cell_volume   205.09770319
_cell_formula_units_Z   1
loop_
 _symmetry_equiv_pos_site_id
 _symmetry_equiv_pos_as_xyz
  1  'x, y, z'
loop_
 _atom_site_type_symbol
 _atom_site_label
 _atom_site_symmetry_multiplicity
 _atom_site_fract_x
 _atom_site_fract_y
 _atom_site_fract_z
 _atom_site_occupancy
  Ba  Ba0  1  0.99999896  0.00000100  0.99999896  1
  Co  Co1  1  0.99999789  0.99999894  0.49999597  1
  Co  Co2  1  0.00000496  0.49999697  0.50000898  1
  Co  Co3  1  0.50000294  0.49999097  0.00000099  1
  Co  Co4  1  0.99999892  0.49999997  0.99999595  1
  Co  Co5  1  0.50000294  0.50000797  0.50000398  1
  Co  Co6  1  0.50000498  0.00000400  0.00000599  1
  Co  Co7  1  0.49999491  0.99999694  0.49999297  1
  O  O8  1  0.68900791  0.81767695  0.50667497  1
  O  O9  1  0.81767493  0.50670097  0.68902797  1
  O  O10  1  0.81767796  0.12865199  0.31097798  1
  O  O11  1  0.50672293  0.68902896  0.81768696  1
  O  O12  1  0.12864597  0.31095098  0.81768197  1
  O  O13  1  0.31097593  0.81766095  0.12864099  1
  O  O14  1  0.68902096  0.18233899  0.87135396  1
  O  O15  1  0.87135291  0.68904896  0.18231498  1
  O  O16  1  0.49327396  0.31096998  0.18231499  1
  O  O17  1  0.18232396  0.49329997  0.31097299  1
  O  O18  1  0.18232193  0.87134795  0.68902397  1
  O  O19  1  0.31099097  0.18232399  0.49332298  1
