# generated using pymatgen
data_Tb9InAu6
_symmetry_space_group_name_H-M   'P 1'
_cell_length_a   6.27843285
_cell_length_b   8.94411373
_cell_length_c   8.94411373
_cell_angle_alpha   120.00000000
_cell_angle_beta   90.00000000
_cell_angle_gamma   90.00000000
_symmetry_Int_Tables_number   1
_chemical_formula_structural   Tb9InAu6
_chemical_formula_sum   'Tb9 In1 Au6'
_cell_volume   434.96720214
_cell_formula_units_Z   1
loop_
 _symmetry_equiv_pos_site_id
 _symmetry_equiv_pos_as_xyz
  1  'x, y, z'
loop_
 _atom_site_type_symbol
 _atom_site_label
 _atom_site_symmetry_multiplicity
 _atom_site_fract_x
 _atom_site_fract_y
 _atom_site_fract_z
 _atom_site_occupancy
  Tb  Tb0  1  0.00000000  0.66666669  0.33333335  1
  Tb  Tb1  1  0.50000001  0.33333334  0.66666669  1
  Tb  Tb2  1  0.00000000  0.33333334  0.66666669  1
  In  In3  1  0.50000001  0.66666669  0.33333335  1
  Tb  Tb4  1  0.25000001  0.24648301  0.24648301  1
  Tb  Tb5  1  0.75000002  0.24648301  0.00000000  1
  Tb  Tb6  1  0.75000002  0.00000000  0.24648301  1
  Tb  Tb7  1  0.25000001  0.00000000  0.75351703  1
  Tb  Tb8  1  0.25000001  0.75351702  0.00000000  1
  Tb  Tb9  1  0.75000002  0.75351702  0.75351703  1
  Au  Au10  1  0.25000001  0.61109802  0.61109802  1
  Au  Au11  1  0.75000002  0.61109802  0.00000000  1
  Au  Au12  1  0.75000002  0.00000000  0.61109802  1
  Au  Au13  1  0.25000001  0.00000000  0.38890201  1
  Au  Au14  1  0.25000001  0.38890201  0.00000000  1
  Au  Au15  1  0.75000002  0.38890201  0.38890202  1
