# generated using pymatgen
data_Ga9Se5
_symmetry_space_group_name_H-M   'P 1'
_cell_length_a   7.41353083
_cell_length_b   7.41353083
_cell_length_c   7.41353083
_cell_angle_alpha   60.00000000
_cell_angle_beta   60.00000000
_cell_angle_gamma   60.00000000
_symmetry_Int_Tables_number   1
_chemical_formula_structural   Ga9Se5
_chemical_formula_sum   'Ga9 Se5'
_cell_volume   288.11130225
_cell_formula_units_Z   1
loop_
 _symmetry_equiv_pos_site_id
 _symmetry_equiv_pos_as_xyz
  1  'x, y, z'
loop_
 _atom_site_type_symbol
 _atom_site_label
 _atom_site_symmetry_multiplicity
 _atom_site_fract_x
 _atom_site_fract_y
 _atom_site_fract_z
 _atom_site_occupancy
  Ga  Ga0  1  0.87669801  0.87669901  0.36990401  1
  Ga  Ga1  1  0.87669801  0.87669901  0.87669901  1
  Ga  Ga2  1  0.87669801  0.36990401  0.87669901  1
  Ga  Ga3  1  0.36990301  0.87669901  0.87669901  1
  Se  Se4  1  0.50000001  0.50000001  0.50000001  1
  Ga  Ga5  1  0.25000000  0.25000000  0.25000000  1
  Se  Se6  1  0.11697600  0.11697600  0.64907201  1
  Se  Se7  1  0.11697600  0.11697600  0.11697600  1
  Se  Se8  1  0.11697600  0.64907201  0.11697600  1
  Se  Se9  1  0.64907201  0.11697600  0.11697600  1
  Ga  Ga10  1  0.63238001  0.63237901  0.10286200  1
  Ga  Ga11  1  0.63238001  0.63237901  0.63237901  1
  Ga  Ga12  1  0.63238001  0.10286200  0.63237901  1
  Ga  Ga13  1  0.10286300  0.63237901  0.63237901  1
