# generated using pymatgen
data_LiMn5O8
_symmetry_space_group_name_H-M   'P 1'
_cell_length_a   3.10794520
_cell_length_b   5.27142811
_cell_length_c   9.34200859
_cell_angle_alpha   90.00247192
_cell_angle_beta   90.00176239
_cell_angle_gamma   73.04386139
_symmetry_Int_Tables_number   1
_chemical_formula_structural   LiMn5O8
_chemical_formula_sum   'Li1 Mn5 O8'
_cell_volume   146.39954393
_cell_formula_units_Z   1
loop_
 _symmetry_equiv_pos_site_id
 _symmetry_equiv_pos_as_xyz
  1  'x, y, z'
loop_
 _atom_site_type_symbol
 _atom_site_label
 _atom_site_symmetry_multiplicity
 _atom_site_fract_x
 _atom_site_fract_y
 _atom_site_fract_z
 _atom_site_occupancy
  Li  Li0  1  0.59027998  0.81391999  0.75099605  1
  Mn  Mn1  1  0.40932199  0.18618000  0.25092301  1
  Mn  Mn2  1  0.03565498  0.72616799  0.07087603  1
  Mn  Mn3  1  0.76106899  0.27340200  0.92904604  1
  Mn  Mn4  1  0.23877998  0.72669999  0.42905604  1
  Mn  Mn5  1  0.96482799  0.27366800  0.57085402  1
  O  O6  1  0.95351298  0.45114799  0.38474301  1
  O  O7  1  0.40623799  0.54882599  0.61499604  1
  O  O8  1  0.04656899  0.54885699  0.88474406  1
  O  O9  1  0.59394899  0.45113099  0.11501601  1
  O  O10  1  0.04016898  0.92132299  0.24987504  1
  O  O11  1  0.95956199  0.07872200  0.74994002  1
  O  O12  1  0.50032998  0.99892698  0.99946007  1
  O  O13  1  0.49973800  0.00102600  0.49947601  1
