# generated using pymatgen
data_CsH4
_symmetry_space_group_name_H-M   'P 1'
_cell_length_a   4.22103977
_cell_length_b   8.18682575
_cell_length_c   8.47497845
_cell_angle_alpha   90.00000000
_cell_angle_beta   90.00000000
_cell_angle_gamma   90.00000000
_symmetry_Int_Tables_number   1
_chemical_formula_structural   CsH4
_chemical_formula_sum   'Cs4 H16'
_cell_volume   292.86912768
_cell_formula_units_Z   4
loop_
 _symmetry_equiv_pos_site_id
 _symmetry_equiv_pos_as_xyz
  1  'x, y, z'
loop_
 _atom_site_type_symbol
 _atom_site_label
 _atom_site_symmetry_multiplicity
 _atom_site_fract_x
 _atom_site_fract_y
 _atom_site_fract_z
 _atom_site_occupancy
  Cs  Cs0  1  0.75000004  0.25972801  0.04221000  1
  Cs  Cs1  1  0.25000001  0.74027202  0.95778995  1
  Cs  Cs2  1  0.75000004  0.75972802  0.45778998  1
  Cs  Cs3  1  0.25000001  0.24027201  0.54220997  1
  H  H4  1  0.56109903  0.96827503  0.74034496  1
  H  H5  1  0.06109900  0.03172500  0.25965499  1
  H  H6  1  0.93890105  0.46827501  0.75965496  1
  H  H7  1  0.43890102  0.53172502  0.24034499  1
  H  H8  1  0.43890102  0.03172500  0.25965499  1
  H  H9  1  0.93890105  0.96827503  0.74034496  1
  H  H10  1  0.06109900  0.53172502  0.24034499  1
  H  H11  1  0.56109903  0.46827501  0.75965496  1
  H  H12  1  0.75000004  0.50478102  0.69761896  1
  H  H13  1  0.25000001  0.49521901  0.30238098  1
  H  H14  1  0.75000004  0.00478100  0.80238096  1
  H  H15  1  0.25000001  0.99521903  0.19761899  1
  H  H16  1  0.75000004  0.09812900  0.35275998  1
  H  H17  1  0.25000001  0.90187103  0.64723997  1
  H  H18  1  0.75000004  0.59812902  0.14723999  1
  H  H19  1  0.25000001  0.40187101  0.85275996  1
