# generated using pymatgen
data_Mo9N7
_symmetry_space_group_name_H-M   'P 1'
_cell_length_a   5.67810202
_cell_length_b   5.77228022
_cell_length_c   5.77227974
_cell_angle_alpha   120.00000000
_cell_angle_beta   90.00000000
_cell_angle_gamma   90.00000000
_symmetry_Int_Tables_number   1
_chemical_formula_structural   Mo9N7
_chemical_formula_sum   'Mo9 N7'
_cell_volume   163.84326678
_cell_formula_units_Z   1
loop_
 _symmetry_equiv_pos_site_id
 _symmetry_equiv_pos_as_xyz
  1  'x, y, z'
loop_
 _atom_site_type_symbol
 _atom_site_label
 _atom_site_symmetry_multiplicity
 _atom_site_fract_x
 _atom_site_fract_y
 _atom_site_fract_z
 _atom_site_occupancy
  Mo  Mo0  1  0.25236800  0.48775298  0.97550602  1
  N  N1  1  0.75236800  0.97550496  0.48775200  1
  N  N2  1  0.75236800  0.51224698  0.48775201  1
  N  N3  1  0.25236800  0.48775298  0.51224801  1
  N  N4  1  0.75236800  0.51224698  0.02449399  1
  N  N5  1  0.25236800  0.02449500  0.51224801  1
  N  N6  1  0.74187800  0.00000000  -0.00000000  1
  N  N7  1  0.24187800  0.00000000  -0.00000000  1
  Mo  Mo8  1  0.00771200  0.83368096  0.16631899  1
  Mo  Mo9  1  0.50771200  0.66736197  0.83368102  1
  Mo  Mo10  1  0.50771200  0.16631899  0.83368102  1
  Mo  Mo11  1  0.50771200  0.16631899  0.33263801  1
  Mo  Mo12  1  0.97788200  0.33333332  0.66666668  1
  Mo  Mo13  1  0.00771200  0.83368096  0.66736201  1
  Mo  Mo14  1  0.00771200  0.33263799  0.16631900  1
  Mo  Mo15  1  0.47788200  0.66666664  0.33333333  1
