# generated using pymatgen
data_Lu2Co17
_symmetry_space_group_name_H-M   'P 1'
_cell_length_a   6.31485796
_cell_length_b   6.31485796
_cell_length_c   6.31485796
_cell_angle_alpha   83.18297577
_cell_angle_beta   83.18296814
_cell_angle_gamma   83.18296814
_symmetry_Int_Tables_number   1
_chemical_formula_structural   Lu2Co17
_chemical_formula_sum   'Lu2 Co17'
_cell_volume   246.87079422
_cell_formula_units_Z   1
loop_
 _symmetry_equiv_pos_site_id
 _symmetry_equiv_pos_as_xyz
  1  'x, y, z'
loop_
 _atom_site_type_symbol
 _atom_site_label
 _atom_site_symmetry_multiplicity
 _atom_site_fract_x
 _atom_site_fract_y
 _atom_site_fract_z
 _atom_site_occupancy
  Lu  Lu0  1  0.34411400  0.34411399  0.34411398  1
  Lu  Lu1  1  0.65107999  0.65107998  0.65107997  1
  Co  Co2  1  0.00184799  0.29016299  0.71297199  1
  Co  Co3  1  0.71297201  0.00184800  0.29016297  1
  Co  Co4  1  0.29016299  0.71297198  0.00184800  1
  Co  Co5  1  0.29016301  0.00184800  0.71297197  1
  Co  Co6  1  0.71297201  0.29016299  0.00184798  1
  Co  Co7  1  0.00184798  0.71297198  0.29016300  1
  Co  Co8  1  0.14849798  0.65061298  0.65061299  1
  Co  Co9  1  0.65061301  0.14849800  0.65061297  1
  Co  Co10  1  0.65061299  0.65061298  0.14849798  1
  Co  Co11  1  0.84988401  0.34470599  0.34470597  1
  Co  Co12  1  0.34470598  0.84988398  0.34470599  1
  Co  Co13  1  0.34470600  0.34470599  0.84988397  1
  Co  Co14  1  0.49721101  0.00328500  0.00328498  1
  Co  Co15  1  0.00328499  0.49721099  0.00328501  1
  Co  Co16  1  0.00328500  0.00328500  0.49721099  1
  Co  Co17  1  0.09948700  0.09948700  0.09948700  1
  Co  Co18  1  0.90255399  0.90255398  0.90255396  1
