# generated using pymatgen
data_Cs2InSbBr6
_symmetry_space_group_name_H-M   'P 1'
_cell_length_a   7.98380709
_cell_length_b   7.98380709
_cell_length_c   7.98380709
_cell_angle_alpha   60.00000000
_cell_angle_beta   60.00000000
_cell_angle_gamma   60.00000000
_symmetry_Int_Tables_number   1
_chemical_formula_structural   Cs2InSbBr6
_chemical_formula_sum   'Cs2 In1 Sb1 Br6'
_cell_volume   359.84469605
_cell_formula_units_Z   1
loop_
 _symmetry_equiv_pos_site_id
 _symmetry_equiv_pos_as_xyz
  1  'x, y, z'
loop_
 _atom_site_type_symbol
 _atom_site_label
 _atom_site_symmetry_multiplicity
 _atom_site_fract_x
 _atom_site_fract_y
 _atom_site_fract_z
 _atom_site_occupancy
  Cs  Cs0  1  0.24999999  0.24999999  0.24999999  1
  Cs  Cs1  1  0.74999998  0.74999998  0.74999998  1
  In  In2  1  0.49999999  0.49999999  0.49999999  1
  Sb  Sb3  1  0.00000000  0.00000000  0.00000000  1
  Br  Br4  1  0.22177799  0.77822198  0.22177799  1
  Br  Br5  1  0.22177799  0.22177799  0.77822198  1
  Br  Br6  1  0.77822198  0.22177799  0.77822198  1
  Br  Br7  1  0.22177799  0.77822198  0.77822198  1
  Br  Br8  1  0.77822198  0.22177799  0.22177799  1
  Br  Br9  1  0.77822198  0.77822198  0.22177799  1
