# generated using pymatgen
data_LiV4F13
_symmetry_space_group_name_H-M   'P 1'
_cell_length_a   4.64193106
_cell_length_b   5.56864405
_cell_length_c   7.63547659
_cell_angle_alpha   86.53820801
_cell_angle_beta   89.62129974
_cell_angle_gamma   88.97261047
_symmetry_Int_Tables_number   1
_chemical_formula_structural   LiV4F13
_chemical_formula_sum   'Li1 V4 F13'
_cell_volume   196.97659431
_cell_formula_units_Z   1
loop_
 _symmetry_equiv_pos_site_id
 _symmetry_equiv_pos_as_xyz
  1  'x, y, z'
loop_
 _atom_site_type_symbol
 _atom_site_label
 _atom_site_symmetry_multiplicity
 _atom_site_fract_x
 _atom_site_fract_y
 _atom_site_fract_z
 _atom_site_occupancy
  V  V0  1  0.50000001  0.50000002  -0.00000001  1
  V  V1  1  0.53681902  0.84311303  0.65922196  1
  V  V2  1  0.46318100  0.15688701  0.34077799  1
  V  V3  1  0.00519201  0.32778801  0.68276297  1
  Li  Li4  1  0.99480801  0.67221202  0.31723698  1
  F  F5  1  0.00000000  0.00000000  0.00000000  1
  F  F6  1  0.81118099  0.04358700  0.77393199  1
  F  F7  1  0.80973701  0.70408603  0.09456798  1
  F  F8  1  0.69521601  0.53782702  0.76462597  1
  F  F9  1  0.69390602  0.87255703  0.42862796  1
  F  F10  1  0.30609400  0.12744300  0.57137199  1
  F  F11  1  0.30478401  0.46217302  0.23537398  1
  F  F12  1  0.18881903  0.95641303  0.22606796  1
  F  F13  1  0.19026301  0.29591401  0.90543197  1
  F  F14  1  0.81034500  0.36862601  0.43901799  1
  F  F15  1  0.68846900  0.19235801  0.11917600  1
  F  F16  1  0.31153102  0.80764203  0.88082395  1
  F  F17  1  0.18965502  0.63137402  0.56098196  1
