# generated using pymatgen
data_CdBi7Se12
_symmetry_space_group_name_H-M   'P 1'
_cell_length_a   4.17112398
_cell_length_b   10.20698929
_cell_length_c   13.42128468
_cell_angle_alpha   90.00000000
_cell_angle_beta   90.00000000
_cell_angle_gamma   90.00000000
_symmetry_Int_Tables_number   1
_chemical_formula_structural   CdBi7Se12
_chemical_formula_sum   'Cd1 Bi7 Se12'
_cell_volume   571.40606544
_cell_formula_units_Z   1
loop_
 _symmetry_equiv_pos_site_id
 _symmetry_equiv_pos_as_xyz
  1  'x, y, z'
loop_
 _atom_site_type_symbol
 _atom_site_label
 _atom_site_symmetry_multiplicity
 _atom_site_fract_x
 _atom_site_fract_y
 _atom_site_fract_z
 _atom_site_occupancy
  Bi  Bi0  1  0.75000000  0.00688800  0.76428702  1
  Cd  Cd1  1  0.75000000  0.50688799  0.73571302  1
  Bi  Bi2  1  0.25000000  0.99311197  0.23571301  1
  Se  Se3  1  0.25000000  0.49311199  0.26428701  1
  Bi  Bi4  1  0.75000000  0.81099398  0.47029401  1
  Bi  Bi5  1  0.25000000  0.68900598  0.97029402  1
  Se  Se6  1  0.75000000  0.31099399  0.02970600  1
  Bi  Bi7  1  0.25000000  0.18900599  0.52970601  1
  Bi  Bi8  1  0.25000000  0.25147999  0.16936300  1
  Se  Se9  1  0.25000000  0.75147998  0.33063701  1
  Se  Se10  1  0.75000000  0.74851998  0.83063702  1
  Bi  Bi11  1  0.75000000  0.55543698  0.11393300  1
  Se  Se12  1  0.75000000  0.24851999  0.66936302  1
  Se  Se13  1  0.25000000  0.94456297  0.61393301  1
  Se  Se14  1  0.25000000  0.44456299  0.88606702  1
  Se  Se15  1  0.75000000  0.05543700  0.38606701  1
  Se  Se16  1  0.25000000  0.07570400  0.89512902  1
  Se  Se17  1  0.75000000  0.92429597  0.10487100  1
  Se  Se18  1  0.75000000  0.42429599  0.39512901  1
  Se  Se19  1  0.25000000  0.57570398  0.60487101  1
