# generated using pymatgen
data_Ho3Co11B4
_symmetry_space_group_name_H-M   'P 1'
_cell_length_a   5.03574610
_cell_length_b   5.03681183
_cell_length_c   9.76403713
_cell_angle_alpha   89.99990845
_cell_angle_beta   89.99981689
_cell_angle_gamma   60.00699615
_symmetry_Int_Tables_number   1
_chemical_formula_structural   Ho3Co11B4
_chemical_formula_sum   'Ho3 Co11 B4'
_cell_volume   214.49156485
_cell_formula_units_Z   1
loop_
 _symmetry_equiv_pos_site_id
 _symmetry_equiv_pos_as_xyz
  1  'x, y, z'
loop_
 _atom_site_type_symbol
 _atom_site_label
 _atom_site_symmetry_multiplicity
 _atom_site_fract_x
 _atom_site_fract_y
 _atom_site_fract_z
 _atom_site_occupancy
  Ho  Ho0  1  0.99997899  0.00000000  0.00004198  1
  Ho  Ho1  1  0.99999499  0.00000000  0.34162597  1
  Ho  Ho2  1  0.00000700  0.00000000  0.65833299  1
  Co  Co3  1  0.66671299  0.66652703  0.00002899  1
  Co  Co4  1  0.33319366  0.33347301  0.00002900  1
  Co  Co5  1  0.50000299  0.00000000  0.49997798  1
  Co  Co6  1  0.00000200  0.50000102  0.50003300  1
  Co  Co7  1  0.50000299  0.49999902  0.50003299  1
  Co  Co8  1  0.50000199  0.00000000  0.20140999  1
  Co  Co9  1  0.99997899  0.50001202  0.20154398  1
  Co  Co10  1  0.49999099  0.49998802  0.20154399  1
  Co  Co11  1  0.50000199  0.00000000  0.79850998  1
  Co  Co12  1  0.00000400  0.49999802  0.79848499  1
  Co  Co13  1  0.50000199  0.50000202  0.79848498  1
  B  B14  1  0.66672399  0.66652403  0.34909499  1
  B  B15  1  0.33319066  0.33347601  0.34909499  1
  B  B16  1  0.33342200  0.33316401  0.65086599  1
  B  B17  1  0.66658499  0.66683603  0.65086598  1
