# generated using pymatgen
data_Sr4InF9
_symmetry_space_group_name_H-M   'P 1'
_cell_length_a   3.66951299
_cell_length_b   6.20545483
_cell_length_c   10.43869114
_cell_angle_alpha   90.31692505
_cell_angle_beta   90.00000000
_cell_angle_gamma   90.00000000
_symmetry_Int_Tables_number   1
_chemical_formula_structural   Sr4InF9
_chemical_formula_sum   'Sr4 In1 F9'
_cell_volume   237.69576907
_cell_formula_units_Z   1
loop_
 _symmetry_equiv_pos_site_id
 _symmetry_equiv_pos_as_xyz
  1  'x, y, z'
loop_
 _atom_site_type_symbol
 _atom_site_label
 _atom_site_symmetry_multiplicity
 _atom_site_fract_x
 _atom_site_fract_y
 _atom_site_fract_z
 _atom_site_occupancy
  Sr  Sr0  1  0.50000000  0.56469900  0.82188300  1
  Sr  Sr1  1  0.50000000  0.43530100  0.17811699  1
  Sr  Sr2  1  0.50000000  0.06583800  0.67709201  1
  Sr  Sr3  1  0.50000000  0.93416200  0.32290798  1
  In  In4  1  0.00000000  0.50000000  0.49999999  1
  F  F5  1  0.00000000  0.00000000  0.00000000  1
  F  F6  1  0.00000000  0.35870300  0.69109200  1
  F  F7  1  0.00000000  0.64129700  0.30890799  1
  F  F8  1  0.00000000  0.85205000  0.79359699  1
  F  F9  1  0.00000000  0.14795000  0.20640300  1
  F  F10  1  0.50000000  0.72610900  0.54041999  1
  F  F11  1  0.50000000  0.27389100  0.45958000  1
  F  F12  1  0.50000000  0.24107700  0.95611501  1
  F  F13  1  0.50000000  0.75892300  0.04388498  1
