# generated using pymatgen
data_CsAg7S8
_symmetry_space_group_name_H-M   'P 1'
_cell_length_a   6.37993717
_cell_length_b   7.42394018
_cell_length_c   9.30308723
_cell_angle_alpha   90.00000000
_cell_angle_beta   103.03357697
_cell_angle_gamma   90.00000000
_symmetry_Int_Tables_number   1
_chemical_formula_structural   CsAg7S8
_chemical_formula_sum   'Cs1 Ag7 S8'
_cell_volume   429.28237235
_cell_formula_units_Z   1
loop_
 _symmetry_equiv_pos_site_id
 _symmetry_equiv_pos_as_xyz
  1  'x, y, z'
loop_
 _atom_site_type_symbol
 _atom_site_label
 _atom_site_symmetry_multiplicity
 _atom_site_fract_x
 _atom_site_fract_y
 _atom_site_fract_z
 _atom_site_occupancy
  Cs  Cs0  1  0.74623898  0.74999998  0.94894803  1
  Ag  Ag1  1  0.25376099  0.24999999  0.05105200  1
  S  S2  1  0.88963598  0.74999998  0.39080602  1
  S  S3  1  0.11036400  0.24999999  0.60919402  1
  S  S4  1  0.49999999  0.49999999  0.50000002  1
  S  S5  1  0.49999999  0.99999998  0.50000002  1
  S  S6  1  0.95521598  0.24999999  0.34842902  1
  Ag  Ag7  1  0.31373499  0.99116098  0.70890202  1
  Ag  Ag8  1  0.27352899  0.74999998  0.36725701  1
  Ag  Ag9  1  0.72647098  0.24999999  0.63274302  1
  Ag  Ag10  1  0.31373499  0.50883899  0.70890202  1
  S  S11  1  0.70072398  0.24999999  0.88452903  1
  S  S12  1  0.29927599  0.74999998  0.11547101  1
  S  S13  1  0.04478400  0.74999998  0.65157102  1
  Ag  Ag14  1  0.68626498  0.00883900  0.29109801  1
  Ag  Ag15  1  0.68626498  0.49116099  0.29109801  1
