# generated using pymatgen
data_BaGe6
_symmetry_space_group_name_H-M   'P 1'
_cell_length_a   4.86648989
_cell_length_b   5.98210335
_cell_length_c   12.48049736
_cell_angle_alpha   90.00000000
_cell_angle_beta   90.00000000
_cell_angle_gamma   114.00109100
_symmetry_Int_Tables_number   1
_chemical_formula_structural   BaGe6
_chemical_formula_sum   'Ba2 Ge12'
_cell_volume   331.91594052
_cell_formula_units_Z   2
loop_
 _symmetry_equiv_pos_site_id
 _symmetry_equiv_pos_as_xyz
  1  'x, y, z'
loop_
 _atom_site_type_symbol
 _atom_site_label
 _atom_site_symmetry_multiplicity
 _atom_site_fract_x
 _atom_site_fract_y
 _atom_site_fract_z
 _atom_site_occupancy
  Ba  Ba0  1  0.26946097  0.53892200  0.74999998  1
  Ba  Ba1  1  0.73053899  0.46107800  0.24999999  1
  Ge  Ge2  1  0.24878897  0.49757800  0.03628600  1
  Ge  Ge3  1  0.75121098  0.50242200  0.96371397  1
  Ge  Ge4  1  0.24878897  0.49757800  0.46371399  1
  Ge  Ge5  1  0.75121098  0.50242200  0.53628598  1
  Ge  Ge6  1  0.44540695  0.89081400  0.14558400  1
  Ge  Ge7  1  0.55459301  0.10918600  0.85441598  1
  Ge  Ge8  1  0.44540695  0.89081400  0.35441599  1
  Ge  Ge9  1  0.55459301  0.10918600  0.64558398  1
  Ge  Ge10  1  0.02405500  0.04811000  0.10080600  1
  Ge  Ge11  1  0.97594496  0.95189000  0.89919397  1
  Ge  Ge12  1  0.02405500  0.04811000  0.39919399  1
  Ge  Ge13  1  0.97594496  0.95189000  0.60080598  1
