# generated using pymatgen
data_Ga
_symmetry_space_group_name_H-M   'P 1'
_cell_length_a   6.36416340
_cell_length_b   6.36416340
_cell_length_c   7.39172316
_cell_angle_alpha   115.30275726
_cell_angle_beta   115.30275726
_cell_angle_gamma   90.41142273
_symmetry_Int_Tables_number   1
_chemical_formula_structural   Ga
_chemical_formula_sum   Ga16
_cell_volume   238.00189164
_cell_formula_units_Z   16
loop_
 _symmetry_equiv_pos_site_id
 _symmetry_equiv_pos_as_xyz
  1  'x, y, z'
loop_
 _atom_site_type_symbol
 _atom_site_label
 _atom_site_symmetry_multiplicity
 _atom_site_fract_x
 _atom_site_fract_y
 _atom_site_fract_z
 _atom_site_occupancy
  Ga  Ga0  1  0.52671003  0.53606301  0.71677106  1
  Ga  Ga1  1  0.18070801  0.19006100  0.71677102  1
  Ga  Ga2  1  0.03048104  0.69325001  0.72373105  1
  Ga  Ga3  1  0.69952600  0.01677600  0.71630203  1
  Ga  Ga4  1  0.46393703  0.47329001  0.28322905  1
  Ga  Ga5  1  0.80993905  0.81929201  0.28322909  1
  Ga  Ga6  1  0.98322402  0.30047400  0.28369806  1
  Ga  Ga7  1  0.30675006  0.96951901  0.27626908  1
  Ga  Ga8  1  0.49861906  0.99391601  0.00000008  1
  Ga  Ga9  1  0.00608403  0.50138101  0.00000003  1
  Ga  Ga10  1  0.61967502  0.38032500  1.00000005  1
  Ga  Ga11  1  0.24656804  0.75343201  0.50000006  1
  Ga  Ga12  1  0.74656801  0.25343200  0.50000005  1
  Ga  Ga13  1  0.88674005  0.88324101  0.00000009  1
  Ga  Ga14  1  0.11675901  0.11326000  0.00000001  1
  Ga  Ga15  1  0.37771604  0.62228401  0.00000006  1
