# generated using pymatgen
data_LiV3OF10
_symmetry_space_group_name_H-M   'P 1'
_cell_length_a   5.67934799
_cell_length_b   5.76960802
_cell_length_c   5.73801613
_cell_angle_alpha   60.55324936
_cell_angle_beta   61.05698395
_cell_angle_gamma   60.77621078
_symmetry_Int_Tables_number   1
_chemical_formula_structural   LiV3OF10
_chemical_formula_sum   'Li1 V3 O1 F10'
_cell_volume   135.33135884
_cell_formula_units_Z   1
loop_
 _symmetry_equiv_pos_site_id
 _symmetry_equiv_pos_as_xyz
  1  'x, y, z'
loop_
 _atom_site_type_symbol
 _atom_site_label
 _atom_site_symmetry_multiplicity
 _atom_site_fract_x
 _atom_site_fract_y
 _atom_site_fract_z
 _atom_site_occupancy
  O  O0  1  0.50000002  0.00000000  0.50000000  1
  F  F1  1  -0.00000001  0.50000001  0.50000000  1
  F  F2  1  0.50000001  0.50000001  0.00000001  1
  F  F3  1  0.00000000  0.00000000  0.00000000  1
  F  F4  1  0.50000002  0.00000000  0.00000000  1
  F  F5  1  0.00000000  0.00000000  0.50000000  1
  F  F6  1  -0.00000001  0.50000001  0.00000000  1
  F  F7  1  0.20862500  0.76861002  0.77617300  1
  F  F8  1  0.75605602  0.78341002  0.22021901  1
  F  F9  1  0.74521902  0.75746302  0.77475001  1
  Li  Li10  1  0.24118200  0.78786902  0.22390901  1
  F  F11  1  0.75881803  0.21213101  0.77609100  1
  V  V12  1  0.25478101  0.24253701  0.22525000  1
  V  V13  1  0.24394401  0.21659001  0.77978100  1
  V  V14  1  0.79137503  0.23139001  0.22382700  1
