# generated using pymatgen
data_TbAu2
_symmetry_space_group_name_H-M   'P 1'
_cell_length_a   4.67449808
_cell_length_b   5.75581980
_cell_length_c   5.94700813
_cell_angle_alpha   77.43810272
_cell_angle_beta   66.85791779
_cell_angle_gamma   66.04198456
_symmetry_Int_Tables_number   1
_chemical_formula_structural   TbAu2
_chemical_formula_sum   'Tb2 Au4'
_cell_volume   134.13626724
_cell_formula_units_Z   2
loop_
 _symmetry_equiv_pos_site_id
 _symmetry_equiv_pos_as_xyz
  1  'x, y, z'
loop_
 _atom_site_type_symbol
 _atom_site_label
 _atom_site_symmetry_multiplicity
 _atom_site_fract_x
 _atom_site_fract_y
 _atom_site_fract_z
 _atom_site_occupancy
  Tb  Tb0  1  0.53194799  0.22662699  0.70947700  1
  Tb  Tb1  1  0.46805197  0.77337298  0.29052301  1
  Au  Au2  1  0.84124998  0.20586600  0.11163399  1
  Au  Au3  1  0.15874997  0.79413398  0.88836602  1
  Au  Au4  1  0.17230199  0.37927899  0.27611701  1
  Au  Au5  1  0.82769797  0.62072099  0.72388300  1
