# generated using pymatgen
data_EuP11
_symmetry_space_group_name_H-M   'P 1'
_cell_length_a   3.93530798
_cell_length_b   5.30458069
_cell_length_c   9.97157860
_cell_angle_alpha   74.69997406
_cell_angle_beta   78.61935425
_cell_angle_gamma   68.22671509
_symmetry_Int_Tables_number   1
_chemical_formula_structural   EuP11
_chemical_formula_sum   'Eu1 P11'
_cell_volume   185.30402160
_cell_formula_units_Z   1
loop_
 _symmetry_equiv_pos_site_id
 _symmetry_equiv_pos_as_xyz
  1  'x, y, z'
loop_
 _atom_site_type_symbol
 _atom_site_label
 _atom_site_symmetry_multiplicity
 _atom_site_fract_x
 _atom_site_fract_y
 _atom_site_fract_z
 _atom_site_occupancy
  P  P0  1  0.27843500  0.23756501  0.20556499  1
  P  P1  1  0.72156500  0.76243502  0.79443496  1
  P  P2  1  0.88086600  0.80758302  0.43068498  1
  P  P3  1  0.11913400  0.19241700  0.56931498  1
  Eu  Eu4  1  0.61498100  0.67574101  0.09429699  1
  P  P5  1  0.38501900  0.32425901  0.90570297  1
  P  P6  1  0.84924300  0.04746800  0.25404600  1
  P  P7  1  0.15075700  0.95253202  0.74595395  1
  P  P8  1  0.66759400  0.10029400  0.56451799  1
  P  P9  1  0.33240600  0.89970602  0.43548197  1
  P  P10  1  0.92259600  0.53106201  0.62374598  1
  P  P11  1  0.07740400  0.46893801  0.37625398  1
