# generated using pymatgen
data_Bi
_symmetry_space_group_name_H-M   'P 1'
_cell_length_a   4.68243551
_cell_length_b   4.68243551
_cell_length_c   22.11188126
_cell_angle_alpha   83.92210388
_cell_angle_beta   83.92210388
_cell_angle_gamma   60.00000763
_symmetry_Int_Tables_number   1
_chemical_formula_structural   Bi
_chemical_formula_sum   Bi9
_cell_volume   416.70589371
_cell_formula_units_Z   9
loop_
 _symmetry_equiv_pos_site_id
 _symmetry_equiv_pos_as_xyz
  1  'x, y, z'
loop_
 _atom_site_type_symbol
 _atom_site_label
 _atom_site_symmetry_multiplicity
 _atom_site_fract_x
 _atom_site_fract_y
 _atom_site_fract_z
 _atom_site_occupancy
  Bi  Bi0  1  0.00000000  0.00000000  0.00000000  1
  Bi  Bi1  1  0.55554000  0.55554000  0.33337999  1
  Bi  Bi2  1  0.44446000  0.44446000  0.66661998  1
  Bi  Bi3  1  0.08234300  0.08234300  0.75297098  1
  Bi  Bi4  1  0.30458100  0.30458100  0.08625700  1
  Bi  Bi5  1  0.80658700  0.80658699  0.58023898  1
  Bi  Bi6  1  0.19341300  0.19341300  0.41976099  1
  Bi  Bi7  1  0.91765700  0.91765699  0.24702899  1
  Bi  Bi8  1  0.69541900  0.69541899  0.91374297  1
