# generated using pymatgen
data_Li4F5
_symmetry_space_group_name_H-M   'P 1'
_cell_length_a   4.68029404
_cell_length_b   5.27822447
_cell_length_c   4.70274115
_cell_angle_alpha   82.93614197
_cell_angle_beta   73.89655304
_cell_angle_gamma   63.68161774
_symmetry_Int_Tables_number   1
_chemical_formula_structural   Li4F5
_chemical_formula_sum   'Li4 F5'
_cell_volume   100.04673649
_cell_formula_units_Z   1
loop_
 _symmetry_equiv_pos_site_id
 _symmetry_equiv_pos_as_xyz
  1  'x, y, z'
loop_
 _atom_site_type_symbol
 _atom_site_label
 _atom_site_symmetry_multiplicity
 _atom_site_fract_x
 _atom_site_fract_y
 _atom_site_fract_z
 _atom_site_occupancy
  Li  Li0  1  0.46294999  0.07410000  0.50000001  1
  F  F1  1  0.96550598  0.06898800  0.00000004  1
  Li  Li2  1  0.04139395  0.91721199  0.50000003  1
  Li  Li3  1  0.74483996  0.51031999  0.50000004  1
  Li  Li4  1  0.25135397  0.49729199  0.00000004  1
  F  F5  1  0.12042799  0.23472500  0.26526301  1
  F  F6  1  0.87504294  0.77431999  0.26912607  1
  F  F7  1  0.35063695  0.77431999  0.73087403  1
  F  F8  1  0.64484698  0.23472500  0.73473702  1
