# generated using pymatgen
data_Lu5Ga3
_symmetry_space_group_name_H-M   'P 1'
_cell_length_a   6.29347086
_cell_length_b   8.45178032
_cell_length_c   8.45177937
_cell_angle_alpha   120.00000000
_cell_angle_beta   90.00000000
_cell_angle_gamma   90.00000000
_symmetry_Int_Tables_number   1
_chemical_formula_structural   Lu5Ga3
_chemical_formula_sum   'Lu10 Ga6'
_cell_volume   389.32940747
_cell_formula_units_Z   2
loop_
 _symmetry_equiv_pos_site_id
 _symmetry_equiv_pos_as_xyz
  1  'x, y, z'
loop_
 _atom_site_type_symbol
 _atom_site_label
 _atom_site_symmetry_multiplicity
 _atom_site_fract_x
 _atom_site_fract_y
 _atom_site_fract_z
 _atom_site_occupancy
  Lu  Lu0  1  -0.00000000  0.33333332  0.66666670  1
  Lu  Lu1  1  1.00000002  0.66666664  0.33333334  1
  Lu  Lu2  1  0.50000001  0.66666664  0.33333334  1
  Lu  Lu3  1  0.50000001  0.33333332  0.66666670  1
  Lu  Lu4  1  0.25000001  0.24702099  -0.00000000  1
  Lu  Lu5  1  0.25000001  0.75297897  0.75297903  1
  Lu  Lu6  1  0.25000001  0.00000000  0.24702101  1
  Lu  Lu7  1  0.75000002  0.75297897  -0.00000001  1
  Lu  Lu8  1  0.75000002  0.24702099  0.24702101  1
  Lu  Lu9  1  0.75000002  0.00000000  0.75297904  1
  Ga  Ga10  1  0.25000001  0.60605097  1.00000005  1
  Ga  Ga11  1  0.25000001  0.39394898  0.39394902  1
  Ga  Ga12  1  0.25000001  0.00000000  0.60605103  1
  Ga  Ga13  1  0.75000002  0.39394898  -0.00000001  1
  Ga  Ga14  1  0.75000002  0.60605097  0.60605103  1
  Ga  Ga15  1  0.75000002  0.00000000  0.39394902  1
