# generated using pymatgen
data_BaEu7(GaS4)2
_symmetry_space_group_name_H-M   'P 1'
_cell_length_a   6.48148632
_cell_length_b   8.03837109
_cell_length_c   8.03837109
_cell_angle_alpha   76.09320831
_cell_angle_beta   89.15362549
_cell_angle_gamma   89.15362549
_symmetry_Int_Tables_number   1
_chemical_formula_structural   BaEu7(GaS4)2
_chemical_formula_sum   'Ba1 Eu7 Ga2 S8'
_cell_volume   406.45639268
_cell_formula_units_Z   1
loop_
 _symmetry_equiv_pos_site_id
 _symmetry_equiv_pos_as_xyz
  1  'x, y, z'
loop_
 _atom_site_type_symbol
 _atom_site_label
 _atom_site_symmetry_multiplicity
 _atom_site_fract_x
 _atom_site_fract_y
 _atom_site_fract_z
 _atom_site_occupancy
  Ba  Ba0  1  0.97303403  0.75169998  0.00522901  1
  Eu  Eu1  1  0.52696605  0.99477097  0.24829997  1
  Eu  Eu2  1  0.02696601  0.24829999  0.99477095  1
  Eu  Eu3  1  0.47303400  0.00522900  0.75169999  1
  Eu  Eu4  1  0.25000003  0.60025898  0.39974097  1
  Eu  Eu5  1  0.75000002  0.39974099  0.60025899  1
  Ga  Ga6  1  0.40974403  0.58065398  0.82463896  1
  Eu  Eu7  1  0.09025601  0.17536099  0.41934598  1
  Ga  Ga8  1  0.59025602  0.41934599  0.17536100  1
  Eu  Eu9  1  0.90974404  0.82463898  0.58065398  1
  S  S10  1  0.47832103  0.71618198  0.05897599  1
  S  S11  1  0.02167904  0.94102397  0.28381795  1
  S  S12  1  0.52167901  0.28381799  0.94102397  1
  S  S13  1  0.97832100  0.05897600  0.71618201  1
  S  S14  1  0.06106903  0.56511798  0.74281195  1
  S  S15  1  0.43893101  0.25718799  0.43488199  1
  S  S16  1  0.93893102  0.43488199  0.25718801  1
  S  S17  1  0.56106903  0.74281198  0.56511797  1
