# generated using pymatgen
data_BaGaP
_symmetry_space_group_name_H-M   'P 1'
_cell_length_a   3.91420603
_cell_length_b   4.15558815
_cell_length_c   10.78092861
_cell_angle_alpha   93.10865021
_cell_angle_beta   90.00000000
_cell_angle_gamma   118.09642792
_symmetry_Int_Tables_number   1
_chemical_formula_structural   BaGaP
_chemical_formula_sum   'Ba2 Ga2 P2'
_cell_volume   154.40298568
_cell_formula_units_Z   2
loop_
 _symmetry_equiv_pos_site_id
 _symmetry_equiv_pos_as_xyz
  1  'x, y, z'
loop_
 _atom_site_type_symbol
 _atom_site_label
 _atom_site_symmetry_multiplicity
 _atom_site_fract_x
 _atom_site_fract_y
 _atom_site_fract_z
 _atom_site_occupancy
  P  P0  1  0.14659499  0.29319000  0.12842101  1
  P  P1  1  0.85340497  0.70681001  0.87157904  1
  Ga  Ga2  1  0.57661899  0.15323800  0.97000204  1
  Ga  Ga3  1  0.42338097  0.84676201  0.02999802  1
  Ba  Ba4  1  0.17485799  0.34971600  0.67557103  1
  Ba  Ba5  1  0.82514197  0.65028401  0.32442902  1
