# generated using pymatgen
data_MnBi5TeO13
_symmetry_space_group_name_H-M   'P 1'
_cell_length_a   5.57678747
_cell_length_b   5.59750366
_cell_length_c   9.63609123
_cell_angle_alpha   73.44907379
_cell_angle_beta   89.83663177
_cell_angle_gamma   60.13194275
_symmetry_Int_Tables_number   1
_chemical_formula_structural   MnBi5TeO13
_chemical_formula_sum   'Mn1 Bi5 Te1 O13'
_cell_volume   246.51800763
_cell_formula_units_Z   1
loop_
 _symmetry_equiv_pos_site_id
 _symmetry_equiv_pos_as_xyz
  1  'x, y, z'
loop_
 _atom_site_type_symbol
 _atom_site_label
 _atom_site_symmetry_multiplicity
 _atom_site_fract_x
 _atom_site_fract_y
 _atom_site_fract_z
 _atom_site_occupancy
  Bi  Bi0  1  0.09866702  0.78819596  0.36424498  1
  Bi  Bi1  1  0.59816003  0.78994596  0.86420097  1
  Bi  Bi2  1  0.34822701  0.28878799  0.11493200  1
  Bi  Bi3  1  0.84954701  0.28627199  0.61437399  1
  Bi  Bi4  1  0.24905801  0.48761698  0.74714997  1
  Mn  Mn5  1  0.74669002  0.49171598  0.24685999  1
  O  O6  1  0.00256403  0.97997595  0.99902895  1
  Te  Te7  1  0.50302803  0.97852495  0.49930298  1
  O  O8  1  0.60482501  0.20568899  0.92226397  1
  O  O9  1  0.10549901  0.20549599  0.42181498  1
  O  O10  1  0.97318801  0.20721599  0.12369600  1
  O  O11  1  0.47301001  0.20695799  0.62369398  1
  O  O12  1  0.09055001  0.20476999  0.83790397  1
  O  O13  1  0.59179901  0.20333199  0.33814699  1
  O  O14  1  0.40841402  0.71988297  0.07628299  1
  O  O15  1  0.90866603  0.71985797  0.57654098  1
  O  O16  1  0.94343203  0.72096797  0.16378100  1
  O  O17  1  0.44314702  0.72097897  0.66381097  1
  O  O18  1  0.04614702  0.71691697  0.88825596  1
  O  O19  1  0.54653302  0.71536097  0.38871398  1
