# generated using pymatgen
data_Al(Co3B)2
_symmetry_space_group_name_H-M   'P 1'
_cell_length_a   3.86334491
_cell_length_b   3.86334491
_cell_length_c   7.75026894
_cell_angle_alpha   90.00000000
_cell_angle_beta   90.00000000
_cell_angle_gamma   90.00000000
_symmetry_Int_Tables_number   1
_chemical_formula_structural   Al(Co3B)2
_chemical_formula_sum   'Al1 Co6 B2'
_cell_volume   115.67612653
_cell_formula_units_Z   1
loop_
 _symmetry_equiv_pos_site_id
 _symmetry_equiv_pos_as_xyz
  1  'x, y, z'
loop_
 _atom_site_type_symbol
 _atom_site_label
 _atom_site_symmetry_multiplicity
 _atom_site_fract_x
 _atom_site_fract_y
 _atom_site_fract_z
 _atom_site_occupancy
  Co  Co0  1  0.00000000  0.00000000  0.50000000  1
  Co  Co1  1  0.00000000  0.50000001  0.27764200  1
  Co  Co2  1  0.00000000  0.50000001  0.72235801  1
  Co  Co3  1  0.50000001  0.00000000  0.27764200  1
  Co  Co4  1  0.50000001  0.00000000  0.72235801  1
  Co  Co5  1  0.00000000  0.00000000  0.00000000  1
  Al  Al6  1  0.50000001  0.50000001  0.50000000  1
  B  B7  1  0.00000000  0.00000000  0.23510100  1
  B  B8  1  0.00000000  0.00000000  0.76489901  1
