# generated using pymatgen
data_Hg
_symmetry_space_group_name_H-M   'P 1'
_cell_length_a   6.28579998
_cell_length_b   7.65334940
_cell_length_c   7.65334940
_cell_angle_alpha   80.29130554
_cell_angle_beta   65.75389862
_cell_angle_gamma   65.75389862
_symmetry_Int_Tables_number   1
_chemical_formula_structural   Hg
_chemical_formula_sum   Hg10
_cell_volume   306.09291488
_cell_formula_units_Z   10
loop_
 _symmetry_equiv_pos_site_id
 _symmetry_equiv_pos_as_xyz
  1  'x, y, z'
loop_
 _atom_site_type_symbol
 _atom_site_label
 _atom_site_symmetry_multiplicity
 _atom_site_fract_x
 _atom_site_fract_y
 _atom_site_fract_z
 _atom_site_occupancy
  Hg  Hg0  1  0.40107197  0.80012600  0.39773005  1
  Hg  Hg1  1  0.79880198  0.60227000  0.80012603  1
  Hg  Hg2  1  0.20119798  0.39773000  0.19987403  1
  Hg  Hg3  1  0.59892799  0.19987400  0.60227001  1
  Hg  Hg4  1  0.00000000  0.00000000  0.00000000  1
  Hg  Hg5  1  0.28559497  0.62056600  0.80824404  1
  Hg  Hg6  1  0.71440499  0.37943400  0.19175602  1
  Hg  Hg7  1  0.09383899  0.19175600  0.62056601  1
  Hg  Hg8  1  0.50000000  0.00000000  -0.00000000  1
  Hg  Hg9  1  0.90616097  0.80824400  0.37943405  1
