# generated using pymatgen
data_Bi6BrO3F10
_symmetry_space_group_name_H-M   'P 1'
_cell_length_a   6.72602844
_cell_length_b   6.72602844
_cell_length_c   6.72602844
_cell_angle_alpha   90.59809113
_cell_angle_beta   90.59809113
_cell_angle_gamma   90.59809875
_symmetry_Int_Tables_number   1
_chemical_formula_structural   Bi6BrO3F10
_chemical_formula_sum   'Bi6 Br1 O3 F10'
_cell_volume   304.23180209
_cell_formula_units_Z   1
loop_
 _symmetry_equiv_pos_site_id
 _symmetry_equiv_pos_as_xyz
  1  'x, y, z'
loop_
 _atom_site_type_symbol
 _atom_site_label
 _atom_site_symmetry_multiplicity
 _atom_site_fract_x
 _atom_site_fract_y
 _atom_site_fract_z
 _atom_site_occupancy
  Bi  Bi0  1  0.93153397  0.93153399  0.93153393  1
  Bi  Bi1  1  0.07176799  0.42721900  0.56943599  1
  Bi  Bi2  1  0.56943599  0.07176800  0.42721898  1
  Bi  Bi3  1  0.42721898  0.56943600  0.07176795  1
  Br  Br4  1  0.59016298  0.59016299  0.59016295  1
  Bi  Bi5  1  0.41876299  0.08025100  0.91844100  1
  F  F6  1  0.91844098  0.41876300  0.08025093  1
  Bi  Bi7  1  0.08025098  0.91844099  0.41876296  1
  O  O8  1  0.39272198  0.49237900  0.70932697  1
  O  O9  1  0.70932698  0.39272200  0.49237896  1
  O  O10  1  0.49237898  0.70932699  0.39272195  1
  F  F11  1  0.59312597  0.99477799  0.80633794  1
  F  F12  1  0.30425297  0.90572299  0.00061393  1
  F  F13  1  0.50418499  0.19572800  0.09325096  1
  F  F14  1  0.09325099  0.50418500  0.19572797  1
  F  F15  1  0.80633798  0.59312599  0.99477796  1
  F  F16  1  0.00061399  0.30425300  0.90572301  1
  F  F17  1  0.90572299  0.00061400  0.30425296  1
  F  F18  1  0.19572800  0.09325100  0.50418500  1
  F  F19  1  0.99477797  0.80633799  0.59312592  1
