# generated using pymatgen
data_BaHg7
_symmetry_space_group_name_H-M   'P 1'
_cell_length_a   8.66345596
_cell_length_b   8.66345596
_cell_length_c   10.42247009
_cell_angle_alpha   114.55801392
_cell_angle_beta   114.55801392
_cell_angle_gamma   90.00000000
_symmetry_Int_Tables_number   1
_chemical_formula_structural   BaHg7
_chemical_formula_sum   'Ba2 Hg14'
_cell_volume   632.87445117
_cell_formula_units_Z   2
loop_
 _symmetry_equiv_pos_site_id
 _symmetry_equiv_pos_as_xyz
  1  'x, y, z'
loop_
 _atom_site_type_symbol
 _atom_site_label
 _atom_site_symmetry_multiplicity
 _atom_site_fract_x
 _atom_site_fract_y
 _atom_site_fract_z
 _atom_site_occupancy
  Ba  Ba0  1  0.97885408  0.81583703  0.29469110  1
  Hg  Hg1  1  0.47885407  0.97885404  0.29469109  1
  Hg  Hg2  1  0.68416305  0.52114602  0.70530905  1
  Hg  Hg3  1  0.00000000  0.00000000  0.00000000  1
  Hg  Hg4  1  0.18416305  0.68416303  0.70530904  1
  Hg  Hg5  1  0.81583704  0.31583701  0.29469105  1
  Ba  Ba6  1  0.31583704  0.47885402  0.29469104  1
  Hg  Hg7  1  0.52114602  0.02114600  0.70530901  1
  Hg  Hg8  1  0.50000004  0.50000002  0.00000006  1
  Hg  Hg9  1  0.02114601  0.18416301  0.70530899  1
  Hg  Hg10  1  0.12247304  0.62247303  1.00000002  1
  Hg  Hg11  1  0.37752702  0.12247301  0.00000003  1
  Hg  Hg12  1  0.62247307  0.87752704  0.00000009  1
  Hg  Hg13  1  0.75000007  0.75000003  0.50000008  1
  Hg  Hg14  1  0.87752705  0.37752702  0.00000007  1
  Hg  Hg15  1  0.25000002  0.25000001  0.50000002  1
