# generated using pymatgen
data_Na(InP)2
_symmetry_space_group_name_H-M   'P 1'
_cell_length_a   4.19677782
_cell_length_b   4.19677877
_cell_length_c   7.03991699
_cell_angle_alpha   90.00000000
_cell_angle_beta   90.00000000
_cell_angle_gamma   119.99999237
_symmetry_Int_Tables_number   1
_chemical_formula_structural   Na(InP)2
_chemical_formula_sum   'Na1 In2 P2'
_cell_volume   107.38169583
_cell_formula_units_Z   1
loop_
 _symmetry_equiv_pos_site_id
 _symmetry_equiv_pos_as_xyz
  1  'x, y, z'
loop_
 _atom_site_type_symbol
 _atom_site_label
 _atom_site_symmetry_multiplicity
 _atom_site_fract_x
 _atom_site_fract_y
 _atom_site_fract_z
 _atom_site_occupancy
  Na  Na0  1  0.00000000  0.00000000  0.00000000  1
  In  In1  1  0.66666667  0.33333330  0.36898200  1
  In  In2  1  0.33333330  0.66666661  0.63101800  1
  P  P3  1  0.66666667  0.33333330  0.74235200  1
  P  P4  1  0.33333330  0.66666661  0.25764800  1
