# generated using pymatgen
data_In3Te2
_symmetry_space_group_name_H-M   'P 1'
_cell_length_a   5.75700140
_cell_length_b   5.75958920
_cell_length_c   5.75958920
_cell_angle_alpha   88.85990143
_cell_angle_beta   89.83363342
_cell_angle_gamma   89.83363342
_symmetry_Int_Tables_number   1
_chemical_formula_structural   In3Te2
_chemical_formula_sum   'In3 Te2'
_cell_volume   190.93686015
_cell_formula_units_Z   1
loop_
 _symmetry_equiv_pos_site_id
 _symmetry_equiv_pos_as_xyz
  1  'x, y, z'
loop_
 _atom_site_type_symbol
 _atom_site_label
 _atom_site_symmetry_multiplicity
 _atom_site_fract_x
 _atom_site_fract_y
 _atom_site_fract_z
 _atom_site_occupancy
  Te  Te0  1  0.08081801  0.10426400  0.10426400  1
  Te  Te1  1  0.49971504  0.50111900  0.50111901  1
  In  In2  1  0.00167902  0.46046900  0.46046899  1
  In  In3  1  0.45503606  0.99884100  0.44510700  1
  In  In4  1  0.45503604  0.44510700  0.99884101  1
