# generated using pymatgen
data_HoInAu
_symmetry_space_group_name_H-M   'P 1'
_cell_length_a   4.75200987
_cell_length_b   4.75200987
_cell_length_c   7.44060993
_cell_angle_alpha   90.00000000
_cell_angle_beta   90.00000000
_cell_angle_gamma   120.00000000
_symmetry_Int_Tables_number   1
_chemical_formula_structural   HoInAu
_chemical_formula_sum   'Ho2 In2 Au2'
_cell_volume   145.51033382
_cell_formula_units_Z   2
loop_
 _symmetry_equiv_pos_site_id
 _symmetry_equiv_pos_as_xyz
  1  'x, y, z'
loop_
 _atom_site_type_symbol
 _atom_site_label
 _atom_site_symmetry_multiplicity
 _atom_site_fract_x
 _atom_site_fract_y
 _atom_site_fract_z
 _atom_site_occupancy
  Ho  Ho0  1  0.00000000  0.00000000  0.27337700  1
  Ho  Ho1  1  0.00000000  0.00000000  0.77337701  1
  Au  Au2  1  0.33333331  0.66666662  0.46147700  1
  Au  Au3  1  0.66666667  0.33333331  0.96147701  1
  In  In4  1  0.66666667  0.33333331  0.55314601  1
  In  In5  1  0.33333331  0.66666662  0.05314600  1
