# generated using pymatgen
data_Cr4InAgSe8
_symmetry_space_group_name_H-M   'P 1'
_cell_length_a   5.98511219
_cell_length_b   6.47521925
_cell_length_c   7.00711298
_cell_angle_alpha   90.00000000
_cell_angle_beta   90.00000000
_cell_angle_gamma   91.98439026
_symmetry_Int_Tables_number   1
_chemical_formula_structural   Cr4InAgSe8
_chemical_formula_sum   'Cr4 In1 Ag1 Se8'
_cell_volume   271.39720347
_cell_formula_units_Z   1
loop_
 _symmetry_equiv_pos_site_id
 _symmetry_equiv_pos_as_xyz
  1  'x, y, z'
loop_
 _atom_site_type_symbol
 _atom_site_label
 _atom_site_symmetry_multiplicity
 _atom_site_fract_x
 _atom_site_fract_y
 _atom_site_fract_z
 _atom_site_occupancy
  Cr  Cr0  1  -0.00000001  0.50000000  0.50000000  1
  Cr  Cr1  1  0.49999997  0.50000000  0.75067400  1
  Cr  Cr2  1  0.49999997  0.50000000  0.24932600  1
  Cr  Cr3  1  -0.00000001  0.50000000  -0.00000000  1
  In  In4  1  0.00000000  0.00000000  0.00000000  1
  Ag  Ag5  1  -0.00000000  0.00000000  0.50000000  1
  Se  Se6  1  0.67120396  0.69996200  1.00000000  1
  Se  Se7  1  0.66318096  0.71525999  0.50000000  1
  Se  Se8  1  0.17839498  0.71638599  0.75647000  1
  Se  Se9  1  0.17839498  0.71638599  0.24353000  1
  Se  Se10  1  0.82160497  0.28361400  0.75647000  1
  Se  Se11  1  0.82160497  0.28361400  0.24353000  1
  Se  Se12  1  0.33681898  0.28474000  0.50000000  1
  Se  Se13  1  0.32879598  0.30003800  -0.00000000  1
