# generated using pymatgen
data_CoB3Mo2
_symmetry_space_group_name_H-M   'P 1'
_cell_length_a   4.37678194
_cell_length_b   4.37678242
_cell_length_c   7.15653706
_cell_angle_alpha   90.00000000
_cell_angle_beta   90.00000000
_cell_angle_gamma   119.99999237
_symmetry_Int_Tables_number   1
_chemical_formula_structural   CoB3Mo2
_chemical_formula_sum   'Co2 B6 Mo4'
_cell_volume   118.72534939
_cell_formula_units_Z   2
loop_
 _symmetry_equiv_pos_site_id
 _symmetry_equiv_pos_as_xyz
  1  'x, y, z'
loop_
 _atom_site_type_symbol
 _atom_site_label
 _atom_site_symmetry_multiplicity
 _atom_site_fract_x
 _atom_site_fract_y
 _atom_site_fract_z
 _atom_site_occupancy
  B  B0  1  0.00000000  0.00000000  0.00000000  1
  B  B1  1  0.00000000  0.00000000  0.50000000  1
  B  B2  1  0.16883094  0.83116899  0.74999999  1
  B  B3  1  0.83116896  0.66233799  0.25000000  1
  Co  Co4  1  0.33766199  0.16883100  0.25000000  1
  B  B5  1  0.66233795  0.83116899  0.74999999  1
  Co  Co6  1  0.16883098  0.33766200  0.74999999  1
  B  B7  1  0.83116900  0.16883100  0.25000000  1
  Mo  Mo8  1  0.66666665  0.33333333  0.93820099  1
  Mo  Mo9  1  0.33333329  0.66666666  0.43820100  1
  Mo  Mo10  1  0.33333329  0.66666666  0.06179900  1
  Mo  Mo11  1  0.66666665  0.33333333  0.56179900  1
