# generated using pymatgen
data_P13Ru
_symmetry_space_group_name_H-M   'P 1'
_cell_length_a   6.27953386
_cell_length_b   6.99459696
_cell_length_c   6.45463896
_cell_angle_alpha   90.00000000
_cell_angle_beta   64.78391266
_cell_angle_gamma   90.00000000
_symmetry_Int_Tables_number   1
_chemical_formula_structural   P13Ru
_chemical_formula_sum   'P13 Ru1'
_cell_volume   256.48987829
_cell_formula_units_Z   1
loop_
 _symmetry_equiv_pos_site_id
 _symmetry_equiv_pos_as_xyz
  1  'x, y, z'
loop_
 _atom_site_type_symbol
 _atom_site_label
 _atom_site_symmetry_multiplicity
 _atom_site_fract_x
 _atom_site_fract_y
 _atom_site_fract_z
 _atom_site_occupancy
  P  P0  1  0.65965403  0.00000000  0.64373195  1
  P  P1  1  0.34034601  0.00000000  0.35626797  1
  P  P2  1  0.00000000  0.75160300  0.99999997  1
  P  P3  1  0.00000000  0.24839700  0.99999997  1
  P  P4  1  -0.00000000  0.50000000  0.49999998  1
  P  P5  1  0.50000002  0.50000000  -0.00000002  1
  P  P6  1  0.25247401  0.00000000  0.75461897  1
  P  P7  1  0.74752603  0.00000000  0.24538096  1
  P  P8  1  0.26045501  0.50000000  0.78380896  1
  P  P9  1  0.73954503  0.50000000  0.21619096  1
  P  P10  1  0.78358003  0.73150000  0.76991694  1
  P  P11  1  0.21642001  0.73150000  0.23008298  1
  Ru  Ru12  1  0.21642001  0.26850000  0.23008298  1
  P  P13  1  0.78358003  0.26850000  0.76991694  1
