# generated using pymatgen
data_Tb5Ga11
_symmetry_space_group_name_H-M   'P 1'
_cell_length_a   5.80234194
_cell_length_b   7.50276518
_cell_length_c   9.18642902
_cell_angle_alpha   82.98566437
_cell_angle_beta   71.59024811
_cell_angle_gamma   67.25190735
_symmetry_Int_Tables_number   1
_chemical_formula_structural   Tb5Ga11
_chemical_formula_sum   'Tb5 Ga11'
_cell_volume   349.93542177
_cell_formula_units_Z   1
loop_
 _symmetry_equiv_pos_site_id
 _symmetry_equiv_pos_as_xyz
  1  'x, y, z'
loop_
 _atom_site_type_symbol
 _atom_site_label
 _atom_site_symmetry_multiplicity
 _atom_site_fract_x
 _atom_site_fract_y
 _atom_site_fract_z
 _atom_site_occupancy
  Tb  Tb0  1  0.32745095  0.98203001  0.33673901  1
  Tb  Tb1  1  0.69051895  0.98203001  0.66326099  1
  Tb  Tb2  1  0.10377998  0.48203001  0.83673897  1
  Tb  Tb3  1  0.41418998  0.48203001  0.16326101  1
  Tb  Tb4  1  0.75125398  0.49749201  0.49999999  1
  Ga  Ga5  1  0.00125395  0.99749201  0.00000002  1
  Ga  Ga6  1  0.92782196  0.82276001  0.32620501  1
  Ga  Ga7  1  0.24941696  0.82276001  0.67379599  1
  Ga  Ga8  1  0.67321399  0.32275900  0.82620397  1
  Ga  Ga9  1  0.00402798  0.32275900  0.17379500  1
  Ga  Ga10  1  0.66283999  0.18849500  0.36914799  1
  Ga  Ga11  1  0.14866499  0.18849500  0.63085197  1
  Ga  Ga12  1  0.45133100  0.09733800  0.00000001  1
  Ga  Ga13  1  0.20133097  0.59733801  0.49999999  1
  Ga  Ga14  1  0.78198797  0.68849501  0.13085201  1
  Ga  Ga15  1  0.52951697  0.68849501  0.86914798  1
