# generated using pymatgen
data_Ga
_symmetry_space_group_name_H-M   'P 1'
_cell_length_a   7.96543312
_cell_length_b   7.96543312
_cell_length_c   7.96543312
_cell_angle_alpha   109.47122192
_cell_angle_beta   109.47122192
_cell_angle_gamma   109.47122192
_symmetry_Int_Tables_number   1
_chemical_formula_structural   Ga
_chemical_formula_sum   Ga17
_cell_volume   389.05076641
_cell_formula_units_Z   17
loop_
 _symmetry_equiv_pos_site_id
 _symmetry_equiv_pos_as_xyz
  1  'x, y, z'
loop_
 _atom_site_type_symbol
 _atom_site_label
 _atom_site_symmetry_multiplicity
 _atom_site_fract_x
 _atom_site_fract_y
 _atom_site_fract_z
 _atom_site_occupancy
  Ga  Ga0  1  1.00000008  1.00000005  0.50000008  1
  Ga  Ga1  1  0.50000004  0.50000002  0.50000004  1
  Ga  Ga2  1  0.00000003  0.50000002  0.00000003  1
  Ga  Ga3  1  0.50000001  0.00000000  0.00000001  1
  Ga  Ga4  1  0.00000000  0.00000000  0.00000000  1
  Ga  Ga5  1  0.66847307  0.84030304  0.50877507  1
  Ga  Ga6  1  0.17183002  0.33152802  0.84030303  1
  Ga  Ga7  1  0.15969806  0.82817104  0.66847306  1
  Ga  Ga8  1  0.49122503  0.33152702  0.15969803  1
  Ga  Ga9  1  0.84030203  0.17182901  0.33152703  1
  Ga  Ga10  1  0.82817006  0.66847203  0.15969706  1
  Ga  Ga11  1  0.15969803  0.49122502  0.33152803  1
  Ga  Ga12  1  0.84030205  0.50877503  0.66847205  1
  Ga  Ga13  1  0.50877505  0.66847303  0.84030206  1
  Ga  Ga14  1  0.33152706  0.84030204  0.17182906  1
  Ga  Ga15  1  0.66847302  0.15969801  0.82817103  1
  Ga  Ga16  1  0.33152702  0.15969701  0.49122502  1
