# generated using pymatgen
data_TbCoGe2
_symmetry_space_group_name_H-M   'P 1'
_cell_length_a   3.97939610
_cell_length_b   3.99984789
_cell_length_c   8.53753281
_cell_angle_alpha   76.45253754
_cell_angle_beta   90.00000000
_cell_angle_gamma   90.00000000
_symmetry_Int_Tables_number   1
_chemical_formula_structural   TbCoGe2
_chemical_formula_sum   'Tb2 Co2 Ge4'
_cell_volume   132.11070781
_cell_formula_units_Z   2
loop_
 _symmetry_equiv_pos_site_id
 _symmetry_equiv_pos_as_xyz
  1  'x, y, z'
loop_
 _atom_site_type_symbol
 _atom_site_label
 _atom_site_symmetry_multiplicity
 _atom_site_fract_x
 _atom_site_fract_y
 _atom_site_fract_z
 _atom_site_occupancy
  Tb  Tb0  1  0.74999998  0.60767501  0.78465000  1
  Tb  Tb1  1  0.24999999  0.39232501  0.21535000  1
  Ge  Ge2  1  0.74999998  0.24879300  0.50241400  1
  Ge  Ge3  1  0.24999999  0.75120701  0.49758601  1
  Ge  Ge4  1  0.74999998  0.96266002  0.07468002  1
  Ge  Ge5  1  0.24999999  0.03734000  0.92531998  1
  Co  Co6  1  0.74999998  0.81377901  0.37244201  1
  Co  Co7  1  0.24999999  0.18622100  0.62755799  1
