# generated using pymatgen
data_Pr2Ga11Co6
_symmetry_space_group_name_H-M   'P 1'
_cell_length_a   6.69652796
_cell_length_b   6.69652748
_cell_length_c   6.69974804
_cell_angle_alpha   82.94346619
_cell_angle_beta   82.94346619
_cell_angle_gamma   83.47595215
_symmetry_Int_Tables_number   1
_chemical_formula_structural   Pr2Ga11Co6
_chemical_formula_sum   'Pr2 Ga11 Co6'
_cell_volume   294.42148115
_cell_formula_units_Z   1
loop_
 _symmetry_equiv_pos_site_id
 _symmetry_equiv_pos_as_xyz
  1  'x, y, z'
loop_
 _atom_site_type_symbol
 _atom_site_label
 _atom_site_symmetry_multiplicity
 _atom_site_fract_x
 _atom_site_fract_y
 _atom_site_fract_z
 _atom_site_occupancy
  Pr  Pr0  1  0.34452300  0.34452300  0.34164801  1
  Pr  Pr1  1  0.64915200  0.64915201  0.64091802  1
  Co  Co2  1  0.00552102  0.49236800  0.00376000  1
  Co  Co3  1  0.00363500  0.00363500  0.49535500  1
  Co  Co4  1  0.49236798  0.00552100  0.00376002  1
  Co  Co5  1  0.65958400  0.65958401  0.15914403  1
  Ga  Ga6  1  0.85754398  0.33797200  0.33912104  1
  Ga  Ga7  1  0.33797202  0.85754401  0.33912101  1
  Co  Co8  1  0.34020100  0.34020100  0.85508401  1
  Ga  Ga9  1  0.10913700  0.10913700  0.10821900  1
  Co  Co10  1  0.88251600  0.88251601  0.89349203  1
  Ga  Ga11  1  0.69838901  0.99928001  0.29466803  1
  Ga  Ga12  1  0.31428601  0.69163101  0.00999501  1
  Ga  Ga13  1  0.00463001  0.29817600  0.70042099  1
  Ga  Ga14  1  0.69163099  0.31428600  0.00999503  1
  Ga  Ga15  1  0.99927999  0.69838901  0.29466804  1
  Ga  Ga16  1  0.29817599  0.00463000  0.70042101  1
  Ga  Ga17  1  0.15641502  0.65504101  0.65510700  1
  Ga  Ga18  1  0.65504098  0.15641500  0.65510702  1
