# generated using pymatgen
data_TaSi2
_symmetry_space_group_name_H-M   'P 1'
_cell_length_a   3.12565804
_cell_length_b   6.81172800
_cell_length_c   6.81172848
_cell_angle_alpha   120.00000000
_cell_angle_beta   90.00000000
_cell_angle_gamma   90.00000000
_symmetry_Int_Tables_number   1
_chemical_formula_structural   TaSi2
_chemical_formula_sum   'Ta3 Si6'
_cell_volume   125.59915562
_cell_formula_units_Z   3
loop_
 _symmetry_equiv_pos_site_id
 _symmetry_equiv_pos_as_xyz
  1  'x, y, z'
loop_
 _atom_site_type_symbol
 _atom_site_label
 _atom_site_symmetry_multiplicity
 _atom_site_fract_x
 _atom_site_fract_y
 _atom_site_fract_z
 _atom_site_occupancy
  Ta  Ta0  1  0.49999999  0.00000000  0.60780000  1
  Ta  Ta1  1  0.49999999  0.60780001  1.00000002  1
  Ta  Ta2  1  0.49999999  0.39220001  0.39220001  1
  Si  Si3  1  0.99999999  0.00000000  0.27413700  1
  Si  Si4  1  0.00000000  0.27413701  1.00000001  1
  Si  Si5  1  0.00000000  0.72586302  0.72586303  1
  Si  Si6  1  0.49999999  0.00000000  -0.00000000  1
  Si  Si7  1  -0.00000000  0.66666668  0.33333336  1
  Si  Si8  1  -0.00000000  0.33333334  0.66666668  1
