# generated using pymatgen
data_Nd(In5Co)3
_symmetry_space_group_name_H-M   'P 1'
_cell_length_a   8.73006916
_cell_length_b   8.73006916
_cell_length_c   8.73006916
_cell_angle_alpha   109.47122192
_cell_angle_beta   109.47122192
_cell_angle_gamma   109.47122192
_symmetry_Int_Tables_number   1
_chemical_formula_structural   Nd(In5Co)3
_chemical_formula_sum   'Nd1 In15 Co3'
_cell_volume   512.19005448
_cell_formula_units_Z   1
loop_
 _symmetry_equiv_pos_site_id
 _symmetry_equiv_pos_as_xyz
  1  'x, y, z'
loop_
 _atom_site_type_symbol
 _atom_site_label
 _atom_site_symmetry_multiplicity
 _atom_site_fract_x
 _atom_site_fract_y
 _atom_site_fract_z
 _atom_site_occupancy
  Nd  Nd0  1  0.49288304  0.18601302  0.30686904  1
  In  In1  1  0.50711708  0.81398707  0.69313109  1
  In  In2  1  0.12085606  0.81398607  0.30687006  1
  In  In3  1  0.87914406  0.18601402  0.69313006  1
  In  In4  1  0.18601405  0.69313106  0.87914408  1
  In  In5  1  0.81398606  0.30686903  0.12085604  1
  In  In6  1  0.81398609  0.69313006  0.50711608  1
  In  In7  1  0.18601403  0.30687003  0.49288404  1
  In  In8  1  0.30687002  0.12085601  0.81398705  1
  In  In9  1  0.69313009  0.87914407  0.18601307  1
  In  In10  1  0.69313007  0.50711604  0.81398608  1
  In  In11  1  0.30687005  0.49288404  0.18601404  1
  In  In12  1  0.00000000  0.00000000  0.00000000  1
  Co  Co13  1  0.50000008  0.87842207  0.37842208  1
  Co  Co14  1  0.50000003  0.12157801  0.62157805  1
  In  In15  1  0.12157805  0.62157805  0.50000006  1
  Co  Co16  1  0.87842207  0.37842203  0.50000006  1
  In  In17  1  0.62157806  0.50000004  0.12157805  1
  In  In18  1  0.37842205  0.50000004  0.87842208  1
