# generated using pymatgen
data_TbCoGe2
_symmetry_space_group_name_H-M   'P 1'
_cell_length_a   4.08314610
_cell_length_b   4.17377281
_cell_length_c   8.64789104
_cell_angle_alpha   90.00000000
_cell_angle_beta   103.65515137
_cell_angle_gamma   90.00000000
_symmetry_Int_Tables_number   1
_chemical_formula_structural   TbCoGe2
_chemical_formula_sum   'Tb2 Co2 Ge4'
_cell_volume   143.21266490
_cell_formula_units_Z   2
loop_
 _symmetry_equiv_pos_site_id
 _symmetry_equiv_pos_as_xyz
  1  'x, y, z'
loop_
 _atom_site_type_symbol
 _atom_site_label
 _atom_site_symmetry_multiplicity
 _atom_site_fract_x
 _atom_site_fract_y
 _atom_site_fract_z
 _atom_site_occupancy
  Tb  Tb0  1  0.10789100  0.25000001  0.21578201  1
  Tb  Tb1  1  0.89210899  0.75000003  0.78421805  1
  Co  Co2  1  0.32289700  0.25000001  0.64579403  1
  Co  Co3  1  0.67710299  0.75000003  0.35420603  1
  Ge  Ge4  1  0.25156000  0.75000003  0.50312003  1
  Ge  Ge5  1  0.45923099  0.25000001  0.91846205  1
  Ge  Ge6  1  0.54076899  0.75000003  0.08153801  1
  Ge  Ge7  1  0.74843999  0.25000001  0.49688004  1
