# generated using pymatgen
data_Ga
_symmetry_space_group_name_H-M   'P 1'
_cell_length_a   3.99320602
_cell_length_b   3.99320602
_cell_length_c   9.27068043
_cell_angle_alpha   102.43708801
_cell_angle_beta   102.43708801
_cell_angle_gamma   90.00000000
_symmetry_Int_Tables_number   1
_chemical_formula_structural   Ga
_chemical_formula_sum   Ga8
_cell_volume   140.80388253
_cell_formula_units_Z   8
loop_
 _symmetry_equiv_pos_site_id
 _symmetry_equiv_pos_as_xyz
  1  'x, y, z'
loop_
 _atom_site_type_symbol
 _atom_site_label
 _atom_site_symmetry_multiplicity
 _atom_site_fract_x
 _atom_site_fract_y
 _atom_site_fract_z
 _atom_site_occupancy
  Ga  Ga0  1  0.88160200  0.88160200  0.76320398  1
  Ga  Ga1  1  0.11839800  0.11839800  0.23679599  1
  Ga  Ga2  1  1.00000000  0.50000000  0.00000001  1
  Ga  Ga3  1  0.50000000  0.00000000  0.00000000  1
  Ga  Ga4  1  0.75000000  0.25000000  0.49999998  1
  Ga  Ga5  1  0.25000000  0.75000000  0.49999999  1
  Ga  Ga6  1  0.62478100  0.62478100  0.24956200  1
  Ga  Ga7  1  0.37521900  0.37521900  0.75043797  1
