# generated using pymatgen
data_Ba(CoP)2
_symmetry_space_group_name_H-M   'P 1'
_cell_length_a   3.95267391
_cell_length_b   3.95267391
_cell_length_c   6.88680744
_cell_angle_alpha   106.67690277
_cell_angle_beta   106.67690277
_cell_angle_gamma   90.00000000
_symmetry_Int_Tables_number   1
_chemical_formula_structural   Ba(CoP)2
_chemical_formula_sum   'Ba1 Co2 P2'
_cell_volume   98.33744575
_cell_formula_units_Z   1
loop_
 _symmetry_equiv_pos_site_id
 _symmetry_equiv_pos_as_xyz
  1  'x, y, z'
loop_
 _atom_site_type_symbol
 _atom_site_label
 _atom_site_symmetry_multiplicity
 _atom_site_fract_x
 _atom_site_fract_y
 _atom_site_fract_z
 _atom_site_occupancy
  P  P0  1  0.66227604  0.66227602  0.32455202  1
  P  P1  1  0.33772402  0.33772401  0.67544800  1
  Ba  Ba2  1  0.00000000  0.00000000  0.00000000  1
  Co  Co3  1  0.75000003  0.25000001  0.50000001  1
  Co  Co4  1  0.25000003  0.75000003  0.50000001  1
