# generated using pymatgen
data_HoSe
_symmetry_space_group_name_H-M   'P 1'
_cell_length_a   4.64687204
_cell_length_b   5.53497314
_cell_length_c   6.89317179
_cell_angle_alpha   90.00000000
_cell_angle_beta   90.00000000
_cell_angle_gamma   90.00000000
_symmetry_Int_Tables_number   1
_chemical_formula_structural   HoSe
_chemical_formula_sum   'Ho4 Se4'
_cell_volume   177.29452881
_cell_formula_units_Z   4
loop_
 _symmetry_equiv_pos_site_id
 _symmetry_equiv_pos_as_xyz
  1  'x, y, z'
loop_
 _atom_site_type_symbol
 _atom_site_label
 _atom_site_symmetry_multiplicity
 _atom_site_fract_x
 _atom_site_fract_y
 _atom_site_fract_z
 _atom_site_occupancy
  Se  Se0  1  0.25000000  0.35680099  0.68288702  1
  Se  Se1  1  0.25000000  0.14319900  0.18288701  1
  Se  Se2  1  0.74999999  0.64319898  0.31711301  1
  Se  Se3  1  0.74999999  0.85680098  0.81711303  1
  Ho  Ho4  1  0.25000000  0.84729898  0.54175702  1
  Ho  Ho5  1  0.25000000  0.65270098  0.04175700  1
  Ho  Ho6  1  0.74999999  0.15270100  0.45824301  1
  Ho  Ho7  1  0.74999999  0.34729899  0.95824303  1
