# generated using pymatgen
data_CoP11Os8
_symmetry_space_group_name_H-M   'P 1'
_cell_length_a   5.72124958
_cell_length_b   5.74076462
_cell_length_c   8.74630070
_cell_angle_alpha   70.92102814
_cell_angle_beta   71.08973694
_cell_angle_gamma   80.54616547
_symmetry_Int_Tables_number   1
_chemical_formula_structural   CoP11Os8
_chemical_formula_sum   'Co1 P11 Os8'
_cell_volume   256.28685342
_cell_formula_units_Z   1
loop_
 _symmetry_equiv_pos_site_id
 _symmetry_equiv_pos_as_xyz
  1  'x, y, z'
loop_
 _atom_site_type_symbol
 _atom_site_label
 _atom_site_symmetry_multiplicity
 _atom_site_fract_x
 _atom_site_fract_y
 _atom_site_fract_z
 _atom_site_occupancy
  Co  Co0  1  0.00318208  0.99899300  0.00105797  1
  Os  Os1  1  0.09724004  0.50183500  0.30047398  1
  Os  Os2  1  0.50318306  0.49901700  0.50106697  1
  P  P3  1  0.59725302  0.00182400  0.80046998  1
  Os  Os4  1  0.30085805  0.50093000  0.90064597  1
  Os  Os5  1  0.80084803  0.00092800  0.40065699  1
  Os  Os6  1  0.90564107  0.49795000  0.70166097  1
  Os  Os7  1  0.40564409  0.99794900  0.20166197  1
  Os  Os8  1  0.69573606  0.50428700  0.09935298  1
  Os  Os9  1  0.19574001  0.00428500  0.59935499  1
  P  P10  1  0.05138602  0.25292800  0.15143899  1
  P  P11  1  0.55138608  0.75292800  0.65143996  1
  P  P12  1  0.66963004  0.23048200  0.94946397  1
  P  P13  1  0.16965306  0.73047900  0.44947997  1
  P  P14  1  0.93311809  0.77232300  0.85154296  1
  P  P15  1  0.43314204  0.27231900  0.35155898  1
  P  P16  1  0.76730708  0.74351700  0.25320397  1
  P  P17  1  0.26735803  0.24352300  0.75318098  1
  P  P18  1  0.33542307  0.76195100  0.04606298  1
  P  P19  1  0.83537205  0.26194300  0.54608698  1
