# generated using pymatgen
data_LiCr2O4
_symmetry_space_group_name_H-M   'P 1'
_cell_length_a   6.01843214
_cell_length_b   6.04639101
_cell_length_c   6.04627514
_cell_angle_alpha   60.00090027
_cell_angle_beta   60.38370132
_cell_angle_gamma   60.38376617
_symmetry_Int_Tables_number   1
_chemical_formula_structural   LiCr2O4
_chemical_formula_sum   'Li2 Cr4 O8'
_cell_volume   156.47690891
_cell_formula_units_Z   2
loop_
 _symmetry_equiv_pos_site_id
 _symmetry_equiv_pos_as_xyz
  1  'x, y, z'
loop_
 _atom_site_type_symbol
 _atom_site_label
 _atom_site_symmetry_multiplicity
 _atom_site_fract_x
 _atom_site_fract_y
 _atom_site_fract_z
 _atom_site_occupancy
  Li  Li0  1  0.49999402  0.49999599  0.99999799  1
  Cr  Cr1  1  0.49998601  0.00002800  0.99999300  1
  Li  Li2  1  0.00002702  0.49999099  0.99999199  1
  Cr  Cr3  1  0.49998802  0.49999199  0.50002699  1
  Cr  Cr4  1  0.12427601  0.12432500  0.62433600  1
  Cr  Cr5  1  0.87572204  0.87567299  0.37566299  1
  O  O6  1  0.72176802  0.25746500  0.75755500  1
  O  O7  1  0.26109701  0.26100500  0.22087400  1
  O  O8  1  0.25922801  0.26195000  0.76191300  1
  O  O9  1  0.26120903  0.72087299  0.76095598  1
  O  O10  1  0.73879502  0.27912300  0.23904400  1
  O  O11  1  0.74077003  0.73804999  0.23808699  1
  O  O12  1  0.73890703  0.73899399  0.77912199  1
  O  O13  1  0.27823003  0.74253299  0.24244399  1
