# generated using pymatgen
data_H4Br4N
_symmetry_space_group_name_H-M   'P 1'
_cell_length_a   6.14191580
_cell_length_b   7.49331808
_cell_length_c   7.49331808
_cell_angle_alpha   60.00000000
_cell_angle_beta   90.00000000
_cell_angle_gamma   90.00000000
_symmetry_Int_Tables_number   1
_chemical_formula_structural   H4Br4N
_chemical_formula_sum   'H8 Br8 N2'
_cell_volume   298.66396494
_cell_formula_units_Z   2
loop_
 _symmetry_equiv_pos_site_id
 _symmetry_equiv_pos_as_xyz
  1  'x, y, z'
loop_
 _atom_site_type_symbol
 _atom_site_label
 _atom_site_symmetry_multiplicity
 _atom_site_fract_x
 _atom_site_fract_y
 _atom_site_fract_z
 _atom_site_occupancy
  Br  Br0  1  0.98943403  0.00000000  -0.00000000  1
  Br  Br1  1  0.48943402  0.00000000  0.00000000  1
  H  H2  1  0.93066403  0.33333333  0.33333333  1
  H  H3  1  0.71086802  0.46565900  0.20042199  1
  H  H4  1  0.71086802  0.33391900  0.46565900  1
  H  H5  1  0.71086802  0.20042200  0.33391900  1
  H  H6  1  0.43066401  0.66666667  0.66666667  1
  H  H7  1  0.21086801  0.53434100  0.79957800  1
  H  H8  1  0.21086801  0.66608100  0.53434100  1
  H  H9  1  0.21086801  0.79957800  0.66608100  1
  Br  Br10  1  0.73725602  0.87930900  0.32421299  1
  Br  Br11  1  0.73725602  0.79647800  0.87930900  1
  Br  Br12  1  0.73725602  0.32421300  0.79647801  1
  Br  Br13  1  0.23725601  0.12069100  0.67578701  1
  Br  Br14  1  0.23725601  0.20352200  0.12069100  1
  Br  Br15  1  0.23725601  0.67578700  0.20352199  1
  N  N16  1  0.76201703  0.33333333  0.33333333  1
  N  N17  1  0.26201701  0.66666667  0.66666667  1
