# generated using pymatgen
data_Ho(GeRu)2
_symmetry_space_group_name_H-M   'P 1'
_cell_length_a   4.10323811
_cell_length_b   4.10323811
_cell_length_c   5.75282049
_cell_angle_alpha   110.89328003
_cell_angle_beta   110.89328003
_cell_angle_gamma   90.00000000
_symmetry_Int_Tables_number   1
_chemical_formula_structural   Ho(GeRu)2
_chemical_formula_sum   'Ho1 Ge2 Ru2'
_cell_volume   83.63664939
_cell_formula_units_Z   1
loop_
 _symmetry_equiv_pos_site_id
 _symmetry_equiv_pos_as_xyz
  1  'x, y, z'
loop_
 _atom_site_type_symbol
 _atom_site_label
 _atom_site_symmetry_multiplicity
 _atom_site_fract_x
 _atom_site_fract_y
 _atom_site_fract_z
 _atom_site_occupancy
  Ho  Ho0  1  0.00000000  0.00000000  0.00000000  1
  Ge  Ge1  1  0.38898002  0.38898000  0.77796004  1
  Ge  Ge2  1  0.61102003  0.61102000  0.22204006  1
  Ru  Ru3  1  0.75000001  0.25000000  0.50000005  1
  Ru  Ru4  1  0.25000004  0.75000000  0.50000006  1
