# generated using pymatgen
data_CdP2
_symmetry_space_group_name_H-M   'P 1'
_cell_length_a   3.89983511
_cell_length_b   3.89983463
_cell_length_c   19.24411011
_cell_angle_alpha   90.00000000
_cell_angle_beta   90.00000000
_cell_angle_gamma   120.00000000
_symmetry_Int_Tables_number   1
_chemical_formula_structural   CdP2
_chemical_formula_sum   'Cd4 P8'
_cell_volume   253.46669465
_cell_formula_units_Z   4
loop_
 _symmetry_equiv_pos_site_id
 _symmetry_equiv_pos_as_xyz
  1  'x, y, z'
loop_
 _atom_site_type_symbol
 _atom_site_label
 _atom_site_symmetry_multiplicity
 _atom_site_fract_x
 _atom_site_fract_y
 _atom_site_fract_z
 _atom_site_occupancy
  P  P0  1  0.67112503  0.67112501  0.83333304  1
  Cd  Cd1  1  1.00000001  0.32887501  0.16666701  1
  Cd  Cd2  1  0.32887500  0.00000000  0.50000002  1
  P  P3  1  0.33592500  0.00000000  0.00000000  1
  P  P4  1  1.00000001  0.33592501  0.66666670  1
  P  P5  1  0.66407503  0.66407501  0.33333335  1
  P  P6  1  0.33410705  0.99568402  0.10398600  1
  P  P7  1  0.66157703  0.66589301  0.43732002  1
  Cd  Cd8  1  0.00431602  0.33842301  0.77065304  1
  P  P9  1  0.99568401  0.33410701  0.56268003  1
  Cd  Cd10  1  0.33842300  0.00431600  0.89601404  1
  P  P11  1  0.66589303  0.66157701  0.22934701  1
