# generated using pymatgen
data_HoCoGe9
_symmetry_space_group_name_H-M   'P 1'
_cell_length_a   3.70898604
_cell_length_b   7.02233982
_cell_length_c   7.02233934
_cell_angle_alpha   120.00000000
_cell_angle_beta   90.00000000
_cell_angle_gamma   90.00000000
_symmetry_Int_Tables_number   1
_chemical_formula_structural   HoCoGe9
_chemical_formula_sum   'Ho1 Co1 Ge9'
_cell_volume   158.39792384
_cell_formula_units_Z   1
loop_
 _symmetry_equiv_pos_site_id
 _symmetry_equiv_pos_as_xyz
  1  'x, y, z'
loop_
 _atom_site_type_symbol
 _atom_site_label
 _atom_site_symmetry_multiplicity
 _atom_site_fract_x
 _atom_site_fract_y
 _atom_site_fract_z
 _atom_site_occupancy
  Ho  Ho0  1  0.00000000  0.66666666  0.33333328  1
  Ge  Ge1  1  0.99999999  0.33333333  0.66666664  1
  Ge  Ge2  1  0.49999999  0.28928500  0.14464298  1
  Ge  Ge3  1  0.49999999  0.85535799  0.14464294  1
  Ge  Ge4  1  0.49999999  0.85535799  0.71071593  1
  Ge  Ge5  1  0.00000000  0.73116399  0.86558194  1
  Ge  Ge6  1  0.00000000  0.13441800  0.86558198  1
  Ge  Ge7  1  0.99999999  0.13441800  0.26883599  1
  Ge  Ge8  1  0.49999999  0.05458000  0.52728999  1
  Co  Co9  1  0.49999999  0.47271000  0.52728996  1
  Ge  Ge10  1  0.49999999  0.47271000  0.94541996  1
