# generated using pymatgen
data_LiMo2F6
_symmetry_space_group_name_H-M   'P 1'
_cell_length_a   5.85832405
_cell_length_b   5.89193296
_cell_length_c   7.57491207
_cell_angle_alpha   73.75590515
_cell_angle_beta   73.47966003
_cell_angle_gamma   71.89549255
_symmetry_Int_Tables_number   1
_chemical_formula_structural   LiMo2F6
_chemical_formula_sum   'Li2 Mo4 F12'
_cell_volume   232.94539054
_cell_formula_units_Z   2
loop_
 _symmetry_equiv_pos_site_id
 _symmetry_equiv_pos_as_xyz
  1  'x, y, z'
loop_
 _atom_site_type_symbol
 _atom_site_label
 _atom_site_symmetry_multiplicity
 _atom_site_fract_x
 _atom_site_fract_y
 _atom_site_fract_z
 _atom_site_occupancy
  Mo  Mo0  1  0.33957800  0.34783500  0.15657297  1
  Li  Li1  1  0.66057499  0.67069201  0.34856594  1
  Mo  Mo2  1  0.33845199  0.35475301  0.67501797  1
  Li  Li3  1  0.63795299  0.66514201  0.82808194  1
  Mo  Mo4  1  0.00024300  0.00598500  0.50113700  1
  Mo  Mo5  1  0.02146298  0.96852201  0.99445496  1
  F  F6  1  0.55704299  0.58214701  0.63591695  1
  F  F7  1  0.31476599  0.66993101  0.99917296  1
  F  F8  1  0.36779998  0.99851901  0.31819595  1
  F  F9  1  0.99973899  0.63942401  0.67836992  1
  F  F10  1  0.11436900  0.10555900  0.70188599  1
  F  F11  1  0.42562999  0.43964401  0.36742896  1
  F  F12  1  0.75793899  0.75435301  0.02970293  1
  F  F13  1  0.90951399  0.89491201  0.29253692  1
  F  F14  1  0.23377400  0.22176100  0.97336198  1
  F  F15  1  0.63699301  0.03577600  0.66740296  1
  F  F16  1  0.97373100  0.36926101  0.32764994  1
  F  F17  1  0.71043700  0.27578400  0.00454095  1
