# generated using pymatgen
data_CaHo3(CoO3)4
_symmetry_space_group_name_H-M   'P 1'
_cell_length_a   5.21945810
_cell_length_b   5.37573814
_cell_length_c   7.44872522
_cell_angle_alpha   90.00000000
_cell_angle_beta   90.00000000
_cell_angle_gamma   90.00000000
_symmetry_Int_Tables_number   1
_chemical_formula_structural   CaHo3(CoO3)4
_chemical_formula_sum   'Ca1 Ho3 Co4 O12'
_cell_volume   208.99960988
_cell_formula_units_Z   1
loop_
 _symmetry_equiv_pos_site_id
 _symmetry_equiv_pos_as_xyz
  1  'x, y, z'
loop_
 _atom_site_type_symbol
 _atom_site_label
 _atom_site_symmetry_multiplicity
 _atom_site_fract_x
 _atom_site_fract_y
 _atom_site_fract_z
 _atom_site_occupancy
  Ca  Ca0  1  0.01336900  0.94611897  0.74999998  1
  Ho  Ho1  1  0.48663099  0.44611899  0.74999998  1
  Ho  Ho2  1  0.51336899  0.55388099  0.24999999  1
  Ho  Ho3  1  0.98663098  0.05388100  0.24999999  1
  Co  Co4  1  0.00000000  0.49999999  -0.00000000  1
  Co  Co5  1  0.00000000  0.49999999  0.49999998  1
  Co  Co6  1  0.49999999  0.00000000  0.00000000  1
  Co  Co7  1  0.49999999  0.00000000  0.49999998  1
  O  O8  1  0.08755600  0.47702799  0.24999999  1
  O  O9  1  0.20679400  0.20670399  0.54624498  1
  O  O10  1  0.20679400  0.20670399  0.95375497  1
  O  O11  1  0.29320599  0.70670398  0.54624498  1
  O  O12  1  0.29320599  0.70670398  0.95375497  1
  O  O13  1  0.41244399  0.97702797  0.24999999  1
  O  O14  1  0.58755599  0.02297200  0.74999998  1
  O  O15  1  0.70679399  0.29329599  0.04624500  1
  O  O16  1  0.70679399  0.29329599  0.45375499  1
  O  O17  1  0.79320598  0.79329598  0.04624500  1
  O  O18  1  0.79320598  0.79329598  0.45375499  1
  O  O19  1  0.91244398  0.52297199  0.74999998  1
