# generated using pymatgen
data_Bi
_symmetry_space_group_name_H-M   'P 1'
_cell_length_a   8.41539764
_cell_length_b   8.41539764
_cell_length_c   8.41539764
_cell_angle_alpha   109.47122192
_cell_angle_beta   109.47122192
_cell_angle_gamma   109.47122192
_symmetry_Int_Tables_number   1
_chemical_formula_structural   Bi
_chemical_formula_sum   Bi14
_cell_volume   458.77739882
_cell_formula_units_Z   14
loop_
 _symmetry_equiv_pos_site_id
 _symmetry_equiv_pos_as_xyz
  1  'x, y, z'
loop_
 _atom_site_type_symbol
 _atom_site_label
 _atom_site_symmetry_multiplicity
 _atom_site_fract_x
 _atom_site_fract_y
 _atom_site_fract_z
 _atom_site_occupancy
  Bi  Bi0  1  0.00000003  0.50000001  0.64208702  1
  Bi  Bi1  1  0.35791302  0.35791301  0.85791301  1
  Bi  Bi2  1  0.50000000  0.14208700  0.50000001  1
  Bi  Bi3  1  0.14208700  0.00000000  0.99999998  1
  Bi  Bi4  1  0.85791304  0.85791302  0.35791306  1
  Bi  Bi5  1  1.00000002  0.50000001  0.14208705  1
  Bi  Bi6  1  0.50000004  0.64208701  0.50000004  1
  Bi  Bi7  1  0.64208706  1.00000002  1.00000005  1
  Bi  Bi8  1  0.87500000  0.12500000  0.75000001  1
  Bi  Bi9  1  0.62500002  0.37500001  0.25000003  1
  Bi  Bi10  1  0.12500001  0.25000001  0.37500001  1
  Bi  Bi11  1  0.37500004  0.75000002  0.12500005  1
  Bi  Bi12  1  0.75000003  0.62500001  0.87500004  1
  Bi  Bi13  1  0.25000005  0.87500002  0.62500004  1
