# generated using pymatgen
data_Ba3S4
_symmetry_space_group_name_H-M   'P 1'
_cell_length_a   8.45724869
_cell_length_b   8.45724869
_cell_length_c   8.45724869
_cell_angle_alpha   70.73120880
_cell_angle_beta   70.42746735
_cell_angle_gamma   109.57253265
_symmetry_Int_Tables_number   1
_chemical_formula_structural   Ba3S4
_chemical_formula_sum   'Ba6 S8'
_cell_volume   465.65183789
_cell_formula_units_Z   2
loop_
 _symmetry_equiv_pos_site_id
 _symmetry_equiv_pos_as_xyz
  1  'x, y, z'
loop_
 _atom_site_type_symbol
 _atom_site_label
 _atom_site_symmetry_multiplicity
 _atom_site_fract_x
 _atom_site_fract_y
 _atom_site_fract_z
 _atom_site_occupancy
  Ba  Ba0  1  0.25173307  0.87309808  0.73133693  1
  S  S1  1  0.74826703  0.01693000  0.37863500  1
  Ba  Ba2  1  0.10443502  0.23307002  0.51866299  1
  S  S3  1  0.89556506  0.37690203  0.87136497  1
  S  S4  1  0.75173306  0.51866305  0.37690195  1
  Ba  Ba5  1  0.24826707  0.87136508  0.23306991  1
  Ba  Ba6  1  0.60443507  0.73133707  0.01692992  1
  S  S7  1  0.39556504  0.37863503  0.87309798  1
  Ba  Ba8  1  0.62522603  0.12500001  0.74977400  1
  S  S9  1  0.37477406  0.62500006  0.50022594  1
  Ba  Ba10  1  0.87477408  0.74977407  0.62499993  1
  S  S11  1  0.12522604  0.50022604  0.12499995  1
  S  S12  1  0.50000004  0.25000002  0.24999997  1
  S  S13  1  0.00000000  0.00000000  0.00000000  1
