# generated using pymatgen
data_Tb(CoB)2
_symmetry_space_group_name_H-M   'P 1'
_cell_length_a   4.93348789
_cell_length_b   4.93348789
_cell_length_c   6.08768034
_cell_angle_alpha   103.50765991
_cell_angle_beta   102.64993286
_cell_angle_gamma   116.20295715
_symmetry_Int_Tables_number   1
_chemical_formula_structural   Tb(CoB)2
_chemical_formula_sum   'Tb2 Co4 B4'
_cell_volume   120.13133040
_cell_formula_units_Z   2
loop_
 _symmetry_equiv_pos_site_id
 _symmetry_equiv_pos_as_xyz
  1  'x, y, z'
loop_
 _atom_site_type_symbol
 _atom_site_label
 _atom_site_symmetry_multiplicity
 _atom_site_fract_x
 _atom_site_fract_y
 _atom_site_fract_z
 _atom_site_occupancy
  Tb  Tb0  1  0.11839794  0.86839800  0.74999998  1
  Tb  Tb1  1  0.88160201  0.13160200  0.24999996  1
  Co  Co2  1  0.72246800  0.16647300  0.70019295  1
  Co  Co3  1  0.46627997  0.52227500  0.79980696  1
  Co  Co4  1  0.27753194  0.83352700  0.29980699  1
  Co  Co5  1  0.53371997  0.47772500  0.20019298  1
  B  B6  1  0.49616696  0.67849000  0.52239597  1
  B  B7  1  0.15609397  0.47377100  0.97760397  1
  B  B8  1  0.50383299  0.32151000  0.47760397  1
  B  B9  1  0.84390598  0.52622900  0.02239597  1
