# generated using pymatgen
data_HoSiPt2
_symmetry_space_group_name_H-M   'P 1'
_cell_length_a   4.09418201
_cell_length_b   5.19582939
_cell_length_c   6.95542812
_cell_angle_alpha   90.00000000
_cell_angle_beta   90.00000000
_cell_angle_gamma   113.20283508
_symmetry_Int_Tables_number   1
_chemical_formula_structural   HoSiPt2
_chemical_formula_sum   'Ho2 Si2 Pt4'
_cell_volume   135.99287296
_cell_formula_units_Z   2
loop_
 _symmetry_equiv_pos_site_id
 _symmetry_equiv_pos_as_xyz
  1  'x, y, z'
loop_
 _atom_site_type_symbol
 _atom_site_label
 _atom_site_symmetry_multiplicity
 _atom_site_fract_x
 _atom_site_fract_y
 _atom_site_fract_z
 _atom_site_occupancy
  Ho  Ho0  1  0.43297004  0.86593998  0.74999999  1
  Ho  Ho1  1  0.56703001  0.13406000  0.25000000  1
  Pt  Pt2  1  0.14732001  0.29463999  0.55405399  1
  Pt  Pt3  1  0.85268003  0.70535998  0.44594599  1
  Pt  Pt4  1  0.14732001  0.29463999  0.94594598  1
  Pt  Pt5  1  0.85268003  0.70535998  0.05405400  1
  Si  Si6  1  0.71197102  0.42394199  0.74999999  1
  Si  Si7  1  0.28802903  0.57605799  0.25000000  1
