# generated using pymatgen
data_Cd(MoP3)2
_symmetry_space_group_name_H-M   'P 1'
_cell_length_a   4.05970383
_cell_length_b   4.05970383
_cell_length_c   10.27223301
_cell_angle_alpha   101.39698029
_cell_angle_beta   101.39698029
_cell_angle_gamma   90.00000000
_symmetry_Int_Tables_number   1
_chemical_formula_structural   Cd(MoP3)2
_chemical_formula_sum   'Cd1 Mo2 P6'
_cell_volume   162.55353276
_cell_formula_units_Z   1
loop_
 _symmetry_equiv_pos_site_id
 _symmetry_equiv_pos_as_xyz
  1  'x, y, z'
loop_
 _atom_site_type_symbol
 _atom_site_label
 _atom_site_symmetry_multiplicity
 _atom_site_fract_x
 _atom_site_fract_y
 _atom_site_fract_z
 _atom_site_occupancy
  P  P0  1  0.32329701  0.32329701  0.64659400  1
  P  P1  1  0.67670301  0.67670302  0.35340598  1
  P  P2  1  0.50000002  0.00000000  -0.00000001  1
  P  P3  1  -0.00000001  0.50000002  -0.00000001  1
  P  P4  1  0.90850502  0.90850503  0.81700999  1
  Cd  Cd5  1  0.09149500  0.09149500  0.18299000  1
  P  P6  1  0.50000001  0.50000002  -0.00000002  1
  Mo  Mo7  1  0.25000000  0.75000003  0.49999999  1
  Mo  Mo8  1  0.75000002  0.25000001  0.49999999  1
