# generated using pymatgen
data_Li4SiHF8
_symmetry_space_group_name_H-M   'P 1'
_cell_length_a   5.08816195
_cell_length_b   5.21503687
_cell_length_c   6.66926003
_cell_angle_alpha   90.00000000
_cell_angle_beta   90.51100159
_cell_angle_gamma   90.00000000
_symmetry_Int_Tables_number   1
_chemical_formula_structural   Li4SiHF8
_chemical_formula_sum   'Li4 Si1 H1 F8'
_cell_volume   176.96145737
_cell_formula_units_Z   1
loop_
 _symmetry_equiv_pos_site_id
 _symmetry_equiv_pos_as_xyz
  1  'x, y, z'
loop_
 _atom_site_type_symbol
 _atom_site_label
 _atom_site_symmetry_multiplicity
 _atom_site_fract_x
 _atom_site_fract_y
 _atom_site_fract_z
 _atom_site_occupancy
  Li  Li0  1  0.49966101  0.67190702  0.24124501  1
  Li  Li1  1  0.99966101  0.32809301  0.74124503  1
  Li  Li2  1  0.99530901  0.32093501  0.23840402  1
  Li  Li3  1  0.49530901  0.67906502  0.73840403  1
  Si  Si4  1  0.49502001  0.18802600  0.49159602  1
  H  H5  1  0.99502001  0.81197402  0.99159604  1
  F  F6  1  0.04561000  0.12177500  0.00787600  1
  F  F7  1  0.11213400  0.65700202  0.18781501  1
  F  F8  1  0.63542301  0.31027901  0.29207702  1
  F  F9  1  0.17668200  0.24871601  0.47660702  1
  F  F10  1  0.54561001  0.87822502  0.50787602  1
  F  F11  1  0.61213401  0.34299801  0.68781503  1
  F  F12  1  0.13542300  0.68972102  0.79207703  1
  F  F13  1  0.67668201  0.75128402  0.97660704  1
