# generated using pymatgen
data_CsCu2F6
_symmetry_space_group_name_H-M   'P 1'
_cell_length_a   7.32804585
_cell_length_b   7.40960789
_cell_length_c   7.40960789
_cell_angle_alpha   60.30576324
_cell_angle_beta   60.36346436
_cell_angle_gamma   60.36346436
_symmetry_Int_Tables_number   1
_chemical_formula_structural   CsCu2F6
_chemical_formula_sum   'Cs2 Cu4 F12'
_cell_volume   286.70303283
_cell_formula_units_Z   2
loop_
 _symmetry_equiv_pos_site_id
 _symmetry_equiv_pos_as_xyz
  1  'x, y, z'
loop_
 _atom_site_type_symbol
 _atom_site_label
 _atom_site_symmetry_multiplicity
 _atom_site_fract_x
 _atom_site_fract_y
 _atom_site_fract_z
 _atom_site_occupancy
  Cs  Cs0  1  0.38205701  0.35306301  0.38282299  1
  Cs  Cs1  1  0.61794301  0.61717702  0.64693699  1
  Cu  Cu2  1  0.50000001  0.99890003  0.00109998  1
  Cu  Cu3  1  -0.00000001  0.99890003  0.00109999  1
  Cu  Cu4  1  0.99976703  0.49846301  0.00200297  1
  Cu  Cu5  1  0.00023299  0.99799703  0.50153699  1
  F  F6  1  0.32343800  0.92760403  0.92552000  1
  F  F7  1  0.94180103  0.30740701  0.30898998  1
  F  F8  1  0.93402402  0.93535503  0.31979497  1
  F  F9  1  0.31040201  0.31795501  0.93601401  1
  F  F10  1  0.93562903  0.31795501  0.93601399  1
  F  F11  1  0.31082600  0.93535503  0.31979499  1
  F  F12  1  0.67656202  0.07448000  0.07239599  1
  F  F13  1  0.05819800  0.69101102  0.69259300  1
  F  F14  1  0.06437000  0.06398600  0.68204601  1
  F  F15  1  0.68917402  0.68020502  0.06464498  1
  F  F16  1  0.06597600  0.68020502  0.06464499  1
  F  F17  1  0.68959702  0.06398600  0.68204600  1
