# generated using pymatgen
data_BaMg(GaO3)2
_symmetry_space_group_name_H-M   'P 1'
_cell_length_a   4.05608988
_cell_length_b   5.78279114
_cell_length_c   10.82193089
_cell_angle_alpha   97.87356567
_cell_angle_beta   100.79920959
_cell_angle_gamma   89.99994659
_symmetry_Int_Tables_number   1
_chemical_formula_structural   BaMg(GaO3)2
_chemical_formula_sum   'Ba2 Mg2 Ga4 O12'
_cell_volume   246.90206952
_cell_formula_units_Z   2
loop_
 _symmetry_equiv_pos_site_id
 _symmetry_equiv_pos_as_xyz
  1  'x, y, z'
loop_
 _atom_site_type_symbol
 _atom_site_label
 _atom_site_symmetry_multiplicity
 _atom_site_fract_x
 _atom_site_fract_y
 _atom_site_fract_z
 _atom_site_occupancy
  Ba  Ba0  1  0.93214406  0.71563402  0.86429297  1
  Ba  Ba1  1  0.06785301  0.28435601  0.13570399  1
  Mg  Mg2  1  0.43682902  0.21778201  0.87353399  1
  Mg  Mg3  1  0.56316905  0.78220903  0.12646398  1
  Ga  Ga4  1  0.29380902  0.14738500  0.58770599  1
  Ga  Ga5  1  0.70619106  0.85262203  0.41229497  1
  Ga  Ga6  1  0.70571604  0.35177701  0.41139298  1
  Ga  Ga7  1  0.29428404  0.64822702  0.58860898  1
  O  O8  1  0.49999906  0.99999203  0.99999697  1
  O  O9  1  0.49999804  0.49999602  0.99999698  1
  O  O10  1  0.35502103  0.42545301  0.71005998  1
  O  O11  1  0.64498004  0.57455002  0.28994098  1
  O  O12  1  0.35618405  0.93494703  0.71238398  1
  O  O13  1  0.64381602  0.06505800  0.28761599  1
  O  O14  1  0.93592604  0.21878501  0.87192498  1
  O  O15  1  0.06407503  0.78120903  0.12807799  1
  O  O16  1  0.77320405  0.63876302  0.54640898  1
  O  O17  1  0.22679802  0.36124601  0.45359399  1
  O  O18  1  0.22921904  0.86486503  0.45842598  1
  O  O19  1  0.77078003  0.13514200  0.54157398  1
