# generated using pymatgen
data_NaWO3
_symmetry_space_group_name_H-M   'P 1'
_cell_length_a   5.57401180
_cell_length_b   5.57401180
_cell_length_c   5.67893887
_cell_angle_alpha   60.60934448
_cell_angle_beta   60.60934448
_cell_angle_gamma   60.00000000
_symmetry_Int_Tables_number   1
_chemical_formula_structural   NaWO3
_chemical_formula_sum   'Na2 W2 O6'
_cell_volume   125.90040071
_cell_formula_units_Z   2
loop_
 _symmetry_equiv_pos_site_id
 _symmetry_equiv_pos_as_xyz
  1  'x, y, z'
loop_
 _atom_site_type_symbol
 _atom_site_label
 _atom_site_symmetry_multiplicity
 _atom_site_fract_x
 _atom_site_fract_y
 _atom_site_fract_z
 _atom_site_occupancy
  Na  Na0  1  0.72546601  0.72546602  0.82360201  1
  Na  Na1  1  0.22546600  0.22546601  0.32360201  1
  W  W2  1  0.98616502  0.98616503  0.04150498  1
  W  W3  1  0.48616501  0.48616502  0.54150501  1
  O  O4  1  0.32025401  0.18340901  0.74013102  1
  O  O5  1  0.75620602  0.32025401  0.74013101  1
  O  O6  1  0.18340900  0.75620602  0.74013102  1
  O  O7  1  0.25620600  0.68340902  0.24013100  1
  O  O8  1  0.68340901  0.82025403  0.24013099  1
  O  O9  1  0.82025402  0.25620601  0.24013100  1
