# generated using pymatgen
data_K4Cu4HN3
_symmetry_space_group_name_H-M   'P 1'
_cell_length_a   3.47997904
_cell_length_b   6.30456877
_cell_length_c   10.29145718
_cell_angle_alpha   90.00000000
_cell_angle_beta   90.00000000
_cell_angle_gamma   90.00000000
_symmetry_Int_Tables_number   1
_chemical_formula_structural   K4Cu4HN3
_chemical_formula_sum   'K4 Cu4 H1 N3'
_cell_volume   225.79217414
_cell_formula_units_Z   1
loop_
 _symmetry_equiv_pos_site_id
 _symmetry_equiv_pos_as_xyz
  1  'x, y, z'
loop_
 _atom_site_type_symbol
 _atom_site_label
 _atom_site_symmetry_multiplicity
 _atom_site_fract_x
 _atom_site_fract_y
 _atom_site_fract_z
 _atom_site_occupancy
  K  K0  1  0.25000000  0.07755700  0.66448699  1
  K  K1  1  0.25000000  0.42244302  0.16448700  1
  K  K2  1  0.74999999  0.92244303  0.33551299  1
  K  K3  1  0.74999999  0.57755702  0.83551299  1
  Cu  Cu4  1  0.25000000  0.60036202  0.54351199  1
  Cu  Cu5  1  0.25000000  0.89963803  0.04351200  1
  Cu  Cu6  1  0.74999999  0.39963801  0.45648799  1
  Cu  Cu7  1  0.74999999  0.10036200  0.95648798  1
  N  N8  1  0.25000000  0.15255701  0.93582898  1
  N  N9  1  0.25000000  0.34744301  0.43582899  1
  H  H10  1  0.74999999  0.84744303  0.06417100  1
  N  N11  1  0.74999999  0.65255702  0.56417099  1
