# generated using pymatgen
data_Li4MnB5WO3
_symmetry_space_group_name_H-M   'P 1'
_cell_length_a   3.04571700
_cell_length_b   3.12545991
_cell_length_c   13.18819237
_cell_angle_alpha   90.00000000
_cell_angle_beta   90.00000000
_cell_angle_gamma   90.00000000
_symmetry_Int_Tables_number   1
_chemical_formula_structural   Li4MnB5WO3
_chemical_formula_sum   'Li4 Mn1 B5 W1 O3'
_cell_volume   125.54191624
_cell_formula_units_Z   1
loop_
 _symmetry_equiv_pos_site_id
 _symmetry_equiv_pos_as_xyz
  1  'x, y, z'
loop_
 _atom_site_type_symbol
 _atom_site_label
 _atom_site_symmetry_multiplicity
 _atom_site_fract_x
 _atom_site_fract_y
 _atom_site_fract_z
 _atom_site_occupancy
  Li  Li0  1  0.00000000  0.00000000  0.18976199  1
  Mn  Mn1  1  0.50000000  0.50000001  0.67649098  1
  Li  Li2  1  0.50000000  0.50000001  0.31325299  1
  B  B3  1  0.50000000  0.00000000  0.42480399  1
  B  B4  1  0.00000000  0.50000001  0.93887597  1
  O  O5  1  0.00000000  0.50000001  0.07799300  1
  B  B6  1  0.50000000  0.00000000  0.56393098  1
  O  O7  1  0.00000000  0.00000000  0.35068199  1
  B  B8  1  0.50000000  0.50000001  0.86256598  1
  O  O9  1  0.50000000  0.50000001  0.15111400  1
  B  B10  1  0.00000000  0.00000000  0.63694598  1
  W  W11  1  0.00000000  0.00000000  0.81195898  1
  Li  Li12  1  0.50000000  0.00000000  0.00752000  1
  Li  Li13  1  0.00000000  0.50000001  0.49410499  1
