# generated using pymatgen
data_Eu(GeAu)2
_symmetry_space_group_name_H-M   'P 1'
_cell_length_a   4.18542290
_cell_length_b   4.19155216
_cell_length_c   6.38376474
_cell_angle_alpha   109.16548920
_cell_angle_beta   109.13638306
_cell_angle_gamma   90.00000000
_symmetry_Int_Tables_number   1
_chemical_formula_structural   Eu(GeAu)2
_chemical_formula_sum   'Eu1 Ge2 Au2'
_cell_volume   99.21067898
_cell_formula_units_Z   1
loop_
 _symmetry_equiv_pos_site_id
 _symmetry_equiv_pos_as_xyz
  1  'x, y, z'
loop_
 _atom_site_type_symbol
 _atom_site_label
 _atom_site_symmetry_multiplicity
 _atom_site_fract_x
 _atom_site_fract_y
 _atom_site_fract_z
 _atom_site_occupancy
  Eu  Eu0  1  0.99983904  0.99983894  0.99967801  1
  Au  Au1  1  0.25060701  0.75060796  0.50121499  1
  Ge  Ge2  1  0.39027901  0.39027798  0.78055701  1
  Ge  Ge3  1  0.60984502  0.60984497  0.21969000  1
  Au  Au4  1  0.74943003  0.24942999  0.49886002  1
