# generated using pymatgen
data_Ac3Ho
_symmetry_space_group_name_H-M   'P 1'
_cell_length_a   5.50377989
_cell_length_b   5.50377989
_cell_length_c   6.72933674
_cell_angle_alpha   114.13821411
_cell_angle_beta   114.13821411
_cell_angle_gamma   90.00000000
_symmetry_Int_Tables_number   1
_chemical_formula_structural   Ac3Ho
_chemical_formula_sum   'Ac3 Ho1'
_cell_volume   166.29555096
_cell_formula_units_Z   1
loop_
 _symmetry_equiv_pos_site_id
 _symmetry_equiv_pos_as_xyz
  1  'x, y, z'
loop_
 _atom_site_type_symbol
 _atom_site_label
 _atom_site_symmetry_multiplicity
 _atom_site_fract_x
 _atom_site_fract_y
 _atom_site_fract_z
 _atom_site_occupancy
  Ac  Ac0  1  0.74999998  0.24999999  0.49999995  1
  Ho  Ho1  1  0.24999995  0.74999998  0.49999994  1
  Ac  Ac2  1  0.49999996  0.49999999  -0.00000007  1
  Ac  Ac3  1  0.00000000  0.00000000  0.00000000  1
