# generated using pymatgen
data_Ho2CoGe4
_symmetry_space_group_name_H-M   'P 1'
_cell_length_a   4.13431597
_cell_length_b   4.16611195
_cell_length_c   7.96375656
_cell_angle_alpha   105.16306305
_cell_angle_beta   90.00000000
_cell_angle_gamma   90.00000000
_symmetry_Int_Tables_number   1
_chemical_formula_structural   Ho2CoGe4
_chemical_formula_sum   'Ho2 Co1 Ge4'
_cell_volume   132.39246978
_cell_formula_units_Z   1
loop_
 _symmetry_equiv_pos_site_id
 _symmetry_equiv_pos_as_xyz
  1  'x, y, z'
loop_
 _atom_site_type_symbol
 _atom_site_label
 _atom_site_symmetry_multiplicity
 _atom_site_fract_x
 _atom_site_fract_y
 _atom_site_fract_z
 _atom_site_occupancy
  Ho  Ho0  1  0.25000000  0.10195000  0.20389900  1
  Ho  Ho1  1  0.75000001  0.89687801  0.79375501  1
  Co  Co2  1  0.25000000  0.30529800  0.61059701  1
  Ge  Ge3  1  0.25000000  0.45386201  0.90772401  1
  Ge  Ge4  1  0.75000001  0.56615301  0.13230600  1
  Ge  Ge5  1  0.25000000  0.73851301  0.47702500  1
  Ge  Ge6  1  0.75000001  0.24034800  0.48069501  1
