# generated using pymatgen
data_HoGa17
_symmetry_space_group_name_H-M   'P 1'
_cell_length_a   5.79385424
_cell_length_b   8.49705601
_cell_length_c   8.49705601
_cell_angle_alpha   120.00000000
_cell_angle_beta   90.00000000
_cell_angle_gamma   90.00000000
_symmetry_Int_Tables_number   1
_chemical_formula_structural   HoGa17
_chemical_formula_sum   'Ho1 Ga17'
_cell_volume   362.27232500
_cell_formula_units_Z   1
loop_
 _symmetry_equiv_pos_site_id
 _symmetry_equiv_pos_as_xyz
  1  'x, y, z'
loop_
 _atom_site_type_symbol
 _atom_site_label
 _atom_site_symmetry_multiplicity
 _atom_site_fract_x
 _atom_site_fract_y
 _atom_site_fract_z
 _atom_site_occupancy
  Ho  Ho0  1  0.24999999  0.99999999  0.77080095  1
  Ga  Ga1  1  0.74999997  0.99999999  0.22919897  1
  Ga  Ga2  1  0.99999996  0.66666666  0.33333330  1
  Ga  Ga3  1  0.49999998  0.66666666  0.33333330  1
  Ga  Ga4  1  0.24999999  0.77080099  -0.00000002  1
  Ga  Ga5  1  0.74999997  0.77080099  0.77080095  1
  Ga  Ga6  1  0.74999997  0.22919900  -0.00000001  1
  Ga  Ga7  1  0.00000000  0.33333333  0.66666663  1
  Ga  Ga8  1  0.49999998  0.33333333  0.66666663  1
  Ga  Ga9  1  0.24999999  0.22919900  0.22919899  1
  Ga  Ga10  1  0.74999997  0.99999999  0.59741895  1
  Ga  Ga11  1  0.24999999  0.99999999  0.40258096  1
  Ga  Ga12  1  0.74999997  0.59741899  0.99999995  1
  Ga  Ga13  1  0.24999999  0.40258099  -0.00000001  1
  Ga  Ga14  1  0.24999999  0.59741899  0.59741896  1
  Ga  Ga15  1  0.74999997  0.40258099  0.40258098  1
  Ga  Ga16  1  0.00000000  0.00000000  0.00000000  1
  Ga  Ga17  1  0.49999998  0.00000000  -0.00000000  1
