# generated using pymatgen
data_HoAl2Ge
_symmetry_space_group_name_H-M   'P 1'
_cell_length_a   4.46177006
_cell_length_b   5.55978870
_cell_length_c   6.61636591
_cell_angle_alpha   90.00000000
_cell_angle_beta   90.00000000
_cell_angle_gamma   113.65657043
_symmetry_Int_Tables_number   1
_chemical_formula_structural   HoAl2Ge
_chemical_formula_sum   'Ho2 Al4 Ge2'
_cell_volume   150.33663157
_cell_formula_units_Z   2
loop_
 _symmetry_equiv_pos_site_id
 _symmetry_equiv_pos_as_xyz
  1  'x, y, z'
loop_
 _atom_site_type_symbol
 _atom_site_label
 _atom_site_symmetry_multiplicity
 _atom_site_fract_x
 _atom_site_fract_y
 _atom_site_fract_z
 _atom_site_occupancy
  Ho  Ho0  1  0.91030603  0.82061200  0.25000000  1
  Ho  Ho1  1  0.08969401  0.17938800  0.75000001  1
  Ge  Ge2  1  0.62664701  0.25329400  0.44674001  1
  Al  Al3  1  0.37335303  0.74670600  0.94674001  1
  Ge  Ge4  1  0.37335303  0.74670600  0.55326001  1
  Al  Al5  1  0.62664701  0.25329400  0.05326000  1
  Al  Al6  1  0.19957302  0.39914600  0.25000000  1
  Al  Al7  1  0.80042702  0.60085400  0.75000001  1
