# generated using pymatgen
data_EuIn2
_symmetry_space_group_name_H-M   'P 1'
_cell_length_a   4.72900677
_cell_length_b   7.84102297
_cell_length_c   8.60674477
_cell_angle_alpha   90.00000000
_cell_angle_beta   90.00000000
_cell_angle_gamma   90.00000000
_symmetry_Int_Tables_number   1
_chemical_formula_structural   EuIn2
_chemical_formula_sum   'Eu4 In8'
_cell_volume   319.14025347
_cell_formula_units_Z   4
loop_
 _symmetry_equiv_pos_site_id
 _symmetry_equiv_pos_as_xyz
  1  'x, y, z'
loop_
 _atom_site_type_symbol
 _atom_site_label
 _atom_site_symmetry_multiplicity
 _atom_site_fract_x
 _atom_site_fract_y
 _atom_site_fract_z
 _atom_site_occupancy
  In  In0  1  0.75000004  0.35162900  0.06923700  1
  In  In1  1  0.75000004  0.85162900  0.43076301  1
  In  In2  1  0.25000001  0.14837100  0.56923702  1
  In  In3  1  0.25000001  0.64837100  0.93076303  1
  Eu  Eu4  1  0.25000001  0.01404100  0.19868101  1
  Eu  Eu5  1  0.75000004  0.48595900  0.69868102  1
  Eu  Eu6  1  0.75000004  0.98595900  0.80131902  1
  Eu  Eu7  1  0.25000001  0.51404100  0.30131901  1
  In  In8  1  0.75000004  0.73288700  0.10388100  1
  In  In9  1  0.25000001  0.26711300  0.89611902  1
  In  In10  1  0.25000001  0.76711300  0.60388102  1
  In  In11  1  0.75000004  0.23288700  0.39611901  1
