# generated using pymatgen
data_Lu4Ga11
_symmetry_space_group_name_H-M   'P 1'
_cell_length_a   6.46462584
_cell_length_b   6.46462584
_cell_length_c   6.46462584
_cell_angle_alpha   90.00000000
_cell_angle_beta   90.00000000
_cell_angle_gamma   90.00000000
_symmetry_Int_Tables_number   1
_chemical_formula_structural   Lu4Ga11
_chemical_formula_sum   'Lu4 Ga11'
_cell_volume   270.16568134
_cell_formula_units_Z   1
loop_
 _symmetry_equiv_pos_site_id
 _symmetry_equiv_pos_as_xyz
  1  'x, y, z'
loop_
 _atom_site_type_symbol
 _atom_site_label
 _atom_site_symmetry_multiplicity
 _atom_site_fract_x
 _atom_site_fract_y
 _atom_site_fract_z
 _atom_site_occupancy
  Lu  Lu0  1  0.50000001  0.50000001  -0.00000000  1
  Lu  Lu1  1  0.50000001  0.00000000  0.50000001  1
  Lu  Lu2  1  0.00000000  0.50000001  0.50000001  1
  Lu  Lu3  1  0.50000001  0.50000001  0.50000001  1
  Ga  Ga4  1  0.21018001  0.21018001  0.78982002  1
  Ga  Ga5  1  0.21018001  0.78982002  0.21018001  1
  Ga  Ga6  1  0.78982002  0.21018001  0.21018001  1
  Ga  Ga7  1  0.78982002  0.78982002  0.78982002  1
  Ga  Ga8  1  0.78982002  0.78982002  0.21018001  1
  Ga  Ga9  1  0.78982002  0.21018001  0.78982002  1
  Ga  Ga10  1  0.21018001  0.78982002  0.78982002  1
  Ga  Ga11  1  0.21018001  0.21018001  0.21018001  1
  Ga  Ga12  1  0.00000000  0.00000000  0.50000001  1
  Ga  Ga13  1  0.00000000  0.50000001  -0.00000000  1
  Ga  Ga14  1  0.50000001  0.00000000  -0.00000000  1
