# generated using pymatgen
data_Li2AgF5
_symmetry_space_group_name_H-M   'P 1'
_cell_length_a   3.06192899
_cell_length_b   5.17628670
_cell_length_c   5.21061182
_cell_angle_alpha   72.84819031
_cell_angle_beta   89.38294983
_cell_angle_gamma   89.97559357
_symmetry_Int_Tables_number   1
_chemical_formula_structural   Li2AgF5
_chemical_formula_sum   'Li2 Ag1 F5'
_cell_volume   78.90745143
_cell_formula_units_Z   1
loop_
 _symmetry_equiv_pos_site_id
 _symmetry_equiv_pos_as_xyz
  1  'x, y, z'
loop_
 _atom_site_type_symbol
 _atom_site_label
 _atom_site_symmetry_multiplicity
 _atom_site_fract_x
 _atom_site_fract_y
 _atom_site_fract_z
 _atom_site_occupancy
  Li  Li0  1  0.50000000  0.49999998  0.00000001  1
  F  F1  1  0.00000000  0.00000000  0.00000000  1
  Li  Li2  1  0.50000000  0.00000000  0.50000000  1
  Ag  Ag3  1  0.00000000  0.49999998  0.50000000  1
  F  F4  1  0.99401500  0.24210699  0.25349601  1
  F  F5  1  0.51068700  0.23634099  0.77613000  1
  F  F6  1  0.48931301  0.76365897  0.22387000  1
  F  F7  1  0.00598500  0.75789297  0.74650400  1
