# generated using pymatgen
data_Si2Os4C
_symmetry_space_group_name_H-M   'P 1'
_cell_length_a   4.09691620
_cell_length_b   4.09691620
_cell_length_c   6.94899464
_cell_angle_alpha   107.14463043
_cell_angle_beta   107.14463043
_cell_angle_gamma   90.00000000
_symmetry_Int_Tables_number   1
_chemical_formula_structural   Si2Os4C
_chemical_formula_sum   'Si2 Os4 C1'
_cell_volume   106.01803710
_cell_formula_units_Z   1
loop_
 _symmetry_equiv_pos_site_id
 _symmetry_equiv_pos_as_xyz
  1  'x, y, z'
loop_
 _atom_site_type_symbol
 _atom_site_label
 _atom_site_symmetry_multiplicity
 _atom_site_fract_x
 _atom_site_fract_y
 _atom_site_fract_z
 _atom_site_occupancy
  Si  Si0  1  0.65153193  0.65153195  0.30306394  1
  Si  Si1  1  0.34846796  0.34846798  0.69693595  1
  C  C2  1  0.00000000  0.00000000  0.00000000  1
  Os  Os3  1  0.74999994  0.24999998  0.49999995  1
  Os  Os4  1  0.24999995  0.74999995  0.49999994  1
  Os  Os5  1  0.49999992  0.99999993  0.99999991  1
  Os  Os6  1  -0.00000002  0.49999996  -0.00000002  1
