# generated using pymatgen
data_CsAuSe
_symmetry_space_group_name_H-M   'P 1'
_cell_length_a   4.48561621
_cell_length_b   4.48561621
_cell_length_c   8.39963627
_cell_angle_alpha   90.00000000
_cell_angle_beta   90.00000000
_cell_angle_gamma   90.00000000
_symmetry_Int_Tables_number   1
_chemical_formula_structural   CsAuSe
_chemical_formula_sum   'Cs2 Au2 Se2'
_cell_volume   169.00700461
_cell_formula_units_Z   2
loop_
 _symmetry_equiv_pos_site_id
 _symmetry_equiv_pos_as_xyz
  1  'x, y, z'
loop_
 _atom_site_type_symbol
 _atom_site_label
 _atom_site_symmetry_multiplicity
 _atom_site_fract_x
 _atom_site_fract_y
 _atom_site_fract_z
 _atom_site_occupancy
  Cs  Cs0  1  0.00000000  0.49999998  0.65386498  1
  Cs  Cs1  1  0.49999998  0.00000000  0.34613499  1
  Au  Au2  1  0.49999998  0.49999998  -0.00000000  1
  Au  Au3  1  0.00000000  0.00000000  0.00000000  1
  Se  Se4  1  0.00000000  0.49999998  0.16343999  1
  Se  Se5  1  0.49999998  0.00000000  0.83655997  1
