# generated using pymatgen
data_Cs4BaLi2F13
_symmetry_space_group_name_H-M   'P 1'
_cell_length_a   6.34381485
_cell_length_b   6.56030416
_cell_length_c   9.09897709
_cell_angle_alpha   90.00000000
_cell_angle_beta   89.68153381
_cell_angle_gamma   90.00000000
_symmetry_Int_Tables_number   1
_chemical_formula_structural   Cs4BaLi2F13
_chemical_formula_sum   'Cs4 Ba1 Li2 F13'
_cell_volume   378.66950999
_cell_formula_units_Z   1
loop_
 _symmetry_equiv_pos_site_id
 _symmetry_equiv_pos_as_xyz
  1  'x, y, z'
loop_
 _atom_site_type_symbol
 _atom_site_label
 _atom_site_symmetry_multiplicity
 _atom_site_fract_x
 _atom_site_fract_y
 _atom_site_fract_z
 _atom_site_occupancy
  Ba  Ba0  1  0.50000001  0.49999999  0.00000002  1
  F  F1  1  0.00000000  0.00000000  0.50000003  1
  Cs  Cs2  1  0.48802001  0.04964400  0.24736603  1
  Cs  Cs3  1  0.51198001  0.95035598  0.75263406  1
  Cs  Cs4  1  0.01198000  0.54964399  0.25263401  1
  Cs  Cs5  1  0.98802002  0.45035599  0.74736608  1
  Li  Li6  1  0.50000001  0.49999999  0.50000005  1
  Li  Li7  1  0.00000000  0.00000000  0.00000000  1
  F  F8  1  0.33282301  0.76876798  0.43723104  1
  F  F9  1  0.66717702  0.23123199  0.56276906  1
  F  F10  1  0.16717700  0.26876799  0.06276901  1
  F  F11  1  0.83282302  0.73123198  0.93723108  1
  F  F12  1  0.60306901  0.45231299  0.27947004  1
  F  F13  1  0.39693101  0.54768699  0.72053005  1
  F  F14  1  0.89693102  0.95231298  0.22053005  1
  F  F15  1  0.10306900  0.04768700  0.77947004  1
  F  F16  1  0.22564501  0.32567599  0.45432703  1
  F  F17  1  0.77435502  0.67432398  0.54567306  1
  F  F18  1  0.27435501  0.82567598  0.04567301  1
  F  F19  1  0.72564502  0.17432400  0.95432708  1
