# generated using pymatgen
data_Hg
_symmetry_space_group_name_H-M   'P 1'
_cell_length_a   5.31084490
_cell_length_b   6.82017279
_cell_length_c   9.92515373
_cell_angle_alpha   90.00000000
_cell_angle_beta   90.00000000
_cell_angle_gamma   90.00000000
_symmetry_Int_Tables_number   1
_chemical_formula_structural   Hg
_chemical_formula_sum   Hg12
_cell_volume   359.49780082
_cell_formula_units_Z   12
loop_
 _symmetry_equiv_pos_site_id
 _symmetry_equiv_pos_as_xyz
  1  'x, y, z'
loop_
 _atom_site_type_symbol
 _atom_site_label
 _atom_site_symmetry_multiplicity
 _atom_site_fract_x
 _atom_site_fract_y
 _atom_site_fract_z
 _atom_site_occupancy
  Hg  Hg0  1  0.25000000  0.80616403  0.92293202  1
  Hg  Hg1  1  0.25000000  0.30616401  0.57706802  1
  Hg  Hg2  1  0.75000001  0.19383601  0.07706800  1
  Hg  Hg3  1  0.75000001  0.69383602  0.42293201  1
  Hg  Hg4  1  0.25000000  0.97728003  0.29801401  1
  Hg  Hg5  1  0.25000000  0.47728001  0.20198601  1
  Hg  Hg6  1  0.75000001  0.02272000  0.70198602  1
  Hg  Hg7  1  0.75000001  0.52272002  0.79801402  1
  Hg  Hg8  1  0.25000000  0.28910701  0.89802202  1
  Hg  Hg9  1  0.25000000  0.78910702  0.60197802  1
  Hg  Hg10  1  0.75000001  0.71089302  0.10197800  1
  Hg  Hg11  1  0.75000001  0.21089301  0.39802201  1
