# generated using pymatgen
data_BaYbGe6
_symmetry_space_group_name_H-M   'P 1'
_cell_length_a   4.34913015
_cell_length_b   8.99337578
_cell_length_c   9.53691483
_cell_angle_alpha   118.13192749
_cell_angle_beta   103.18026733
_cell_angle_gamma   90.00000000
_symmetry_Int_Tables_number   1
_chemical_formula_structural   BaYbGe6
_chemical_formula_sum   'Ba2 Yb2 Ge12'
_cell_volume   317.76763422
_cell_formula_units_Z   2
loop_
 _symmetry_equiv_pos_site_id
 _symmetry_equiv_pos_as_xyz
  1  'x, y, z'
loop_
 _atom_site_type_symbol
 _atom_site_label
 _atom_site_symmetry_multiplicity
 _atom_site_fract_x
 _atom_site_fract_y
 _atom_site_fract_z
 _atom_site_occupancy
  Ba  Ba0  1  -0.00000003  0.73968099  -0.00000005  1
  Ba  Ba1  1  -0.00000001  0.26031900  -0.00000002  1
  Yb  Yb2  1  0.20629097  0.70629099  0.41258196  1
  Yb  Yb3  1  0.79370896  0.29370900  0.58741799  1
  Ge  Ge4  1  0.57843898  0.07843900  0.15687800  1
  Ge  Ge5  1  0.42156095  0.92156099  0.84312195  1
  Ge  Ge6  1  0.57734596  0.57734599  0.15469196  1
  Ge  Ge7  1  0.42265397  0.42265400  0.84530799  1
  Ge  Ge8  1  0.80031394  0.95378399  0.60062795  1
  Ge  Ge9  1  0.19968599  0.04621600  0.39937200  1
  Ge  Ge10  1  0.80031495  0.64684499  0.60062897  1
  Ge  Ge11  1  0.19968498  0.35315500  0.39937098  1
  Ge  Ge12  1  0.64633094  0.89756499  0.29266194  1
  Ge  Ge13  1  0.35366898  0.10243500  0.70733901  1
  Ge  Ge14  1  0.64632996  0.39509600  0.29266098  1
  Ge  Ge15  1  0.35366997  0.60490399  0.70733897  1
