# generated using pymatgen
data_GaP
_symmetry_space_group_name_H-M   'P 1'
_cell_length_a   5.64430189
_cell_length_b   5.64430189
_cell_length_c   6.85820293
_cell_angle_alpha   114.29910278
_cell_angle_beta   114.29910278
_cell_angle_gamma   90.00000000
_symmetry_Int_Tables_number   1
_chemical_formula_structural   GaP
_chemical_formula_sum   'Ga4 P4'
_cell_volume   177.68127900
_cell_formula_units_Z   4
loop_
 _symmetry_equiv_pos_site_id
 _symmetry_equiv_pos_as_xyz
  1  'x, y, z'
loop_
 _atom_site_type_symbol
 _atom_site_label
 _atom_site_symmetry_multiplicity
 _atom_site_fract_x
 _atom_site_fract_y
 _atom_site_fract_z
 _atom_site_occupancy
  Ga  Ga0  1  0.00000000  0.00000000  0.00000000  1
  Ga  Ga1  1  0.75000002  0.25000001  0.50000000  1
  Ga  Ga2  1  0.25000001  0.75000002  0.50000001  1
  Ga  Ga3  1  0.50000002  0.50000001  1.00000000  1
  P  P4  1  0.37375201  0.37375201  0.25662701  1
  P  P5  1  0.88287503  0.88287502  0.25662702  1
  P  P6  1  0.62624802  0.11712500  0.74337300  1
  P  P7  1  0.11712501  0.62624802  0.74337300  1
