# generated using pymatgen
data_MoF11
_symmetry_space_group_name_H-M   'P 1'
_cell_length_a   4.90985012
_cell_length_b   7.40494204
_cell_length_c   7.40494299
_cell_angle_alpha   119.99999237
_cell_angle_beta   90.00000000
_cell_angle_gamma   90.00000000
_symmetry_Int_Tables_number   1
_chemical_formula_structural   MoF11
_chemical_formula_sum   'Mo1 F11'
_cell_volume   233.15368429
_cell_formula_units_Z   1
loop_
 _symmetry_equiv_pos_site_id
 _symmetry_equiv_pos_as_xyz
  1  'x, y, z'
loop_
 _atom_site_type_symbol
 _atom_site_label
 _atom_site_symmetry_multiplicity
 _atom_site_fract_x
 _atom_site_fract_y
 _atom_site_fract_z
 _atom_site_occupancy
  Mo  Mo0  1  0.49999999  0.00000000  -0.00000000  1
  F  F1  1  0.99999998  0.49999998  0.49999997  1
  F  F2  1  0.00000000  0.00000000  0.50000000  1
  F  F3  1  0.99999998  0.49999998  -0.00000003  1
  F  F4  1  0.78605298  0.66666664  0.33333329  1
  F  F5  1  0.21394699  0.33333332  0.66666664  1
  F  F6  1  0.70123598  0.88977497  0.77954994  1
  F  F7  1  0.29876399  0.11022500  0.22044999  1
  F  F8  1  0.70123598  0.88977497  0.11022494  1
  F  F9  1  0.29876399  0.11022500  0.88977499  1
  F  F10  1  0.29876399  0.77954997  0.88977495  1
  F  F11  1  0.70123598  0.22044999  0.11022498  1
