# generated using pymatgen
data_Ba2CuO4
_symmetry_space_group_name_H-M   'P 1'
_cell_length_a   4.01958609
_cell_length_b   4.01958609
_cell_length_c   7.40790749
_cell_angle_alpha   105.74185944
_cell_angle_beta   105.74185944
_cell_angle_gamma   90.00000000
_symmetry_Int_Tables_number   1
_chemical_formula_structural   Ba2CuO4
_chemical_formula_sum   'Ba2 Cu1 O4'
_cell_volume   110.52967989
_cell_formula_units_Z   1
loop_
 _symmetry_equiv_pos_site_id
 _symmetry_equiv_pos_as_xyz
  1  'x, y, z'
loop_
 _atom_site_type_symbol
 _atom_site_label
 _atom_site_symmetry_multiplicity
 _atom_site_fract_x
 _atom_site_fract_y
 _atom_site_fract_z
 _atom_site_occupancy
  Ba  Ba0  1  0.64677096  0.64677098  0.29354196  1
  Ba  Ba1  1  0.35322898  0.35322899  0.70645797  1
  Cu  Cu2  1  0.00000000  0.00000000  0.00000000  1
  O  O3  1  0.84571895  0.84571897  0.69143794  1
  O  O4  1  0.15428099  0.15428099  0.30856199  1
  O  O5  1  0.49999998  0.00000000  -0.00000001  1
  O  O6  1  -0.00000001  0.49999998  0.99999997  1
