# generated using pymatgen
data_Cu2Te4Se
_symmetry_space_group_name_H-M   'P 1'
_cell_length_a   5.91207504
_cell_length_b   5.91207504
_cell_length_c   6.07946014
_cell_angle_alpha   90.00000000
_cell_angle_beta   90.00000000
_cell_angle_gamma   90.00000000
_symmetry_Int_Tables_number   1
_chemical_formula_structural   Cu2Te4Se
_chemical_formula_sum   'Cu2 Te4 Se1'
_cell_volume   212.49312898
_cell_formula_units_Z   1
loop_
 _symmetry_equiv_pos_site_id
 _symmetry_equiv_pos_as_xyz
  1  'x, y, z'
loop_
 _atom_site_type_symbol
 _atom_site_label
 _atom_site_symmetry_multiplicity
 _atom_site_fract_x
 _atom_site_fract_y
 _atom_site_fract_z
 _atom_site_occupancy
  Se  Se0  1  0.00000000  0.00000000  0.00000000  1
  Cu  Cu1  1  0.50000000  0.00000000  0.49999999  1
  Cu  Cu2  1  0.00000000  0.50000000  0.49999999  1
  Te  Te3  1  0.72693099  0.27306900  0.76552298  1
  Te  Te4  1  0.27306900  0.27306900  0.23447699  1
  Te  Te5  1  0.27306900  0.72693099  0.76552298  1
  Te  Te6  1  0.72693099  0.72693099  0.23447699  1
