# generated using pymatgen
data_Ga2Ag5Te3Se2
_symmetry_space_group_name_H-M   'P 1'
_cell_length_a   6.59071779
_cell_length_b   6.69418097
_cell_length_c   6.75814056
_cell_angle_alpha   114.39669800
_cell_angle_beta   90.00000000
_cell_angle_gamma   90.00000000
_symmetry_Int_Tables_number   1
_chemical_formula_structural   Ga2Ag5Te3Se2
_chemical_formula_sum   'Ga2 Ag5 Te3 Se2'
_cell_volume   271.54154359
_cell_formula_units_Z   1
loop_
 _symmetry_equiv_pos_site_id
 _symmetry_equiv_pos_as_xyz
  1  'x, y, z'
loop_
 _atom_site_type_symbol
 _atom_site_label
 _atom_site_symmetry_multiplicity
 _atom_site_fract_x
 _atom_site_fract_y
 _atom_site_fract_z
 _atom_site_occupancy
  Te  Te0  1  0.36053001  0.14096000  0.38122100  1
  Ag  Ag1  1  0.86053003  0.85904001  0.11877901  1
  Ag  Ag2  1  0.63947002  0.85904001  0.61877900  1
  Te  Te3  1  0.13947000  0.14096000  0.88122099  1
  Ag  Ag4  1  0.63598302  0.34644000  0.17919700  1
  Ag  Ag5  1  0.13598300  0.65356001  0.32080300  1
  Te  Te6  1  0.36401701  0.65356001  0.82080299  1
  Ag  Ag7  1  0.86401703  0.34644000  0.67919699  1
  Ga  Ga8  1  0.00063700  0.27699100  0.29378000  1
  Se  Se9  1  0.50063702  0.72300901  0.20622000  1
  Se  Se10  1  0.99936303  0.72300901  0.70622000  1
  Ga  Ga11  1  0.49936302  0.27699100  0.79377999  1
