# generated using pymatgen
data_Mg5Ga5Cu2
_symmetry_space_group_name_H-M   'P 1'
_cell_length_a   5.25374079
_cell_length_b   5.25436974
_cell_length_c   8.33075333
_cell_angle_alpha   90.00000000
_cell_angle_beta   90.00000000
_cell_angle_gamma   119.05844879
_symmetry_Int_Tables_number   1
_chemical_formula_structural   Mg5Ga5Cu2
_chemical_formula_sum   'Mg5 Ga5 Cu2'
_cell_volume   201.02354700
_cell_formula_units_Z   1
loop_
 _symmetry_equiv_pos_site_id
 _symmetry_equiv_pos_as_xyz
  1  'x, y, z'
loop_
 _atom_site_type_symbol
 _atom_site_label
 _atom_site_symmetry_multiplicity
 _atom_site_fract_x
 _atom_site_fract_y
 _atom_site_fract_z
 _atom_site_occupancy
  Mg  Mg0  1  0.33340297  0.66666664  0.54696098  1
  Mg  Mg1  1  0.67043599  0.32959899  0.42517198  1
  Mg  Mg2  1  0.67043599  0.32959899  0.07482800  1
  Mg  Mg3  1  0.33340297  0.66666664  0.95303896  1
  Ga  Ga4  1  0.99569402  0.00419900  0.47877798  1
  Mg  Mg5  1  0.99569402  0.00419900  0.02122200  1
  Ga  Ga6  1  0.34023700  0.16589399  0.74999997  1
  Ga  Ga7  1  0.83410697  0.65980097  0.74999997  1
  Ga  Ga8  1  0.83334500  0.16668599  0.74999997  1
  Ga  Ga9  1  0.64305296  0.82477097  0.24999999  1
  Cu  Cu10  1  0.17524098  0.35693599  0.24999999  1
  Cu  Cu11  1  0.17495295  0.82503797  0.24999999  1
