# generated using pymatgen
data_BaCoO3
_symmetry_space_group_name_H-M   'P 1'
_cell_length_a   5.63695383
_cell_length_b   5.63695383
_cell_length_c   8.22660542
_cell_angle_alpha   90.00000000
_cell_angle_beta   90.00000000
_cell_angle_gamma   90.00000000
_symmetry_Int_Tables_number   1
_chemical_formula_structural   BaCoO3
_chemical_formula_sum   'Ba4 Co4 O12'
_cell_volume   261.40243130
_cell_formula_units_Z   4
loop_
 _symmetry_equiv_pos_site_id
 _symmetry_equiv_pos_as_xyz
  1  'x, y, z'
loop_
 _atom_site_type_symbol
 _atom_site_label
 _atom_site_symmetry_multiplicity
 _atom_site_fract_x
 _atom_site_fract_y
 _atom_site_fract_z
 _atom_site_occupancy
  Ba  Ba0  1  0.00000000  0.50000002  0.25004499  1
  Ba  Ba1  1  0.50000002  0.00000000  0.74995496  1
  Ba  Ba2  1  0.50000002  0.00000000  0.25004499  1
  Ba  Ba3  1  0.00000000  0.50000002  0.74995496  1
  Co  Co4  1  0.00000000  0.00000000  0.00000000  1
  Co  Co5  1  0.50000002  0.50000002  0.49999997  1
  Co  Co6  1  0.50000002  0.50000002  -0.00000000  1
  Co  Co7  1  0.00000000  0.00000000  0.49999997  1
  O  O8  1  0.00000000  0.00000000  0.26237499  1
  O  O9  1  0.50000002  0.50000002  0.76261596  1
  O  O10  1  0.50000002  0.50000002  0.23738399  1
  O  O11  1  0.00000000  0.00000000  0.73762496  1
  O  O12  1  0.71816402  0.79702902  0.49999997  1
  O  O13  1  0.21762701  0.29924201  -0.00000000  1
  O  O14  1  0.78237302  0.70075802  0.00000000  1
  O  O15  1  0.28183601  0.20297101  0.49999997  1
  O  O16  1  0.70075802  0.21762701  -0.00000000  1
  O  O17  1  0.20297101  0.71816402  0.49999997  1
  O  O18  1  0.79702902  0.28183601  0.49999997  1
  O  O19  1  0.29924201  0.78237302  -0.00000000  1
