# generated using pymatgen
data_Tb2Ga5Co
_symmetry_space_group_name_H-M   'P 1'
_cell_length_a   5.60196018
_cell_length_b   7.17908907
_cell_length_c   7.25604010
_cell_angle_alpha   90.00000000
_cell_angle_beta   90.00000000
_cell_angle_gamma   90.00000000
_symmetry_Int_Tables_number   1
_chemical_formula_structural   Tb2Ga5Co
_chemical_formula_sum   'Tb4 Ga10 Co2'
_cell_volume   291.81595493
_cell_formula_units_Z   2
loop_
 _symmetry_equiv_pos_site_id
 _symmetry_equiv_pos_as_xyz
  1  'x, y, z'
loop_
 _atom_site_type_symbol
 _atom_site_label
 _atom_site_symmetry_multiplicity
 _atom_site_fract_x
 _atom_site_fract_y
 _atom_site_fract_z
 _atom_site_occupancy
  Tb  Tb0  1  0.35606099  0.74999999  0.02324400  1
  Tb  Tb1  1  0.14393900  0.74999999  0.52324399  1
  Tb  Tb2  1  0.64393898  0.25000000  0.97675599  1
  Tb  Tb3  1  0.85606097  0.25000000  0.47675599  1
  Ga  Ga4  1  0.63908698  0.74999999  0.37913999  1
  Ga  Ga5  1  0.86091297  0.74999999  0.87913999  1
  Co  Co6  1  0.36091299  0.25000000  0.62085999  1
  Co  Co7  1  0.13908700  0.25000000  0.12086000  1
  Ga  Ga8  1  0.91199897  0.55156299  0.18428800  1
  Ga  Ga9  1  0.58800098  0.94843699  0.68428799  1
  Ga  Ga10  1  0.08800100  0.05156300  0.81571199  1
  Ga  Ga11  1  0.41199899  0.44843700  0.31571200  1
  Ga  Ga12  1  0.08800100  0.44843700  0.81571199  1
  Ga  Ga13  1  0.41199899  0.05156300  0.31571200  1
  Ga  Ga14  1  0.91199897  0.94843699  0.18428800  1
  Ga  Ga15  1  0.58800098  0.55156299  0.68428799  1
