# generated using pymatgen
data_BaLaGe8
_symmetry_space_group_name_H-M   'P 1'
_cell_length_a   4.27454519
_cell_length_b   4.27454519
_cell_length_c   11.01248932
_cell_angle_alpha   90.00000000
_cell_angle_beta   90.00000000
_cell_angle_gamma   90.00000000
_symmetry_Int_Tables_number   1
_chemical_formula_structural   BaLaGe8
_chemical_formula_sum   'Ba1 La1 Ge8'
_cell_volume   201.21730419
_cell_formula_units_Z   1
loop_
 _symmetry_equiv_pos_site_id
 _symmetry_equiv_pos_as_xyz
  1  'x, y, z'
loop_
 _atom_site_type_symbol
 _atom_site_label
 _atom_site_symmetry_multiplicity
 _atom_site_fract_x
 _atom_site_fract_y
 _atom_site_fract_z
 _atom_site_occupancy
  La  La0  1  0.00000000  0.00000000  0.99794097  1
  Ba  Ba1  1  0.49999998  0.49999998  0.49752399  1
  Ge  Ge2  1  0.00000000  0.49999998  0.23796599  1
  Ge  Ge3  1  0.49999998  0.00000000  0.75423798  1
  Ge  Ge4  1  0.49999998  0.00000000  0.23796599  1
  Ge  Ge5  1  0.00000000  0.49999998  0.75423798  1
  Ge  Ge6  1  0.00000000  0.00000000  0.61402598  1
  Ge  Ge7  1  0.00000000  0.00000000  0.38349799  1
  Ge  Ge8  1  0.49999998  0.49999998  0.90201697  1
  Ge  Ge9  1  0.49999998  0.49999998  0.12058600  1
