# generated using pymatgen
data_P
_symmetry_space_group_name_H-M   'P 1'
_cell_length_a   5.64812803
_cell_length_b   6.51748943
_cell_length_c   5.64812803
_cell_angle_alpha   115.67752075
_cell_angle_beta   90.00000000
_cell_angle_gamma   115.67752075
_symmetry_Int_Tables_number   1
_chemical_formula_structural   P
_chemical_formula_sum   P6
_cell_volume   164.30586444
_cell_formula_units_Z   6
loop_
 _symmetry_equiv_pos_site_id
 _symmetry_equiv_pos_as_xyz
  1  'x, y, z'
loop_
 _atom_site_type_symbol
 _atom_site_label
 _atom_site_symmetry_multiplicity
 _atom_site_fract_x
 _atom_site_fract_y
 _atom_site_fract_z
 _atom_site_occupancy
  P  P0  1  0.00000000  0.00000000  0.00000000  1
  P  P1  1  0.25000001  0.50000000  0.75000001  1
  P  P2  1  0.62500002  0.74999999  0.10242702  1
  P  P3  1  0.35242701  0.25000000  0.37500001  1
  P  P4  1  0.89757300  0.25000000  0.87500000  1
  P  P5  1  0.12500002  0.74999999  0.64757302  1
