# generated using pymatgen
data_Al2BP2
_symmetry_space_group_name_H-M   'P 1'
_cell_length_a   2.53328395
_cell_length_b   2.53328371
_cell_length_c   8.15318966
_cell_angle_alpha   90.00000000
_cell_angle_beta   90.00000000
_cell_angle_gamma   120.00000000
_symmetry_Int_Tables_number   1
_chemical_formula_structural   Al2BP2
_chemical_formula_sum   'Al2 B1 P2'
_cell_volume   45.31331953
_cell_formula_units_Z   1
loop_
 _symmetry_equiv_pos_site_id
 _symmetry_equiv_pos_as_xyz
  1  'x, y, z'
loop_
 _atom_site_type_symbol
 _atom_site_label
 _atom_site_symmetry_multiplicity
 _atom_site_fract_x
 _atom_site_fract_y
 _atom_site_fract_z
 _atom_site_occupancy
  P  P0  1  0.66666666  0.33333333  0.13395801  1
  P  P1  1  0.66666666  0.33333333  0.62212803  1
  Al  Al2  1  0.33333329  0.66666665  0.86604204  1
  Al  Al3  1  0.33333329  0.66666665  0.37787202  1
  B  B4  1  0.00000000  0.00000000  0.00000000  1
