# generated using pymatgen
data_Tb(Co2B)6
_symmetry_space_group_name_H-M   'P 1'
_cell_length_a   5.97961569
_cell_length_b   5.97961569
_cell_length_c   5.97961569
_cell_angle_alpha   103.96244812
_cell_angle_beta   103.96244812
_cell_angle_gamma   103.96244812
_symmetry_Int_Tables_number   1
_chemical_formula_structural   Tb(Co2B)6
_chemical_formula_sum   'Tb1 Co12 B6'
_cell_volume   190.90472753
_cell_formula_units_Z   1
loop_
 _symmetry_equiv_pos_site_id
 _symmetry_equiv_pos_as_xyz
  1  'x, y, z'
loop_
 _atom_site_type_symbol
 _atom_site_label
 _atom_site_symmetry_multiplicity
 _atom_site_fract_x
 _atom_site_fract_y
 _atom_site_fract_z
 _atom_site_occupancy
  Tb  Tb0  1  0.00000000  0.00000000  0.00000000  1
  Co  Co1  1  0.18660301  0.45850002  0.45850004  1
  Co  Co2  1  0.45850002  0.45850002  0.18660305  1
  Co  Co3  1  0.45850002  0.18660301  0.45850004  1
  Co  Co4  1  0.81339704  0.54150002  0.54150007  1
  Co  Co5  1  0.54150002  0.54150002  0.81339706  1
  Co  Co6  1  0.54150003  0.81339704  0.54150007  1
  Co  Co7  1  0.13294901  0.86705104  0.50000006  1
  Co  Co8  1  0.86705104  0.50000002  0.13294907  1
  Co  Co9  1  0.50000002  0.13294901  0.86705104  1
  Co  Co10  1  0.13294901  0.50000002  0.86705104  1
  Co  Co11  1  0.50000002  0.86705104  0.13294907  1
  Co  Co12  1  0.86705104  0.13294901  0.50000005  1
  B  B13  1  0.67394903  0.23177301  0.23177305  1
  B  B14  1  0.23177301  0.23177301  0.67394903  1
  B  B15  1  0.23177301  0.67394903  0.23177305  1
  B  B16  1  0.32605102  0.76822703  0.76822706  1
  B  B17  1  0.76822703  0.76822703  0.32605108  1
  B  B18  1  0.76822703  0.32605101  0.76822706  1
