# generated using pymatgen
data_ScCu4Au
_symmetry_space_group_name_H-M   'P 1'
_cell_length_a   4.94472408
_cell_length_b   4.94472408
_cell_length_c   4.94472408
_cell_angle_alpha   60.00000000
_cell_angle_beta   60.00000000
_cell_angle_gamma   60.00000000
_symmetry_Int_Tables_number   1
_chemical_formula_structural   ScCu4Au
_chemical_formula_sum   'Sc1 Cu4 Au1'
_cell_volume   85.48918774
_cell_formula_units_Z   1
loop_
 _symmetry_equiv_pos_site_id
 _symmetry_equiv_pos_as_xyz
  1  'x, y, z'
loop_
 _atom_site_type_symbol
 _atom_site_label
 _atom_site_symmetry_multiplicity
 _atom_site_fract_x
 _atom_site_fract_y
 _atom_site_fract_z
 _atom_site_occupancy
  Sc  Sc0  1  0.00000000  0.00000000  0.00000000  1
  Cu  Cu1  1  0.37591601  0.37591701  0.87225002  1
  Cu  Cu2  1  0.37591601  0.37591701  0.37591701  1
  Au  Au3  1  0.75000001  0.75000001  0.75000001  1
  Cu  Cu4  1  0.37591601  0.87225002  0.37591701  1
  Cu  Cu5  1  0.87224902  0.37591701  0.37591701  1
