# generated using pymatgen
data_TbGe2
_symmetry_space_group_name_H-M   'P 1'
_cell_length_a   4.52490711
_cell_length_b   7.18107080
_cell_length_c   7.95797777
_cell_angle_alpha   90.00000000
_cell_angle_beta   90.00000000
_cell_angle_gamma   90.00000000
_symmetry_Int_Tables_number   1
_chemical_formula_structural   TbGe2
_chemical_formula_sum   'Tb4 Ge8'
_cell_volume   258.58397008
_cell_formula_units_Z   4
loop_
 _symmetry_equiv_pos_site_id
 _symmetry_equiv_pos_as_xyz
  1  'x, y, z'
loop_
 _atom_site_type_symbol
 _atom_site_label
 _atom_site_symmetry_multiplicity
 _atom_site_fract_x
 _atom_site_fract_y
 _atom_site_fract_z
 _atom_site_occupancy
  Tb  Tb0  1  0.24999999  0.02795000  0.68968402  1
  Tb  Tb1  1  0.24999999  0.52795001  0.81031602  1
  Tb  Tb2  1  0.74999998  0.97205003  0.31031601  1
  Tb  Tb3  1  0.74999998  0.47205001  0.18968401  1
  Ge  Ge4  1  0.24999999  0.15685900  0.06810700  1
  Ge  Ge5  1  0.24999999  0.65685902  0.43189301  1
  Ge  Ge6  1  0.74999998  0.84314102  0.93189303  1
  Ge  Ge7  1  0.74999998  0.34314101  0.56810702  1
  Ge  Ge8  1  0.24999999  0.27966501  0.39195801  1
  Ge  Ge9  1  0.24999999  0.77966502  0.10804200  1
  Ge  Ge10  1  0.74999998  0.72033502  0.60804202  1
  Ge  Ge11  1  0.74999998  0.22033501  0.89195803  1
