# generated using pymatgen
data_BaSr(MoO3)2
_symmetry_space_group_name_H-M   'P 1'
_cell_length_a   5.84787321
_cell_length_b   5.91875219
_cell_length_c   8.26580334
_cell_angle_alpha   90.00000000
_cell_angle_beta   90.00344849
_cell_angle_gamma   90.00000000
_symmetry_Int_Tables_number   1
_chemical_formula_structural   BaSr(MoO3)2
_chemical_formula_sum   'Ba2 Sr2 Mo4 O12'
_cell_volume   286.09691361
_cell_formula_units_Z   2
loop_
 _symmetry_equiv_pos_site_id
 _symmetry_equiv_pos_as_xyz
  1  'x, y, z'
loop_
 _atom_site_type_symbol
 _atom_site_label
 _atom_site_symmetry_multiplicity
 _atom_site_fract_x
 _atom_site_fract_y
 _atom_site_fract_z
 _atom_site_occupancy
  Ba  Ba0  1  0.00498300  0.96189797  0.74904897  1
  Sr  Sr1  1  0.49501698  0.46189798  0.75095099  1
  Ba  Ba2  1  0.99501696  0.03810200  0.25095103  1
  Sr  Sr3  1  0.50498298  0.53810198  0.24904901  1
  Mo  Mo4  1  0.00000000  0.49999998  -0.00000000  1
  Mo  Mo5  1  0.49999998  0.00000000  0.50000000  1
  Mo  Mo6  1  0.49999998  0.99999997  0.00000002  1
  Mo  Mo7  1  0.00000000  0.49999998  0.49999998  1
  O  O8  1  0.07328500  0.47867598  0.24791699  1
  O  O9  1  0.20032699  0.21206899  0.96054697  1
  O  O10  1  0.28927999  0.70072798  0.96396197  1
  O  O11  1  0.79967297  0.78793097  0.03945303  1
  O  O12  1  0.71071997  0.29927199  0.03603803  1
  O  O13  1  0.92671497  0.52132398  0.75208301  1
  O  O14  1  0.42671498  0.97867597  0.25208301  1
  O  O15  1  0.29967299  0.71206898  0.53945299  1
  O  O16  1  0.21071999  0.20072799  0.53603799  1
  O  O17  1  0.57328498  0.02132400  0.74791700  1
  O  O18  1  0.70032697  0.28793099  0.46054701  1
  O  O19  1  0.78927997  0.79927197  0.46396202  1
