# generated using pymatgen
data_Bi4MoI5
_symmetry_space_group_name_H-M   'P 1'
_cell_length_a   4.33887005
_cell_length_b   9.14727116
_cell_length_c   10.31949615
_cell_angle_alpha   102.19467926
_cell_angle_beta   102.13564301
_cell_angle_gamma   90.00000000
_symmetry_Int_Tables_number   1
_chemical_formula_structural   Bi4MoI5
_chemical_formula_sum   'Bi4 Mo1 I5'
_cell_volume   390.95785440
_cell_formula_units_Z   1
loop_
 _symmetry_equiv_pos_site_id
 _symmetry_equiv_pos_as_xyz
  1  'x, y, z'
loop_
 _atom_site_type_symbol
 _atom_site_label
 _atom_site_symmetry_multiplicity
 _atom_site_fract_x
 _atom_site_fract_y
 _atom_site_fract_z
 _atom_site_occupancy
  Bi  Bi0  1  0.14430200  0.07245800  0.28860401  1
  Bi  Bi1  1  0.85569796  0.92754195  0.71139599  1
  Bi  Bi2  1  0.49793098  0.21262299  0.99586202  1
  Bi  Bi3  1  0.50206897  0.78737696  0.00413797  1
  Mo  Mo4  1  0.00000000  0.00000000  0.00000000  1
  I  I5  1  0.33108999  0.17192799  0.66218001  1
  I  I6  1  0.66890996  0.82807196  0.33781998  1
  I  I7  1  0.33897997  0.66572097  0.67796000  1
  I  I8  1  0.66101998  0.33427898  0.32203999  1
  I  I9  1  -0.00000002  0.49999997  -0.00000001  1
