# generated using pymatgen
data_Li2Mn3O5
_symmetry_space_group_name_H-M   'P 1'
_cell_length_a   5.18785715
_cell_length_b   5.18978357
_cell_length_c   7.95535660
_cell_angle_alpha   71.17899323
_cell_angle_beta   83.68037415
_cell_angle_gamma   70.63108826
_symmetry_Int_Tables_number   1
_chemical_formula_structural   Li2Mn3O5
_chemical_formula_sum   'Li4 Mn6 O10'
_cell_volume   191.26095573
_cell_formula_units_Z   2
loop_
 _symmetry_equiv_pos_site_id
 _symmetry_equiv_pos_as_xyz
  1  'x, y, z'
loop_
 _atom_site_type_symbol
 _atom_site_label
 _atom_site_symmetry_multiplicity
 _atom_site_fract_x
 _atom_site_fract_y
 _atom_site_fract_z
 _atom_site_occupancy
  Li  Li0  1  0.49991398  0.90042297  0.19767203  1
  Li  Li1  1  0.49759598  0.49652498  0.00462402  1
  Li  Li2  1  0.99978597  0.40181599  0.19839001  1
  Mn  Mn3  1  0.99916697  0.20350899  0.59161400  1
  Mn  Mn4  1  0.49703298  0.30287599  0.38582301  1
  Li  Li5  1  0.99986297  0.00126600  0.00553200  1
  Mn  Mn6  1  0.50115998  0.69889998  0.60406502  1
  Mn  Mn7  1  0.00228299  0.80171497  0.39328303  1
  Mn  Mn8  1  0.99629597  0.59984398  0.80144401  1
  Mn  Mn9  1  0.50067799  0.09659300  0.80556100  1
  O  O10  1  0.76995598  0.32955999  0.81958601  1
  O  O11  1  0.26242499  0.43628798  0.58753601  1
  O  O12  1  0.74534798  0.15835799  0.20003200  1
  O  O13  1  0.74123397  0.97447097  0.58419303  1
  O  O14  1  0.23821699  0.84517997  0.81248103  1
  O  O15  1  0.22694099  0.22371399  0.00428301  1
  O  O16  1  0.26597399  0.07016200  0.39736500  1
  O  O17  1  0.77121197  0.77650797  0.00266702  1
  O  O18  1  0.72815798  0.53994798  0.40399401  1
  O  O19  1  0.25675799  0.64234798  0.19985402  1
