# generated using pymatgen
data_Nd(InCu)6
_symmetry_space_group_name_H-M   'P 1'
_cell_length_a   5.36535597
_cell_length_b   7.11594343
_cell_length_c   7.11594343
_cell_angle_alpha   81.99180603
_cell_angle_beta   67.85230255
_cell_angle_gamma   67.85230255
_symmetry_Int_Tables_number   1
_chemical_formula_structural   Nd(InCu)6
_chemical_formula_sum   'Nd1 In6 Cu6'
_cell_volume   233.06921235
_cell_formula_units_Z   1
loop_
 _symmetry_equiv_pos_site_id
 _symmetry_equiv_pos_as_xyz
  1  'x, y, z'
loop_
 _atom_site_type_symbol
 _atom_site_label
 _atom_site_symmetry_multiplicity
 _atom_site_fract_x
 _atom_site_fract_y
 _atom_site_fract_z
 _atom_site_occupancy
  Nd  Nd0  1  0.00000000  0.00000000  0.00000000  1
  In  In1  1  -0.00000003  0.34051201  0.65948802  1
  In  In2  1  -0.00000005  0.65948802  0.34051201  1
  In  In3  1  0.66244699  0.33755301  0.33755298  1
  In  In4  1  0.33755296  0.66244702  0.66244701  1
  In  In5  1  0.49999995  0.82366103  0.17633899  1
  In  In6  1  0.50000000  0.17633901  0.82366100  1
  Cu  Cu7  1  0.00000000  0.00000000  0.50000001  1
  Cu  Cu8  1  0.49999994  1.00000004  0.50000000  1
  Cu  Cu9  1  0.49999997  0.50000002  -0.00000001  1
  Cu  Cu10  1  -0.00000004  0.50000002  0.00000001  1
  Cu  Cu11  1  0.26448299  0.23551701  0.23551700  1
  Cu  Cu12  1  0.73551696  0.76448303  0.76448299  1
