# generated using pymatgen
data_CsGa4WO8
_symmetry_space_group_name_H-M   'P 1'
_cell_length_a   5.86949253
_cell_length_b   5.86949253
_cell_length_c   5.86949253
_cell_angle_alpha   60.00000000
_cell_angle_beta   60.00000000
_cell_angle_gamma   60.00000000
_symmetry_Int_Tables_number   1
_chemical_formula_structural   CsGa4WO8
_chemical_formula_sum   'Cs1 Ga4 W1 O8'
_cell_volume   142.98374409
_cell_formula_units_Z   1
loop_
 _symmetry_equiv_pos_site_id
 _symmetry_equiv_pos_as_xyz
  1  'x, y, z'
loop_
 _atom_site_type_symbol
 _atom_site_label
 _atom_site_symmetry_multiplicity
 _atom_site_fract_x
 _atom_site_fract_y
 _atom_site_fract_z
 _atom_site_occupancy
  W  W0  1  0.25000000  0.25000000  0.25000000  1
  O  O1  1  0.50000000  0.50000000  0.50000000  1
  O  O2  1  0.37500000  0.87500001  0.87500001  1
  O  O3  1  0.87500001  0.37500000  0.87500001  1
  Cs  Cs4  1  0.87500001  0.87500001  0.87500001  1
  O  O5  1  0.87500001  0.87500001  0.37500000  1
  Ga  Ga6  1  0.63814500  0.63814400  0.08556700  1
  Ga  Ga7  1  0.08556800  0.63814400  0.63814400  1
  O  O8  1  0.11185600  0.11185600  0.66443200  1
  O  O9  1  0.11185500  0.66443300  0.11185600  1
  O  O10  1  0.66443200  0.11185600  0.11185600  1
  O  O11  1  0.11185500  0.11185600  0.11185600  1
  Ga  Ga12  1  0.63814500  0.08556700  0.63814400  1
  Ga  Ga13  1  0.63814500  0.63814400  0.63814400  1
