# generated using pymatgen
data_BaLaI5
_symmetry_space_group_name_H-M   'P 1'
_cell_length_a   4.87365723
_cell_length_b   9.25509167
_cell_length_c   15.03418827
_cell_angle_alpha   89.68061066
_cell_angle_beta   90.00000000
_cell_angle_gamma   90.00000000
_symmetry_Int_Tables_number   1
_chemical_formula_structural   BaLaI5
_chemical_formula_sum   'Ba2 La2 I10'
_cell_volume   678.12373076
_cell_formula_units_Z   2
loop_
 _symmetry_equiv_pos_site_id
 _symmetry_equiv_pos_as_xyz
  1  'x, y, z'
loop_
 _atom_site_type_symbol
 _atom_site_label
 _atom_site_symmetry_multiplicity
 _atom_site_fract_x
 _atom_site_fract_y
 _atom_site_fract_z
 _atom_site_occupancy
  Ba  Ba0  1  0.74999997  0.07130200  0.84772402  1
  Ba  Ba1  1  0.24999999  0.92869803  0.15227604  1
  La  La2  1  0.24999999  0.42601202  0.65076203  1
  La  La3  1  0.74999997  0.57398802  0.34923803  1
  I  I4  1  0.24999999  0.07765500  0.66542602  1
  I  I5  1  0.74999997  0.16064201  0.07383601  1
  I  I6  1  0.74999997  0.32213901  0.51393302  1
  I  I7  1  0.24999999  0.36164701  0.86007203  1
  I  I8  1  0.24999999  0.36778501  0.28892202  1
  I  I9  1  0.74999997  0.63221502  0.71107804  1
  I  I10  1  0.74999997  0.63835302  0.13992803  1
  I  I11  1  0.24999999  0.67786102  0.48606704  1
  I  I12  1  0.24999999  0.83935803  0.92616405  1
  I  I13  1  0.74999997  0.92234503  0.33457404  1
