# generated using pymatgen
data_Er2Si4Mo3
_symmetry_space_group_name_H-M   'P 1'
_cell_length_a   6.71833181
_cell_length_b   6.90664721
_cell_length_c   6.84227467
_cell_angle_alpha   90.00000000
_cell_angle_beta   71.02964020
_cell_angle_gamma   90.00000000
_symmetry_Int_Tables_number   1
_chemical_formula_structural   Er2Si4Mo3
_chemical_formula_sum   'Er4 Si8 Mo6'
_cell_volume   300.24555465
_cell_formula_units_Z   2
loop_
 _symmetry_equiv_pos_site_id
 _symmetry_equiv_pos_as_xyz
  1  'x, y, z'
loop_
 _atom_site_type_symbol
 _atom_site_label
 _atom_site_symmetry_multiplicity
 _atom_site_fract_x
 _atom_site_fract_y
 _atom_site_fract_z
 _atom_site_occupancy
  Er  Er0  1  0.56088300  0.33045399  0.80929902  1
  Er  Er1  1  0.93911701  0.83045398  0.19070106  1
  Er  Er2  1  0.43911700  0.66954598  0.19070102  1
  Er  Er3  1  0.06088300  0.16954599  0.80929898  1
  Si  Si4  1  0.86757300  0.54355898  0.90995403  1
  Si  Si5  1  0.63242700  0.04355900  0.09004604  1
  Si  Si6  1  0.13242700  0.45644099  0.09004601  1
  Si  Si7  1  0.36757300  0.95644097  0.90995400  1
  Si  Si8  1  0.87084900  0.13178700  0.49612905  1
  Si  Si9  1  0.62915100  0.63178698  0.50387103  1
  Si  Si10  1  0.12915100  0.86821297  0.50387099  1
  Si  Si11  1  0.37084900  0.36821299  0.49612901  1
  Mo  Mo12  1  0.00000000  0.49999999  0.49999999  1
  Mo  Mo13  1  0.50000000  0.00000000  0.50000002  1
  Mo  Mo14  1  0.74967500  0.83748598  0.75191703  1
  Mo  Mo15  1  0.75032500  0.33748599  0.24808304  1
  Mo  Mo16  1  0.25032500  0.16251400  0.24808301  1
  Mo  Mo17  1  0.24967500  0.66251398  0.75191700  1
