# generated using pymatgen
data_LuSi2
_symmetry_space_group_name_H-M   'P 1'
_cell_length_a   4.22374392
_cell_length_b   5.34041786
_cell_length_c   5.34041786
_cell_angle_alpha   77.30962372
_cell_angle_beta   66.70591736
_cell_angle_gamma   66.70591736
_symmetry_Int_Tables_number   1
_chemical_formula_structural   LuSi2
_chemical_formula_sum   'Lu2 Si4'
_cell_volume   101.33704721
_cell_formula_units_Z   2
loop_
 _symmetry_equiv_pos_site_id
 _symmetry_equiv_pos_as_xyz
  1  'x, y, z'
loop_
 _atom_site_type_symbol
 _atom_site_label
 _atom_site_symmetry_multiplicity
 _atom_site_fract_x
 _atom_site_fract_y
 _atom_site_fract_z
 _atom_site_occupancy
  Lu  Lu0  1  0.45790203  0.29209799  0.79209801  1
  Lu  Lu1  1  0.54209807  0.70790199  0.20790198  1
  Si  Si2  1  0.83572907  0.71376899  0.61477300  1
  Si  Si3  1  0.16427103  0.28623099  0.38522699  1
  Si  Si4  1  0.16427110  0.88522698  0.78623095  1
  Si  Si5  1  0.83572901  0.11477300  0.21376904  1
