# generated using pymatgen
data_Lu(Mo2O3)2
_symmetry_space_group_name_H-M   'P 1'
_cell_length_a   6.27257204
_cell_length_b   6.27257204
_cell_length_c   6.44950581
_cell_angle_alpha   90.00000000
_cell_angle_beta   90.00000000
_cell_angle_gamma   120.00000000
_symmetry_Int_Tables_number   1
_chemical_formula_structural   Lu(Mo2O3)2
_chemical_formula_sum   'Lu1 Mo4 O6'
_cell_volume   219.75986799
_cell_formula_units_Z   1
loop_
 _symmetry_equiv_pos_site_id
 _symmetry_equiv_pos_as_xyz
  1  'x, y, z'
loop_
 _atom_site_type_symbol
 _atom_site_label
 _atom_site_symmetry_multiplicity
 _atom_site_fract_x
 _atom_site_fract_y
 _atom_site_fract_z
 _atom_site_occupancy
  Lu  Lu0  1  0.00000000  0.00000000  0.50000002  1
  Mo  Mo1  1  0.66666667  0.33333335  0.19617801  1
  Mo  Mo2  1  0.33333335  0.66666670  0.80382202  1
  O  O3  1  0.78074401  0.63853803  0.29109201  1
  O  O4  1  0.85779400  0.21925601  0.29109201  1
  Mo  Mo5  1  0.66666667  0.33333335  0.92713403  1
  O  O6  1  0.63853802  0.85779404  0.70890802  1
  O  O7  1  0.36146200  0.14220601  0.29109201  1
  Mo  Mo8  1  0.33333335  0.66666670  0.07286600  1
  O  O9  1  0.14220602  0.78074404  0.70890802  1
  O  O10  1  0.21925601  0.36146202  0.70890802  1
