# generated using pymatgen
data_SrBi7O12
_symmetry_space_group_name_H-M   'P 1'
_cell_length_a   5.60480118
_cell_length_b   5.89057493
_cell_length_c   8.21850586
_cell_angle_alpha   90.00000000
_cell_angle_beta   90.00000000
_cell_angle_gamma   90.00000000
_symmetry_Int_Tables_number   1
_chemical_formula_structural   SrBi7O12
_chemical_formula_sum   'Sr1 Bi7 O12'
_cell_volume   271.33809104
_cell_formula_units_Z   1
loop_
 _symmetry_equiv_pos_site_id
 _symmetry_equiv_pos_as_xyz
  1  'x, y, z'
loop_
 _atom_site_type_symbol
 _atom_site_label
 _atom_site_symmetry_multiplicity
 _atom_site_fract_x
 _atom_site_fract_y
 _atom_site_fract_z
 _atom_site_occupancy
  Sr  Sr0  1  0.01508200  0.94328701  0.75000001  1
  Bi  Bi1  1  0.48491798  0.44328701  0.75000001  1
  Bi  Bi2  1  0.51508198  0.55671301  0.25000000  1
  Bi  Bi3  1  0.98491797  0.05671300  0.25000000  1
  Bi  Bi4  1  0.00000000  0.50000001  -0.00000000  1
  Bi  Bi5  1  0.00000000  0.50000001  0.50000001  1
  Bi  Bi6  1  0.49999998  0.00000000  0.00000000  1
  Bi  Bi7  1  0.49999998  0.00000000  0.50000001  1
  O  O8  1  0.14046700  0.42801900  0.25000000  1
  O  O9  1  0.18129099  0.18526500  0.57256001  1
  O  O10  1  0.18129099  0.18526500  0.92744002  1
  O  O11  1  0.31870899  0.68526501  0.92744002  1
  O  O12  1  0.31870899  0.68526501  0.57256001  1
  O  O13  1  0.35953299  0.92801901  0.25000000  1
  O  O14  1  0.64046698  0.07198100  0.75000001  1
  O  O15  1  0.68129098  0.31473500  0.42744001  1
  O  O16  1  0.68129098  0.31473500  0.07256000  1
  O  O17  1  0.81870897  0.81473501  0.07256000  1
  O  O18  1  0.81870897  0.81473501  0.42744001  1
  O  O19  1  0.85953297  0.57198101  0.75000001  1
