# generated using pymatgen
data_CuO
_symmetry_space_group_name_H-M   'P 1'
_cell_length_a   3.15476394
_cell_length_b   5.99440384
_cell_length_c   7.47097063
_cell_angle_alpha   104.29338074
_cell_angle_beta   90.00000000
_cell_angle_gamma   105.25660706
_symmetry_Int_Tables_number   1
_chemical_formula_structural   CuO
_chemical_formula_sum   'Cu6 O6'
_cell_volume   131.76507097
_cell_formula_units_Z   6
loop_
 _symmetry_equiv_pos_site_id
 _symmetry_equiv_pos_as_xyz
  1  'x, y, z'
loop_
 _atom_site_type_symbol
 _atom_site_label
 _atom_site_symmetry_multiplicity
 _atom_site_fract_x
 _atom_site_fract_y
 _atom_site_fract_z
 _atom_site_occupancy
  Cu  Cu0  1  0.94381108  0.88762200  0.38908000  1
  Cu  Cu1  1  0.88887807  0.77775600  0.77683401  1
  Cu  Cu2  1  0.22248904  0.44497800  0.44475601  1
  Cu  Cu3  1  0.55451102  0.10902200  0.11266400  1
  Cu  Cu4  1  0.27769004  0.55538000  0.05792000  1
  Cu  Cu5  1  0.60963003  0.21926000  0.72174201  1
  O  O6  1  0.14770702  0.29541400  0.18512600  1
  O  O7  1  0.48128208  0.96256400  0.85272401  1
  O  O8  1  0.81786406  0.63572800  0.51532201  1
  O  O9  1  0.76480505  0.52961000  0.90140802  1
  O  O10  1  0.09469001  0.18938000  0.56399601  1
  O  O11  1  0.43200707  0.86401400  0.24322900  1
