# generated using pymatgen
data_Mn6O7F5
_symmetry_space_group_name_H-M   'P 1'
_cell_length_a   4.60712099
_cell_length_b   5.52750397
_cell_length_c   7.69187450
_cell_angle_alpha   93.27544403
_cell_angle_beta   90.00000000
_cell_angle_gamma   90.00000000
_symmetry_Int_Tables_number   1
_chemical_formula_structural   Mn6O7F5
_chemical_formula_sum   'Mn6 O7 F5'
_cell_volume   195.56035872
_cell_formula_units_Z   1
loop_
 _symmetry_equiv_pos_site_id
 _symmetry_equiv_pos_as_xyz
  1  'x, y, z'
loop_
 _atom_site_type_symbol
 _atom_site_label
 _atom_site_symmetry_multiplicity
 _atom_site_fract_x
 _atom_site_fract_y
 _atom_site_fract_z
 _atom_site_occupancy
  Mn  Mn0  1  0.53039700  0.33257000  0.84019500  1
  Mn  Mn1  1  0.46960300  0.66743000  0.15980501  1
  Mn  Mn2  1  0.50000000  0.00000000  0.50000000  1
  Mn  Mn3  1  0.03039700  0.16743000  0.15980500  1
  Mn  Mn4  1  0.00000000  0.50000000  0.50000000  1
  Mn  Mn5  1  0.96960300  0.83257001  0.84019500  1
  O  O6  1  0.19081600  0.20284000  0.39213200  1
  O  O7  1  0.19039700  0.87068801  0.05976201  1
  O  O8  1  0.30960300  0.37068800  0.05976200  1
  O  O9  1  0.30918400  0.70284000  0.39213200  1
  O  O10  1  0.69081600  0.29716000  0.60786800  1
  O  O11  1  0.69039700  0.62931200  0.94023800  1
  F  F12  1  0.80918400  0.79716001  0.60786800  1
  O  O13  1  0.80960300  0.12931200  0.94023800  1
  F  F14  1  0.20689500  0.53825700  0.74627900  1
  F  F15  1  0.29310500  0.03825700  0.74627900  1
  F  F16  1  0.70689500  0.96174301  0.25372101  1
  F  F17  1  0.79310500  0.46174300  0.25372100  1
