# generated using pymatgen
data_CoB4POs2
_symmetry_space_group_name_H-M   'P 1'
_cell_length_a   3.05006790
_cell_length_b   3.05006766
_cell_length_c   12.48642921
_cell_angle_alpha   90.00000000
_cell_angle_beta   90.00000000
_cell_angle_gamma   120.00000000
_symmetry_Int_Tables_number   1
_chemical_formula_structural   CoB4POs2
_chemical_formula_sum   'Co1 B4 P1 Os2'
_cell_volume   100.59765867
_cell_formula_units_Z   1
loop_
 _symmetry_equiv_pos_site_id
 _symmetry_equiv_pos_as_xyz
  1  'x, y, z'
loop_
 _atom_site_type_symbol
 _atom_site_label
 _atom_site_symmetry_multiplicity
 _atom_site_fract_x
 _atom_site_fract_y
 _atom_site_fract_z
 _atom_site_occupancy
  P  P0  1  0.00000000  0.00000000  0.00000000  1
  Co  Co1  1  0.00000000  0.00000000  0.49999999  1
  Os  Os2  1  0.33333330  0.66666665  0.25000000  1
  Os  Os3  1  0.66666667  0.33333332  0.74999999  1
  B  B4  1  0.66666667  0.33333332  0.58003099  1
  B  B5  1  0.33333330  0.66666665  0.08003100  1
  B  B6  1  0.66666667  0.33333332  0.91996898  1
  B  B7  1  0.33333330  0.66666665  0.41996899  1
