# generated using pymatgen
data_Mg
_symmetry_space_group_name_H-M   'P 1'
_cell_length_a   3.19810200
_cell_length_b   6.01336908
_cell_length_c   7.38346672
_cell_angle_alpha   104.51103210
_cell_angle_beta   90.00000000
_cell_angle_gamma   105.42138672
_symmetry_Int_Tables_number   1
_chemical_formula_structural   Mg
_chemical_formula_sum   Mg6
_cell_volume   132.17705535
_cell_formula_units_Z   6
loop_
 _symmetry_equiv_pos_site_id
 _symmetry_equiv_pos_as_xyz
  1  'x, y, z'
loop_
 _atom_site_type_symbol
 _atom_site_label
 _atom_site_symmetry_multiplicity
 _atom_site_fract_x
 _atom_site_fract_y
 _atom_site_fract_z
 _atom_site_occupancy
  Mg  Mg0  1  0.19107598  0.38215200  0.63654402  1
  Mg  Mg1  1  0.86204897  0.72409801  0.97269704  1
  Mg  Mg2  1  0.13795099  0.27590200  0.02730301  1
  Mg  Mg3  1  0.80892397  0.61784800  0.36345603  1
  Mg  Mg4  1  0.47097796  0.94195601  0.69611104  1
  Mg  Mg5  1  0.52902200  0.05804400  0.30388901  1
