# generated using pymatgen
data_Mn2OF2
_symmetry_space_group_name_H-M   'P 1'
_cell_length_a   5.13337088
_cell_length_b   5.23523188
_cell_length_c   9.11554146
_cell_angle_alpha   90.00000000
_cell_angle_beta   90.00000000
_cell_angle_gamma   94.22167206
_symmetry_Int_Tables_number   1
_chemical_formula_structural   Mn2OF2
_chemical_formula_sum   'Mn8 O4 F8'
_cell_volume   244.30989879
_cell_formula_units_Z   4
loop_
 _symmetry_equiv_pos_site_id
 _symmetry_equiv_pos_as_xyz
  1  'x, y, z'
loop_
 _atom_site_type_symbol
 _atom_site_label
 _atom_site_symmetry_multiplicity
 _atom_site_fract_x
 _atom_site_fract_y
 _atom_site_fract_z
 _atom_site_occupancy
  Mn  Mn0  1  0.00000000  0.00000000  0.68249397  1
  Mn  Mn1  1  0.50000001  0.00000000  0.84911296  1
  Mn  Mn2  1  -0.00000002  0.49999999  0.32255898  1
  Mn  Mn3  1  0.49999999  0.49999999  0.16741799  1
  Mn  Mn4  1  -0.00000000  0.00000000  0.10325499  1
  Mn  Mn5  1  0.50000001  0.00000000  0.40541098  1
  Mn  Mn6  1  -0.00000002  0.49999999  0.91499795  1
  Mn  Mn7  1  0.49999999  0.49999999  0.60004297  1
  F  F8  1  0.76426699  0.82020498  0.24903399  1
  O  O9  1  0.71172599  0.85089998  0.56435897  1
  F  F10  1  0.78208999  0.79595698  0.94179395  1
  O  O11  1  0.29042298  0.65380198  0.43768798  1
  F  F12  1  0.20535598  0.68567298  0.07970000  1
  F  F13  1  0.20795598  0.69559298  0.77532096  1
  F  F14  1  0.79204401  0.30440699  0.77532096  1
  F  F15  1  0.79464401  0.31432699  0.07970000  1
  O  O16  1  0.70957700  0.34619799  0.43768798  1
  F  F17  1  0.21791000  0.20404299  0.94179395  1
  O  O18  1  0.28827400  0.14910000  0.56435897  1
  F  F19  1  0.23573300  0.17979500  0.24903399  1
