# generated using pymatgen
data_Cs8F9
_symmetry_space_group_name_H-M   'P 1'
_cell_length_a   8.15813732
_cell_length_b   8.15813732
_cell_length_c   8.15813732
_cell_angle_alpha   109.47122192
_cell_angle_beta   109.47122192
_cell_angle_gamma   109.47122192
_symmetry_Int_Tables_number   1
_chemical_formula_structural   Cs8F9
_chemical_formula_sum   'Cs8 F9'
_cell_volume   417.97578526
_cell_formula_units_Z   1
loop_
 _symmetry_equiv_pos_site_id
 _symmetry_equiv_pos_as_xyz
  1  'x, y, z'
loop_
 _atom_site_type_symbol
 _atom_site_label
 _atom_site_symmetry_multiplicity
 _atom_site_fract_x
 _atom_site_fract_y
 _atom_site_fract_z
 _atom_site_occupancy
  Cs  Cs0  1  0.00000000  0.00000000  0.00000000  1
  F  F1  1  0.15656703  0.33831803  0.49488505  1
  F  F2  1  0.84343309  0.66168206  0.50511508  1
  Cs  Cs3  1  0.15656705  0.66168106  0.81824908  1
  Cs  Cs4  1  0.84343307  0.33831903  0.18175105  1
  F  F5  1  0.66168207  0.50511504  0.84343308  1
  F  F6  1  0.33831805  0.49488504  0.15656704  1
  Cs  Cs7  1  0.33831803  0.18175102  0.84343206  1
  Cs  Cs8  1  0.66168209  0.81824907  0.15656807  1
  Cs  Cs9  1  0.81824905  0.15656701  0.66168206  1
  Cs  Cs10  1  0.18175106  0.84343307  0.33831807  1
  F  F11  1  0.49488604  0.15656801  0.33831904  1
  F  F12  1  0.50511408  0.84343207  0.66168109  1
  Cs  Cs13  1  0.50000006  0.50000004  0.50000006  1
  F  F14  1  0.00000000  0.00000000  0.50000002  1
  F  F15  1  0.00000003  0.50000004  1.00000007  1
  F  F16  1  0.50000009  1.00000009  1.00000011  1
