# generated using pymatgen
data_Cs2Cu3F8
_symmetry_space_group_name_H-M   'P 1'
_cell_length_a   3.88298893
_cell_length_b   7.53009415
_cell_length_c   7.53009319
_cell_angle_alpha   120.00000000
_cell_angle_beta   90.00000000
_cell_angle_gamma   90.00000000
_symmetry_Int_Tables_number   1
_chemical_formula_structural   Cs2Cu3F8
_chemical_formula_sum   'Cs2 Cu3 F8'
_cell_volume   190.67666233
_cell_formula_units_Z   1
loop_
 _symmetry_equiv_pos_site_id
 _symmetry_equiv_pos_as_xyz
  1  'x, y, z'
loop_
 _atom_site_type_symbol
 _atom_site_label
 _atom_site_symmetry_multiplicity
 _atom_site_fract_x
 _atom_site_fract_y
 _atom_site_fract_z
 _atom_site_occupancy
  Cs  Cs0  1  0.00000000  0.00000000  0.00000000  1
  Cu  Cu1  1  0.50000001  0.49999998  1.00000000  1
  Cu  Cu2  1  0.50000001  0.49999998  0.49999999  1
  Cu  Cu3  1  0.50000001  0.00000000  0.50000001  1
  F  F4  1  0.50000001  0.78973496  0.57946997  1
  F  F5  1  0.50000001  0.57946897  0.78973399  1
  F  F6  1  1.00000002  0.49999998  0.49999999  1
  F  F7  1  0.50000001  0.21026499  0.78973401  1
  F  F8  1  -0.00000000  0.49999998  1.00000000  1
  F  F9  1  0.00000000  0.00000000  0.50000001  1
  F  F10  1  0.50000001  0.42053098  0.21026598  1
  F  F11  1  0.50000001  0.21026499  0.42053000  1
  Cs  Cs12  1  0.50000001  0.78973496  0.21026596  1
