# generated using pymatgen
data_Cd5As4
_symmetry_space_group_name_H-M   'P 1'
_cell_length_a   3.58550596
_cell_length_b   7.58331776
_cell_length_c   7.58331776
_cell_angle_alpha   86.79615784
_cell_angle_beta   76.32539368
_cell_angle_gamma   76.32539368
_symmetry_Int_Tables_number   1
_chemical_formula_structural   Cd5As4
_chemical_formula_sum   'Cd5 As4'
_cell_volume   194.66695517
_cell_formula_units_Z   1
loop_
 _symmetry_equiv_pos_site_id
 _symmetry_equiv_pos_as_xyz
  1  'x, y, z'
loop_
 _atom_site_type_symbol
 _atom_site_label
 _atom_site_symmetry_multiplicity
 _atom_site_fract_x
 _atom_site_fract_y
 _atom_site_fract_z
 _atom_site_occupancy
  Cd  Cd0  1  0.00000000  0.00000000  0.00000000  1
  Cd  Cd1  1  0.31172700  0.06075100  0.31579599  1
  Cd  Cd2  1  0.62752192  0.68420400  0.06075202  1
  Cd  Cd3  1  0.37247796  0.31579600  0.93924799  1
  Cd  Cd4  1  0.68827289  0.93924900  0.68420402  1
  As  As5  1  0.05314297  0.24013500  0.65357900  1
  As  As6  1  0.70672297  0.34642000  0.24013500  1
  As  As7  1  0.29327692  0.65358000  0.75986502  1
  As  As8  1  0.94685692  0.75986500  0.34642101  1
