# generated using pymatgen
data_Co2Si
_symmetry_space_group_name_H-M   'P 1'
_cell_length_a   3.78061700
_cell_length_b   4.88656378
_cell_length_c   7.12575006
_cell_angle_alpha   90.00000000
_cell_angle_beta   90.00000000
_cell_angle_gamma   90.00000000
_symmetry_Int_Tables_number   1
_chemical_formula_structural   Co2Si
_chemical_formula_sum   'Co8 Si4'
_cell_volume   131.64271772
_cell_formula_units_Z   4
loop_
 _symmetry_equiv_pos_site_id
 _symmetry_equiv_pos_as_xyz
  1  'x, y, z'
loop_
 _atom_site_type_symbol
 _atom_site_label
 _atom_site_symmetry_multiplicity
 _atom_site_fract_x
 _atom_site_fract_y
 _atom_site_fract_z
 _atom_site_occupancy
  Co  Co0  1  0.75000000  0.45563702  0.22604100  1
  Co  Co1  1  0.75000000  0.95563704  0.27395900  1
  Co  Co2  1  0.25000000  0.54436302  0.77395899  1
  Co  Co3  1  0.25000000  0.04436300  0.72604099  1
  Co  Co4  1  0.75000000  0.32174901  0.56371599  1
  Co  Co5  1  0.75000000  0.82174904  0.93628399  1
  Co  Co6  1  0.25000000  0.67825103  0.43628500  1
  Co  Co7  1  0.25000000  0.17825101  0.06371500  1
  Si  Si8  1  0.75000000  0.29221301  0.89395199  1
  Si  Si9  1  0.75000000  0.79221304  0.60604799  1
  Si  Si10  1  0.25000000  0.70778703  0.10604800  1
  Si  Si11  1  0.25000000  0.20778701  0.39395200  1
