# generated using pymatgen
data_GaO
_symmetry_space_group_name_H-M   'P 1'
_cell_length_a   2.95512009
_cell_length_b   2.95512009
_cell_length_c   12.33883667
_cell_angle_alpha   90.00000000
_cell_angle_beta   90.00000000
_cell_angle_gamma   120.00000000
_symmetry_Int_Tables_number   1
_chemical_formula_structural   GaO
_chemical_formula_sum   'Ga4 O4'
_cell_volume   93.31578526
_cell_formula_units_Z   4
loop_
 _symmetry_equiv_pos_site_id
 _symmetry_equiv_pos_as_xyz
  1  'x, y, z'
loop_
 _atom_site_type_symbol
 _atom_site_label
 _atom_site_symmetry_multiplicity
 _atom_site_fract_x
 _atom_site_fract_y
 _atom_site_fract_z
 _atom_site_occupancy
  Ga  Ga0  1  0.00000000  0.00000000  0.00000000  1
  O  O1  1  0.00000000  0.00000000  0.50000001  1
  O  O2  1  0.66666665  0.33333332  0.75000002  1
  Ga  Ga3  1  0.33333332  0.66666665  0.25000001  1
  Ga  Ga4  1  0.66666665  0.33333332  0.91650802  1
  Ga  Ga5  1  0.66666665  0.33333332  0.58349202  1
  O  O6  1  0.33333332  0.66666665  0.41650801  1
  O  O7  1  0.33333332  0.66666665  0.08349200  1
