# generated using pymatgen
data_Co3(OF)2
_symmetry_space_group_name_H-M   'P 1'
_cell_length_a   5.66037798
_cell_length_b   6.14588261
_cell_length_c   6.14588261
_cell_angle_alpha   61.25702667
_cell_angle_beta   62.58051682
_cell_angle_gamma   62.58051682
_symmetry_Int_Tables_number   1
_chemical_formula_structural   Co3(OF)2
_chemical_formula_sum   'Co6 O4 F4'
_cell_volume   158.35618223
_cell_formula_units_Z   2
loop_
 _symmetry_equiv_pos_site_id
 _symmetry_equiv_pos_as_xyz
  1  'x, y, z'
loop_
 _atom_site_type_symbol
 _atom_site_label
 _atom_site_symmetry_multiplicity
 _atom_site_fract_x
 _atom_site_fract_y
 _atom_site_fract_z
 _atom_site_occupancy
  Co  Co0  1  0.37991000  0.62009001  0.62008999  1
  Co  Co1  1  0.63196299  0.86803701  0.86803698  1
  Co  Co2  1  0.47279900  0.24998000  0.24997999  1
  Co  Co3  1  0.02724100  0.24998000  0.24998000  1
  Co  Co4  1  0.99893200  0.75374501  0.24839098  1
  Co  Co5  1  0.99893201  0.24839100  0.75374498  1
  F  F6  1  0.76630800  0.45018100  0.01720298  1
  F  F7  1  0.76630701  0.01720300  0.45018198  1
  F  F8  1  0.21760400  0.02161300  0.02161199  1
  F  F9  1  0.73917201  0.02161200  0.02161198  1
  O  O10  1  0.23087000  0.02027400  0.51798599  1
  O  O11  1  0.23087099  0.51798600  0.02027299  1
  O  O12  1  0.78890300  0.48045500  0.48045498  1
  O  O13  1  0.25018700  0.48045500  0.48045499  1
