# generated using pymatgen
data_EuAu2
_symmetry_space_group_name_H-M   'P 1'
_cell_length_a   4.79228783
_cell_length_b   7.36131716
_cell_length_c   8.33398438
_cell_angle_alpha   90.00000000
_cell_angle_beta   90.00000000
_cell_angle_gamma   90.00000000
_symmetry_Int_Tables_number   1
_chemical_formula_structural   EuAu2
_chemical_formula_sum   'Eu4 Au8'
_cell_volume   294.00255551
_cell_formula_units_Z   4
loop_
 _symmetry_equiv_pos_site_id
 _symmetry_equiv_pos_as_xyz
  1  'x, y, z'
loop_
 _atom_site_type_symbol
 _atom_site_label
 _atom_site_symmetry_multiplicity
 _atom_site_fract_x
 _atom_site_fract_y
 _atom_site_fract_z
 _atom_site_occupancy
  Eu  Eu0  1  0.75000003  0.51910799  0.19514099  1
  Eu  Eu1  1  0.75000003  0.01910800  0.30485899  1
  Eu  Eu2  1  0.25000001  0.48089199  0.80485896  1
  Eu  Eu3  1  0.25000001  0.98089198  0.69514097  1
  Au  Au4  1  0.75000003  0.28273499  0.59632997  1
  Au  Au5  1  0.75000003  0.78273498  0.90366996  1
  Au  Au6  1  0.25000001  0.71726498  0.40366998  1
  Au  Au7  1  0.25000001  0.21726500  0.09633000  1
  Au  Au8  1  0.75000003  0.17803300  0.92066396  1
  Au  Au9  1  0.75000003  0.67803299  0.57933597  1
  Au  Au10  1  0.25000001  0.82196698  0.07933600  1
  Au  Au11  1  0.25000001  0.32196699  0.42066398  1
