# generated using pymatgen
data_WO3
_symmetry_space_group_name_H-M   'P 1'
_cell_length_a   5.11026573
_cell_length_b   5.11026573
_cell_length_c   5.37839174
_cell_angle_alpha   61.63584900
_cell_angle_beta   61.63584900
_cell_angle_gamma   60.00000381
_symmetry_Int_Tables_number   1
_chemical_formula_structural   WO3
_chemical_formula_sum   'W2 O6'
_cell_volume   101.70244407
_cell_formula_units_Z   2
loop_
 _symmetry_equiv_pos_site_id
 _symmetry_equiv_pos_as_xyz
  1  'x, y, z'
loop_
 _atom_site_type_symbol
 _atom_site_label
 _atom_site_symmetry_multiplicity
 _atom_site_fract_x
 _atom_site_fract_y
 _atom_site_fract_z
 _atom_site_occupancy
  W  W0  1  0.49999998  0.49999999  0.50000001  1
  W  W1  1  0.00000000  0.00000000  0.00000000  1
  O  O2  1  0.62926397  0.84801899  0.26077004  1
  O  O3  1  0.26194698  0.62926399  0.26077002  1
  O  O4  1  0.84801898  0.26194700  0.26077002  1
  O  O5  1  0.15198098  0.73805299  0.73923000  1
  O  O6  1  0.73805298  0.37073600  0.73923000  1
  O  O7  1  0.37073599  0.15198100  0.73922999  1
