# generated using pymatgen
data_Co
_symmetry_space_group_name_H-M   'P 1'
_cell_length_a   5.03440952
_cell_length_b   5.03440952
_cell_length_c   6.75760078
_cell_angle_alpha   68.13012695
_cell_angle_beta   68.13012695
_cell_angle_gamma   60.00000381
_symmetry_Int_Tables_number   1
_chemical_formula_structural   Co
_chemical_formula_sum   Co12
_cell_volume   133.90502636
_cell_formula_units_Z   12
loop_
 _symmetry_equiv_pos_site_id
 _symmetry_equiv_pos_as_xyz
  1  'x, y, z'
loop_
 _atom_site_type_symbol
 _atom_site_label
 _atom_site_symmetry_multiplicity
 _atom_site_fract_x
 _atom_site_fract_y
 _atom_site_fract_z
 _atom_site_occupancy
  Co  Co0  1  0.21853200  0.21853201  0.34440400  1
  Co  Co1  1  0.00042300  0.00042300  0.99873098  1
  Co  Co2  1  0.23383899  0.71831202  0.32953701  1
  Co  Co3  1  0.71831201  0.71831202  0.32953701  1
  Co  Co4  1  0.71831202  0.23383901  0.32953700  1
  Co  Co5  1  0.76862402  0.28193901  0.66749800  1
  Co  Co6  1  0.28193900  0.28193901  0.66749799  1
  Co  Co7  1  0.28193900  0.76862403  0.66749800  1
  Co  Co8  1  0.49755201  0.49755202  0.00256601  1
  Co  Co9  1  0.49755201  0.00233000  0.00256601  1
  Co  Co10  1  0.00232999  0.49755202  0.00256601  1
  Co  Co11  1  0.78064501  0.78064503  0.65806501  1
