# generated using pymatgen
data_GaO
_symmetry_space_group_name_H-M   'P 1'
_cell_length_a   5.99279785
_cell_length_b   6.04761505
_cell_length_c   6.04861879
_cell_angle_alpha   90.66716766
_cell_angle_beta   119.43529510
_cell_angle_gamma   119.38762665
_symmetry_Int_Tables_number   1
_chemical_formula_structural   GaO
_chemical_formula_sum   'Ga7 O7'
_cell_volume   156.84710791
_cell_formula_units_Z   7
loop_
 _symmetry_equiv_pos_site_id
 _symmetry_equiv_pos_as_xyz
  1  'x, y, z'
loop_
 _atom_site_type_symbol
 _atom_site_label
 _atom_site_symmetry_multiplicity
 _atom_site_fract_x
 _atom_site_fract_y
 _atom_site_fract_z
 _atom_site_occupancy
  Ga  Ga0  1  0.75033288  0.88096196  0.61758691  1
  Ga  Ga1  1  0.50175993  0.49785798  0.99951394  1
  Ga  Ga2  1  0.99709294  0.49694598  0.49473196  1
  Ga  Ga3  1  0.25082999  0.11774299  0.38096299  1
  Ga  Ga4  1  0.49595686  0.99441696  0.99646388  1
  Ga  Ga5  1  0.00124993  0.49926098  0.99747692  1
  O  O6  1  0.48304890  0.75277297  0.74797291  1
  O  O7  1  0.98333297  0.24768299  0.25271300  1
  O  O8  1  0.49947897  0.24322799  0.76786397  1
  O  O9  1  0.01900389  0.75588097  0.75223089  1
  Ga  Ga10  1  0.00017890  0.73342697  0.26016291  1
  O  O11  1  0.49973290  0.75999897  0.23369092  1
  O  O12  1  0.51943097  0.25248799  0.25584898  1
  O  O13  1  0.99856997  0.26733399  0.74277999  1
