# generated using pymatgen
data_CaMg4Ni6P
_symmetry_space_group_name_H-M   'P 1'
_cell_length_a   4.93326092
_cell_length_b   4.93411160
_cell_length_c   7.99431610
_cell_angle_alpha   90.00000000
_cell_angle_beta   90.00000000
_cell_angle_gamma   118.75101471
_symmetry_Int_Tables_number   1
_chemical_formula_structural   CaMg4Ni6P
_chemical_formula_sum   'Ca1 Mg4 Ni6 P1'
_cell_volume   170.60211492
_cell_formula_units_Z   1
loop_
 _symmetry_equiv_pos_site_id
 _symmetry_equiv_pos_as_xyz
  1  'x, y, z'
loop_
 _atom_site_type_symbol
 _atom_site_label
 _atom_site_symmetry_multiplicity
 _atom_site_fract_x
 _atom_site_fract_y
 _atom_site_fract_z
 _atom_site_occupancy
  Mg  Mg0  1  0.66616699  0.33384099  0.44882399  1
  Mg  Mg1  1  0.33727896  0.66273297  0.57110599  1
  Mg  Mg2  1  0.33727896  0.66273297  0.92889399  1
  Ca  Ca3  1  0.66616699  0.33384099  0.05117600  1
  Ni  Ni4  1  0.00764293  0.99244296  0.51255699  1
  Mg  Mg5  1  0.00764293  0.99244296  0.98744299  1
  Ni  Ni6  1  0.16554098  0.35028298  0.25000000  1
  Ni  Ni7  1  0.64971595  0.83445296  0.25000000  1
  Ni  Ni8  1  0.16133094  0.83864896  0.25000000  1
  Ni  Ni9  1  0.82571297  0.65336297  0.74999999  1
  Ni  Ni10  1  0.34654399  0.17420899  0.74999999  1
  P  P11  1  0.82897700  0.17101099  0.74999999  1
