# generated using pymatgen
data_Bi
_symmetry_space_group_name_H-M   'P 1'
_cell_length_a   8.42503166
_cell_length_b   8.99298668
_cell_length_c   8.42503166
_cell_angle_alpha   117.93193817
_cell_angle_beta   90.00000000
_cell_angle_gamma   117.93193817
_symmetry_Int_Tables_number   1
_chemical_formula_structural   Bi
_chemical_formula_sum   Bi16
_cell_volume   478.17928313
_cell_formula_units_Z   16
loop_
 _symmetry_equiv_pos_site_id
 _symmetry_equiv_pos_as_xyz
  1  'x, y, z'
loop_
 _atom_site_type_symbol
 _atom_site_label
 _atom_site_symmetry_multiplicity
 _atom_site_fract_x
 _atom_site_fract_y
 _atom_site_fract_z
 _atom_site_occupancy
  Bi  Bi0  1  0.50000002  0.00000000  0.50000002  1
  Bi  Bi1  1  0.00000000  0.00000000  0.00000000  1
  Bi  Bi2  1  0.68802508  0.66845308  0.48042807  1
  Bi  Bi3  1  0.18802506  0.66845308  0.68802508  1
  Bi  Bi4  1  0.48042807  0.66845308  0.98042809  1
  Bi  Bi5  1  0.81197506  0.33154704  0.31197504  1
  Bi  Bi6  1  0.51957205  0.33154704  0.01957203  1
  Bi  Bi7  1  0.01957203  0.33154704  0.81197506  1
  Bi  Bi8  1  0.31197504  0.33154704  0.51957205  1
  Bi  Bi9  1  0.98042809  0.66845308  0.18802506  1
  Bi  Bi10  1  0.25000005  0.50000006  0.25000005  1
  Bi  Bi11  1  0.75000007  0.50000006  0.75000007  1
  Bi  Bi12  1  0.64921903  0.00000000  0.85078103  1
  Bi  Bi13  1  0.14921901  0.00000000  0.64921903  1
  Bi  Bi14  1  0.85078111  1.00000012  0.35078109  1
  Bi  Bi15  1  0.35078109  1.00000012  0.14921909  1
