# generated using pymatgen
data_NaMnO3
_symmetry_space_group_name_H-M   'P 1'
_cell_length_a   5.30049515
_cell_length_b   5.41262388
_cell_length_c   7.48887014
_cell_angle_alpha   90.00000000
_cell_angle_beta   90.00000000
_cell_angle_gamma   90.00000000
_symmetry_Int_Tables_number   1
_chemical_formula_structural   NaMnO3
_chemical_formula_sum   'Na4 Mn4 O12'
_cell_volume   214.85258871
_cell_formula_units_Z   4
loop_
 _symmetry_equiv_pos_site_id
 _symmetry_equiv_pos_as_xyz
  1  'x, y, z'
loop_
 _atom_site_type_symbol
 _atom_site_label
 _atom_site_symmetry_multiplicity
 _atom_site_fract_x
 _atom_site_fract_y
 _atom_site_fract_z
 _atom_site_occupancy
  Na  Na0  1  0.49115699  0.54676101  0.25000000  1
  Na  Na1  1  0.99115697  0.95323902  0.74999999  1
  Na  Na2  1  0.00884300  0.04676100  0.25000000  1
  Na  Na3  1  0.50884299  0.45323901  0.74999999  1
  Mn  Mn4  1  0.00000000  0.50000001  -0.00000000  1
  Mn  Mn5  1  0.49999999  0.00000000  -0.00000000  1
  Mn  Mn6  1  0.49999999  0.00000000  0.49999999  1
  Mn  Mn7  1  0.00000000  0.50000001  0.49999999  1
  O  O8  1  0.42719899  0.01693400  0.74999999  1
  O  O9  1  0.92719897  0.48306601  0.25000000  1
  O  O10  1  0.07280100  0.51693401  0.74999999  1
  O  O11  1  0.57280098  0.98306602  0.25000000  1
  O  O12  1  0.21057299  0.79335002  0.46106199  1
  O  O13  1  0.71057298  0.70665002  0.53893799  1
  O  O14  1  0.28942699  0.29335001  0.03893800  1
  O  O15  1  0.78942698  0.20665000  0.96106198  1
  O  O16  1  0.21057299  0.79335002  0.03893800  1
  O  O17  1  0.71057298  0.70665002  0.96106198  1
  O  O18  1  0.78942698  0.20665000  0.53893799  1
  O  O19  1  0.28942699  0.29335001  0.46106199  1
