# generated using pymatgen
data_HgF3
_symmetry_space_group_name_H-M   'P 1'
_cell_length_a   5.36741495
_cell_length_b   5.67026997
_cell_length_c   9.46993637
_cell_angle_alpha   92.41487885
_cell_angle_beta   90.00000000
_cell_angle_gamma   90.00000000
_symmetry_Int_Tables_number   1
_chemical_formula_structural   HgF3
_chemical_formula_sum   'Hg4 F12'
_cell_volume   287.95863770
_cell_formula_units_Z   4
loop_
 _symmetry_equiv_pos_site_id
 _symmetry_equiv_pos_as_xyz
  1  'x, y, z'
loop_
 _atom_site_type_symbol
 _atom_site_label
 _atom_site_symmetry_multiplicity
 _atom_site_fract_x
 _atom_site_fract_y
 _atom_site_fract_z
 _atom_site_occupancy
  Hg  Hg0  1  0.29348400  0.81983500  0.19004398  1
  Hg  Hg1  1  0.70651601  0.31983500  0.19004399  1
  Hg  Hg2  1  0.82418001  0.75000000  0.49999997  1
  F  F3  1  0.17582000  0.25000000  0.49999998  1
  Hg  Hg4  1  0.29348400  0.68016500  0.80995596  1
  F  F5  1  0.70651601  0.18016500  0.80995597  1
  F  F6  1  0.45628900  0.54347200  0.27408398  1
  F  F7  1  0.54371100  0.04347200  0.27408399  1
  F  F8  1  0.09037500  0.90640900  0.37932298  1
  F  F9  1  0.90962501  0.40640900  0.37932298  1
  F  F10  1  0.09037500  0.59359100  0.62067697  1
  F  F11  1  0.90962501  0.09359100  0.62067698  1
  F  F12  1  0.45628900  0.95652800  0.72591596  1
  F  F13  1  0.54371100  0.45652800  0.72591597  1
  F  F14  1  0.57512301  0.75000000  -0.00000001  1
  F  F15  1  0.42487700  0.25000000  -0.00000000  1
