# generated using pymatgen
data_Bi2NO3F
_symmetry_space_group_name_H-M   'P 1'
_cell_length_a   3.74459791
_cell_length_b   3.74459887
_cell_length_c   8.22846794
_cell_angle_alpha   90.00000000
_cell_angle_beta   90.00000000
_cell_angle_gamma   119.99999237
_symmetry_Int_Tables_number   1
_chemical_formula_structural   Bi2NO3F
_chemical_formula_sum   'Bi2 N1 O3 F1'
_cell_volume   99.92177465
_cell_formula_units_Z   1
loop_
 _symmetry_equiv_pos_site_id
 _symmetry_equiv_pos_as_xyz
  1  'x, y, z'
loop_
 _atom_site_type_symbol
 _atom_site_label
 _atom_site_symmetry_multiplicity
 _atom_site_fract_x
 _atom_site_fract_y
 _atom_site_fract_z
 _atom_site_occupancy
  Bi  Bi0  1  0.66666668  0.33333333  0.32246400  1
  Bi  Bi1  1  0.33333334  0.66666667  0.67753600  1
  N  N2  1  0.00000000  0.00000000  0.00000000  1
  F  F3  1  0.00000000  0.00000000  0.84977201  1
  O  O4  1  0.00000000  0.00000000  0.15022800  1
  O  O5  1  0.66666668  0.33333333  0.60350700  1
  O  O6  1  0.33333334  0.66666667  0.39649300  1
