# generated using pymatgen
data_Ho(Co3Mo)3
_symmetry_space_group_name_H-M   'P 1'
_cell_length_a   4.69147682
_cell_length_b   6.41300678
_cell_length_c   6.41300726
_cell_angle_alpha   82.30380249
_cell_angle_beta   68.54450989
_cell_angle_gamma   68.54451752
_symmetry_Int_Tables_number   1
_chemical_formula_structural   Ho(Co3Mo)3
_chemical_formula_sum   'Ho1 Co9 Mo3'
_cell_volume   167.12996401
_cell_formula_units_Z   1
loop_
 _symmetry_equiv_pos_site_id
 _symmetry_equiv_pos_as_xyz
  1  'x, y, z'
loop_
 _atom_site_type_symbol
 _atom_site_label
 _atom_site_symmetry_multiplicity
 _atom_site_fract_x
 _atom_site_fract_y
 _atom_site_fract_z
 _atom_site_occupancy
  Ho  Ho0  1  0.00000000  0.00000000  0.00000000  1
  Co  Co1  1  0.64264203  0.35735800  0.35735797  1
  Co  Co2  1  0.35735802  0.64264200  0.64264195  1
  Mo  Mo3  1  0.50000002  0.77332100  0.22667895  1
  Co  Co4  1  0.50000002  0.22667900  0.77332097  1
  Co  Co5  1  0.72076903  0.77923100  0.77923094  1
  Co  Co6  1  0.27923101  0.22076900  0.22076898  1
  Co  Co7  1  0.00000000  0.00000000  0.49999999  1
  Co  Co8  1  0.50000002  0.00000000  0.49999999  1
  Co  Co9  1  0.50000002  0.50000000  0.99999995  1
  Co  Co10  1  1.00000004  0.50000000  -0.00000003  1
  Mo  Mo11  1  0.00000000  0.35954000  0.64045997  1
  Mo  Mo12  1  1.00000004  0.64046000  0.35953996  1
