# generated using pymatgen
data_Tb(CoGe)2
_symmetry_space_group_name_H-M   'P 1'
_cell_length_a   4.01356411
_cell_length_b   4.01356411
_cell_length_c   5.90643549
_cell_angle_alpha   109.86237335
_cell_angle_beta   109.86237335
_cell_angle_gamma   90.00000000
_symmetry_Int_Tables_number   1
_chemical_formula_structural   Tb(CoGe)2
_chemical_formula_sum   'Tb1 Co2 Ge2'
_cell_volume   83.44185310
_cell_formula_units_Z   1
loop_
 _symmetry_equiv_pos_site_id
 _symmetry_equiv_pos_as_xyz
  1  'x, y, z'
loop_
 _atom_site_type_symbol
 _atom_site_label
 _atom_site_symmetry_multiplicity
 _atom_site_fract_x
 _atom_site_fract_y
 _atom_site_fract_z
 _atom_site_occupancy
  Tb  Tb0  1  0.00000000  0.00000000  0.00000000  1
  Co  Co1  1  0.75000000  0.25000000  0.50000004  1
  Co  Co2  1  0.25000003  0.75000000  0.50000005  1
  Ge  Ge3  1  0.38208001  0.38208000  0.76416004  1
  Ge  Ge4  1  0.61792002  0.61792000  0.23584005  1
