# generated using pymatgen
data_MgGa13
_symmetry_space_group_name_H-M   'P 1'
_cell_length_a   5.74084234
_cell_length_b   7.92332506
_cell_length_c   7.92332506
_cell_angle_alpha   114.36226654
_cell_angle_beta   103.97606659
_cell_angle_gamma   103.97606659
_symmetry_Int_Tables_number   1
_chemical_formula_structural   MgGa13
_chemical_formula_sum   'Mg1 Ga13'
_cell_volume   293.91369897
_cell_formula_units_Z   1
loop_
 _symmetry_equiv_pos_site_id
 _symmetry_equiv_pos_as_xyz
  1  'x, y, z'
loop_
 _atom_site_type_symbol
 _atom_site_label
 _atom_site_symmetry_multiplicity
 _atom_site_fract_x
 _atom_site_fract_y
 _atom_site_fract_z
 _atom_site_occupancy
  Ga  Ga0  1  0.27950593  0.87603898  0.25356893  1
  Ga  Ga1  1  0.40346696  0.37752999  0.12396097  1
  Ga  Ga2  1  0.02593694  0.74643098  0.62246995  1
  Ga  Ga3  1  0.72049397  0.12396100  0.74643100  1
  Ga  Ga4  1  0.59653294  0.62246998  0.87603896  1
  Ga  Ga5  1  0.97406296  0.25356899  0.37752998  1
  Ga  Ga6  1  0.00000000  0.00000000  0.00000000  1
  Ga  Ga7  1  0.49999991  0.99999997  -0.00000009  1
  Ga  Ga8  1  0.55170496  0.32712099  0.49082398  1
  Ga  Ga9  1  0.22458398  0.16370300  0.67287900  1
  Ga  Ga10  1  0.06088096  0.50917599  0.83629698  1
  Ga  Ga11  1  0.44829494  0.67287898  0.50917595  1
  Mg  Mg12  1  0.77541592  0.83629698  0.32712093  1
  Ga  Ga13  1  0.93911894  0.49082399  0.16370295  1
