# generated using pymatgen
data_Te3Se2
_symmetry_space_group_name_H-M   'P 1'
_cell_length_a   4.28907013
_cell_length_b   4.29902506
_cell_length_c   35.08261490
_cell_angle_alpha   90.03834534
_cell_angle_beta   90.00000000
_cell_angle_gamma   119.92343140
_symmetry_Int_Tables_number   1
_chemical_formula_structural   Te3Se2
_chemical_formula_sum   'Te12 Se8'
_cell_volume   560.64783330
_cell_formula_units_Z   4
loop_
 _symmetry_equiv_pos_site_id
 _symmetry_equiv_pos_as_xyz
  1  'x, y, z'
loop_
 _atom_site_type_symbol
 _atom_site_label
 _atom_site_symmetry_multiplicity
 _atom_site_fract_x
 _atom_site_fract_y
 _atom_site_fract_z
 _atom_site_occupancy
  Te  Te0  1  0.66660000  0.33319901  0.89062099  1
  Te  Te1  1  0.66657900  0.33315801  0.69887900  1
  Te  Te2  1  0.66655600  0.33311201  0.50458500  1
  Te  Te3  1  0.66640900  0.33281701  0.31487800  1
  Te  Te4  1  0.66557000  0.33114001  0.10294100  1
  Te  Te5  1  0.33360103  0.66720202  0.98518799  1
  Te  Te6  1  0.33354503  0.66708902  0.79538999  1
  Te  Te7  1  0.33357803  0.66715702  0.60122199  1
  Te  Te8  1  0.33360603  0.66721302  0.40912600  1
  Te  Te9  1  0.33362403  0.66724702  0.19784100  1
  Te  Te10  1  0.33384303  0.66768602  0.27919900  1
  Te  Te11  1  0.33374503  0.66748902  0.06709300  1
  Se  Se12  1  0.66647900  0.33295901  0.96412199  1
  Se  Se13  1  0.66632100  0.33264101  0.77296699  1
  Se  Se14  1  0.66639400  0.33278701  0.57822800  1
  Se  Se15  1  0.66639700  0.33279501  0.38732100  1
  Se  Se16  1  0.66649200  0.33298301  0.17563200  1
  Se  Se17  1  0.33359903  0.66719902  0.86910299  1
  Se  Se18  1  0.33353703  0.66707302  0.67544199  1
  Se  Se19  1  0.33352703  0.66705502  0.48222399  1
