# generated using pymatgen
data_BiMoSeS3
_symmetry_space_group_name_H-M   'P 1'
_cell_length_a   4.63564157
_cell_length_b   4.81266737
_cell_length_c   13.62472439
_cell_angle_alpha   91.30770874
_cell_angle_beta   91.02291107
_cell_angle_gamma   110.53370667
_symmetry_Int_Tables_number   1
_chemical_formula_structural   BiMoSeS3
_chemical_formula_sum   'Bi2 Mo2 Se2 S6'
_cell_volume   284.47008885
_cell_formula_units_Z   2
loop_
 _symmetry_equiv_pos_site_id
 _symmetry_equiv_pos_as_xyz
  1  'x, y, z'
loop_
 _atom_site_type_symbol
 _atom_site_label
 _atom_site_symmetry_multiplicity
 _atom_site_fract_x
 _atom_site_fract_y
 _atom_site_fract_z
 _atom_site_occupancy
  Se  Se0  1  0.07859399  0.69038998  0.24323701  1
  S  S1  1  0.70300897  0.96361897  0.73998500  1
  Se  Se2  1  0.52405799  0.10679900  0.39614199  1
  Bi  Bi3  1  0.34458198  0.72905197  0.01431901  1
  Bi  Bi4  1  0.13754199  0.52291998  0.44996500  1
  S  S5  1  0.22884999  0.22612099  0.13923400  1
  S  S6  1  0.25887499  0.20340199  0.62035999  1
  S  S7  1  0.23040399  0.21115399  0.87985299  1
  S  S8  1  0.93049597  0.94842997  0.00624900  1
  S  S9  1  0.97177097  0.96763997  0.48049000  1
  Mo  Mo10  1  0.52007498  0.50560798  0.27343500  1
  Mo  Mo11  1  0.57174398  0.42486499  0.75673099  1
