# generated using pymatgen
data_Ga7S
_symmetry_space_group_name_H-M   'P 1'
_cell_length_a   6.68988514
_cell_length_b   7.03246307
_cell_length_c   7.95420408
_cell_angle_alpha   90.00000000
_cell_angle_beta   90.00000000
_cell_angle_gamma   90.00000000
_symmetry_Int_Tables_number   1
_chemical_formula_structural   Ga7S
_chemical_formula_sum   'Ga14 S2'
_cell_volume   374.21643000
_cell_formula_units_Z   2
loop_
 _symmetry_equiv_pos_site_id
 _symmetry_equiv_pos_as_xyz
  1  'x, y, z'
loop_
 _atom_site_type_symbol
 _atom_site_label
 _atom_site_symmetry_multiplicity
 _atom_site_fract_x
 _atom_site_fract_y
 _atom_site_fract_z
 _atom_site_occupancy
  Ga  Ga0  1  0.98852898  0.14915700  0.49999999  1
  Ga  Ga1  1  0.01296500  0.68355799  0.24067600  1
  Ga  Ga2  1  0.51296499  0.31644200  0.25932400  1
  Ga  Ga3  1  0.48852899  0.85084299  -0.00000000  1
  Ga  Ga4  1  0.51296499  0.31644200  0.74067599  1
  Ga  Ga5  1  0.01296500  0.68355799  0.75932399  1
  S  S6  1  0.49773499  0.81952099  0.49999999  1
  S  S7  1  0.99773498  0.18047900  0.00000000  1
  Ga  Ga8  1  0.39069099  0.66528099  0.72957199  1
  Ga  Ga9  1  0.89069098  0.33471900  0.77042799  1
  Ga  Ga10  1  0.89069098  0.33471900  0.22957200  1
  Ga  Ga11  1  0.39069099  0.66528099  0.27042800  1
  Ga  Ga12  1  0.32983599  0.18352700  -0.00000000  1
  Ga  Ga13  1  0.87448898  0.88654399  -0.00000000  1
  Ga  Ga14  1  0.82983598  0.81647299  0.49999999  1
  Ga  Ga15  1  0.37448899  0.11345600  0.49999999  1
