# generated using pymatgen
data_VBiO4
_symmetry_space_group_name_H-M   'P 1'
_cell_length_a   5.43014812
_cell_length_b   5.43014812
_cell_length_c   6.35062075
_cell_angle_alpha   115.31084442
_cell_angle_beta   115.31084442
_cell_angle_gamma   90.00000000
_symmetry_Int_Tables_number   1
_chemical_formula_structural   VBiO4
_chemical_formula_sum   'V2 Bi2 O8'
_cell_volume   149.15372687
_cell_formula_units_Z   2
loop_
 _symmetry_equiv_pos_site_id
 _symmetry_equiv_pos_as_xyz
  1  'x, y, z'
loop_
 _atom_site_type_symbol
 _atom_site_label
 _atom_site_symmetry_multiplicity
 _atom_site_fract_x
 _atom_site_fract_y
 _atom_site_fract_z
 _atom_site_occupancy
  Bi  Bi0  1  0.50000003  0.50000001  0.00000006  1
  Bi  Bi1  1  0.00000000  0.00000000  0.00000000  1
  V  V2  1  0.75000001  0.25000000  0.50000003  1
  V  V3  1  0.25000004  0.75000001  0.50000004  1
  O  O4  1  0.44291205  0.95816401  0.24580808  1
  O  O5  1  0.80289602  0.28764400  0.24580805  1
  O  O6  1  0.28764402  0.44291201  0.24580803  1
  O  O7  1  0.19710400  0.04183600  0.75419198  1
  O  O8  1  0.95816404  0.80289601  0.24580809  1
  O  O9  1  0.55708804  0.71235601  0.75419205  1
  O  O10  1  0.04183603  0.55708801  0.75419201  1
  O  O11  1  0.71235601  0.19710400  0.75419202  1
