# generated using pymatgen
data_Ba9Ge7Cl2
_symmetry_space_group_name_H-M   'P 1'
_cell_length_a   6.97075891
_cell_length_b   9.88626575
_cell_length_c   9.88626575
_cell_angle_alpha   120.00000000
_cell_angle_beta   90.00000000
_cell_angle_gamma   90.00000000
_symmetry_Int_Tables_number   1
_chemical_formula_structural   Ba9Ge7Cl2
_chemical_formula_sum   'Ba9 Ge7 Cl2'
_cell_volume   590.03157863
_cell_formula_units_Z   1
loop_
 _symmetry_equiv_pos_site_id
 _symmetry_equiv_pos_as_xyz
  1  'x, y, z'
loop_
 _atom_site_type_symbol
 _atom_site_label
 _atom_site_symmetry_multiplicity
 _atom_site_fract_x
 _atom_site_fract_y
 _atom_site_fract_z
 _atom_site_occupancy
  Ba  Ba0  1  0.25000000  0.27255800  -0.00000001  1
  Ba  Ba1  1  0.25000000  0.72744201  0.72744196  1
  Ba  Ba2  1  0.25000000  1.00000001  0.27255797  1
  Ba  Ba3  1  0.75000001  0.72744201  -0.00000002  1
  Ba  Ba4  1  0.75000001  0.27255800  0.27255799  1
  Ba  Ba5  1  0.75000001  0.00000000  0.72744199  1
  Ba  Ba6  1  0.00000000  0.33333334  0.66666664  1
  Ge  Ge7  1  1.00000001  0.66666667  0.33333331  1
  Ba  Ba8  1  0.50000001  0.66666667  0.33333331  1
  Ba  Ba9  1  0.50000001  0.33333334  0.66666664  1
  Cl  Cl10  1  0.00000000  0.00000000  0.00000000  1
  Cl  Cl11  1  0.50000001  0.00000000  -0.00000000  1
  Ge  Ge12  1  0.25000000  0.62216801  0.99999996  1
  Ge  Ge13  1  0.25000000  0.37783200  0.37783198  1
  Ge  Ge14  1  0.25000000  1.00000001  0.62216796  1
  Ge  Ge15  1  0.75000001  0.37783200  0.99999997  1
  Ge  Ge16  1  0.75000001  0.62216801  0.62216797  1
  Ge  Ge17  1  0.75000001  1.00000001  0.37783196  1
