# generated using pymatgen
data_CsBa2Br5
_symmetry_space_group_name_H-M   'P 1'
_cell_length_a   8.92200184
_cell_length_b   10.05281544
_cell_length_c   8.92200184
_cell_angle_alpha   116.34380341
_cell_angle_beta   90.00000000
_cell_angle_gamma   116.34380341
_symmetry_Int_Tables_number   1
_chemical_formula_structural   CsBa2Br5
_chemical_formula_sum   'Cs2 Ba4 Br10'
_cell_volume   623.02593254
_cell_formula_units_Z   2
loop_
 _symmetry_equiv_pos_site_id
 _symmetry_equiv_pos_as_xyz
  1  'x, y, z'
loop_
 _atom_site_type_symbol
 _atom_site_label
 _atom_site_symmetry_multiplicity
 _atom_site_fract_x
 _atom_site_fract_y
 _atom_site_fract_z
 _atom_site_occupancy
  Cs  Cs0  1  0.25000004  0.50000001  0.25000004  1
  Cs  Cs1  1  0.75000005  0.50000001  0.75000005  1
  Ba  Ba2  1  0.82830101  0.00000000  0.67169901  1
  Ba  Ba3  1  0.32830108  1.00000002  0.82830109  1
  Ba  Ba4  1  0.67169901  0.00000000  0.17169900  1
  Ba  Ba5  1  0.17169900  0.00000000  0.32830101  1
  Br  Br6  1  0.50000001  0.00000000  0.50000001  1
  Br  Br7  1  0.00000000  0.00000000  0.00000000  1
  Br  Br8  1  0.47854503  0.27582601  0.29728103  1
  Br  Br9  1  0.97854504  0.27582601  0.47854503  1
  Br  Br10  1  0.29728103  0.27582601  0.79728104  1
  Br  Br11  1  0.02145505  0.72417402  0.52145506  1
  Br  Br12  1  0.70271907  0.72417402  0.20271906  1
  Br  Br13  1  0.20271906  0.72417402  0.02145505  1
  Br  Br14  1  0.52145506  0.72417402  0.70271907  1
  Br  Br15  1  0.79728103  0.27582601  0.97854504  1
