# generated using pymatgen
data_Pr4Bi3
_symmetry_space_group_name_H-M   'P 1'
_cell_length_a   8.35004520
_cell_length_b   8.35004520
_cell_length_c   8.35004520
_cell_angle_alpha   109.47122192
_cell_angle_beta   109.47122192
_cell_angle_gamma   109.47122192
_symmetry_Int_Tables_number   1
_chemical_formula_structural   Pr4Bi3
_chemical_formula_sum   'Pr8 Bi6'
_cell_volume   448.17184343
_cell_formula_units_Z   2
loop_
 _symmetry_equiv_pos_site_id
 _symmetry_equiv_pos_as_xyz
  1  'x, y, z'
loop_
 _atom_site_type_symbol
 _atom_site_label
 _atom_site_symmetry_multiplicity
 _atom_site_fract_x
 _atom_site_fract_y
 _atom_site_fract_z
 _atom_site_occupancy
  Pr  Pr0  1  0.00000003  0.50000004  0.14917903  1
  Pr  Pr1  1  0.00000003  0.50000004  0.64917905  1
  Pr  Pr2  1  0.35082104  0.35082103  0.85082105  1
  Pr  Pr3  1  0.64917903  0.00000000  0.00000002  1
  Pr  Pr4  1  0.85082109  0.85082106  0.35082108  1
  Pr  Pr5  1  0.50000003  0.14917901  0.50000004  1
  Pr  Pr6  1  0.14917901  0.00000000  0.00000000  1
  Pr  Pr7  1  0.50000006  0.64917905  0.50000006  1
  Bi  Bi8  1  0.25000007  0.87500006  0.62500007  1
  Bi  Bi9  1  0.87500004  0.12500001  0.75000005  1
  Bi  Bi10  1  0.62500005  0.37500003  0.25000004  1
  Bi  Bi11  1  0.75000007  0.62500004  0.87500008  1
  Bi  Bi12  1  0.12500002  0.25000002  0.37500003  1
  Bi  Bi13  1  0.37500006  0.75000005  0.12500005  1
