# generated using pymatgen
data_Tm3Mg(B2Os)4
_symmetry_space_group_name_H-M   'P 1'
_cell_length_a   5.27989483
_cell_length_b   5.84186411
_cell_length_c   6.32758093
_cell_angle_alpha   90.00000000
_cell_angle_beta   90.00000000
_cell_angle_gamma   90.00000000
_symmetry_Int_Tables_number   1
_chemical_formula_structural   Tm3Mg(B2Os)4
_chemical_formula_sum   'Tm3 Mg1 B8 Os4'
_cell_volume   195.17061500
_cell_formula_units_Z   1
loop_
 _symmetry_equiv_pos_site_id
 _symmetry_equiv_pos_as_xyz
  1  'x, y, z'
loop_
 _atom_site_type_symbol
 _atom_site_label
 _atom_site_symmetry_multiplicity
 _atom_site_fract_x
 _atom_site_fract_y
 _atom_site_fract_z
 _atom_site_occupancy
  Mg  Mg0  1  0.75000002  0.98936298  0.66577601  1
  Tm  Tm1  1  0.75000002  0.48936299  0.83422401  1
  Tm  Tm2  1  0.25000001  0.01063700  0.33422400  1
  Tm  Tm3  1  0.25000001  0.51063699  0.16577600  1
  B  B4  1  0.91856403  0.63854799  0.46205501  1
  B  B5  1  0.58143602  0.13854800  0.03794500  1
  B  B6  1  0.41856401  0.36145199  0.53794501  1
  B  B7  1  0.08143600  0.86145198  0.96205501  1
  B  B8  1  0.08143600  0.36145199  0.53794501  1
  B  B9  1  0.41856401  0.86145198  0.96205501  1
  B  B10  1  0.58143602  0.63854799  0.46205501  1
  B  B11  1  0.91856403  0.13854800  0.03794500  1
  Os  Os12  1  0.75000002  0.82315198  0.18228900  1
  Os  Os13  1  0.75000002  0.32315199  0.31771100  1
  Os  Os14  1  0.25000001  0.17684800  0.81771101  1
  Os  Os15  1  0.25000001  0.67684799  0.68228901  1
