# generated using pymatgen
data_HoGa2
_symmetry_space_group_name_H-M   'P 1'
_cell_length_a   3.96194696
_cell_length_b   7.49793005
_cell_length_c   7.49792910
_cell_angle_alpha   120.00000000
_cell_angle_beta   90.00000000
_cell_angle_gamma   90.00000000
_symmetry_Int_Tables_number   1
_chemical_formula_structural   HoGa2
_chemical_formula_sum   'Ho3 Ga6'
_cell_volume   192.89545860
_cell_formula_units_Z   3
loop_
 _symmetry_equiv_pos_site_id
 _symmetry_equiv_pos_as_xyz
  1  'x, y, z'
loop_
 _atom_site_type_symbol
 _atom_site_label
 _atom_site_symmetry_multiplicity
 _atom_site_fract_x
 _atom_site_fract_y
 _atom_site_fract_z
 _atom_site_occupancy
  Ho  Ho0  1  1.00000001  0.40517398  -0.00000003  1
  Ho  Ho1  1  0.00000000  0.59482598  0.59482597  1
  Ho  Ho2  1  1.00000001  0.00000000  0.40517401  1
  Ga  Ga3  1  0.50000000  0.00000000  0.74249002  1
  Ga  Ga4  1  0.50000000  0.74248997  -0.00000005  1
  Ga  Ga5  1  0.50000000  0.25750999  0.25750999  1
  Ga  Ga6  1  0.00000000  0.00000000  0.00000000  1
  Ga  Ga7  1  0.50000000  0.33333332  0.66666666  1
  Ga  Ga8  1  0.50000000  0.66666664  0.33333330  1
