# generated using pymatgen
data_Ba4BP15
_symmetry_space_group_name_H-M   'P 1'
_cell_length_a   5.51068020
_cell_length_b   6.80067873
_cell_length_c   10.97751808
_cell_angle_alpha   90.00000000
_cell_angle_beta   90.00000000
_cell_angle_gamma   113.90093994
_symmetry_Int_Tables_number   1
_chemical_formula_structural   Ba4BP15
_chemical_formula_sum   'Ba4 B1 P15'
_cell_volume   376.11903998
_cell_formula_units_Z   1
loop_
 _symmetry_equiv_pos_site_id
 _symmetry_equiv_pos_as_xyz
  1  'x, y, z'
loop_
 _atom_site_type_symbol
 _atom_site_label
 _atom_site_symmetry_multiplicity
 _atom_site_fract_x
 _atom_site_fract_y
 _atom_site_fract_z
 _atom_site_occupancy
  B  B0  1  0.78840994  0.57681998  0.25000000  1
  P  P1  1  0.21158997  0.42317998  0.74999999  1
  P  P2  1  0.65716996  0.31433999  0.99363999  1
  P  P3  1  0.14560198  0.29120399  0.25000000  1
  P  P4  1  0.85439793  0.70879597  0.74999999  1
  P  P5  1  0.34282995  0.68565998  0.00636000  1
  P  P6  1  0.65716996  0.31433999  0.50636000  1
  P  P7  1  0.34282995  0.68565998  0.49364000  1
  Ba  Ba8  1  0.51363698  0.02727400  0.25000000  1
  Ba  Ba9  1  0.48636292  0.97272597  0.74999999  1
  Ba  Ba10  1  0.00000000  0.00000000  0.00000000  1
  Ba  Ba11  1  0.00000000  0.00000000  0.50000000  1
  P  P12  1  0.99605794  0.48455598  0.12369600  1
  P  P13  1  0.00394197  0.51544398  0.87630399  1
  P  P14  1  0.48849795  0.48455598  0.12369600  1
  P  P15  1  0.51150195  0.51544398  0.87630399  1
  P  P16  1  0.00394197  0.51544398  0.62369600  1
  P  P17  1  0.99605794  0.48455598  0.37630400  1
  P  P18  1  0.51150195  0.51544398  0.62369600  1
  P  P19  1  0.48849795  0.48455598  0.37630400  1
