# generated using pymatgen
data_I15Br
_symmetry_space_group_name_H-M   'P 1'
_cell_length_a   8.07858944
_cell_length_b   10.98407745
_cell_length_c   10.98407745
_cell_angle_alpha   79.12586212
_cell_angle_beta   70.02286530
_cell_angle_gamma   70.02286530
_symmetry_Int_Tables_number   1
_chemical_formula_structural   I15Br
_chemical_formula_sum   'I15 Br1'
_cell_volume   858.05582815
_cell_formula_units_Z   1
loop_
 _symmetry_equiv_pos_site_id
 _symmetry_equiv_pos_as_xyz
  1  'x, y, z'
loop_
 _atom_site_type_symbol
 _atom_site_label
 _atom_site_symmetry_multiplicity
 _atom_site_fract_x
 _atom_site_fract_y
 _atom_site_fract_z
 _atom_site_occupancy
  I  I0  1  0.34862896  0.80353897  0.80353901  1
  I  I1  1  0.65137099  0.19646099  0.19646099  1
  I  I2  1  0.99999996  0.80959197  0.19040802  1
  I  I3  1  -0.00000001  0.19040799  0.80959198  1
  I  I4  1  0.07458998  0.42293599  0.78535299  1
  I  I5  1  0.92540998  0.21464699  0.57706398  1
  I  I6  1  0.92540997  0.57706398  0.21464701  1
  I  I7  1  0.07458997  0.78535297  0.42293602  1
  I  I8  1  0.57806598  0.27763199  0.97531297  1
  I  I9  1  0.42193400  0.02468700  0.72236797  1
  I  I10  1  0.42193396  0.72236798  0.02468703  1
  I  I11  1  0.57806595  0.97531297  0.27763203  1
  I  I12  1  0.00473699  0.14198800  0.14198800  1
  I  I13  1  0.99526295  0.85801197  0.85801200  1
  I  I14  1  0.46685698  0.35997899  0.35997900  1
  Br  Br15  1  0.53314297  0.64002098  0.64002100  1
