# generated using pymatgen
data_La5(BN3)2
_symmetry_space_group_name_H-M   'P 1'
_cell_length_a   3.70624208
_cell_length_b   6.54872465
_cell_length_c   9.06257153
_cell_angle_alpha   104.95335388
_cell_angle_beta   90.00000000
_cell_angle_gamma   106.43780518
_symmetry_Int_Tables_number   1
_chemical_formula_structural   La5(BN3)2
_chemical_formula_sum   'La5 B2 N6'
_cell_volume   203.19087819
_cell_formula_units_Z   1
loop_
 _symmetry_equiv_pos_site_id
 _symmetry_equiv_pos_as_xyz
  1  'x, y, z'
loop_
 _atom_site_type_symbol
 _atom_site_label
 _atom_site_symmetry_multiplicity
 _atom_site_fract_x
 _atom_site_fract_y
 _atom_site_fract_z
 _atom_site_occupancy
  La  La0  1  0.37529806  0.75059603  0.62529100  1
  La  La1  1  0.69171702  0.38343401  0.81896402  1
  La  La2  1  0.00000000  0.00000000  0.00000000  1
  La  La3  1  0.30828305  0.61656602  0.18103599  1
  La  La4  1  0.62470201  0.24940401  0.37470901  1
  B  B5  1  0.94520006  0.89040003  0.41078499  1
  B  B6  1  0.05480001  0.10960000  0.58921502  1
  N  N7  1  0.97436606  0.94873203  0.26331098  1
  N  N8  1  0.65612401  0.31224801  0.07799199  1
  N  N9  1  0.17137003  0.34274001  0.58318801  1
  N  N10  1  0.02563400  0.05126800  0.73668903  1
  N  N11  1  0.34387605  0.68775202  0.92200802  1
  N  N12  1  0.82863004  0.65726002  0.41681200  1
