# generated using pymatgen
data_NaGeP
_symmetry_space_group_name_H-M   'P 1'
_cell_length_a   3.84677410
_cell_length_b   4.02928782
_cell_length_c   10.04420090
_cell_angle_alpha   98.48909760
_cell_angle_beta   90.00000000
_cell_angle_gamma   118.51257324
_symmetry_Int_Tables_number   1
_chemical_formula_structural   NaGeP
_chemical_formula_sum   'Na2 Ge2 P2'
_cell_volume   134.85604092
_cell_formula_units_Z   2
loop_
 _symmetry_equiv_pos_site_id
 _symmetry_equiv_pos_as_xyz
  1  'x, y, z'
loop_
 _atom_site_type_symbol
 _atom_site_label
 _atom_site_symmetry_multiplicity
 _atom_site_fract_x
 _atom_site_fract_y
 _atom_site_fract_z
 _atom_site_occupancy
  P  P0  1  0.59291598  0.18583200  0.85563804  1
  Ge  Ge1  1  0.40708398  0.81416799  0.14436203  1
  Ge  Ge2  1  0.91233297  0.82466599  0.96302706  1
  P  P3  1  0.08766700  0.17533400  0.03697301  1
  Na  Na4  1  0.20322599  0.40645199  0.66589704  1
  Na  Na5  1  0.79677397  0.59354799  0.33410303  1
