# generated using pymatgen
data_Co12B2MoP
_symmetry_space_group_name_H-M   'P 1'
_cell_length_a   4.37347507
_cell_length_b   6.65010309
_cell_length_c   6.66696739
_cell_angle_alpha   83.82521820
_cell_angle_beta   70.95284271
_cell_angle_gamma   70.87934875
_symmetry_Int_Tables_number   1
_chemical_formula_structural   Co12B2MoP
_chemical_formula_sum   'Co12 B2 Mo1 P1'
_cell_volume   173.17458675
_cell_formula_units_Z   1
loop_
 _symmetry_equiv_pos_site_id
 _symmetry_equiv_pos_as_xyz
  1  'x, y, z'
loop_
 _atom_site_type_symbol
 _atom_site_label
 _atom_site_symmetry_multiplicity
 _atom_site_fract_x
 _atom_site_fract_y
 _atom_site_fract_z
 _atom_site_occupancy
  Co  Co0  1  0.32564609  0.81179101  0.03309796  1
  Co  Co1  1  0.86140310  0.96711901  0.81532895  1
  Co  Co2  1  0.64450499  0.03167300  0.18450101  1
  Co  Co3  1  0.58378103  0.39025500  0.94823798  1
  Co  Co4  1  0.92562805  0.61054300  0.05168698  1
  Co  Co5  1  0.46493211  0.94929101  0.61035294  1
  Co  Co6  1  0.02450301  0.05165800  0.38936599  1
  Co  Co7  1  0.61152803  0.39613500  0.33276698  1
  Co  Co8  1  0.33860707  0.60437500  0.66761696  1
  Co  Co9  1  0.05667104  0.33278000  0.60424597  1
  Mo  Mo10  1  0.99175006  0.66764400  0.39667297  1
  Co  Co11  1  0.16599402  0.18662400  0.96680298  1
  Co  Co12  1  0.19678204  0.33285200  0.23868798  1
  B  B13  1  0.76585906  0.66756800  0.76235096  1
  P  P14  1  0.57095101  0.23707200  0.66546599  1
  B  B15  1  0.47146108  0.76262001  0.33281596  1
