# generated using pymatgen
data_Tb(BIr)4
_symmetry_space_group_name_H-M   'P 1'
_cell_length_a   5.39752722
_cell_length_b   5.39752722
_cell_length_c   7.45430088
_cell_angle_alpha   90.00000000
_cell_angle_beta   90.00000000
_cell_angle_gamma   90.00000000
_symmetry_Int_Tables_number   1
_chemical_formula_structural   Tb(BIr)4
_chemical_formula_sum   'Tb2 B8 Ir8'
_cell_volume   217.16838434
_cell_formula_units_Z   2
loop_
 _symmetry_equiv_pos_site_id
 _symmetry_equiv_pos_as_xyz
  1  'x, y, z'
loop_
 _atom_site_type_symbol
 _atom_site_label
 _atom_site_symmetry_multiplicity
 _atom_site_fract_x
 _atom_site_fract_y
 _atom_site_fract_z
 _atom_site_occupancy
  Tb  Tb0  1  0.00000000  0.00000000  0.50000001  1
  Tb  Tb1  1  0.49999998  0.49999998  -0.00000000  1
  B  B2  1  0.32714299  0.00000000  0.15310900  1
  B  B3  1  0.67285697  0.00000000  0.15310900  1
  B  B4  1  0.49999998  0.82774797  0.65355501  1
  B  B5  1  0.49999998  0.17225199  0.65355501  1
  B  B6  1  0.17225199  0.49999998  0.34644501  1
  B  B7  1  0.82774797  0.49999998  0.34644501  1
  B  B8  1  0.00000000  0.67285697  0.84689101  1
  B  B9  1  0.00000000  0.32714299  0.84689101  1
  Ir  Ir10  1  0.75073497  0.00000000  0.85684401  1
  Ir  Ir11  1  0.24926499  0.00000000  0.85684401  1
  Ir  Ir12  1  0.49999998  0.25152899  0.35359301  1
  Ir  Ir13  1  0.49999998  0.74847097  0.35359301  1
  Ir  Ir14  1  0.74847097  0.49999998  0.64640701  1
  Ir  Ir15  1  0.25152899  0.49999998  0.64640701  1
  Ir  Ir16  1  0.00000000  0.24926499  0.14315600  1
  Ir  Ir17  1  0.00000000  0.75073497  0.14315600  1
