# generated using pymatgen
data_TbGe2
_symmetry_space_group_name_H-M   'P 1'
_cell_length_a   4.50734377
_cell_length_b   7.17315912
_cell_length_c   7.89480495
_cell_angle_alpha   90.00000000
_cell_angle_beta   90.00000000
_cell_angle_gamma   90.00000000
_symmetry_Int_Tables_number   1
_chemical_formula_structural   TbGe2
_chemical_formula_sum   'Tb4 Ge8'
_cell_volume   255.25399753
_cell_formula_units_Z   4
loop_
 _symmetry_equiv_pos_site_id
 _symmetry_equiv_pos_as_xyz
  1  'x, y, z'
loop_
 _atom_site_type_symbol
 _atom_site_label
 _atom_site_symmetry_multiplicity
 _atom_site_fract_x
 _atom_site_fract_y
 _atom_site_fract_z
 _atom_site_occupancy
  Tb  Tb0  1  0.25000001  0.51251699  0.19377700  1
  Tb  Tb1  1  0.75000004  0.48748299  0.80622300  1
  Tb  Tb2  1  0.75000004  0.98748298  0.69377700  1
  Tb  Tb3  1  0.25000001  0.01251700  0.30622300  1
  Ge  Ge4  1  0.25000001  0.68286899  0.58935700  1
  Ge  Ge5  1  0.75000004  0.31713099  0.41064300  1
  Ge  Ge6  1  0.75000004  0.81713099  0.08935700  1
  Ge  Ge7  1  0.25000001  0.18286900  0.91064301  1
  Ge  Ge8  1  0.25000001  0.79553499  0.91162901  1
  Ge  Ge9  1  0.75000004  0.20446500  0.08837100  1
  Ge  Ge10  1  0.75000004  0.70446499  0.41162900  1
  Ge  Ge11  1  0.25000001  0.29553499  0.58837100  1
