# generated using pymatgen
data_Tb10Ga6O
_symmetry_space_group_name_H-M   'P 1'
_cell_length_a   7.72551012
_cell_length_b   7.72551012
_cell_length_c   9.18390846
_cell_angle_alpha   114.87249756
_cell_angle_beta   114.87249756
_cell_angle_gamma   90.00000000
_symmetry_Int_Tables_number   1
_chemical_formula_structural   Tb10Ga6O
_chemical_formula_sum   'Tb10 Ga6 O1'
_cell_volume   440.61797658
_cell_formula_units_Z   1
loop_
 _symmetry_equiv_pos_site_id
 _symmetry_equiv_pos_as_xyz
  1  'x, y, z'
loop_
 _atom_site_type_symbol
 _atom_site_label
 _atom_site_symmetry_multiplicity
 _atom_site_fract_x
 _atom_site_fract_y
 _atom_site_fract_z
 _atom_site_occupancy
  Tb  Tb0  1  0.25000002  0.75000000  0.50000000  1
  Tb  Tb1  1  0.75000000  0.25000000  0.49999999  1
  Tb  Tb2  1  0.76777901  0.76777900  0.20273702  1
  Tb  Tb3  1  0.43495801  0.43495800  0.20273701  1
  Tb  Tb4  1  0.93254700  0.28271900  0.21526601  1
  Tb  Tb5  1  0.28271802  0.93254600  0.21526402  1
  Tb  Tb6  1  0.71728201  0.71728200  0.78473499  1
  Tb  Tb7  1  0.06745300  0.06745300  0.78473496  1
  Tb  Tb8  1  0.56504200  0.23222100  0.79726298  1
  Tb  Tb9  1  0.23222101  0.56504200  0.79726298  1
  Ga  Ga10  1  1.00000000  0.50000000  0.00000003  1
  Ga  Ga11  1  0.50000000  0.00000000  0.00000001  1
  Ga  Ga12  1  0.12955400  0.12955400  0.49611998  1
  Ga  Ga13  1  0.36656601  0.36656600  0.49611999  1
  Ga  Ga14  1  0.87044601  0.63343400  0.50388001  1
  Ga  Ga15  1  0.63343402  0.87044600  0.50388001  1
  O  O16  1  0.50000001  0.50000000  0.00000002  1
