# generated using pymatgen
data_K2NaF4
_symmetry_space_group_name_H-M   'P 1'
_cell_length_a   3.95863295
_cell_length_b   4.06532383
_cell_length_c   7.72297716
_cell_angle_alpha   105.25982666
_cell_angle_beta   90.00000000
_cell_angle_gamma   90.00000000
_symmetry_Int_Tables_number   1
_chemical_formula_structural   K2NaF4
_chemical_formula_sum   'K2 Na1 F4'
_cell_volume   119.90475499
_cell_formula_units_Z   1
loop_
 _symmetry_equiv_pos_site_id
 _symmetry_equiv_pos_as_xyz
  1  'x, y, z'
loop_
 _atom_site_type_symbol
 _atom_site_label
 _atom_site_symmetry_multiplicity
 _atom_site_fract_x
 _atom_site_fract_y
 _atom_site_fract_z
 _atom_site_occupancy
  K  K0  1  0.25000000  0.10265900  0.20531800  1
  K  K1  1  0.75000001  0.90005904  0.80011900  1
  Na  Na2  1  0.25000000  0.30635401  0.61270900  1
  F  F3  1  0.25000000  0.45698402  0.91396801  1
  F  F4  1  0.75000001  0.56457402  0.12914800  1
  F  F5  1  0.25000000  0.74305103  0.48610100  1
  F  F6  1  0.75000001  0.24231801  0.48463600  1
