# generated using pymatgen
data_NdCoGe
_symmetry_space_group_name_H-M   'P 1'
_cell_length_a   4.16558790
_cell_length_b   4.16558790
_cell_length_c   7.60143614
_cell_angle_alpha   105.90243530
_cell_angle_beta   105.90243530
_cell_angle_gamma   90.00000000
_symmetry_Int_Tables_number   1
_chemical_formula_structural   NdCoGe
_chemical_formula_sum   'Nd2 Co2 Ge2'
_cell_volume   121.59587978
_cell_formula_units_Z   2
loop_
 _symmetry_equiv_pos_site_id
 _symmetry_equiv_pos_as_xyz
  1  'x, y, z'
loop_
 _atom_site_type_symbol
 _atom_site_label
 _atom_site_symmetry_multiplicity
 _atom_site_fract_x
 _atom_site_fract_y
 _atom_site_fract_z
 _atom_site_occupancy
  Nd  Nd0  1  0.58005803  0.58005802  0.16011603  1
  Nd  Nd1  1  0.33005803  0.83005803  0.66011603  1
  Co  Co2  1  0.99902606  0.99902604  0.99805206  1
  Co  Co3  1  0.74902603  0.24902601  0.49805203  1
  Ge  Ge4  1  0.16791601  0.16791601  0.33583201  1
  Ge  Ge5  1  0.91791604  0.41791601  0.83583204  1
