# generated using pymatgen
data_KLa(Hg7Br)2
_symmetry_space_group_name_H-M   'P 1'
_cell_length_a   7.14127493
_cell_length_b   9.78752041
_cell_length_c   9.78752041
_cell_angle_alpha   120.00000000
_cell_angle_beta   90.00000000
_cell_angle_gamma   90.00000000
_symmetry_Int_Tables_number   1
_chemical_formula_structural   KLa(Hg7Br)2
_chemical_formula_sum   'K1 La1 Hg14 Br2'
_cell_volume   592.45005770
_cell_formula_units_Z   1
loop_
 _symmetry_equiv_pos_site_id
 _symmetry_equiv_pos_as_xyz
  1  'x, y, z'
loop_
 _atom_site_type_symbol
 _atom_site_label
 _atom_site_symmetry_multiplicity
 _atom_site_fract_x
 _atom_site_fract_y
 _atom_site_fract_z
 _atom_site_occupancy
  La  La0  1  0.75000001  0.27719599  0.99999996  1
  Hg  Hg1  1  0.50000000  0.66666664  0.33333332  1
  Hg  Hg2  1  0.25000000  0.72280397  0.99999996  1
  Hg  Hg3  1  0.75000001  0.00000000  0.27719599  1
  K  K4  1  0.50000000  0.33333332  0.66666664  1
  Hg  Hg5  1  0.75000001  0.72280397  0.72280397  1
  Hg  Hg6  1  0.25000000  0.27719599  0.27719599  1
  Hg  Hg7  1  0.00000000  0.66666664  0.33333332  1
  Hg  Hg8  1  0.00000000  0.33333332  0.66666664  1
  Hg  Hg9  1  0.25000000  0.00000000  0.72280397  1
  Hg  Hg10  1  0.75000001  0.61395497  0.99999996  1
  Hg  Hg11  1  0.25000000  0.38604498  0.99999996  1
  Hg  Hg12  1  0.25000000  0.61395497  0.61395498  1
  Hg  Hg13  1  0.75000001  0.00000000  0.61395498  1
  Hg  Hg14  1  0.75000001  0.38604498  0.38604499  1
  Hg  Hg15  1  0.25000000  0.00000000  0.38604499  1
  Br  Br16  1  0.00000000  0.00000000  0.00000000  1
  Br  Br17  1  0.50000000  0.00000000  -0.00000000  1
