# generated using pymatgen
data_BaCoS3
_symmetry_space_group_name_H-M   'P 1'
_cell_length_a   5.93453693
_cell_length_b   8.20450115
_cell_length_c   8.20450115
_cell_angle_alpha   73.24778748
_cell_angle_beta   68.79761505
_cell_angle_gamma   68.79761505
_symmetry_Int_Tables_number   1
_chemical_formula_structural   BaCoS3
_chemical_formula_sum   'Ba4 Co4 S12'
_cell_volume   341.48178301
_cell_formula_units_Z   4
loop_
 _symmetry_equiv_pos_site_id
 _symmetry_equiv_pos_as_xyz
  1  'x, y, z'
loop_
 _atom_site_type_symbol
 _atom_site_label
 _atom_site_symmetry_multiplicity
 _atom_site_fract_x
 _atom_site_fract_y
 _atom_site_fract_z
 _atom_site_occupancy
  Ba  Ba0  1  0.86683806  0.87388197  0.39244102  1
  Ba  Ba1  1  0.13316201  0.12611800  0.60755900  1
  Ba  Ba2  1  0.36683803  0.39244099  0.87388200  1
  Ba  Ba3  1  0.63316204  0.60755898  0.12611802  1
  S  S4  1  0.25000000  0.00000000  0.00000001  1
  S  S5  1  0.74999999  0.00000000  0.00000003  1
  Co  Co6  1  0.63062201  0.25738699  0.48137002  1
  Co  Co7  1  0.36937805  0.74261298  0.51863000  1
  Co  Co8  1  0.13062203  0.48136999  0.25738700  1
  Co  Co9  1  0.86937803  0.51862998  0.74261302  1
  S  S10  1  0.25000003  0.49999999  0.50000000  1
  S  S11  1  0.75000003  0.49999999  0.50000002  1
  S  S12  1  0.00798202  0.24201799  0.24201799  1
  S  S13  1  0.49201805  0.75798198  0.75798200  1
  S  S14  1  0.99201805  0.75798198  0.75798202  1
  S  S15  1  0.50798201  0.24201799  0.24201802  1
  S  S16  1  0.60229800  0.04886600  0.74653702  1
  S  S17  1  0.39770207  0.95113397  0.25346300  1
  S  S18  1  0.10229805  0.74653698  0.04886599  1
  S  S19  1  0.89770201  0.25346299  0.95113402  1
