# generated using pymatgen
data_Ga8HOF4
_symmetry_space_group_name_H-M   'P 1'
_cell_length_a   6.09813976
_cell_length_b   6.09813976
_cell_length_c   6.09813976
_cell_angle_alpha   60.00000000
_cell_angle_beta   60.00000000
_cell_angle_gamma   60.00000000
_symmetry_Int_Tables_number   1
_chemical_formula_structural   Ga8HOF4
_chemical_formula_sum   'Ga8 H1 O1 F4'
_cell_volume   160.35301250
_cell_formula_units_Z   1
loop_
 _symmetry_equiv_pos_site_id
 _symmetry_equiv_pos_as_xyz
  1  'x, y, z'
loop_
 _atom_site_type_symbol
 _atom_site_label
 _atom_site_symmetry_multiplicity
 _atom_site_fract_x
 _atom_site_fract_y
 _atom_site_fract_z
 _atom_site_occupancy
  Ga  Ga0  1  0.25000000  0.25000000  0.25000000  1
  H  H1  1  0.50000000  0.50000000  0.50000000  1
  Ga  Ga2  1  0.37500000  0.87500000  0.87500000  1
  Ga  Ga3  1  0.87500000  0.87500000  0.37500000  1
  Ga  Ga4  1  0.87500000  0.87500000  0.87500000  1
  Ga  Ga5  1  0.87500000  0.37500000  0.87500000  1
  Ga  Ga6  1  0.63596700  0.63596800  0.09209700  1
  Ga  Ga7  1  0.63596700  0.09209700  0.63596800  1
  F  F8  1  0.11403300  0.11403200  0.11403200  1
  O  O9  1  0.63596700  0.63596800  0.63596800  1
  Ga  Ga10  1  0.09209600  0.63596800  0.63596800  1
  F  F11  1  0.11403300  0.11403200  0.65790300  1
  F  F12  1  0.65790400  0.11403200  0.11403200  1
  F  F13  1  0.11403300  0.65790300  0.11403200  1
