# generated using pymatgen
data_HgBr7Cl2
_symmetry_space_group_name_H-M   'P 1'
_cell_length_a   6.65337324
_cell_length_b   6.65337324
_cell_length_c   7.18731451
_cell_angle_alpha   99.73043823
_cell_angle_beta   99.73043823
_cell_angle_gamma   119.29473877
_symmetry_Int_Tables_number   1
_chemical_formula_structural   HgBr7Cl2
_chemical_formula_sum   'Hg1 Br7 Cl2'
_cell_volume   261.49447068
_cell_formula_units_Z   1
loop_
 _symmetry_equiv_pos_site_id
 _symmetry_equiv_pos_as_xyz
  1  'x, y, z'
loop_
 _atom_site_type_symbol
 _atom_site_label
 _atom_site_symmetry_multiplicity
 _atom_site_fract_x
 _atom_site_fract_y
 _atom_site_fract_z
 _atom_site_occupancy
  Hg  Hg0  1  0.12602502  0.87397502  0.00000001  1
  Br  Br1  1  0.87397502  0.12602500  0.00000001  1
  Cl  Cl2  1  0.86462003  0.86462002  0.69793002  1
  Cl  Cl3  1  0.13538000  0.13538000  0.30207000  1
  Br  Br4  1  0.31881801  0.31881801  0.13084301  1
  Br  Br5  1  0.68118202  0.68118202  0.86915701  1
  Br  Br6  1  0.97410602  0.56574401  0.22824302  1
  Br  Br7  1  0.56574402  0.97410602  0.22824302  1
  Br  Br8  1  0.02589401  0.43425601  0.77175700  1
  Br  Br9  1  0.43425601  0.02589400  0.77175700  1
