# generated using pymatgen
data_CoGe
_symmetry_space_group_name_H-M   'P 1'
_cell_length_a   3.12805009
_cell_length_b   3.24259400
_cell_length_c   4.60613871
_cell_angle_alpha   69.39115906
_cell_angle_beta   90.00000000
_cell_angle_gamma   90.00000000
_symmetry_Int_Tables_number   1
_chemical_formula_structural   CoGe
_chemical_formula_sum   'Co2 Ge2'
_cell_volume   43.73021003
_cell_formula_units_Z   2
loop_
 _symmetry_equiv_pos_site_id
 _symmetry_equiv_pos_as_xyz
  1  'x, y, z'
loop_
 _atom_site_type_symbol
 _atom_site_label
 _atom_site_symmetry_multiplicity
 _atom_site_fract_x
 _atom_site_fract_y
 _atom_site_fract_z
 _atom_site_occupancy
  Co  Co0  1  0.00000000  0.85388998  0.29222004  1
  Ge  Ge1  1  0.49999999  0.44191999  0.11616002  1
  Ge  Ge2  1  0.00000000  0.55962399  0.88075205  1
  Co  Co3  1  0.49999999  0.14456500  0.71087003  1
