# generated using pymatgen
data_NaWO3
_symmetry_space_group_name_H-M   'P 1'
_cell_length_a   2.98026395
_cell_length_b   5.32268429
_cell_length_c   7.88400602
_cell_angle_alpha   90.00000000
_cell_angle_beta   90.00000000
_cell_angle_gamma   106.25774384
_symmetry_Int_Tables_number   1
_chemical_formula_structural   NaWO3
_chemical_formula_sum   'Na2 W2 O6'
_cell_volume   120.06296294
_cell_formula_units_Z   2
loop_
 _symmetry_equiv_pos_site_id
 _symmetry_equiv_pos_as_xyz
  1  'x, y, z'
loop_
 _atom_site_type_symbol
 _atom_site_label
 _atom_site_symmetry_multiplicity
 _atom_site_fract_x
 _atom_site_fract_y
 _atom_site_fract_z
 _atom_site_occupancy
  O  O0  1  0.03236100  0.06472200  0.75000000  1
  O  O1  1  0.96763906  0.93527801  0.25000000  1
  O  O2  1  0.37459505  0.74919001  0.54493600  1
  O  O3  1  0.62540502  0.25081000  0.45506400  1
  O  O4  1  0.37459505  0.74919001  0.95506400  1
  O  O5  1  0.62540502  0.25081000  0.04493600  1
  Na  Na6  1  0.74206804  0.48413601  0.75000000  1
  Na  Na7  1  0.25793203  0.51586401  0.25000000  1
  W  W8  1  0.00000000  0.00000000  0.50000000  1
  W  W9  1  0.00000000  0.00000000  0.00000000  1
