# generated using pymatgen
data_Ga2Co3
_symmetry_space_group_name_H-M   'P 1'
_cell_length_a   3.55912662
_cell_length_b   3.55912662
_cell_length_c   5.58420086
_cell_angle_alpha   75.90888214
_cell_angle_beta   75.90888214
_cell_angle_gamma   89.49861145
_symmetry_Int_Tables_number   1
_chemical_formula_structural   Ga2Co3
_chemical_formula_sum   'Ga2 Co3'
_cell_volume   66.44821253
_cell_formula_units_Z   1
loop_
 _symmetry_equiv_pos_site_id
 _symmetry_equiv_pos_as_xyz
  1  'x, y, z'
loop_
 _atom_site_type_symbol
 _atom_site_label
 _atom_site_symmetry_multiplicity
 _atom_site_fract_x
 _atom_site_fract_y
 _atom_site_fract_z
 _atom_site_occupancy
  Ga  Ga0  1  0.32540699  0.32540700  0.30942699  1
  Ga  Ga1  1  0.67459298  0.67459301  0.69057298  1
  Co  Co2  1  0.00000000  0.00000000  0.00000000  1
  Co  Co3  1  0.15532300  0.15532300  0.77256999  1
  Co  Co4  1  0.84467698  0.84467701  0.22742998  1
