# generated using pymatgen
data_B9Mo7
_symmetry_space_group_name_H-M   'P 1'
_cell_length_a   3.14884400
_cell_length_b   3.26336598
_cell_length_c   16.76258659
_cell_angle_alpha   90.00000000
_cell_angle_beta   95.38943481
_cell_angle_gamma   90.00000000
_symmetry_Int_Tables_number   1
_chemical_formula_structural   B9Mo7
_chemical_formula_sum   'B9 Mo7'
_cell_volume   171.48803390
_cell_formula_units_Z   1
loop_
 _symmetry_equiv_pos_site_id
 _symmetry_equiv_pos_as_xyz
  1  'x, y, z'
loop_
 _atom_site_type_symbol
 _atom_site_label
 _atom_site_symmetry_multiplicity
 _atom_site_fract_x
 _atom_site_fract_y
 _atom_site_fract_z
 _atom_site_occupancy
  Mo  Mo0  1  0.70950400  1.00000000  0.41900802  1
  Mo  Mo1  1  0.29049600  1.00000000  0.58099203  1
  Mo  Mo2  1  0.56715200  0.50000000  0.13430400  1
  Mo  Mo3  1  0.43284800  0.50000000  0.86569604  1
  Mo  Mo4  1  0.13059100  0.00000000  0.26118201  1
  Mo  Mo5  1  0.86940900  1.00000000  0.73881803  1
  Mo  Mo6  1  0.00000000  0.00000000  0.00000000  1
  B  B7  1  0.65247600  0.50000000  0.30495201  1
  B  B8  1  0.34752400  0.50000000  0.69504803  1
  B  B9  1  0.76345100  0.50000000  0.52690202  1
  B  B10  1  0.23654900  0.50000000  0.47309802  1
  B  B11  1  0.18159500  0.50000000  0.36319002  1
  B  B12  1  0.81840500  0.50000000  0.63681003  1
  B  B13  1  0.06612200  1.00000000  0.13224401  1
  B  B14  1  0.50000000  0.50000000  -0.00000000  1
  B  B15  1  0.93387800  0.00000000  0.86775604  1
