# generated using pymatgen
data_Li3Co5O8
_symmetry_space_group_name_H-M   'P 1'
_cell_length_a   5.88963938
_cell_length_b   5.89277649
_cell_length_c   5.89864874
_cell_angle_alpha   119.54817200
_cell_angle_beta   119.19302368
_cell_angle_gamma   90.99308014
_symmetry_Int_Tables_number   1
_chemical_formula_structural   Li3Co5O8
_chemical_formula_sum   'Li3 Co5 O8'
_cell_volume   146.23638667
_cell_formula_units_Z   1
loop_
 _symmetry_equiv_pos_site_id
 _symmetry_equiv_pos_as_xyz
  1  'x, y, z'
loop_
 _atom_site_type_symbol
 _atom_site_label
 _atom_site_symmetry_multiplicity
 _atom_site_fract_x
 _atom_site_fract_y
 _atom_site_fract_z
 _atom_site_occupancy
  Li  Li0  1  0.00000003  0.49999999  -0.00000000  1
  Co  Co1  1  0.50000004  0.49999999  0.50000002  1
  Li  Li2  1  0.50000001  0.00000000  0.50000002  1
  Li  Li3  1  0.50000004  0.49999999  0.00000001  1
  Co  Co4  1  0.00000000  0.00000000  0.99999902  1
  Co  Co5  1  0.00000003  0.49999999  0.50000001  1
  Co  Co6  1  0.00000000  0.00000000  0.50000201  1
  Co  Co7  1  0.50000001  0.00000000  0.00000101  1
  O  O8  1  0.22911202  0.22332299  0.99329502  1
  O  O9  1  0.22995005  0.73578298  0.50675401  1
  O  O10  1  0.77005003  0.26421699  0.49324503  1
  O  O11  1  0.77088706  0.77667698  0.00670502  1
  O  O12  1  0.23084905  0.74784998  0.98177802  1
  O  O13  1  0.76606806  0.74937998  0.51853103  1
  O  O14  1  0.23393202  0.25061999  0.48146901  1
  O  O15  1  0.76915103  0.25214999  0.01822102  1
