# generated using pymatgen
data_Ga
_symmetry_space_group_name_H-M   'P 1'
_cell_length_a   4.88188601
_cell_length_b   5.67771006
_cell_length_c   5.67771006
_cell_angle_alpha   120.00000000
_cell_angle_beta   90.00000000
_cell_angle_gamma   90.00000000
_symmetry_Int_Tables_number   1
_chemical_formula_structural   Ga
_chemical_formula_sum   Ga8
_cell_volume   136.29021830
_cell_formula_units_Z   8
loop_
 _symmetry_equiv_pos_site_id
 _symmetry_equiv_pos_as_xyz
  1  'x, y, z'
loop_
 _atom_site_type_symbol
 _atom_site_label
 _atom_site_symmetry_multiplicity
 _atom_site_fract_x
 _atom_site_fract_y
 _atom_site_fract_z
 _atom_site_occupancy
  Ga  Ga0  1  0.75000000  0.33333333  0.66666665  1
  Ga  Ga1  1  0.25000000  0.66666666  0.33333332  1
  Ga  Ga2  1  0.25000000  0.16851400  0.33702799  1
  Ga  Ga3  1  0.75000000  0.33702900  0.16851499  1
  Ga  Ga4  1  0.75000000  0.83148599  0.16851499  1
  Ga  Ga5  1  0.75000000  0.83148599  0.66297198  1
  Ga  Ga6  1  0.25000000  0.16851400  0.83148498  1
  Ga  Ga7  1  0.25000000  0.66297099  0.83148497  1
