# generated using pymatgen
data_As2Pb3O7
_symmetry_space_group_name_H-M   'P 1'
_cell_length_a   6.14323711
_cell_length_b   6.14323711
_cell_length_c   6.14323711
_cell_angle_alpha   106.03681183
_cell_angle_beta   106.03681183
_cell_angle_gamma   116.58276367
_symmetry_Int_Tables_number   1
_chemical_formula_structural   As2Pb3O7
_chemical_formula_sum   'As2 Pb3 O7'
_cell_volume   176.38535003
_cell_formula_units_Z   1
loop_
 _symmetry_equiv_pos_site_id
 _symmetry_equiv_pos_as_xyz
  1  'x, y, z'
loop_
 _atom_site_type_symbol
 _atom_site_label
 _atom_site_symmetry_multiplicity
 _atom_site_fract_x
 _atom_site_fract_y
 _atom_site_fract_z
 _atom_site_occupancy
  As  As0  1  0.24999991  0.74999994  0.49999991  1
  As  As1  1  0.49999993  0.49999996  0.99999993  1
  Pb  Pb2  1  0.00000000  0.00000000  0.00000000  1
  Pb  Pb3  1  0.74999996  0.24999998  0.49999994  1
  O  O4  1  0.07760291  0.75682794  0.67922592  1
  O  O5  1  0.60162288  0.92239793  0.67922588  1
  O  O6  1  0.07760295  0.39837797  0.32077496  1
  O  O7  1  0.24317189  0.92239693  0.32077490  1
  O  O8  1  0.50682796  0.32760297  0.17922494  1
  Pb  Pb9  1  0.67239689  0.85162193  0.17922488  1
  O  O10  1  0.14837696  0.32760197  0.82077396  1
  O  O11  1  0.67239693  0.49317196  0.82077392  1
