# generated using pymatgen
data_Nd2GaCo16
_symmetry_space_group_name_H-M   'P 1'
_cell_length_a   6.32029152
_cell_length_b   6.32029152
_cell_length_c   6.32029152
_cell_angle_alpha   83.10366058
_cell_angle_beta   83.10366058
_cell_angle_gamma   83.10366058
_symmetry_Int_Tables_number   1
_chemical_formula_structural   Nd2GaCo16
_chemical_formula_sum   'Nd2 Ga1 Co16'
_cell_volume   247.39694029
_cell_formula_units_Z   1
loop_
 _symmetry_equiv_pos_site_id
 _symmetry_equiv_pos_as_xyz
  1  'x, y, z'
loop_
 _atom_site_type_symbol
 _atom_site_label
 _atom_site_symmetry_multiplicity
 _atom_site_fract_x
 _atom_site_fract_y
 _atom_site_fract_z
 _atom_site_occupancy
  Nd  Nd0  1  0.65536300  0.65536297  0.65536297  1
  Nd  Nd1  1  0.34463700  0.34463699  0.34463698  1
  Ga  Ga2  1  0.90422000  0.90421997  0.90421995  1
  Co  Co3  1  0.09578000  0.09578000  0.09578000  1
  Co  Co4  1  0.00000000  0.00000000  0.49999999  1
  Co  Co5  1  0.49999998  0.00000000  -0.00000001  1
  Co  Co6  1  0.00000002  0.49999998  0.99999998  1
  Co  Co7  1  0.71503099  0.28496899  -0.00000002  1
  Co  Co8  1  0.00000003  0.71503097  0.28496898  1
  Co  Co9  1  0.28496899  0.00000000  0.71503099  1
  Co  Co10  1  0.28496902  0.71503097  -0.00000002  1
  Co  Co11  1  0.00000001  0.28496899  0.71503099  1
  Co  Co12  1  0.71503098  0.00000000  0.28496898  1
  Co  Co13  1  0.34299002  0.85157597  0.34298997  1
  Co  Co14  1  0.34299000  0.34298999  0.85157598  1
  Co  Co15  1  0.85157598  0.34298999  0.34298997  1
  Co  Co16  1  0.14842402  0.65700997  0.65700998  1
  Co  Co17  1  0.65700998  0.14842399  0.65700998  1
  Co  Co18  1  0.65701000  0.65700997  0.14842397  1
