# generated using pymatgen
data_HoCo2
_symmetry_space_group_name_H-M   'P 1'
_cell_length_a   5.13083029
_cell_length_b   5.13083029
_cell_length_c   8.94164658
_cell_angle_alpha   73.32717133
_cell_angle_beta   73.32717133
_cell_angle_gamma   59.99999619
_symmetry_Int_Tables_number   1
_chemical_formula_structural   HoCo2
_chemical_formula_sum   'Ho4 Co8'
_cell_volume   192.34394890
_cell_formula_units_Z   4
loop_
 _symmetry_equiv_pos_site_id
 _symmetry_equiv_pos_as_xyz
  1  'x, y, z'
loop_
 _atom_site_type_symbol
 _atom_site_label
 _atom_site_symmetry_multiplicity
 _atom_site_fract_x
 _atom_site_fract_y
 _atom_site_fract_z
 _atom_site_occupancy
  Ho  Ho0  1  0.62470800  0.62470800  0.12587605  1
  Ho  Ho1  1  0.00157400  0.00157400  0.99527803  1
  Ho  Ho2  1  0.49857300  0.49857300  0.50428105  1
  Ho  Ho3  1  0.12538600  0.12538600  0.62384203  1
  Co  Co4  1  0.06603100  0.56314500  0.80767905  1
  Co  Co5  1  0.55959400  0.06125900  0.31788803  1
  Co  Co6  1  0.56314500  0.06603100  0.80767905  1
  Co  Co7  1  0.06125900  0.55959400  0.31788803  1
  Co  Co8  1  0.81184700  0.81184700  0.56445907  1
  Co  Co9  1  0.31347800  0.31347800  0.05956602  1
  Co  Co10  1  0.56314500  0.56314500  0.80767906  1
  Co  Co11  1  0.06125900  0.06125900  0.31788801  1
