# generated using pymatgen
data_NbCu2Ge5
_symmetry_space_group_name_H-M   'P 1'
_cell_length_a   3.64611411
_cell_length_b   3.64611411
_cell_length_c   9.26147366
_cell_angle_alpha   90.00000000
_cell_angle_beta   90.00000000
_cell_angle_gamma   90.00000000
_symmetry_Int_Tables_number   1
_chemical_formula_structural   NbCu2Ge5
_chemical_formula_sum   'Nb1 Cu2 Ge5'
_cell_volume   123.12340250
_cell_formula_units_Z   1
loop_
 _symmetry_equiv_pos_site_id
 _symmetry_equiv_pos_as_xyz
  1  'x, y, z'
loop_
 _atom_site_type_symbol
 _atom_site_label
 _atom_site_symmetry_multiplicity
 _atom_site_fract_x
 _atom_site_fract_y
 _atom_site_fract_z
 _atom_site_occupancy
  Nb  Nb0  1  0.00000000  0.49999998  0.77649703  1
  Ge  Ge1  1  0.49999998  0.00000000  0.22350301  1
  Cu  Cu2  1  0.49999998  0.49999998  0.50000002  1
  Cu  Cu3  1  0.00000000  0.00000000  0.50000002  1
  Ge  Ge4  1  0.49999998  0.49999998  -0.00000000  1
  Ge  Ge5  1  0.00000000  0.00000000  0.00000000  1
  Ge  Ge6  1  0.00000000  0.49999998  0.31223201  1
  Ge  Ge7  1  0.49999998  0.00000000  0.68776803  1
