# generated using pymatgen
data_Tb(CoGe)2
_symmetry_space_group_name_H-M   'P 1'
_cell_length_a   4.10438776
_cell_length_b   4.10438776
_cell_length_c   5.84323835
_cell_angle_alpha   110.56124115
_cell_angle_beta   110.56124115
_cell_angle_gamma   90.00000000
_symmetry_Int_Tables_number   1
_chemical_formula_structural   Tb(CoGe)2
_chemical_formula_sum   'Tb1 Co2 Ge2'
_cell_volume   85.43501623
_cell_formula_units_Z   1
loop_
 _symmetry_equiv_pos_site_id
 _symmetry_equiv_pos_as_xyz
  1  'x, y, z'
loop_
 _atom_site_type_symbol
 _atom_site_label
 _atom_site_symmetry_multiplicity
 _atom_site_fract_x
 _atom_site_fract_y
 _atom_site_fract_z
 _atom_site_occupancy
  Tb  Tb0  1  0.00000000  0.00000000  0.00000000  1
  Ge  Ge1  1  0.62176806  0.62176805  0.24353605  1
  Ge  Ge2  1  0.37823204  0.37823203  0.75646405  1
  Co  Co3  1  0.25000004  0.75000006  0.50000005  1
  Co  Co4  1  0.75000006  0.25000002  0.50000005  1
