# generated using pymatgen
data_MgGaP8N
_symmetry_space_group_name_H-M   'P 1'
_cell_length_a   3.33858585
_cell_length_b   3.33858585
_cell_length_c   13.75145340
_cell_angle_alpha   83.02764130
_cell_angle_beta   83.02764130
_cell_angle_gamma   60.00000381
_symmetry_Int_Tables_number   1
_chemical_formula_structural   MgGaP8N
_chemical_formula_sum   'Mg1 Ga1 P8 N1'
_cell_volume   131.43029108
_cell_formula_units_Z   1
loop_
 _symmetry_equiv_pos_site_id
 _symmetry_equiv_pos_as_xyz
  1  'x, y, z'
loop_
 _atom_site_type_symbol
 _atom_site_label
 _atom_site_symmetry_multiplicity
 _atom_site_fract_x
 _atom_site_fract_y
 _atom_site_fract_z
 _atom_site_occupancy
  P  P0  1  0.36595198  0.36595199  0.90214401  1
  P  P1  1  0.63404797  0.63404799  0.09785599  1
  P  P2  1  0.91150396  0.91150398  0.26548799  1
  P  P3  1  0.18937499  0.18937500  0.43187500  1
  Mg  Mg4  1  0.81062496  0.81062499  0.56812500  1
  P  P5  1  0.08849600  0.08849600  0.73451201  1
  P  P6  1  0.26742299  0.26742300  0.19773100  1
  Ga  Ga7  1  0.73257697  0.73257699  0.80226900  1
  P  P8  1  0.00000000  0.00000000  0.00000000  1
  P  P9  1  0.13599799  0.13599800  0.59200601  1
  N  N10  1  0.86400196  0.86400198  0.40799399  1
