# generated using pymatgen
data_EuGa4
_symmetry_space_group_name_H-M   'P 1'
_cell_length_a   4.27700186
_cell_length_b   4.27700186
_cell_length_c   6.41375780
_cell_angle_alpha   109.47673035
_cell_angle_beta   109.47673035
_cell_angle_gamma   90.00000000
_symmetry_Int_Tables_number   1
_chemical_formula_structural   EuGa4
_chemical_formula_sum   'Eu1 Ga4'
_cell_volume   103.46308953
_cell_formula_units_Z   1
loop_
 _symmetry_equiv_pos_site_id
 _symmetry_equiv_pos_as_xyz
  1  'x, y, z'
loop_
 _atom_site_type_symbol
 _atom_site_label
 _atom_site_symmetry_multiplicity
 _atom_site_fract_x
 _atom_site_fract_y
 _atom_site_fract_z
 _atom_site_occupancy
  Eu  Eu0  1  0.00000000  0.00000000  0.00000000  1
  Ga  Ga1  1  0.24999998  0.75000001  0.49999998  1
  Ga  Ga2  1  0.61055000  0.61055001  0.22109997  1
  Ga  Ga3  1  0.75000001  0.25000000  0.49999998  1
  Ga  Ga4  1  0.38945000  0.38945001  0.77889999  1
