# generated using pymatgen
data_Zn4SiGeN6
_symmetry_space_group_name_H-M   'P 1'
_cell_length_a   5.24221992
_cell_length_b   5.53391933
_cell_length_c   5.53391933
_cell_angle_alpha   119.85087585
_cell_angle_beta   90.00000000
_cell_angle_gamma   90.00000000
_symmetry_Int_Tables_number   1
_chemical_formula_structural   Zn4SiGeN6
_chemical_formula_sum   'Zn4 Si1 Ge1 N6'
_cell_volume   139.23940562
_cell_formula_units_Z   1
loop_
 _symmetry_equiv_pos_site_id
 _symmetry_equiv_pos_as_xyz
  1  'x, y, z'
loop_
 _atom_site_type_symbol
 _atom_site_label
 _atom_site_symmetry_multiplicity
 _atom_site_fract_x
 _atom_site_fract_y
 _atom_site_fract_z
 _atom_site_occupancy
  Si  Si0  1  0.03877900  0.83552199  0.83552196  1
  Ge  Ge1  1  0.53877901  0.16447800  0.16447799  1
  Zn  Zn2  1  0.52672801  0.50233399  0.83182298  1
  Zn  Zn3  1  0.52672801  0.83182299  0.50233396  1
  Zn  Zn4  1  0.02672800  0.49766599  0.16817697  1
  Zn  Zn5  1  0.02672800  0.16817700  0.49766600  1
  N  N6  1  0.13870000  0.53094499  0.83480698  1
  N  N7  1  0.13870000  0.83480699  0.53094496  1
  N  N8  1  0.63870001  0.46905499  0.16519298  1
  N  N9  1  0.63870001  0.16519300  0.46905500  1
  N  N10  1  0.68598601  0.86166199  0.86166196  1
  N  N11  1  0.18598600  0.13833800  0.13833799  1
