# generated using pymatgen
data_GeMo
_symmetry_space_group_name_H-M   'P 1'
_cell_length_a   2.77429199
_cell_length_b   4.45405579
_cell_length_c   4.77538204
_cell_angle_alpha   90.00000000
_cell_angle_beta   90.00000000
_cell_angle_gamma   90.00000000
_symmetry_Int_Tables_number   1
_chemical_formula_structural   GeMo
_chemical_formula_sum   'Ge2 Mo2'
_cell_volume   59.00868579
_cell_formula_units_Z   2
loop_
 _symmetry_equiv_pos_site_id
 _symmetry_equiv_pos_as_xyz
  1  'x, y, z'
loop_
 _atom_site_type_symbol
 _atom_site_label
 _atom_site_symmetry_multiplicity
 _atom_site_fract_x
 _atom_site_fract_y
 _atom_site_fract_z
 _atom_site_occupancy
  Ge  Ge0  1  0.00000000  0.50000002  0.79335199  1
  Ge  Ge1  1  0.00000000  0.00000000  0.21070600  1
  Mo  Mo2  1  0.50000000  0.50000002  0.30941800  1
  Mo  Mo3  1  0.50000000  0.00000000  0.68652299  1
