# generated using pymatgen
data_Ho(Ga3Fe)3
_symmetry_space_group_name_H-M   'P 1'
_cell_length_a   4.94270420
_cell_length_b   6.63079357
_cell_length_c   6.63079357
_cell_angle_alpha   81.19418335
_cell_angle_beta   68.11725616
_cell_angle_gamma   68.11725616
_symmetry_Int_Tables_number   1
_chemical_formula_structural   Ho(Ga3Fe)3
_chemical_formula_sum   'Ho1 Ga9 Fe3'
_cell_volume   187.10464910
_cell_formula_units_Z   1
loop_
 _symmetry_equiv_pos_site_id
 _symmetry_equiv_pos_as_xyz
  1  'x, y, z'
loop_
 _atom_site_type_symbol
 _atom_site_label
 _atom_site_symmetry_multiplicity
 _atom_site_fract_x
 _atom_site_fract_y
 _atom_site_fract_z
 _atom_site_occupancy
  Ho  Ho0  1  0.00000000  0.00000000  0.00000000  1
  Fe  Fe1  1  0.49999998  0.00000000  0.50000000  1
  Ga  Ga2  1  0.00000000  0.00000000  0.49999999  1
  Fe  Fe3  1  0.50000000  0.49999999  -0.00000002  1
  Fe  Fe4  1  0.99999998  0.49999999  -0.00000002  1
  Ga  Ga5  1  0.49999999  0.23788100  0.76211898  1
  Ga  Ga6  1  0.50000001  0.76211899  0.23788096  1
  Ga  Ga7  1  0.34651501  0.65348499  0.65348496  1
  Ga  Ga8  1  0.65348499  0.34651499  0.34651498  1
  Ga  Ga9  1  0.99999999  0.66185199  0.33814797  1
  Ga  Ga10  1  0.99999997  0.33814799  0.66185198  1
  Ga  Ga11  1  0.30312900  0.19687100  0.19687099  1
  Ga  Ga12  1  0.69687101  0.80312899  0.80312895  1
