# generated using pymatgen
data_CsBa2Cl6F
_symmetry_space_group_name_H-M   'P 1'
_cell_length_a   7.83747578
_cell_length_b   8.23037720
_cell_length_c   8.11308193
_cell_angle_alpha   81.04508972
_cell_angle_beta   70.91800690
_cell_angle_gamma   61.56698608
_symmetry_Int_Tables_number   1
_chemical_formula_structural   CsBa2Cl6F
_chemical_formula_sum   'Cs1 Ba2 Cl6 F1'
_cell_volume   434.92180959
_cell_formula_units_Z   1
loop_
 _symmetry_equiv_pos_site_id
 _symmetry_equiv_pos_as_xyz
  1  'x, y, z'
loop_
 _atom_site_type_symbol
 _atom_site_label
 _atom_site_symmetry_multiplicity
 _atom_site_fract_x
 _atom_site_fract_y
 _atom_site_fract_z
 _atom_site_occupancy
  Ba  Ba0  1  0.85721704  0.28556601  0.50000000  1
  Ba  Ba1  1  0.14278302  0.71443402  0.50000002  1
  Cl  Cl2  1  0.88006503  0.00000000  0.82487299  1
  F  F3  1  0.11993500  0.00000000  0.17512700  1
  Cs  Cs4  1  0.33137201  0.00000000  0.38861300  1
  Cl  Cl5  1  0.66862802  0.00000000  0.61138700  1
  Cl  Cl6  1  0.55979903  0.41920501  0.25682001  1
  Cl  Cl7  1  0.02099601  0.41920501  0.74318002  1
  Cl  Cl8  1  0.44020103  0.58079502  0.74318002  1
  Cl  Cl9  1  0.97900405  0.58079502  0.25682000  1
