# generated using pymatgen
data_Ho(CoSi)2
_symmetry_space_group_name_H-M   'P 1'
_cell_length_a   3.85031199
_cell_length_b   3.85031199
_cell_length_c   5.51376724
_cell_angle_alpha   110.43560028
_cell_angle_beta   110.43560028
_cell_angle_gamma   90.00000000
_symmetry_Int_Tables_number   1
_chemical_formula_structural   Ho(CoSi)2
_chemical_formula_sum   'Ho1 Co2 Si2'
_cell_volume   71.08100796
_cell_formula_units_Z   1
loop_
 _symmetry_equiv_pos_site_id
 _symmetry_equiv_pos_as_xyz
  1  'x, y, z'
loop_
 _atom_site_type_symbol
 _atom_site_label
 _atom_site_symmetry_multiplicity
 _atom_site_fract_x
 _atom_site_fract_y
 _atom_site_fract_z
 _atom_site_occupancy
  Ho  Ho0  1  0.00000000  0.00000000  0.00000000  1
  Co  Co1  1  0.24999997  0.74999999  0.49999995  1
  Co  Co2  1  0.74999998  0.25000000  0.49999996  1
  Si  Si3  1  0.63088397  0.63088399  0.26176795  1
  Si  Si4  1  0.36911598  0.36911599  0.73823196  1
