# generated using pymatgen
data_Mg(Mo3P2)3
_symmetry_space_group_name_H-M   'P 1'
_cell_length_a   6.18661594
_cell_length_b   7.04540586
_cell_length_c   6.18661594
_cell_angle_alpha   116.04348755
_cell_angle_beta   90.00000000
_cell_angle_gamma   116.04348755
_symmetry_Int_Tables_number   1
_chemical_formula_structural   Mg(Mo3P2)3
_chemical_formula_sum   'Mg1 Mo9 P6'
_cell_volume   211.37847043
_cell_formula_units_Z   1
loop_
 _symmetry_equiv_pos_site_id
 _symmetry_equiv_pos_as_xyz
  1  'x, y, z'
loop_
 _atom_site_type_symbol
 _atom_site_label
 _atom_site_symmetry_multiplicity
 _atom_site_fract_x
 _atom_site_fract_y
 _atom_site_fract_z
 _atom_site_occupancy
  Mg  Mg0  1  0.00000000  0.00000000  0.00000000  1
  Mo  Mo1  1  0.50000000  0.00000000  0.50000000  1
  Mo  Mo2  1  0.98600701  0.30321800  0.81721101  1
  Mo  Mo3  1  0.31721101  0.30321800  0.48600701  1
  Mo  Mo4  1  0.48600701  0.30321800  0.98600701  1
  Mo  Mo5  1  0.81721101  0.30321800  0.31721101  1
  Mo  Mo6  1  0.01399301  0.69678200  0.18278901  1
  Mo  Mo7  1  0.68278901  0.69678200  0.51399301  1
  Mo  Mo8  1  0.51399301  0.69678200  0.01399301  1
  Mo  Mo9  1  0.18278901  0.69678200  0.68278901  1
  P  P10  1  0.25000001  0.50000000  0.25000001  1
  P  P11  1  0.75000001  0.50000000  0.75000001  1
  P  P12  1  0.36717401  0.99999901  0.13282501  1
  P  P13  1  0.63282601  0.00000100  0.86717501  1
  P  P14  1  0.86717401  0.00000000  0.36717400  1
  P  P15  1  0.13282600  0.00000000  0.63282601  1
