# generated using pymatgen
data_Nd8MgGa7
_symmetry_space_group_name_H-M   'P 1'
_cell_length_a   5.76357698
_cell_length_b   5.98892403
_cell_length_c   11.82854271
_cell_angle_alpha   90.00000000
_cell_angle_beta   90.00000000
_cell_angle_gamma   90.00000000
_symmetry_Int_Tables_number   1
_chemical_formula_structural   Nd8MgGa7
_chemical_formula_sum   'Nd8 Mg1 Ga7'
_cell_volume   408.29319776
_cell_formula_units_Z   1
loop_
 _symmetry_equiv_pos_site_id
 _symmetry_equiv_pos_as_xyz
  1  'x, y, z'
loop_
 _atom_site_type_symbol
 _atom_site_label
 _atom_site_symmetry_multiplicity
 _atom_site_fract_x
 _atom_site_fract_y
 _atom_site_fract_z
 _atom_site_occupancy
  Nd  Nd0  1  0.75000000  0.16400300  0.01097100  1
  Nd  Nd1  1  0.75000000  0.40493100  0.33358701  1
  Nd  Nd2  1  0.75000000  0.83599700  0.51097101  1
  Nd  Nd3  1  0.75000000  0.59506900  0.83358702  1
  Nd  Nd4  1  0.25000000  0.40493100  0.16641300  1
  Nd  Nd5  1  0.25000000  0.16400300  0.48902901  1
  Nd  Nd6  1  0.25000000  0.59506900  0.66641302  1
  Nd  Nd7  1  0.25000000  0.83599700  0.98902902  1
  Ga  Ga8  1  0.50000000  0.92790600  0.25000001  1
  Mg  Mg9  1  0.50000000  0.07209400  0.75000002  1
  Ga  Ga10  1  0.75000000  0.66712000  0.10149800  1
  Ga  Ga11  1  0.75000000  0.33288000  0.60149801  1
  Ga  Ga12  1  0.00000000  0.92790600  0.25000001  1
  Ga  Ga13  1  0.00000000  0.07209400  0.75000002  1
  Ga  Ga14  1  0.25000000  0.66712000  0.39850201  1
  Ga  Ga15  1  0.25000000  0.33288000  0.89850202  1
