# generated using pymatgen
data_Li2Co3O5
_symmetry_space_group_name_H-M   'P 1'
_cell_length_a   5.13634777
_cell_length_b   5.13897753
_cell_length_c   7.98161936
_cell_angle_alpha   71.22216034
_cell_angle_beta   84.25057220
_cell_angle_gamma   71.87321472
_symmetry_Int_Tables_number   1
_chemical_formula_structural   Li2Co3O5
_chemical_formula_sum   'Li4 Co6 O10'
_cell_volume   189.56637030
_cell_formula_units_Z   2
loop_
 _symmetry_equiv_pos_site_id
 _symmetry_equiv_pos_as_xyz
  1  'x, y, z'
loop_
 _atom_site_type_symbol
 _atom_site_label
 _atom_site_symmetry_multiplicity
 _atom_site_fract_x
 _atom_site_fract_y
 _atom_site_fract_z
 _atom_site_occupancy
  Li  Li0  1  0.00017104  0.80084903  0.39847497  1
  Co  Co1  1  0.99850196  0.00104800  0.00536598  1
  Li  Li2  1  0.50019100  0.29931201  0.40157598  1
  Co  Co3  1  0.49854699  0.10643700  0.79459100  1
  Co  Co4  1  0.50058502  0.89864003  0.19294895  1
  Co  Co5  1  0.00060601  0.19156501  0.60701600  1
  Li  Li6  1  0.00345102  0.39650201  0.20631999  1
  Co  Co7  1  0.99619599  0.59868602  0.80753396  1
  Li  Li8  1  0.50349601  0.70283503  0.59367797  1
  Co  Co9  1  0.49615500  0.50624302  0.99245798  1
  O  O10  1  0.22817901  0.43982402  0.60577699  1
  O  O11  1  0.72814898  0.14563601  0.19422498  1
  O  O12  1  0.24935499  0.05049400  0.40182400  1
  O  O13  1  0.76440699  0.33556501  0.78442498  1
  O  O14  1  0.26439400  0.22004401  0.01558798  1
  O  O15  1  0.26504502  0.66392502  0.20137097  1
  O  O16  1  0.24412203  0.86789403  0.78907997  1
  O  O17  1  0.76501802  0.96527004  0.59865395  1
  O  O18  1  0.74934600  0.55226002  0.39819296  1
  O  O19  1  0.74408501  0.75696503  0.01090695  1
