# generated using pymatgen
data_CsNaMoSO
_symmetry_space_group_name_H-M   'P 1'
_cell_length_a   3.98561811
_cell_length_b   3.98561811
_cell_length_c   14.99190044
_cell_angle_alpha   90.00000000
_cell_angle_beta   90.00000000
_cell_angle_gamma   90.00000000
_symmetry_Int_Tables_number   1
_chemical_formula_structural   CsNaMoSO
_chemical_formula_sum   'Cs2 Na2 Mo2 S2 O2'
_cell_volume   238.14861364
_cell_formula_units_Z   2
loop_
 _symmetry_equiv_pos_site_id
 _symmetry_equiv_pos_as_xyz
  1  'x, y, z'
loop_
 _atom_site_type_symbol
 _atom_site_label
 _atom_site_symmetry_multiplicity
 _atom_site_fract_x
 _atom_site_fract_y
 _atom_site_fract_z
 _atom_site_occupancy
  Mo  Mo0  1  0.49999999  0.49999999  0.00000000  1
  Cs  Cs1  1  0.49999999  0.00000000  0.70673198  1
  Cs  Cs2  1  0.00000000  0.49999999  0.29326799  1
  Na  Na3  1  0.00000000  0.00000000  0.49999999  1
  Mo  Mo4  1  0.00000000  0.00000000  0.00000000  1
  Na  Na5  1  0.49999999  0.49999999  0.49999999  1
  S  S6  1  0.00000000  0.49999999  0.89962897  1
  O  O7  1  0.49999999  0.00000000  0.39457199  1
  S  S8  1  0.49999999  0.00000000  0.10037100  1
  O  O9  1  0.00000000  0.49999999  0.60542798  1
