# generated using pymatgen
data_Na2Co3N
_symmetry_space_group_name_H-M   'P 1'
_cell_length_a   3.92000198
_cell_length_b   5.74147844
_cell_length_c   5.74147844
_cell_angle_alpha   63.28768539
_cell_angle_beta   70.03929138
_cell_angle_gamma   70.03929138
_symmetry_Int_Tables_number   1
_chemical_formula_structural   Na2Co3N
_chemical_formula_sum   'Na2 Co3 N1'
_cell_volume   105.74327972
_cell_formula_units_Z   1
loop_
 _symmetry_equiv_pos_site_id
 _symmetry_equiv_pos_as_xyz
  1  'x, y, z'
loop_
 _atom_site_type_symbol
 _atom_site_label
 _atom_site_symmetry_multiplicity
 _atom_site_fract_x
 _atom_site_fract_y
 _atom_site_fract_z
 _atom_site_occupancy
  Na  Na0  1  0.19058200  0.30941801  0.30941800  1
  Na  Na1  1  0.80941801  0.69058203  0.69058200  1
  Co  Co2  1  0.50000001  0.79407503  0.20592498  1
  Co  Co3  1  0.50000000  0.20592501  0.79407502  1
  Co  Co4  1  0.00000000  0.00000000  0.00000000  1
  N  N5  1  0.50000000  0.50000002  0.50000000  1
