# generated using pymatgen
data_Ga17Fe
_symmetry_space_group_name_H-M   'P 1'
_cell_length_a   5.62451077
_cell_length_b   8.33852386
_cell_length_c   8.33852386
_cell_angle_alpha   120.00000000
_cell_angle_beta   90.00000000
_cell_angle_gamma   90.00000000
_symmetry_Int_Tables_number   1
_chemical_formula_structural   Ga17Fe
_chemical_formula_sum   'Ga17 Fe1'
_cell_volume   338.68326366
_cell_formula_units_Z   1
loop_
 _symmetry_equiv_pos_site_id
 _symmetry_equiv_pos_as_xyz
  1  'x, y, z'
loop_
 _atom_site_type_symbol
 _atom_site_label
 _atom_site_symmetry_multiplicity
 _atom_site_fract_x
 _atom_site_fract_y
 _atom_site_fract_z
 _atom_site_occupancy
  Ga  Ga0  1  0.00000000  0.33333334  0.66666671  1
  Ga  Ga1  1  0.00000000  0.66666669  0.33333337  1
  Ga  Ga2  1  0.75000003  0.77614002  0.77614006  1
  Ga  Ga3  1  0.75000003  0.00000000  0.22386001  1
  Ga  Ga4  1  0.75000003  0.22386001  0.00000001  1
  Ga  Ga5  1  0.50000002  0.33333334  0.66666671  1
  Ga  Ga6  1  0.50000002  0.66666669  0.33333337  1
  Ga  Ga7  1  0.25000001  0.22386001  0.22386002  1
  Ga  Ga8  1  0.25000001  1.00000003  0.77614007  1
  Ga  Ga9  1  0.25000001  0.77614002  1.00000008  1
  Ga  Ga10  1  0.75000003  0.40016201  0.40016203  1
  Ga  Ga11  1  0.75000003  0.00000000  0.59983803  1
  Ga  Ga12  1  0.75000003  0.59983802  1.00000007  1
  Ga  Ga13  1  0.25000001  0.59983802  0.59983805  1
  Ga  Ga14  1  0.25000001  0.00000000  0.40016202  1
  Ga  Ga15  1  0.25000001  0.40016201  1.00000007  1
  Ga  Ga16  1  0.00000000  0.00000000  0.00000000  1
  Fe  Fe17  1  0.50000002  0.00000000  -0.00000000  1
