# generated using pymatgen
data_LuGeIr
_symmetry_space_group_name_H-M   'P 1'
_cell_length_a   4.28350115
_cell_length_b   6.77027178
_cell_length_c   7.62508392
_cell_angle_alpha   90.00000000
_cell_angle_beta   90.00000000
_cell_angle_gamma   90.00000000
_symmetry_Int_Tables_number   1
_chemical_formula_structural   LuGeIr
_chemical_formula_sum   'Lu4 Ge4 Ir4'
_cell_volume   221.13099420
_cell_formula_units_Z   4
loop_
 _symmetry_equiv_pos_site_id
 _symmetry_equiv_pos_as_xyz
  1  'x, y, z'
loop_
 _atom_site_type_symbol
 _atom_site_label
 _atom_site_symmetry_multiplicity
 _atom_site_fract_x
 _atom_site_fract_y
 _atom_site_fract_z
 _atom_site_occupancy
  Lu  Lu0  1  0.24999999  0.50642102  0.69433801  1
  Lu  Lu1  1  0.24999999  0.00642100  0.80566201  1
  Lu  Lu2  1  0.74999997  0.49357902  0.30566200  1
  Lu  Lu3  1  0.74999997  0.99357903  0.19433800  1
  Ge  Ge4  1  0.24999999  0.78768303  0.38857200  1
  Ge  Ge5  1  0.24999999  0.28768301  0.11142800  1
  Ge  Ge6  1  0.74999997  0.21231701  0.61142801  1
  Ge  Ge7  1  0.74999997  0.71231702  0.88857201  1
  Ir  Ir8  1  0.24999999  0.16139901  0.43633500  1
  Ir  Ir9  1  0.24999999  0.66139902  0.06366500  1
  Ir  Ir10  1  0.74999997  0.83860103  0.56366501  1
  Ir  Ir11  1  0.74999997  0.33860101  0.93633501  1
