# generated using pymatgen
data_BaGe4
_symmetry_space_group_name_H-M   'P 1'
_cell_length_a   4.46923018
_cell_length_b   4.46923018
_cell_length_c   10.62646770
_cell_angle_alpha   90.00000000
_cell_angle_beta   90.00000000
_cell_angle_gamma   90.00000000
_symmetry_Int_Tables_number   1
_chemical_formula_structural   BaGe4
_chemical_formula_sum   'Ba2 Ge8'
_cell_volume   212.25326101
_cell_formula_units_Z   2
loop_
 _symmetry_equiv_pos_site_id
 _symmetry_equiv_pos_as_xyz
  1  'x, y, z'
loop_
 _atom_site_type_symbol
 _atom_site_label
 _atom_site_symmetry_multiplicity
 _atom_site_fract_x
 _atom_site_fract_y
 _atom_site_fract_z
 _atom_site_occupancy
  Ba  Ba0  1  0.00000000  0.00000000  0.99808303  1
  Ba  Ba1  1  0.49999998  0.49999998  0.49429401  1
  Ge  Ge2  1  0.00000000  0.49999998  0.24985301  1
  Ge  Ge3  1  0.49999998  0.00000000  0.74973602  1
  Ge  Ge4  1  0.49999998  0.00000000  0.24985301  1
  Ge  Ge5  1  0.00000000  0.49999998  0.74973602  1
  Ge  Ge6  1  0.00000000  0.00000000  0.61942602  1
  Ge  Ge7  1  0.00000000  0.00000000  0.38312101  1
  Ge  Ge8  1  0.49999998  0.49999998  0.88414202  1
  Ge  Ge9  1  0.49999998  0.49999998  0.12175700  1
