# generated using pymatgen
data_Na2P5S
_symmetry_space_group_name_H-M   'P 1'
_cell_length_a   3.06908798
_cell_length_b   3.06908703
_cell_length_c   13.73636627
_cell_angle_alpha   90.00000000
_cell_angle_beta   90.00000000
_cell_angle_gamma   120.00000763
_symmetry_Int_Tables_number   1
_chemical_formula_structural   Na2P5S
_chemical_formula_sum   'Na2 P5 S1'
_cell_volume   112.05235876
_cell_formula_units_Z   1
loop_
 _symmetry_equiv_pos_site_id
 _symmetry_equiv_pos_as_xyz
  1  'x, y, z'
loop_
 _atom_site_type_symbol
 _atom_site_label
 _atom_site_symmetry_multiplicity
 _atom_site_fract_x
 _atom_site_fract_y
 _atom_site_fract_z
 _atom_site_occupancy
  S  S0  1  0.66666665  0.33333332  0.91651398  1
  P  P1  1  0.33333329  0.66666663  0.41651399  1
  P  P2  1  0.33333329  0.66666663  0.08348600  1
  P  P3  1  0.66666665  0.33333332  0.58348599  1
  Na  Na4  1  0.66666665  0.33333332  0.25000000  1
  Na  Na5  1  0.33333329  0.66666663  0.74999999  1
  P  P6  1  0.00000000  0.00000000  0.00000000  1
  P  P7  1  0.00000000  0.00000000  0.49999999  1
