# generated using pymatgen
data_CsI19
_symmetry_space_group_name_H-M   'P 1'
_cell_length_a   10.04910183
_cell_length_b   10.12907410
_cell_length_c   10.12907410
_cell_angle_alpha   70.36940002
_cell_angle_beta   70.68863678
_cell_angle_gamma   109.31136322
_symmetry_Int_Tables_number   1
_chemical_formula_structural   CsI19
_chemical_formula_sum   'Cs1 I19'
_cell_volume   795.23937023
_cell_formula_units_Z   1
loop_
 _symmetry_equiv_pos_site_id
 _symmetry_equiv_pos_as_xyz
  1  'x, y, z'
loop_
 _atom_site_type_symbol
 _atom_site_label
 _atom_site_symmetry_multiplicity
 _atom_site_fract_x
 _atom_site_fract_y
 _atom_site_fract_z
 _atom_site_occupancy
  I  I0  1  0.18092000  0.01608300  0.76234500  1
  I  I1  1  0.16483698  0.22157198  0.01608302  1
  I  I2  1  0.94326494  0.76234494  0.22157209  1
  I  I3  1  0.44326493  0.77842794  0.23765507  1
  I  I4  1  0.66483691  0.98391692  0.77842809  1
  I  I5  1  0.68091999  0.23765498  0.98391703  1
  I  I6  1  0.81907991  0.98391692  0.23765511  1
  I  I7  1  0.83516293  0.77842794  0.98391708  1
  I  I8  1  0.05673498  0.23765498  0.77842801  1
  I  I9  1  0.55673499  0.22157198  0.76234503  1
  I  I10  1  0.33516300  0.01608300  0.22157201  1
  I  I11  1  0.31907993  0.76234494  0.01608307  1
  I  I12  1  0.25000000  0.00000000  0.00000001  1
  I  I13  1  0.75000001  0.00000000  1.00000001  1
  I  I14  1  0.24999993  0.74301294  0.74301306  1
  I  I15  1  0.50698696  0.51397396  0.74301305  1
  I  I16  1  0.99301294  0.74301294  0.51397409  1
  I  I17  1  0.49301296  0.48602596  0.25698705  1
  I  I18  1  0.00698697  0.25698698  0.48602601  1
  Cs  Cs19  1  0.74999999  0.25698698  0.25698705  1
