# generated using pymatgen
data_Cs7F5
_symmetry_space_group_name_H-M   'P 1'
_cell_length_a   5.70069790
_cell_length_b   8.10910511
_cell_length_c   8.10910511
_cell_angle_alpha   90.00000000
_cell_angle_beta   90.00000000
_cell_angle_gamma   90.00000000
_symmetry_Int_Tables_number   1
_chemical_formula_structural   Cs7F5
_chemical_formula_sum   'Cs7 F5'
_cell_volume   374.86413056
_cell_formula_units_Z   1
loop_
 _symmetry_equiv_pos_site_id
 _symmetry_equiv_pos_as_xyz
  1  'x, y, z'
loop_
 _atom_site_type_symbol
 _atom_site_label
 _atom_site_symmetry_multiplicity
 _atom_site_fract_x
 _atom_site_fract_y
 _atom_site_fract_z
 _atom_site_occupancy
  Cs  Cs0  1  1.00000002  0.99999999  0.20984600  1
  F  F1  1  0.50000001  0.20984600  -0.00000000  1
  F  F2  1  0.50000001  0.79015299  -0.00000000  1
  F  F3  1  1.00000002  0.00000000  0.79015299  1
  Cs  Cs4  1  1.00000002  0.24926800  0.00000000  1
  Cs  Cs5  1  0.50000001  0.00000000  0.75073199  1
  Cs  Cs6  1  0.50000001  0.00000000  0.24926800  1
  Cs  Cs7  1  0.00000000  0.75073199  -0.00000000  1
  F  F8  1  0.00000000  0.49999999  0.23221100  1
  F  F9  1  0.50000001  0.23221100  0.49999999  1
  Cs  Cs10  1  0.50000001  0.76778899  0.49999999  1
  Cs  Cs11  1  0.00000000  0.49999999  0.76778899  1
