# generated using pymatgen
data_Cs2Br3
_symmetry_space_group_name_H-M   'P 1'
_cell_length_a   6.79220724
_cell_length_b   6.79220724
_cell_length_c   8.45192242
_cell_angle_alpha   90.00000000
_cell_angle_beta   90.00000000
_cell_angle_gamma   108.82427216
_symmetry_Int_Tables_number   1
_chemical_formula_structural   Cs2Br3
_chemical_formula_sum   'Cs4 Br6'
_cell_volume   369.06578359
_cell_formula_units_Z   2
loop_
 _symmetry_equiv_pos_site_id
 _symmetry_equiv_pos_as_xyz
  1  'x, y, z'
loop_
 _atom_site_type_symbol
 _atom_site_label
 _atom_site_symmetry_multiplicity
 _atom_site_fract_x
 _atom_site_fract_y
 _atom_site_fract_z
 _atom_site_occupancy
  Cs  Cs0  1  0.89699598  0.10300400  0.03058500  1
  Cs  Cs1  1  0.10300404  0.89699599  0.53058497  1
  Cs  Cs2  1  0.42883402  0.57116599  0.31145998  1
  Cs  Cs3  1  0.57116601  0.42883400  0.81145996  1
  Br  Br4  1  0.37959599  0.04962000  0.14424599  1
  Br  Br5  1  0.95038001  0.62040399  0.14424599  1
  Br  Br6  1  0.62040403  0.95037999  0.64424597  1
  Br  Br7  1  0.04962002  0.37959600  0.64424597  1
  Br  Br8  1  0.20754604  0.79245399  0.00996200  1
  Br  Br9  1  0.79245399  0.20754600  0.50996197  1
