# generated using pymatgen
data_HoGa
_symmetry_space_group_name_H-M   'P 1'
_cell_length_a   6.33446503
_cell_length_b   9.03629780
_cell_length_c   9.03629780
_cell_angle_alpha   120.00000000
_cell_angle_beta   90.00000000
_cell_angle_gamma   90.00000000
_symmetry_Int_Tables_number   1
_chemical_formula_structural   HoGa
_chemical_formula_sum   'Ho8 Ga8'
_cell_volume   447.94185525
_cell_formula_units_Z   8
loop_
 _symmetry_equiv_pos_site_id
 _symmetry_equiv_pos_as_xyz
  1  'x, y, z'
loop_
 _atom_site_type_symbol
 _atom_site_label
 _atom_site_symmetry_multiplicity
 _atom_site_fract_x
 _atom_site_fract_y
 _atom_site_fract_z
 _atom_site_occupancy
  Ho  Ho0  1  0.25000000  1.00000000  0.75272793  1
  Ho  Ho1  1  0.75000000  1.00000000  0.24727195  1
  Ga  Ga2  1  0.75000000  0.24727200  0.99999995  1
  Ho  Ho3  1  0.25000000  0.24727200  0.24727198  1
  Ho  Ho4  1  0.25000000  0.75272800  -0.00000003  1
  Ho  Ho5  1  0.75000000  0.75272800  0.75272794  1
  Ho  Ho6  1  0.50000000  0.66666667  0.33333329  1
  Ga  Ga7  1  1.00000000  0.33333333  0.66666663  1
  Ho  Ho8  1  0.50000000  0.33333333  0.66666663  1
  Ho  Ho9  1  1.00000000  0.66666667  0.33333329  1
  Ga  Ga10  1  0.25000000  0.61168100  0.61168095  1
  Ga  Ga11  1  0.75000000  0.61168100  -0.00000002  1
  Ga  Ga12  1  0.75000000  1.00000000  0.61168094  1
  Ga  Ga13  1  0.25000000  1.00000000  0.38831895  1
  Ga  Ga14  1  0.25000000  0.38831900  -0.00000002  1
  Ga  Ga15  1  0.75000000  0.38831900  0.38831897  1
