# generated using pymatgen
data_Cs2W3O8
_symmetry_space_group_name_H-M   'P 1'
_cell_length_a   3.88328505
_cell_length_b   7.52043581
_cell_length_c   7.52043629
_cell_angle_alpha   120.00000000
_cell_angle_beta   90.00000000
_cell_angle_gamma   90.00000000
_symmetry_Int_Tables_number   1
_chemical_formula_structural   Cs2W3O8
_chemical_formula_sum   'Cs2 W3 O8'
_cell_volume   190.20238003
_cell_formula_units_Z   1
loop_
 _symmetry_equiv_pos_site_id
 _symmetry_equiv_pos_as_xyz
  1  'x, y, z'
loop_
 _atom_site_type_symbol
 _atom_site_label
 _atom_site_symmetry_multiplicity
 _atom_site_fract_x
 _atom_site_fract_y
 _atom_site_fract_z
 _atom_site_occupancy
  Cs  Cs0  1  0.09985300  0.00000000  -0.00000000  1
  W  W1  1  0.50075099  0.50000002  0.50000002  1
  W  W2  1  0.50075099  0.00000000  0.50000000  1
  W  W3  1  0.50075099  0.50000002  1.00000002  1
  O  O4  1  0.49958099  0.21012001  0.42024001  1
  O  O5  1  0.49958099  0.78988003  0.57976003  1
  O  O6  1  0.49958099  0.42024102  0.21012101  1
  O  O7  1  0.49958099  0.57975902  0.78987902  1
  O  O8  1  0.49958099  0.21012001  0.78987901  1
  Cs  Cs9  1  0.49958099  0.78988003  0.21012102  1
  O  O10  1  0.00013700  0.50000002  0.50000002  1
  O  O11  1  0.00013700  0.00000000  0.50000000  1
  O  O12  1  0.00013700  0.50000002  1.00000002  1
