# generated using pymatgen
data_HoAl2Cu
_symmetry_space_group_name_H-M   'P 1'
_cell_length_a   5.38175440
_cell_length_b   5.38175440
_cell_length_c   9.37667561
_cell_angle_alpha   73.32302094
_cell_angle_beta   73.32302094
_cell_angle_gamma   59.99999619
_symmetry_Int_Tables_number   1
_chemical_formula_structural   HoAl2Cu
_chemical_formula_sum   'Ho3 Al6 Cu3'
_cell_volume   221.90619006
_cell_formula_units_Z   3
loop_
 _symmetry_equiv_pos_site_id
 _symmetry_equiv_pos_as_xyz
  1  'x, y, z'
loop_
 _atom_site_type_symbol
 _atom_site_label
 _atom_site_symmetry_multiplicity
 _atom_site_fract_x
 _atom_site_fract_y
 _atom_site_fract_z
 _atom_site_occupancy
  Ho  Ho0  1  0.86056995  0.86056998  0.41829004  1
  Ho  Ho1  1  0.13942999  0.13943000  0.58170999  1
  Ho  Ho2  1  0.00000000  0.00000000  0.00000000  1
  Al  Al3  1  0.91675796  0.42080899  0.24162404  1
  Al  Al4  1  0.42080897  0.42080899  0.24162402  1
  Al  Al5  1  0.42080896  0.91675798  0.24162404  1
  Cu  Cu6  1  0.08324198  0.57919099  0.75837599  1
  Al  Al7  1  0.57919096  0.57919099  0.75837601  1
  Al  Al8  1  0.57919098  0.08324200  0.75837599  1
  Cu  Cu9  1  0.66775096  0.66775098  0.99674701  1
  Cu  Cu10  1  0.33224898  0.33224899  0.00325302  1
  Al  Al11  1  0.49999997  0.49999999  0.50000001  1
