# generated using pymatgen
data_Pr(CoGe)2
_symmetry_space_group_name_H-M   'P 1'
_cell_length_a   4.23288393
_cell_length_b   4.23288393
_cell_length_c   5.78548431
_cell_angle_alpha   111.45801544
_cell_angle_beta   111.45801544
_cell_angle_gamma   90.00000000
_symmetry_Int_Tables_number   1
_chemical_formula_structural   Pr(CoGe)2
_chemical_formula_sum   'Pr1 Co2 Ge2'
_cell_volume   88.70998334
_cell_formula_units_Z   1
loop_
 _symmetry_equiv_pos_site_id
 _symmetry_equiv_pos_as_xyz
  1  'x, y, z'
loop_
 _atom_site_type_symbol
 _atom_site_label
 _atom_site_symmetry_multiplicity
 _atom_site_fract_x
 _atom_site_fract_y
 _atom_site_fract_z
 _atom_site_occupancy
  Pr  Pr0  1  0.00000000  0.00000000  0.00000000  1
  Ge  Ge1  1  0.63686802  0.63686801  0.27373600  1
  Ge  Ge2  1  0.36313201  0.36313201  0.72626398  1
  Co  Co3  1  0.25000001  0.75000002  0.49999999  1
  Co  Co4  1  0.75000002  0.25000001  0.49999999  1
