# generated using pymatgen
data_Nd5In12Au
_symmetry_space_group_name_H-M   'P 1'
_cell_length_a   3.64772511
_cell_length_b   10.93954754
_cell_length_c   10.93954754
_cell_angle_alpha   90.00000000
_cell_angle_beta   90.00000000
_cell_angle_gamma   90.00000000
_symmetry_Int_Tables_number   1
_chemical_formula_structural   Nd5In12Au
_chemical_formula_sum   'Nd5 In12 Au1'
_cell_volume   436.53676122
_cell_formula_units_Z   1
loop_
 _symmetry_equiv_pos_site_id
 _symmetry_equiv_pos_as_xyz
  1  'x, y, z'
loop_
 _atom_site_type_symbol
 _atom_site_label
 _atom_site_symmetry_multiplicity
 _atom_site_fract_x
 _atom_site_fract_y
 _atom_site_fract_z
 _atom_site_occupancy
  In  In0  1  0.49999999  0.32412601  0.32412601  1
  In  In1  1  0.49999999  0.67587403  0.67587403  1
  In  In2  1  0.49999999  0.32412601  0.67587403  1
  In  In3  1  0.49999999  0.67587403  0.32412601  1
  In  In4  1  0.49999999  0.00000000  0.27579001  1
  In  In5  1  0.49999999  0.00000000  0.72421003  1
  In  In6  1  0.49999999  0.27579001  -0.00000000  1
  In  In7  1  0.49999999  0.72421003  -0.00000000  1
  In  In8  1  0.00000000  0.00000000  0.00000000  1
  Nd  Nd9  1  0.00000000  0.50000002  0.14192401  1
  Nd  Nd10  1  0.00000000  0.50000002  0.85807604  1
  Nd  Nd11  1  0.00000000  0.14192401  0.50000002  1
  Nd  Nd12  1  0.00000000  0.85807604  0.50000002  1
  Nd  Nd13  1  0.00000000  0.50000002  0.50000002  1
  Au  Au14  1  0.00000000  0.19035501  0.19035501  1
  In  In15  1  0.00000000  0.80964503  0.80964503  1
  In  In16  1  0.99999997  0.19035501  0.80964503  1
  In  In17  1  0.00000000  0.80964503  0.19035501  1
