# generated using pymatgen
data_CsBi2F7
_symmetry_space_group_name_H-M   'P 1'
_cell_length_a   6.58157587
_cell_length_b   6.58355284
_cell_length_c   6.58355284
_cell_angle_alpha   60.06027603
_cell_angle_beta   60.00993347
_cell_angle_gamma   60.00993347
_symmetry_Int_Tables_number   1
_chemical_formula_structural   CsBi2F7
_chemical_formula_sum   'Cs1 Bi2 F7'
_cell_volume   201.83581906
_cell_formula_units_Z   1
loop_
 _symmetry_equiv_pos_site_id
 _symmetry_equiv_pos_as_xyz
  1  'x, y, z'
loop_
 _atom_site_type_symbol
 _atom_site_label
 _atom_site_symmetry_multiplicity
 _atom_site_fract_x
 _atom_site_fract_y
 _atom_site_fract_z
 _atom_site_occupancy
  F  F0  1  0.25000001  0.26965999  0.23034000  1
  Cs  Cs1  1  0.75000003  0.73033999  0.76965999  1
  F  F2  1  0.75996901  0.24003100  0.74003101  1
  F  F3  1  0.74003103  0.75996899  0.25996900  1
  F  F4  1  0.24003103  0.75996899  0.25996898  1
  F  F5  1  0.25996901  0.24003100  0.74003099  1
  F  F6  1  0.75000001  0.24990400  0.25009601  1
  F  F7  1  0.25000003  0.75009599  0.74990397  1
  Bi  Bi8  1  0.50000000  0.00000000  1.00000000  1
  Bi  Bi9  1  0.00000002  0.49999999  0.49999997  1
