# generated using pymatgen
data_Na2Co2O5
_symmetry_space_group_name_H-M   'P 1'
_cell_length_a   5.45687771
_cell_length_b   5.61971283
_cell_length_c   8.44730186
_cell_angle_alpha   108.96199799
_cell_angle_beta   108.36003876
_cell_angle_gamma   91.36228180
_symmetry_Int_Tables_number   1
_chemical_formula_structural   Na2Co2O5
_chemical_formula_sum   'Na4 Co4 O10'
_cell_volume   230.21053277
_cell_formula_units_Z   2
loop_
 _symmetry_equiv_pos_site_id
 _symmetry_equiv_pos_as_xyz
  1  'x, y, z'
loop_
 _atom_site_type_symbol
 _atom_site_label
 _atom_site_symmetry_multiplicity
 _atom_site_fract_x
 _atom_site_fract_y
 _atom_site_fract_z
 _atom_site_occupancy
  Na  Na0  1  0.39049007  0.91631198  0.78334701  1
  Na  Na1  1  0.59906404  0.08279700  0.21275102  1
  Na  Na2  1  0.88634407  0.36965899  0.78720303  1
  Na  Na3  1  0.10720204  0.63339299  0.21671200  1
  Co  Co4  1  0.29013603  0.30823199  0.49985701  1
  Co  Co5  1  0.98483105  0.00455900  0.99766303  1
  Co  Co6  1  0.48742605  0.50715699  0.00234101  1
  Co  Co7  1  0.78129208  0.67569299  0.49986002  1
  O  O8  1  0.15896904  0.63014299  0.50001700  1
  O  O9  1  0.64838605  0.32272599  0.50006502  1
  O  O10  1  0.75205706  0.27505399  0.02992102  1
  O  O11  1  0.72546908  0.73856598  0.97401602  1
  O  O12  1  0.25207203  0.26545199  0.02606800  1
  O  O13  1  0.22435405  0.74262698  0.97024101  1
  O  O14  1  0.83445410  0.93658198  0.74180002  1
  O  O15  1  0.11125401  0.08104700  0.26549000  1
  O  O16  1  0.34560404  0.31448899  0.73408201  1
  O  O17  1  0.59259607  0.69551398  0.25856701  1
