# generated using pymatgen
data_NaMgF4
_symmetry_space_group_name_H-M   'P 1'
_cell_length_a   5.13800001
_cell_length_b   5.50538921
_cell_length_c   5.32619286
_cell_angle_alpha   90.00000000
_cell_angle_beta   83.52423096
_cell_angle_gamma   90.00000000
_symmetry_Int_Tables_number   1
_chemical_formula_structural   NaMgF4
_chemical_formula_sum   'Na2 Mg2 F8'
_cell_volume   149.69909822
_cell_formula_units_Z   2
loop_
 _symmetry_equiv_pos_site_id
 _symmetry_equiv_pos_as_xyz
  1  'x, y, z'
loop_
 _atom_site_type_symbol
 _atom_site_label
 _atom_site_symmetry_multiplicity
 _atom_site_fract_x
 _atom_site_fract_y
 _atom_site_fract_z
 _atom_site_occupancy
  Na  Na0  1  0.00000000  0.23231399  0.25000001  1
  Na  Na1  1  0.00000000  0.76768597  0.75000002  1
  Mg  Mg2  1  0.50000000  0.30621799  0.75000001  1
  Mg  Mg3  1  0.50000000  0.69378197  0.25000000  1
  F  F4  1  0.73198700  0.43490798  0.99608902  1
  F  F5  1  0.26801300  0.43490798  0.50391101  1
  F  F6  1  0.26801300  0.56509198  0.00391100  1
  F  F7  1  0.73198700  0.56509198  0.49608900  1
  F  F8  1  0.24881500  0.91504196  0.40078101  1
  F  F9  1  0.75118500  0.91504196  0.09921899  1
  F  F10  1  0.75118500  0.08495800  0.59921900  1
  F  F11  1  0.24881500  0.08495800  0.90078102  1
