# generated using pymatgen
data_WF9
_symmetry_space_group_name_H-M   'P 1'
_cell_length_a   5.30549383
_cell_length_b   5.30549335
_cell_length_c   7.70010090
_cell_angle_alpha   90.00000000
_cell_angle_beta   90.00000000
_cell_angle_gamma   120.00000000
_symmetry_Int_Tables_number   1
_chemical_formula_structural   WF9
_chemical_formula_sum   'W1 F9'
_cell_volume   187.70620813
_cell_formula_units_Z   1
loop_
 _symmetry_equiv_pos_site_id
 _symmetry_equiv_pos_as_xyz
  1  'x, y, z'
loop_
 _atom_site_type_symbol
 _atom_site_label
 _atom_site_symmetry_multiplicity
 _atom_site_fract_x
 _atom_site_fract_y
 _atom_site_fract_z
 _atom_site_occupancy
  W  W0  1  0.00000000  0.00000000  0.50000001  1
  F  F1  1  0.33333330  0.66666666  1.00000001  1
  F  F2  1  0.66666667  0.33333333  -0.00000000  1
  F  F3  1  0.00000000  0.00000000  0.00000000  1
  F  F4  1  0.70762402  0.00000000  0.64958401  1
  F  F5  1  0.29237595  0.99999999  0.35041600  1
  F  F6  1  0.29237599  0.29237600  0.64958401  1
  F  F7  1  0.70762398  0.70762400  0.35041600  1
  F  F8  1  -0.00000004  0.70762400  0.64958401  1
  F  F9  1  -0.00000002  0.29237600  0.35041600  1
