# generated using pymatgen
data_Ge11Pt
_symmetry_space_group_name_H-M   'P 1'
_cell_length_a   2.73984909
_cell_length_b   4.69040251
_cell_length_c   12.79301834
_cell_angle_alpha   90.00589752
_cell_angle_beta   90.09491730
_cell_angle_gamma   85.03952789
_symmetry_Int_Tables_number   1
_chemical_formula_structural   Ge11Pt
_chemical_formula_sum   'Ge11 Pt1'
_cell_volume   163.78703358
_cell_formula_units_Z   1
loop_
 _symmetry_equiv_pos_site_id
 _symmetry_equiv_pos_as_xyz
  1  'x, y, z'
loop_
 _atom_site_type_symbol
 _atom_site_label
 _atom_site_symmetry_multiplicity
 _atom_site_fract_x
 _atom_site_fract_y
 _atom_site_fract_z
 _atom_site_occupancy
  Ge  Ge0  1  0.42213603  0.79727100  0.91758399  1
  Ge  Ge1  1  0.57786399  0.20272900  0.08241599  1
  Ge  Ge2  1  0.52097999  0.22423000  0.74881600  1
  Ge  Ge3  1  0.59374299  0.19489600  0.41490999  1
  Ge  Ge4  1  0.40625703  0.80510400  0.58508999  1
  Ge  Ge5  1  0.47902002  0.77577000  0.25118398  1
  Ge  Ge6  1  0.00722103  0.67283800  0.08482699  1
  Ge  Ge7  1  0.01157403  0.66606300  0.41769799  1
  Ge  Ge8  1  0.94623000  0.68934000  0.75240099  1
  Ge  Ge9  1  0.99277898  0.32716200  0.91517300  1
  Ge  Ge10  1  0.98842598  0.33393700  0.58230199  1
  Pt  Pt11  1  0.05377001  0.31066000  0.24759900  1
