# generated using pymatgen
data_Ba3CuCl9
_symmetry_space_group_name_H-M   'P 1'
_cell_length_a   4.43016005
_cell_length_b   4.46804190
_cell_length_c   16.71724129
_cell_angle_alpha   90.00000000
_cell_angle_beta   90.00000000
_cell_angle_gamma   90.00000000
_symmetry_Int_Tables_number   1
_chemical_formula_structural   Ba3CuCl9
_chemical_formula_sum   'Ba3 Cu1 Cl9'
_cell_volume   330.90342605
_cell_formula_units_Z   1
loop_
 _symmetry_equiv_pos_site_id
 _symmetry_equiv_pos_as_xyz
  1  'x, y, z'
loop_
 _atom_site_type_symbol
 _atom_site_label
 _atom_site_symmetry_multiplicity
 _atom_site_fract_x
 _atom_site_fract_y
 _atom_site_fract_z
 _atom_site_occupancy
  Ba  Ba0  1  0.00000000  0.00000000  0.09601500  1
  Ba  Ba1  1  0.00000000  0.50000001  0.60319699  1
  Cl  Cl2  1  0.49999999  0.50000001  0.39462499  1
  Ba  Ba3  1  0.49999999  0.00000000  0.90037898  1
  Cu  Cu4  1  0.00000000  0.00000000  0.30635399  1
  Cl  Cl5  1  0.00000000  0.00000000  0.45550999  1
  Cl  Cl6  1  0.00000000  0.50000001  0.93558298  1
  Cl  Cl7  1  0.49999999  0.50000001  0.06139400  1
  Cl  Cl8  1  0.49999999  0.00000000  0.57429299  1
  Cl  Cl9  1  0.00000000  0.50000001  0.23603800  1
  Cl  Cl10  1  0.00000000  0.00000000  0.75037199  1
  Cl  Cl11  1  0.49999999  0.00000000  0.23633700  1
  Cl  Cl12  1  0.49999999  0.50000001  0.75290399  1
