# generated using pymatgen
data_Co3P
_symmetry_space_group_name_H-M   'P 1'
_cell_length_a   4.38319206
_cell_length_b   6.70019579
_cell_length_c   6.70019579
_cell_angle_alpha   83.85813141
_cell_angle_beta   70.90749359
_cell_angle_gamma   70.90749359
_symmetry_Int_Tables_number   1
_chemical_formula_structural   Co3P
_chemical_formula_sum   'Co12 P4'
_cell_volume   175.72011404
_cell_formula_units_Z   4
loop_
 _symmetry_equiv_pos_site_id
 _symmetry_equiv_pos_as_xyz
  1  'x, y, z'
loop_
 _atom_site_type_symbol
 _atom_site_label
 _atom_site_symmetry_multiplicity
 _atom_site_fract_x
 _atom_site_fract_y
 _atom_site_fract_z
 _atom_site_occupancy
  Co  Co0  1  0.30889199  0.02860600  0.81425999  1
  Co  Co1  1  0.98621498  0.39291999  0.67033102  1
  Co  Co2  1  0.66250199  0.18574000  0.02860502  1
  Co  Co3  1  0.87684799  0.81425998  0.97139404  1
  Co  Co4  1  0.04946600  0.60707999  0.32966903  1
  Co  Co5  1  0.15175900  0.97139398  0.18573905  1
  Co  Co6  1  0.62086499  0.32966899  0.39292002  1
  Co  Co7  1  0.34345400  0.67033099  0.60708003  1
  Co  Co8  1  0.03052300  0.39074699  0.04731302  1
  Co  Co9  1  0.57872900  0.95268798  0.39074705  1
  Co  Co10  1  0.92216398  0.04731200  0.60925401  1
  Co  Co11  1  0.46858300  0.60925299  0.95268802  1
  P  P12  1  0.55938999  0.66164199  0.24594404  1
  P  P13  1  0.19466600  0.24594400  0.33835801  1
  P  P14  1  0.46697599  0.33835799  0.75405601  1
  P  P15  1  0.77896799  0.75405598  0.66164204  1
