# generated using pymatgen
data_HoCo2
_symmetry_space_group_name_H-M   'P 1'
_cell_length_a   4.98047543
_cell_length_b   4.98047543
_cell_length_c   5.21648788
_cell_angle_alpha   61.48569107
_cell_angle_beta   61.48569107
_cell_angle_gamma   60.00000381
_symmetry_Int_Tables_number   1
_chemical_formula_structural   HoCo2
_chemical_formula_sum   'Ho2 Co4'
_cell_volume   93.49768110
_cell_formula_units_Z   2
loop_
 _symmetry_equiv_pos_site_id
 _symmetry_equiv_pos_as_xyz
  1  'x, y, z'
loop_
 _atom_site_type_symbol
 _atom_site_label
 _atom_site_symmetry_multiplicity
 _atom_site_fract_x
 _atom_site_fract_y
 _atom_site_fract_z
 _atom_site_occupancy
  Ho  Ho0  1  0.99879098  0.99879104  0.00362705  1
  Co  Co1  1  0.13175798  0.63009903  0.60804403  1
  Co  Co2  1  0.63009901  0.13175801  0.60804403  1
  Co  Co3  1  0.63009899  0.63009903  0.60804404  1
  Ho  Ho4  1  0.23096100  0.23096101  0.30711702  1
  Co  Co5  1  0.62829099  0.62829103  0.11512703  1
