# generated using pymatgen
data_Ho3LuGe8
_symmetry_space_group_name_H-M   'P 1'
_cell_length_a   4.38979197
_cell_length_b   6.77984810
_cell_length_c   7.68752718
_cell_angle_alpha   90.00000000
_cell_angle_beta   90.00000000
_cell_angle_gamma   90.00000000
_symmetry_Int_Tables_number   1
_chemical_formula_structural   Ho3LuGe8
_chemical_formula_sum   'Ho3 Lu1 Ge8'
_cell_volume   228.79712727
_cell_formula_units_Z   1
loop_
 _symmetry_equiv_pos_site_id
 _symmetry_equiv_pos_as_xyz
  1  'x, y, z'
loop_
 _atom_site_type_symbol
 _atom_site_label
 _atom_site_symmetry_multiplicity
 _atom_site_fract_x
 _atom_site_fract_y
 _atom_site_fract_z
 _atom_site_occupancy
  Lu  Lu0  1  0.25000000  0.03125700  0.68003798  1
  Ho  Ho1  1  0.25000000  0.53125699  0.81996198  1
  Ho  Ho2  1  0.75000001  0.96874299  0.31996199  1
  Ho  Ho3  1  0.75000001  0.46874299  0.18003800  1
  Ge  Ge4  1  0.25000000  0.14640200  0.06257000  1
  Ge  Ge5  1  0.25000000  0.64640199  0.43742999  1
  Ge  Ge6  1  0.75000001  0.85359799  0.93742998  1
  Ge  Ge7  1  0.75000001  0.35359799  0.56256999  1
  Ge  Ge8  1  0.25000000  0.27146700  0.38186399  1
  Ge  Ge9  1  0.25000000  0.77146699  0.11813600  1
  Ge  Ge10  1  0.75000001  0.72853299  0.61813599  1
  Ge  Ge11  1  0.75000001  0.22853300  0.88186398  1
