# generated using pymatgen
data_TbGa5
_symmetry_space_group_name_H-M   'P 1'
_cell_length_a   5.41548443
_cell_length_b   5.42113972
_cell_length_c   13.43452072
_cell_angle_alpha   89.66087341
_cell_angle_beta   89.20829010
_cell_angle_gamma   60.81705093
_symmetry_Int_Tables_number   1
_chemical_formula_structural   TbGa5
_chemical_formula_sum   'Tb3 Ga15'
_cell_volume   344.31514035
_cell_formula_units_Z   3
loop_
 _symmetry_equiv_pos_site_id
 _symmetry_equiv_pos_as_xyz
  1  'x, y, z'
loop_
 _atom_site_type_symbol
 _atom_site_label
 _atom_site_symmetry_multiplicity
 _atom_site_fract_x
 _atom_site_fract_y
 _atom_site_fract_z
 _atom_site_occupancy
  Tb  Tb0  1  0.66232704  0.66861401  0.08066998  1
  Tb  Tb1  1  0.98815402  0.00255100  0.75383098  1
  Tb  Tb2  1  0.33185702  0.33068701  0.41699998  1
  Ga  Ga3  1  0.66814304  0.66931301  0.33299997  1
  Ga  Ga4  1  0.01184504  0.99744902  0.99616896  1
  Ga  Ga5  1  0.33767302  0.33138601  0.66932998  1
  Ga  Ga6  1  0.83183403  0.33552401  0.54357198  1
  Ga  Ga7  1  0.16816603  0.66447601  0.20642798  1
  Ga  Ga8  1  0.65659604  0.67922501  0.71380897  1
  Ga  Ga9  1  0.00000000  0.00000000  0.37499999  1
  Ga  Ga10  1  0.34340402  0.32077501  0.03619099  1
  Ga  Ga11  1  0.00000002  0.50000001  0.87499997  1
  Ga  Ga12  1  0.33302804  0.83278201  0.54302197  1
  Ga  Ga13  1  0.66697202  0.16721800  0.20697799  1
  Ga  Ga14  1  0.50000003  0.50000001  0.87499997  1
  Ga  Ga15  1  0.83379605  0.83298701  0.54208497  1
  Ga  Ga16  1  0.16620401  0.16701300  0.20791499  1
  Ga  Ga17  1  0.50000001  0.00000000  0.87499998  1
