# generated using pymatgen
data_Pm3Mg
_symmetry_space_group_name_H-M   'P 1'
_cell_length_a   5.06170177
_cell_length_b   5.06170177
_cell_length_c   6.19199848
_cell_angle_alpha   114.12503052
_cell_angle_beta   114.12503052
_cell_angle_gamma   90.00000000
_symmetry_Int_Tables_number   1
_chemical_formula_structural   Pm3Mg
_chemical_formula_sum   'Pm3 Mg1'
_cell_volume   129.45601029
_cell_formula_units_Z   1
loop_
 _symmetry_equiv_pos_site_id
 _symmetry_equiv_pos_as_xyz
  1  'x, y, z'
loop_
 _atom_site_type_symbol
 _atom_site_label
 _atom_site_symmetry_multiplicity
 _atom_site_fract_x
 _atom_site_fract_y
 _atom_site_fract_z
 _atom_site_occupancy
  Pm  Pm0  1  0.00000000  0.00000000  0.00000000  1
  Pm  Pm1  1  0.75000000  0.25000000  0.49999996  1
  Pm  Pm2  1  0.24999996  0.75000001  0.49999995  1
  Mg  Mg3  1  0.49999998  0.50000000  -0.00000006  1
