# generated using pymatgen
data_Ga5Pt3
_symmetry_space_group_name_H-M   'P 1'
_cell_length_a   4.36940718
_cell_length_b   5.53710794
_cell_length_c   5.53710794
_cell_angle_alpha   120.00000000
_cell_angle_beta   90.00000000
_cell_angle_gamma   90.00000000
_symmetry_Int_Tables_number   1
_chemical_formula_structural   Ga5Pt3
_chemical_formula_sum   'Ga5 Pt3'
_cell_volume   116.01633171
_cell_formula_units_Z   1
loop_
 _symmetry_equiv_pos_site_id
 _symmetry_equiv_pos_as_xyz
  1  'x, y, z'
loop_
 _atom_site_type_symbol
 _atom_site_label
 _atom_site_symmetry_multiplicity
 _atom_site_fract_x
 _atom_site_fract_y
 _atom_site_fract_z
 _atom_site_occupancy
  Ga  Ga0  1  0.24999999  0.66666667  0.33333331  1
  Pt  Pt1  1  0.74999997  0.33333333  0.66666665  1
  Ga  Ga2  1  0.74999997  0.83269900  0.16730098  1
  Pt  Pt3  1  0.74999997  0.33460200  0.16730099  1
  Ga  Ga4  1  0.74999997  0.83269900  0.66539797  1
  Ga  Ga5  1  0.24999999  0.16730100  0.83269898  1
  Pt  Pt6  1  0.24999999  0.66539800  0.83269897  1
  Ga  Ga7  1  0.24999999  0.16730100  0.33460199  1
