# generated using pymatgen
data_GaAgF3
_symmetry_space_group_name_H-M   'P 1'
_cell_length_a   3.88798809
_cell_length_b   5.86834812
_cell_length_c   8.03688908
_cell_angle_alpha   109.30461121
_cell_angle_beta   90.00000000
_cell_angle_gamma   90.00000000
_symmetry_Int_Tables_number   1
_chemical_formula_structural   GaAgF3
_chemical_formula_sum   'Ga2 Ag2 F6'
_cell_volume   173.06009530
_cell_formula_units_Z   2
loop_
 _symmetry_equiv_pos_site_id
 _symmetry_equiv_pos_as_xyz
  1  'x, y, z'
loop_
 _atom_site_type_symbol
 _atom_site_label
 _atom_site_symmetry_multiplicity
 _atom_site_fract_x
 _atom_site_fract_y
 _atom_site_fract_z
 _atom_site_occupancy
  Ag  Ag0  1  0.74999998  0.75634899  0.81403103  1
  Ag  Ag1  1  0.24999999  0.24365100  0.18596901  1
  Ga  Ga2  1  0.74999998  0.85720598  0.33141601  1
  Ga  Ga3  1  0.24999999  0.14279400  0.66858402  1
  F  F4  1  0.74999998  0.95861398  0.13355601  1
  F  F5  1  0.24999999  0.04138600  0.86644403  1
  F  F6  1  0.74999998  0.02502100  0.60938502  1
  F  F7  1  0.24999999  0.97497898  0.39061502  1
  F  F8  1  0.74999998  0.53079299  0.26097001  1
  F  F9  1  0.24999999  0.46920699  0.73903002  1
