# generated using pymatgen
data_Hg
_symmetry_space_group_name_H-M   'P 1'
_cell_length_a   5.58799124
_cell_length_b   6.79289389
_cell_length_c   6.79289341
_cell_angle_alpha   120.00000000
_cell_angle_beta   90.00000000
_cell_angle_gamma   90.00000000
_symmetry_Int_Tables_number   1
_chemical_formula_structural   Hg
_chemical_formula_sum   Hg8
_cell_volume   223.30373053
_cell_formula_units_Z   8
loop_
 _symmetry_equiv_pos_site_id
 _symmetry_equiv_pos_as_xyz
  1  'x, y, z'
loop_
 _atom_site_type_symbol
 _atom_site_label
 _atom_site_symmetry_multiplicity
 _atom_site_fract_x
 _atom_site_fract_y
 _atom_site_fract_z
 _atom_site_occupancy
  Hg  Hg0  1  0.74999997  0.83191599  0.16808494  1
  Hg  Hg1  1  0.74999997  0.33616899  0.16808498  1
  Hg  Hg2  1  0.74999997  0.83191599  0.66383194  1
  Hg  Hg3  1  0.24999999  0.16808400  0.83191498  1
  Hg  Hg4  1  0.24999999  0.66383099  0.83191495  1
  Hg  Hg5  1  0.24999999  0.16808400  0.33616799  1
  Hg  Hg6  1  0.24999999  0.66666666  0.33333329  1
  Hg  Hg7  1  0.74999997  0.33333333  0.66666664  1
