# generated using pymatgen
data_Ba2GaP3
_symmetry_space_group_name_H-M   'P 1'
_cell_length_a   6.62389708
_cell_length_b   6.62389708
_cell_length_c   6.62389708
_cell_angle_alpha   90.00000000
_cell_angle_beta   90.00000000
_cell_angle_gamma   90.00000000
_symmetry_Int_Tables_number   1
_chemical_formula_structural   Ba2GaP3
_chemical_formula_sum   'Ba4 Ga2 P6'
_cell_volume   290.63019068
_cell_formula_units_Z   2
loop_
 _symmetry_equiv_pos_site_id
 _symmetry_equiv_pos_as_xyz
  1  'x, y, z'
loop_
 _atom_site_type_symbol
 _atom_site_label
 _atom_site_symmetry_multiplicity
 _atom_site_fract_x
 _atom_site_fract_y
 _atom_site_fract_z
 _atom_site_occupancy
  Ba  Ba0  1  0.64025099  0.35974900  0.85974899  1
  Ba  Ba1  1  0.35974900  0.85974899  0.64025099  1
  Ba  Ba2  1  0.14025100  0.14025100  0.14025100  1
  Ba  Ba3  1  0.85974899  0.64025099  0.35974900  1
  P  P4  1  0.58370999  0.91628999  0.08371000  1
  P  P5  1  0.08371000  0.58370999  0.91628999  1
  P  P6  1  0.91628999  0.08371000  0.58370999  1
  P  P7  1  0.41629000  0.41629000  0.41629000  1
  Ga  Ga8  1  0.15085900  0.34914100  0.65085899  1
  Ga  Ga9  1  0.65085899  0.15085900  0.34914100  1
  P  P10  1  0.84914099  0.84914099  0.84914099  1
  P  P11  1  0.34914100  0.65085899  0.15085900  1
