# generated using pymatgen
data_NaCoF3
_symmetry_space_group_name_H-M   'P 1'
_cell_length_a   5.35539103
_cell_length_b   5.88530397
_cell_length_c   7.77385712
_cell_angle_alpha   90.00000000
_cell_angle_beta   90.00000000
_cell_angle_gamma   90.00000000
_symmetry_Int_Tables_number   1
_chemical_formula_structural   NaCoF3
_chemical_formula_sum   'Na4 Co4 F12'
_cell_volume   245.01723775
_cell_formula_units_Z   4
loop_
 _symmetry_equiv_pos_site_id
 _symmetry_equiv_pos_as_xyz
  1  'x, y, z'
loop_
 _atom_site_type_symbol
 _atom_site_label
 _atom_site_symmetry_multiplicity
 _atom_site_fract_x
 _atom_site_fract_y
 _atom_site_fract_z
 _atom_site_occupancy
  Na  Na0  1  0.47115200  0.58215500  0.74999999  1
  Na  Na1  1  0.97115200  0.91784500  0.25000000  1
  Na  Na2  1  0.02884800  0.08215500  0.74999999  1
  Na  Na3  1  0.52884800  0.41784500  0.25000000  1
  Co  Co4  1  0.50000000  0.00000000  0.49999999  1
  Co  Co5  1  0.00000000  0.50000000  0.49999999  1
  Co  Co6  1  0.00000000  0.50000000  -0.00000000  1
  Co  Co7  1  0.50000000  0.00000000  0.00000000  1
  F  F8  1  0.81997400  0.19308100  0.44183899  1
  F  F9  1  0.31997400  0.30691900  0.55816099  1
  F  F10  1  0.68002600  0.69308100  0.05816100  1
  F  F11  1  0.18002600  0.80691900  0.94183899  1
  F  F12  1  0.18002600  0.80691900  0.55816099  1
  F  F13  1  0.68002600  0.69308100  0.44183899  1
  F  F14  1  0.31997400  0.30691900  0.94183899  1
  F  F15  1  0.81997400  0.19308100  0.05816100  1
  F  F16  1  0.37642600  0.04366700  0.25000000  1
  F  F17  1  0.87642600  0.45633300  0.74999999  1
  F  F18  1  0.12357400  0.54366700  0.25000000  1
  F  F19  1  0.62357400  0.95633300  0.74999999  1
