# generated using pymatgen
data_BaCu4BiPb2S3O5
_symmetry_space_group_name_H-M   'P 1'
_cell_length_a   3.93730307
_cell_length_b   6.03420115
_cell_length_c   13.49444389
_cell_angle_alpha   90.00000000
_cell_angle_beta   90.00000000
_cell_angle_gamma   90.00000000
_symmetry_Int_Tables_number   1
_chemical_formula_structural   BaCu4BiPb2S3O5
_chemical_formula_sum   'Ba1 Cu4 Bi1 Pb2 S3 O5'
_cell_volume   320.60745742
_cell_formula_units_Z   1
loop_
 _symmetry_equiv_pos_site_id
 _symmetry_equiv_pos_as_xyz
  1  'x, y, z'
loop_
 _atom_site_type_symbol
 _atom_site_label
 _atom_site_symmetry_multiplicity
 _atom_site_fract_x
 _atom_site_fract_y
 _atom_site_fract_z
 _atom_site_occupancy
  Bi  Bi0  1  0.74999999  0.25111399  0.08157600  1
  Pb  Pb1  1  0.74999999  0.75111398  0.41842400  1
  O  O2  1  0.25000000  0.74888598  0.91842401  1
  S  S3  1  0.25000000  0.24888599  0.58157600  1
  O  O4  1  0.74999999  0.38764499  0.79441901  1
  O  O5  1  0.74999999  0.88764498  0.70558101  1
  Cu  Cu6  1  0.25000000  0.61235499  0.20558100  1
  Cu  Cu7  1  0.25000000  0.11235500  0.29441900  1
  S  S8  1  0.74999999  0.25770799  0.40558500  1
  S  S9  1  0.74999999  0.75770798  0.09441500  1
  Pb  Pb10  1  0.25000000  0.74229198  0.59441500  1
  Ba  Ba11  1  0.25000000  0.24229199  0.90558501  1
  Cu  Cu12  1  0.74999999  0.20726600  0.67258401  1
  Cu  Cu13  1  0.74999999  0.70726598  0.82741601  1
  O  O14  1  0.25000000  0.79273398  0.32741600  1
  O  O15  1  0.25000000  0.29273399  0.17258400  1
