# generated using pymatgen
data_GaCo
_symmetry_space_group_name_H-M   'P 1'
_cell_length_a   4.34931993
_cell_length_b   6.39491892
_cell_length_c   6.39491892
_cell_angle_alpha   90.00000000
_cell_angle_beta   90.00000000
_cell_angle_gamma   90.00000000
_symmetry_Int_Tables_number   1
_chemical_formula_structural   GaCo
_chemical_formula_sum   'Ga5 Co5'
_cell_volume   177.86538644
_cell_formula_units_Z   5
loop_
 _symmetry_equiv_pos_site_id
 _symmetry_equiv_pos_as_xyz
  1  'x, y, z'
loop_
 _atom_site_type_symbol
 _atom_site_label
 _atom_site_symmetry_multiplicity
 _atom_site_fract_x
 _atom_site_fract_y
 _atom_site_fract_z
 _atom_site_occupancy
  Ga  Ga0  1  0.00000000  0.00000000  0.00000000  1
  Co  Co1  1  0.00000000  0.50000001  0.50000001  1
  Co  Co2  1  0.75495101  0.14580900  0.64580901  1
  Co  Co3  1  0.24504900  0.35419100  0.14580900  1
  Co  Co4  1  0.24504900  0.64580901  0.85419101  1
  Co  Co5  1  0.75495101  0.85419101  0.35419100  1
  Ga  Ga6  1  0.26168600  0.27092200  0.77092201  1
  Ga  Ga7  1  0.73831401  0.22907800  0.27092200  1
  Ga  Ga8  1  0.73831401  0.77092201  0.72907801  1
  Ga  Ga9  1  0.26168600  0.72907801  0.22907800  1
