# generated using pymatgen
data_Cs2WF6
_symmetry_space_group_name_H-M   'P 1'
_cell_length_a   5.19686413
_cell_length_b   6.34656000
_cell_length_c   6.34656048
_cell_angle_alpha   60.00000381
_cell_angle_beta   90.00000000
_cell_angle_gamma   90.00000000
_symmetry_Int_Tables_number   1
_chemical_formula_structural   Cs2WF6
_chemical_formula_sum   'Cs2 W1 F6'
_cell_volume   181.27955397
_cell_formula_units_Z   1
loop_
 _symmetry_equiv_pos_site_id
 _symmetry_equiv_pos_as_xyz
  1  'x, y, z'
loop_
 _atom_site_type_symbol
 _atom_site_label
 _atom_site_symmetry_multiplicity
 _atom_site_fract_x
 _atom_site_fract_y
 _atom_site_fract_z
 _atom_site_occupancy
  Cs  Cs0  1  0.29106499  0.33333333  0.33333335  1
  Cs  Cs1  1  0.70893498  0.66666667  0.66666669  1
  W  W2  1  0.00000000  0.00000000  0.00000000  1
  F  F3  1  0.20931699  0.84924600  0.30150801  1
  F  F4  1  0.20931699  0.30150800  0.84924603  1
  F  F5  1  0.20931699  0.84924600  0.84924603  1
  F  F6  1  0.79068298  0.15075400  0.69849202  1
  F  F7  1  0.79068298  0.69849200  0.15075401  1
  F  F8  1  0.79068298  0.15075400  0.15075401  1
