# generated using pymatgen
data_Mg2Cu3Si
_symmetry_space_group_name_H-M   'P 1'
_cell_length_a   4.84405375
_cell_length_b   4.84405375
_cell_length_c   4.84405422
_cell_angle_alpha   62.63716507
_cell_angle_beta   62.63716507
_cell_angle_gamma   62.63717270
_symmetry_Int_Tables_number   1
_chemical_formula_structural   Mg2Cu3Si
_chemical_formula_sum   'Mg2 Si1 Cu3'
_cell_volume   85.09198177
_cell_formula_units_Z   1
loop_
 _symmetry_equiv_pos_site_id
 _symmetry_equiv_pos_as_xyz
  1  'x, y, z'
loop_
 _atom_site_type_symbol
 _atom_site_label
 _atom_site_symmetry_multiplicity
 _atom_site_fract_x
 _atom_site_fract_y
 _atom_site_fract_z
 _atom_site_occupancy
  Mg  Mg0  1  0.37339001  0.37339000  0.37339002  1
  Mg  Mg1  1  0.62661002  0.62661000  0.62661003  1
  Si  Si2  1  0.00000000  0.00000000  0.00000000  1
  Cu  Cu3  1  0.50000000  0.00000000  0.00000001  1
  Cu  Cu4  1  0.00000002  0.50000000  1.00000004  1
  Cu  Cu5  1  0.00000000  0.00000000  0.50000002  1
