# generated using pymatgen
data_Lu4Si5Pt3
_symmetry_space_group_name_H-M   'P 1'
_cell_length_a   4.18156719
_cell_length_b   6.87593079
_cell_length_c   7.08134890
_cell_angle_alpha   90.00000000
_cell_angle_beta   90.00000000
_cell_angle_gamma   90.00000000
_symmetry_Int_Tables_number   1
_chemical_formula_structural   Lu4Si5Pt3
_chemical_formula_sum   'Lu4 Si5 Pt3'
_cell_volume   203.60412314
_cell_formula_units_Z   1
loop_
 _symmetry_equiv_pos_site_id
 _symmetry_equiv_pos_as_xyz
  1  'x, y, z'
loop_
 _atom_site_type_symbol
 _atom_site_label
 _atom_site_symmetry_multiplicity
 _atom_site_fract_x
 _atom_site_fract_y
 _atom_site_fract_z
 _atom_site_occupancy
  Lu  Lu0  1  0.74999997  0.01451200  0.29995400  1
  Lu  Lu1  1  0.24999999  0.98548803  0.70004601  1
  Lu  Lu2  1  0.24999999  0.48548802  0.79995401  1
  Lu  Lu3  1  0.74999997  0.51451202  0.20004600  1
  Si  Si4  1  0.74999997  0.69064202  0.59246701  1
  Si  Si5  1  0.24999999  0.30935801  0.40753301  1
  Si  Si6  1  0.24999999  0.80935803  0.09246700  1
  Pt  Pt7  1  0.74999997  0.19064201  0.90753301  1
  Pt  Pt8  1  0.74999997  0.81961803  0.92131201  1
  Si  Si9  1  0.24999999  0.18038201  0.07868800  1
  Pt  Pt10  1  0.24999999  0.68038202  0.42131201  1
  Si  Si11  1  0.74999997  0.31961801  0.57868801  1
