# generated using pymatgen
data_HoGa2(Co4Mo)2
_symmetry_space_group_name_H-M   'P 1'
_cell_length_a   4.68069077
_cell_length_b   6.46073818
_cell_length_c   6.46073866
_cell_angle_alpha   82.09387970
_cell_angle_beta   68.76210022
_cell_angle_gamma   68.76210785
_symmetry_Int_Tables_number   1
_chemical_formula_structural   HoGa2(Co4Mo)2
_chemical_formula_sum   'Ho1 Ga2 Co8 Mo2'
_cell_volume   169.73571130
_cell_formula_units_Z   1
loop_
 _symmetry_equiv_pos_site_id
 _symmetry_equiv_pos_as_xyz
  1  'x, y, z'
loop_
 _atom_site_type_symbol
 _atom_site_label
 _atom_site_symmetry_multiplicity
 _atom_site_fract_x
 _atom_site_fract_y
 _atom_site_fract_z
 _atom_site_occupancy
  Ho  Ho0  1  0.00000000  0.00000000  0.00000000  1
  Mo  Mo1  1  0.64055003  0.35945001  0.35945004  1
  Mo  Mo2  1  0.35945002  0.64055001  0.64055005  1
  Co  Co3  1  0.50000003  0.77183702  0.22816306  1
  Co  Co4  1  0.50000002  0.22816301  0.77183704  1
  Co  Co5  1  0.73117304  0.76882702  0.76882707  1
  Co  Co6  1  0.26882701  0.23117301  0.23117302  1
  Co  Co7  1  1.00000004  0.00000000  0.50000004  1
  Co  Co8  1  0.50000002  0.00000000  0.50000002  1
  Co  Co9  1  0.50000003  0.50000001  0.00000004  1
  Co  Co10  1  0.00000001  0.50000001  0.00000002  1
  Ga  Ga11  1  0.00000001  0.35995601  0.64004403  1
  Ga  Ga12  1  1.00000005  0.64004401  0.35995607  1
