# generated using pymatgen
data_Sr4InIr4O11
_symmetry_space_group_name_H-M   'P 1'
_cell_length_a   5.78917027
_cell_length_b   5.81645679
_cell_length_c   8.20777607
_cell_angle_alpha   90.00000000
_cell_angle_beta   90.13269806
_cell_angle_gamma   90.00000000
_symmetry_Int_Tables_number   1
_chemical_formula_structural   Sr4InIr4O11
_chemical_formula_sum   'Sr4 In1 Ir4 O11'
_cell_volume   276.37525970
_cell_formula_units_Z   1
loop_
 _symmetry_equiv_pos_site_id
 _symmetry_equiv_pos_as_xyz
  1  'x, y, z'
loop_
 _atom_site_type_symbol
 _atom_site_label
 _atom_site_symmetry_multiplicity
 _atom_site_fract_x
 _atom_site_fract_y
 _atom_site_fract_z
 _atom_site_occupancy
  Sr  Sr0  1  0.99328201  0.47251002  0.24980497  1
  Sr  Sr1  1  0.49328200  0.02749000  0.74980496  1
  Sr  Sr2  1  0.00671800  0.52749002  0.75019498  1
  Sr  Sr3  1  0.50671800  0.97251003  0.25019498  1
  Ir  Ir4  1  0.50000000  0.50000002  -0.00000001  1
  Ir  Ir5  1  0.00000000  0.00000000  0.49999998  1
  In  In6  1  0.50000000  0.50000002  0.49999997  1
  Ir  Ir7  1  0.00000000  0.00000000  0.00000000  1
  O  O8  1  0.20147700  0.27521301  0.53818598  1
  O  O9  1  0.70147700  0.22478701  0.03818598  1
  O  O10  1  0.79852300  0.72478703  0.46181397  1
  O  O11  1  0.29852300  0.77521303  0.96181396  1
  O  O12  1  0.27385200  0.79606003  0.53572598  1
  O  O13  1  0.77385200  0.70394002  0.03572598  1
  O  O14  1  0.72614800  0.20394001  0.46427397  1
  O  O15  1  0.22614800  0.29606001  0.96427396  1
  O  O16  1  0.42999400  0.51646502  0.23859998  1
  Ir  Ir17  1  0.92999401  0.98353503  0.73859995  1
  O  O18  1  0.57000600  0.48353502  0.76139996  1
  O  O19  1  0.07000600  0.01646500  0.26139999  1
