# generated using pymatgen
data_TbCoGe3
_symmetry_space_group_name_H-M   'P 1'
_cell_length_a   4.20653582
_cell_length_b   4.20653582
_cell_length_c   5.79916525
_cell_angle_alpha   111.26515961
_cell_angle_beta   111.26515961
_cell_angle_gamma   90.00000000
_symmetry_Int_Tables_number   1
_chemical_formula_structural   TbCoGe3
_chemical_formula_sum   'Tb1 Co1 Ge3'
_cell_volume   88.08962454
_cell_formula_units_Z   1
loop_
 _symmetry_equiv_pos_site_id
 _symmetry_equiv_pos_as_xyz
  1  'x, y, z'
loop_
 _atom_site_type_symbol
 _atom_site_label
 _atom_site_symmetry_multiplicity
 _atom_site_fract_x
 _atom_site_fract_y
 _atom_site_fract_z
 _atom_site_occupancy
  Tb  Tb0  1  0.99994705  0.99994704  0.99989398  1
  Ge  Ge1  1  0.40873202  0.40873202  0.81746398  1
  Ge  Ge2  1  0.25941301  0.75941303  0.51882599  1
  Ge  Ge3  1  0.75941303  0.25941301  0.51882599  1
  Co  Co4  1  0.64662603  0.64662603  0.29325200  1
