# generated using pymatgen
data_Bi6TeO13
_symmetry_space_group_name_H-M   'P 1'
_cell_length_a   5.36581469
_cell_length_b   5.51957560
_cell_length_c   7.94737864
_cell_angle_alpha   89.94049072
_cell_angle_beta   90.35639191
_cell_angle_gamma   89.99908447
_symmetry_Int_Tables_number   1
_chemical_formula_structural   Bi6TeO13
_chemical_formula_sum   'Bi6 Te1 O13'
_cell_volume   235.37298983
_cell_formula_units_Z   1
loop_
 _symmetry_equiv_pos_site_id
 _symmetry_equiv_pos_as_xyz
  1  'x, y, z'
loop_
 _atom_site_type_symbol
 _atom_site_label
 _atom_site_symmetry_multiplicity
 _atom_site_fract_x
 _atom_site_fract_y
 _atom_site_fract_z
 _atom_site_occupancy
  Bi  Bi0  1  0.00057703  0.99899103  0.49978797  1
  Bi  Bi1  1  0.49967403  0.50073701  0.00215596  1
  Bi  Bi2  1  0.01165402  0.45275301  0.73858400  1
  Bi  Bi3  1  0.98743104  0.54673502  0.26307794  1
  Bi  Bi4  1  0.51225501  0.04578400  0.23826398  1
  Bi  Bi5  1  0.48753304  0.95331503  0.76362496  1
  O  O6  1  0.00009300  0.00095500  0.99955302  1
  Te  Te7  1  0.50009003  0.49906501  0.50033097  1
  O  O8  1  0.87206802  0.07962800  0.77225997  1
  O  O9  1  0.62723803  0.57959802  0.72734496  1
  O  O10  1  0.37285502  0.41989501  0.27265697  1
  O  O11  1  0.12785803  0.92075703  0.22667897  1
  O  O12  1  0.83130002  0.29171701  0.08461996  1
  O  O13  1  0.67001304  0.78900102  0.41405695  1
  O  O14  1  0.33078501  0.20834001  0.58510099  1
  O  O15  1  0.17041403  0.71150402  0.91403198  1
  O  O16  1  0.80341303  0.32047801  0.44848896  1
  O  O17  1  0.69637804  0.82290802  0.05142394  1
  O  O18  1  0.30207601  0.18102001  0.94695000  1
  O  O19  1  0.19629403  0.67681802  0.55100798  1
