# generated using pymatgen
data_GaAg3Se4
_symmetry_space_group_name_H-M   'P 1'
_cell_length_a   5.79870415
_cell_length_b   6.67128801
_cell_length_c   5.79870415
_cell_angle_alpha   64.24005890
_cell_angle_beta   90.00000000
_cell_angle_gamma   115.75994110
_symmetry_Int_Tables_number   1
_chemical_formula_structural   GaAg3Se4
_chemical_formula_sum   'Ga1 Ag3 Se4'
_cell_volume   176.95042591
_cell_formula_units_Z   1
loop_
 _symmetry_equiv_pos_site_id
 _symmetry_equiv_pos_as_xyz
  1  'x, y, z'
loop_
 _atom_site_type_symbol
 _atom_site_label
 _atom_site_symmetry_multiplicity
 _atom_site_fract_x
 _atom_site_fract_y
 _atom_site_fract_z
 _atom_site_occupancy
  Ga  Ga0  1  0.74999998  0.50000001  0.74999998  1
  Ag  Ag1  1  0.49999999  0.00000000  0.49999999  1
  Ag  Ag2  1  0.24999999  0.50000001  0.24999999  1
  Ag  Ag3  1  0.00000000  0.00000000  0.00000000  1
  Se  Se4  1  0.08847800  0.75477901  0.36153899  1
  Se  Se5  1  0.66630098  0.75477901  0.88368198  1
  Se  Se6  1  0.88368198  0.24522100  0.08847800  1
  Se  Se7  1  0.36153899  0.24522100  0.66630098  1
