# generated using pymatgen
data_Lu2Se3
_symmetry_space_group_name_H-M   'P 1'
_cell_length_a   3.80407405
_cell_length_b   10.44537926
_cell_length_c   10.50978374
_cell_angle_alpha   90.00000000
_cell_angle_beta   90.00000000
_cell_angle_gamma   90.00000000
_symmetry_Int_Tables_number   1
_chemical_formula_structural   Lu2Se3
_chemical_formula_sum   'Lu8 Se12'
_cell_volume   417.60621679
_cell_formula_units_Z   4
loop_
 _symmetry_equiv_pos_site_id
 _symmetry_equiv_pos_as_xyz
  1  'x, y, z'
loop_
 _atom_site_type_symbol
 _atom_site_label
 _atom_site_symmetry_multiplicity
 _atom_site_fract_x
 _atom_site_fract_y
 _atom_site_fract_z
 _atom_site_occupancy
  Lu  Lu0  1  0.25000000  0.31722099  0.98970602  1
  Lu  Lu1  1  0.74999999  0.68277898  0.01029400  1
  Lu  Lu2  1  0.74999999  0.81722098  0.51029401  1
  Lu  Lu3  1  0.25000000  0.18277900  0.48970601  1
  Lu  Lu4  1  0.25000000  0.50934399  0.31342601  1
  Lu  Lu5  1  0.74999999  0.49065599  0.68657402  1
  Lu  Lu6  1  0.74999999  0.00934400  0.18657400  1
  Lu  Lu7  1  0.25000000  0.99065598  0.81342602  1
  Se  Se8  1  0.25000000  0.86938098  0.05168400  1
  Se  Se9  1  0.74999999  0.13061900  0.94831602  1
  Se  Se10  1  0.74999999  0.36938099  0.44831601  1
  Se  Se11  1  0.25000000  0.63061898  0.55168401  1
  Se  Se12  1  0.25000000  0.55442799  0.87327202  1
  Se  Se13  1  0.74999999  0.44557199  0.12672800  1
  Se  Se14  1  0.74999999  0.05442800  0.62672802  1
  Se  Se15  1  0.25000000  0.94557198  0.37327201  1
  Se  Se16  1  0.25000000  0.20437999  0.22618101  1
  Se  Se17  1  0.74999999  0.79561998  0.77381902  1
  Se  Se18  1  0.74999999  0.70437998  0.27381901  1
  Se  Se19  1  0.25000000  0.29561999  0.72618102  1
