# generated using pymatgen
data_Lu2AlGe2
_symmetry_space_group_name_H-M   'P 1'
_cell_length_a   4.14085817
_cell_length_b   5.48163986
_cell_length_c   5.48745823
_cell_angle_alpha   119.96493530
_cell_angle_beta   112.16666412
_cell_angle_gamma   90.00000000
_symmetry_Int_Tables_number   1
_chemical_formula_structural   Lu2AlGe2
_chemical_formula_sum   'Lu2 Al1 Ge2'
_cell_volume   97.13721498
_cell_formula_units_Z   1
loop_
 _symmetry_equiv_pos_site_id
 _symmetry_equiv_pos_as_xyz
  1  'x, y, z'
loop_
 _atom_site_type_symbol
 _atom_site_label
 _atom_site_symmetry_multiplicity
 _atom_site_fract_x
 _atom_site_fract_y
 _atom_site_fract_z
 _atom_site_occupancy
  Lu  Lu0  1  0.79503399  0.29503402  0.59006804  1
  Lu  Lu1  1  0.20496603  0.70496604  0.40993205  1
  Al  Al2  1  0.00000000  0.00000000  0.00000000  1
  Ge  Ge3  1  0.50000000  0.27175102  0.00000003  1
  Ge  Ge4  1  0.50000002  0.72824905  1.00000006  1
