# generated using pymatgen
data_Pr2NiBi11Au
_symmetry_space_group_name_H-M   'P 1'
_cell_length_a   4.46205091
_cell_length_b   4.46205091
_cell_length_c   19.96459389
_cell_angle_alpha   90.00000000
_cell_angle_beta   90.00000000
_cell_angle_gamma   90.00000000
_symmetry_Int_Tables_number   1
_chemical_formula_structural   Pr2NiBi11Au
_chemical_formula_sum   'Pr2 Ni1 Bi11 Au1'
_cell_volume   397.49303521
_cell_formula_units_Z   1
loop_
 _symmetry_equiv_pos_site_id
 _symmetry_equiv_pos_as_xyz
  1  'x, y, z'
loop_
 _atom_site_type_symbol
 _atom_site_label
 _atom_site_symmetry_multiplicity
 _atom_site_fract_x
 _atom_site_fract_y
 _atom_site_fract_z
 _atom_site_occupancy
  Pr  Pr0  1  0.50000001  0.00000000  0.12477399  1
  Bi  Bi1  1  0.50000001  0.00000000  0.62941897  1
  Pr  Pr2  1  0.00000000  0.50000001  0.37058098  1
  Bi  Bi3  1  0.00000000  0.50000001  0.87522596  1
  Bi  Bi4  1  0.00000000  0.00000000  0.49999998  1
  Ni  Ni5  1  0.50000001  0.50000001  0.00000000  1
  Au  Au6  1  0.50000001  0.50000001  0.49999998  1
  Bi  Bi7  1  0.50000001  0.00000000  0.41147598  1
  Bi  Bi8  1  0.50000001  0.00000000  0.92019796  1
  Bi  Bi9  1  0.00000000  0.50000001  0.07980200  1
  Bi  Bi10  1  0.00000000  0.50000001  0.58852397  1
  Bi  Bi11  1  0.00000000  0.00000000  0.24869699  1
  Bi  Bi12  1  0.00000000  0.00000000  0.75130297  1
  Bi  Bi13  1  0.50000001  0.50000001  0.24836599  1
  Bi  Bi14  1  0.50000001  0.50000001  0.75163397  1
