# generated using pymatgen
data_P
_symmetry_space_group_name_H-M   'P 1'
_cell_length_a   5.82879782
_cell_length_b   5.82879782
_cell_length_c   6.10017490
_cell_angle_alpha   61.46100998
_cell_angle_beta   61.46100998
_cell_angle_gamma   60.00000000
_symmetry_Int_Tables_number   1
_chemical_formula_structural   P
_chemical_formula_sum   P10
_cell_volume   149.70313451
_cell_formula_units_Z   10
loop_
 _symmetry_equiv_pos_site_id
 _symmetry_equiv_pos_as_xyz
  1  'x, y, z'
loop_
 _atom_site_type_symbol
 _atom_site_label
 _atom_site_symmetry_multiplicity
 _atom_site_fract_x
 _atom_site_fract_y
 _atom_site_fract_z
 _atom_site_occupancy
  P  P0  1  0.64194304  0.64194302  0.07417096  1
  P  P1  1  0.85805705  0.85805703  0.42582894  1
  P  P2  1  0.14194301  0.14194301  0.57417099  1
  P  P3  1  0.35805702  0.35805701  0.92582897  1
  P  P4  1  0.75000004  0.45702402  0.74999995  1
  P  P5  1  0.54297604  0.95702403  0.24999995  1
  P  P6  1  0.95702404  0.25000001  0.24999996  1
  P  P7  1  0.04297601  0.75000003  0.74999996  1
  P  P8  1  0.45702402  0.04297600  0.74999998  1
  P  P9  1  0.25000002  0.54297602  0.24999997  1
