# generated using pymatgen
data_Ga4AgSe5
_symmetry_space_group_name_H-M   'P 1'
_cell_length_a   3.91522002
_cell_length_b   7.14342022
_cell_length_c   7.87392712
_cell_angle_alpha   116.97568512
_cell_angle_beta   104.39582062
_cell_angle_gamma   90.00000000
_symmetry_Int_Tables_number   1
_chemical_formula_structural   Ga4AgSe5
_chemical_formula_sum   'Ga4 Ag1 Se5'
_cell_volume   188.46692353
_cell_formula_units_Z   1
loop_
 _symmetry_equiv_pos_site_id
 _symmetry_equiv_pos_as_xyz
  1  'x, y, z'
loop_
 _atom_site_type_symbol
 _atom_site_label
 _atom_site_symmetry_multiplicity
 _atom_site_fract_x
 _atom_site_fract_y
 _atom_site_fract_z
 _atom_site_occupancy
  Ga  Ga0  1  0.82357499  0.60643900  0.64715001  1
  Ga  Ga1  1  0.82357499  0.04071100  0.64714997  1
  Ga  Ga2  1  0.17642499  0.95928900  0.35285005  1
  Ga  Ga3  1  0.17642500  0.39356100  0.35285001  1
  Se  Se4  1  0.49999999  0.50000000  0.00000002  1
  Ag  Ag5  1  0.49999999  0.00000000  -0.00000001  1
  Se  Se6  1  0.99999998  0.27044600  0.99999998  1
  Se  Se7  1  0.28960399  0.78960400  0.57920803  1
  Se  Se8  1  0.71039599  0.21039600  0.42079199  1
  Se  Se9  1  0.99999998  0.72955400  1.00000001  1
