# generated using pymatgen
data_BaLaGe8
_symmetry_space_group_name_H-M   'P 1'
_cell_length_a   4.32712889
_cell_length_b   4.32712889
_cell_length_c   10.98884487
_cell_angle_alpha   90.00000000
_cell_angle_beta   90.00000000
_cell_angle_gamma   90.00000000
_symmetry_Int_Tables_number   1
_chemical_formula_structural   BaLaGe8
_chemical_formula_sum   'Ba1 La1 Ge8'
_cell_volume   205.75561935
_cell_formula_units_Z   1
loop_
 _symmetry_equiv_pos_site_id
 _symmetry_equiv_pos_as_xyz
  1  'x, y, z'
loop_
 _atom_site_type_symbol
 _atom_site_label
 _atom_site_symmetry_multiplicity
 _atom_site_fract_x
 _atom_site_fract_y
 _atom_site_fract_z
 _atom_site_occupancy
  La  La0  1  0.00000000  0.00000000  0.99893201  1
  Ba  Ba1  1  0.50000001  0.50000001  0.49801601  1
  Ge  Ge2  1  0.00000000  0.50000001  0.23946600  1
  Ge  Ge3  1  0.50000001  0.00000000  0.75357001  1
  Ge  Ge4  1  0.50000001  0.00000000  0.23946600  1
  Ge  Ge5  1  0.00000000  0.50000001  0.75357001  1
  Ge  Ge6  1  0.00000000  0.00000000  0.61500801  1
  Ge  Ge7  1  0.00000000  0.00000000  0.38232000  1
  Ge  Ge8  1  0.50000001  0.50000001  0.89881801  1
  Ge  Ge9  1  0.50000001  0.50000001  0.12083300  1
