# generated using pymatgen
data_Na3WO6
_symmetry_space_group_name_H-M   'P 1'
_cell_length_a   5.54955626
_cell_length_b   5.76084900
_cell_length_c   7.96897602
_cell_angle_alpha   90.00000000
_cell_angle_beta   89.90686035
_cell_angle_gamma   90.00000000
_symmetry_Int_Tables_number   1
_chemical_formula_structural   Na3WO6
_chemical_formula_sum   'Na6 W2 O12'
_cell_volume   254.76906673
_cell_formula_units_Z   2
loop_
 _symmetry_equiv_pos_site_id
 _symmetry_equiv_pos_as_xyz
  1  'x, y, z'
loop_
 _atom_site_type_symbol
 _atom_site_label
 _atom_site_symmetry_multiplicity
 _atom_site_fract_x
 _atom_site_fract_y
 _atom_site_fract_z
 _atom_site_occupancy
  Na  Na0  1  0.00000000  0.00000000  0.50000001  1
  Na  Na1  1  0.50000000  0.50000000  0.00000000  1
  Na  Na2  1  0.01468000  0.44224300  0.25530101  1
  Na  Na3  1  0.98532000  0.55775700  0.74469903  1
  Na  Na4  1  0.48532000  0.94224300  0.24469901  1
  Na  Na5  1  0.51468000  0.05775700  0.75530102  1
  W  W6  1  0.00000000  0.00000000  0.00000000  1
  W  W7  1  0.50000000  0.50000000  0.50000002  1
  O  O8  1  0.16475700  0.72145000  0.07033800  1
  O  O9  1  0.83524300  0.27855000  0.92966203  1
  O  O10  1  0.33524300  0.22145000  0.42966201  1
  O  O11  1  0.66475700  0.77855000  0.57033802  1
  O  O12  1  0.88382900  0.05650400  0.22570501  1
  O  O13  1  0.11617100  0.94349600  0.77429502  1
  O  O14  1  0.61617100  0.55650400  0.27429501  1
  O  O15  1  0.38382900  0.44349600  0.72570502  1
  O  O16  1  0.28509500  0.17559900  0.05334100  1
  O  O17  1  0.71490500  0.82440100  0.94665903  1
  O  O18  1  0.21490500  0.67559900  0.44665901  1
  O  O19  1  0.78509500  0.32440100  0.55334102  1
