# generated using pymatgen
data_P4Rh5
_symmetry_space_group_name_H-M   'P 1'
_cell_length_a   3.48715091
_cell_length_b   6.12698984
_cell_length_c   6.12698984
_cell_angle_alpha   120.00000000
_cell_angle_beta   90.00000000
_cell_angle_gamma   90.00000000
_symmetry_Int_Tables_number   1
_chemical_formula_structural   P4Rh5
_chemical_formula_sum   'P4 Rh5'
_cell_volume   113.36935982
_cell_formula_units_Z   1
loop_
 _symmetry_equiv_pos_site_id
 _symmetry_equiv_pos_as_xyz
  1  'x, y, z'
loop_
 _atom_site_type_symbol
 _atom_site_label
 _atom_site_symmetry_multiplicity
 _atom_site_fract_x
 _atom_site_fract_y
 _atom_site_fract_z
 _atom_site_occupancy
  P  P0  1  0.00000000  0.33333334  0.66666669  1
  P  P1  1  0.00000000  0.66666668  0.33333334  1
  P  P2  1  0.50000001  0.00000000  -0.00000000  1
  Rh  Rh3  1  0.00000000  0.25335801  1.00000003  1
  P  P4  1  1.00000003  0.74664202  0.74664202  1
  Rh  Rh5  1  0.00000000  0.00000000  0.25335801  1
  Rh  Rh6  1  0.50000001  0.59992902  0.00000000  1
  Rh  Rh7  1  0.50000001  0.40007101  0.40007101  1
  Rh  Rh8  1  0.50000001  0.00000000  0.59992902  1
