# generated using pymatgen
data_Mo8S5
_symmetry_space_group_name_H-M   'P 1'
_cell_length_a   5.56246996
_cell_length_b   5.96630001
_cell_length_c   5.96630001
_cell_angle_alpha   90.00000000
_cell_angle_beta   90.00000000
_cell_angle_gamma   90.00000000
_symmetry_Int_Tables_number   1
_chemical_formula_structural   Mo8S5
_chemical_formula_sum   'Mo8 S5'
_cell_volume   198.00577363
_cell_formula_units_Z   1
loop_
 _symmetry_equiv_pos_site_id
 _symmetry_equiv_pos_as_xyz
  1  'x, y, z'
loop_
 _atom_site_type_symbol
 _atom_site_label
 _atom_site_symmetry_multiplicity
 _atom_site_fract_x
 _atom_site_fract_y
 _atom_site_fract_z
 _atom_site_occupancy
  Mo  Mo0  1  0.02558300  0.00000000  -0.00000000  1
  Mo  Mo1  1  0.12103800  0.70680600  0.29319400  1
  Mo  Mo2  1  0.12103800  0.29319400  0.70680600  1
  Mo  Mo3  1  0.12103800  0.70680600  0.70680600  1
  Mo  Mo4  1  0.12103800  0.29319400  0.29319400  1
  S  S5  1  0.73001801  0.50000000  -0.00000000  1
  S  S6  1  0.73001801  0.00000000  0.50000000  1
  S  S7  1  0.49023000  0.00000000  0.00000000  1
  S  S8  1  0.41851100  0.50000000  0.50000000  1
  Mo  Mo9  1  0.96832201  0.76638300  0.23361700  1
  Mo  Mo10  1  0.96832201  0.23361700  0.76638300  1
  S  S11  1  0.96832201  0.76638300  0.76638300  1
  Mo  Mo12  1  0.96832201  0.23361700  0.23361700  1
