# generated using pymatgen
data_Ba5Sn11
_symmetry_space_group_name_H-M   'P 1'
_cell_length_a   5.34104109
_cell_length_b   7.35414314
_cell_length_c   12.98047161
_cell_angle_alpha   90.00000000
_cell_angle_beta   90.00000000
_cell_angle_gamma   90.00000000
_symmetry_Int_Tables_number   1
_chemical_formula_structural   Ba5Sn11
_chemical_formula_sum   'Ba5 Sn11'
_cell_volume   509.85709770
_cell_formula_units_Z   1
loop_
 _symmetry_equiv_pos_site_id
 _symmetry_equiv_pos_as_xyz
  1  'x, y, z'
loop_
 _atom_site_type_symbol
 _atom_site_label
 _atom_site_symmetry_multiplicity
 _atom_site_fract_x
 _atom_site_fract_y
 _atom_site_fract_z
 _atom_site_occupancy
  Ba  Ba0  1  0.00000000  0.00000000  0.66727002  1
  Ba  Ba1  1  0.49999999  0.00000000  0.33263201  1
  Ba  Ba2  1  0.49999999  0.49999999  0.83350502  1
  Ba  Ba3  1  0.00000000  0.49999999  0.16663300  1
  Sn  Sn4  1  0.49999999  0.49999999  0.35411401  1
  Sn  Sn5  1  0.49999999  0.00000000  0.85881603  1
  Ba  Ba6  1  0.49999999  0.78197998  0.07259000  1
  Sn  Sn7  1  0.49999999  0.28754599  0.57005302  1
  Sn  Sn8  1  0.49999999  0.21802000  0.07259000  1
  Sn  Sn9  1  0.49999999  0.71245399  0.57005302  1
  Sn  Sn10  1  0.00000000  0.00000000  0.14316100  1
  Sn  Sn11  1  0.00000000  0.49999999  0.64226802  1
  Sn  Sn12  1  0.00000000  0.71219199  0.42767001  1
  Sn  Sn13  1  0.00000000  0.21419300  0.93048603  1
  Sn  Sn14  1  0.00000000  0.28780799  0.42767001  1
  Sn  Sn15  1  0.00000000  0.78580698  0.93048603  1
