# generated using pymatgen
data_HoGa2Co3
_symmetry_space_group_name_H-M   'P 1'
_cell_length_a   3.90093398
_cell_length_b   5.19329977
_cell_length_c   5.19330025
_cell_angle_alpha   60.00000000
_cell_angle_beta   90.00000000
_cell_angle_gamma   90.00000000
_symmetry_Int_Tables_number   1
_chemical_formula_structural   HoGa2Co3
_chemical_formula_sum   'Ho1 Ga2 Co3'
_cell_volume   91.11419778
_cell_formula_units_Z   1
loop_
 _symmetry_equiv_pos_site_id
 _symmetry_equiv_pos_as_xyz
  1  'x, y, z'
loop_
 _atom_site_type_symbol
 _atom_site_label
 _atom_site_symmetry_multiplicity
 _atom_site_fract_x
 _atom_site_fract_y
 _atom_site_fract_z
 _atom_site_occupancy
  Ho  Ho0  1  0.00000000  0.00000000  0.00000000  1
  Ga  Ga1  1  -0.00000000  0.66666671  0.66666664  1
  Ga  Ga2  1  -0.00000000  0.33333335  0.33333332  1
  Co  Co3  1  0.50000000  0.50000003  -0.00000002  1
  Co  Co4  1  0.50000000  0.00000000  0.50000000  1
  Co  Co5  1  0.50000000  0.50000003  0.49999998  1
