# generated using pymatgen
data_Cs2MgGaCl6
_symmetry_space_group_name_H-M   'P 1'
_cell_length_a   6.07509804
_cell_length_b   7.12509012
_cell_length_c   7.12509012
_cell_angle_alpha   60.00000000
_cell_angle_beta   90.00000000
_cell_angle_gamma   90.00000000
_symmetry_Int_Tables_number   1
_chemical_formula_structural   Cs2MgGaCl6
_chemical_formula_sum   'Cs2 Mg1 Ga1 Cl6'
_cell_volume   267.09431624
_cell_formula_units_Z   1
loop_
 _symmetry_equiv_pos_site_id
 _symmetry_equiv_pos_as_xyz
  1  'x, y, z'
loop_
 _atom_site_type_symbol
 _atom_site_label
 _atom_site_symmetry_multiplicity
 _atom_site_fract_x
 _atom_site_fract_y
 _atom_site_fract_z
 _atom_site_occupancy
  Cs  Cs0  1  0.74510000  0.33333333  0.33333333  1
  Cs  Cs1  1  0.25490000  0.66666666  0.66666666  1
  Mg  Mg2  1  0.00000000  0.00000000  0.00000000  1
  Ga  Ga3  1  0.50000000  0.00000000  0.00000000  1
  Cl  Cl4  1  0.72697300  0.84393099  0.31213799  1
  Cl  Cl5  1  0.27302700  0.15606900  0.68786199  1
  Cl  Cl6  1  0.72697300  0.31213800  0.84393099  1
  Cl  Cl7  1  0.27302700  0.68786199  0.15606900  1
  Cl  Cl8  1  0.72697300  0.84393099  0.84393099  1
  Cl  Cl9  1  0.27302700  0.15606900  0.15606900  1
