# generated using pymatgen
data_LiV3(OF3)2
_symmetry_space_group_name_H-M   'P 1'
_cell_length_a   4.72112513
_cell_length_b   4.72140265
_cell_length_c   6.11300898
_cell_angle_alpha   89.81491852
_cell_angle_beta   89.81179047
_cell_angle_gamma   93.01393890
_symmetry_Int_Tables_number   1
_chemical_formula_structural   LiV3(OF3)2
_chemical_formula_sum   'Li1 V3 O2 F6'
_cell_volume   136.07099949
_cell_formula_units_Z   1
loop_
 _symmetry_equiv_pos_site_id
 _symmetry_equiv_pos_as_xyz
  1  'x, y, z'
loop_
 _atom_site_type_symbol
 _atom_site_label
 _atom_site_symmetry_multiplicity
 _atom_site_fract_x
 _atom_site_fract_y
 _atom_site_fract_z
 _atom_site_occupancy
  V  V0  1  0.96278095  0.96278503  0.00017901  1
  V  V1  1  0.03700900  0.03700500  0.49978000  1
  Li  Li2  1  0.50002297  0.50002302  0.75002300  1
  V  V3  1  0.49991697  0.49991802  0.25009400  1
  O  O4  1  0.32456298  0.32457301  0.48874700  1
  O  O5  1  0.67567196  0.67566702  0.01120701  1
  F  F6  1  0.28247798  0.28243701  0.00160800  1
  F  F7  1  0.71748696  0.71752403  0.49838400  1
  F  F8  1  0.80218798  0.19780801  0.75009703  1
  F  F9  1  0.80235398  0.19769201  0.24991403  1
  F  F10  1  0.19784596  0.80222403  0.75005497  1
  F  F11  1  0.19768196  0.80234503  0.24991198  1
