# generated using pymatgen
data_CuP4
_symmetry_space_group_name_H-M   'P 1'
_cell_length_a   3.21920395
_cell_length_b   3.21920395
_cell_length_c   8.00631618
_cell_angle_alpha   78.40212250
_cell_angle_beta   78.40212250
_cell_angle_gamma   60.00000381
_symmetry_Int_Tables_number   1
_chemical_formula_structural   CuP4
_chemical_formula_sum   'Cu1 P4'
_cell_volume   69.89258644
_cell_formula_units_Z   1
loop_
 _symmetry_equiv_pos_site_id
 _symmetry_equiv_pos_as_xyz
  1  'x, y, z'
loop_
 _atom_site_type_symbol
 _atom_site_label
 _atom_site_symmetry_multiplicity
 _atom_site_fract_x
 _atom_site_fract_y
 _atom_site_fract_z
 _atom_site_occupancy
  P  P0  1  0.77910500  0.77910497  0.66268504  1
  P  P1  1  0.22089500  0.22089499  0.33731502  1
  P  P2  1  0.00000000  0.00000000  0.00000000  1
  P  P3  1  0.61158200  0.61158198  0.16525401  1
  Cu  Cu4  1  0.38841800  0.38841799  0.83474605  1
