# generated using pymatgen
data_Te13Mo4
_symmetry_space_group_name_H-M   'P 1'
_cell_length_a   6.52085972
_cell_length_b   8.34292889
_cell_length_c   10.02882576
_cell_angle_alpha   70.11592865
_cell_angle_beta   71.10712433
_cell_angle_gamma   67.04648590
_symmetry_Int_Tables_number   1
_chemical_formula_structural   Te13Mo4
_chemical_formula_sum   'Te13 Mo4'
_cell_volume   460.79170636
_cell_formula_units_Z   1
loop_
 _symmetry_equiv_pos_site_id
 _symmetry_equiv_pos_as_xyz
  1  'x, y, z'
loop_
 _atom_site_type_symbol
 _atom_site_label
 _atom_site_symmetry_multiplicity
 _atom_site_fract_x
 _atom_site_fract_y
 _atom_site_fract_z
 _atom_site_occupancy
  Te  Te0  1  0.20535199  0.50014199  0.08755003  1
  Te  Te1  1  0.99464797  0.49985799  0.51245007  1
  Mo  Mo2  1  0.59999998  0.99999998  0.80000008  1
  Mo  Mo3  1  0.20192099  0.99834498  0.60207806  1
  Mo  Mo4  1  0.79058698  0.00045200  0.40089104  1
  Mo  Mo5  1  0.40941299  0.99954798  0.19910905  1
  Te  Te6  1  0.99807897  0.00165500  0.99792207  1
  Te  Te7  1  0.36064699  0.77742799  0.84137707  1
  Te  Te8  1  0.75092098  0.77771699  0.04390805  1
  Te  Te9  1  0.15516199  0.77648999  0.24528104  1
  Te  Te10  1  0.55112898  0.77449499  0.44441406  1
  Te  Te11  1  0.95479697  0.77940899  0.64795908  1
  Te  Te12  1  0.24520299  0.22059100  0.95204105  1
  Te  Te13  1  0.64887098  0.22550500  0.15558603  1
  Te  Te14  1  0.04483800  0.22351000  0.35471902  1
  Te  Te15  1  0.44907899  0.22228300  0.55609204  1
  Te  Te16  1  0.83935298  0.22257200  0.75862306  1
