# generated using pymatgen
data_Cs4LiI13
_symmetry_space_group_name_H-M   'P 1'
_cell_length_a   6.88900805
_cell_length_b   10.92144299
_cell_length_c   10.92144299
_cell_angle_alpha   75.90870667
_cell_angle_beta   71.61569214
_cell_angle_gamma   71.61569214
_symmetry_Int_Tables_number   1
_chemical_formula_structural   Cs4LiI13
_chemical_formula_sum   'Cs4 Li1 I13'
_cell_volume   730.44972695
_cell_formula_units_Z   1
loop_
 _symmetry_equiv_pos_site_id
 _symmetry_equiv_pos_as_xyz
  1  'x, y, z'
loop_
 _atom_site_type_symbol
 _atom_site_label
 _atom_site_symmetry_multiplicity
 _atom_site_fract_x
 _atom_site_fract_y
 _atom_site_fract_z
 _atom_site_occupancy
  Cs  Cs0  1  0.26848892  0.87727901  0.12272103  1
  Cs  Cs1  1  0.23151097  0.37727900  0.62272101  1
  Cs  Cs2  1  0.76848895  0.62272101  0.37727900  1
  Cs  Cs3  1  0.73151100  0.12272100  0.87727898  1
  I  I4  1  0.24999996  0.47801700  0.02198301  1
  Li  Li5  1  0.74999998  0.25000000  0.24999998  1
  I  I6  1  0.74999991  0.97801701  0.52198302  1
  I  I7  1  0.25000000  0.02198300  0.47801699  1
  I  I8  1  0.24999993  0.75000001  0.75000003  1
  I  I9  1  0.74999996  0.52198300  0.97801700  1
  I  I10  1  0.36646591  0.98898701  0.72629303  1
  I  I11  1  0.58174596  0.51101300  0.77370700  1
  I  I12  1  0.41825396  0.48898700  0.22629301  1
  I  I13  1  0.91825394  0.72629301  0.98898700  1
  I  I14  1  0.63353401  0.01101300  0.27370698  1
  I  I15  1  0.86646599  0.22629300  0.48898698  1
  I  I16  1  0.13353392  0.77370701  0.51101303  1
  I  I17  1  0.08174597  0.27370700  0.01101301  1
