# generated using pymatgen
data_Ga5Co3
_symmetry_space_group_name_H-M   'P 1'
_cell_length_a   4.14880514
_cell_length_b   5.17649603
_cell_length_c   5.17649603
_cell_angle_alpha   120.00000000
_cell_angle_beta   90.00000000
_cell_angle_gamma   90.00000000
_symmetry_Int_Tables_number   1
_chemical_formula_structural   Ga5Co3
_chemical_formula_sum   'Ga5 Co3'
_cell_volume   96.27764079
_cell_formula_units_Z   1
loop_
 _symmetry_equiv_pos_site_id
 _symmetry_equiv_pos_as_xyz
  1  'x, y, z'
loop_
 _atom_site_type_symbol
 _atom_site_label
 _atom_site_symmetry_multiplicity
 _atom_site_fract_x
 _atom_site_fract_y
 _atom_site_fract_z
 _atom_site_occupancy
  Ga  Ga0  1  0.49999998  0.33333333  0.66666666  1
  Ga  Ga1  1  0.99999997  0.15836300  0.31672600  1
  Ga  Ga2  1  0.00000000  0.15836300  0.84163699  1
  Ga  Ga3  1  0.00000000  0.68327400  0.84163699  1
  Co  Co4  1  0.49999998  0.83774199  0.67548399  1
  Ga  Ga5  1  0.49999998  0.83774199  0.16225699  1
  Co  Co6  1  0.49999998  0.32451500  0.16225700  1
  Co  Co7  1  0.99999997  0.66666666  0.33333333  1
