# generated using pymatgen
data_LaHg15
_symmetry_space_group_name_H-M   'P 1'
_cell_length_a   6.85893297
_cell_length_b   9.30897999
_cell_length_c   9.30897999
_cell_angle_alpha   120.00000000
_cell_angle_beta   90.00000000
_cell_angle_gamma   90.00000000
_symmetry_Int_Tables_number   1
_chemical_formula_structural   LaHg15
_chemical_formula_sum   'La1 Hg15'
_cell_volume   514.74410761
_cell_formula_units_Z   1
loop_
 _symmetry_equiv_pos_site_id
 _symmetry_equiv_pos_as_xyz
  1  'x, y, z'
loop_
 _atom_site_type_symbol
 _atom_site_label
 _atom_site_symmetry_multiplicity
 _atom_site_fract_x
 _atom_site_fract_y
 _atom_site_fract_z
 _atom_site_occupancy
  La  La0  1  0.00000000  0.66666666  0.33333332  1
  Hg  Hg1  1  0.50000000  0.33333333  0.66666665  1
  Hg  Hg2  1  0.00000000  0.33333333  0.66666665  1
  Hg  Hg3  1  0.50000000  0.66666666  0.33333332  1
  Hg  Hg4  1  0.75000000  0.75915200  0.75915198  1
  Hg  Hg5  1  0.25000000  0.75915200  0.99999998  1
  Hg  Hg6  1  0.25000000  1.00000000  0.75915198  1
  Hg  Hg7  1  0.75000000  0.00000000  0.24084800  1
  Hg  Hg8  1  0.75000000  0.24084800  -0.00000000  1
  Hg  Hg9  1  0.25000000  0.24084800  0.24084799  1
  Hg  Hg10  1  0.75000000  0.39517900  0.39517899  1
  Hg  Hg11  1  0.25000000  0.39517900  -0.00000000  1
  Hg  Hg12  1  0.25000000  0.00000000  0.39517899  1
  Hg  Hg13  1  0.75000000  0.00000000  0.60482099  1
  Hg  Hg14  1  0.75000000  0.60482100  -0.00000001  1
  Hg  Hg15  1  0.25000000  0.60482100  0.60482099  1
