# generated using pymatgen
data_BaSiS2
_symmetry_space_group_name_H-M   'P 1'
_cell_length_a   3.20291591
_cell_length_b   3.20291638
_cell_length_c   14.51712990
_cell_angle_alpha   90.00000000
_cell_angle_beta   90.00000000
_cell_angle_gamma   120.00000000
_symmetry_Int_Tables_number   1
_chemical_formula_structural   BaSiS2
_chemical_formula_sum   'Ba2 Si2 S4'
_cell_volume   128.97410770
_cell_formula_units_Z   2
loop_
 _symmetry_equiv_pos_site_id
 _symmetry_equiv_pos_as_xyz
  1  'x, y, z'
loop_
 _atom_site_type_symbol
 _atom_site_label
 _atom_site_symmetry_multiplicity
 _atom_site_fract_x
 _atom_site_fract_y
 _atom_site_fract_z
 _atom_site_occupancy
  S  S0  1  0.66666671  0.33333334  0.58209200  1
  S  S1  1  0.33333339  0.66666668  0.41790800  1
  S  S2  1  0.33333339  0.66666668  0.08209200  1
  S  S3  1  0.66666671  0.33333334  0.91790801  1
  Ba  Ba4  1  0.66666671  0.33333334  0.25000000  1
  Ba  Ba5  1  0.33333339  0.66666668  0.75000001  1
  Si  Si6  1  0.00000000  0.00000000  0.50000000  1
  Si  Si7  1  0.00000000  0.00000000  0.00000000  1
