# generated using pymatgen
data_PrCdAu
_symmetry_space_group_name_H-M   'P 1'
_cell_length_a   4.22911406
_cell_length_b   7.73637819
_cell_length_c   7.73637819
_cell_angle_alpha   120.00000000
_cell_angle_beta   90.00000000
_cell_angle_gamma   90.00000000
_symmetry_Int_Tables_number   1
_chemical_formula_structural   PrCdAu
_chemical_formula_sum   'Pr3 Cd3 Au3'
_cell_volume   219.20750234
_cell_formula_units_Z   3
loop_
 _symmetry_equiv_pos_site_id
 _symmetry_equiv_pos_as_xyz
  1  'x, y, z'
loop_
 _atom_site_type_symbol
 _atom_site_label
 _atom_site_symmetry_multiplicity
 _atom_site_fract_x
 _atom_site_fract_y
 _atom_site_fract_z
 _atom_site_occupancy
  Pr  Pr0  1  0.99999999  0.00000000  0.58555699  1
  Pr  Pr1  1  0.99999999  0.58555699  0.00000001  1
  Pr  Pr2  1  -0.00000000  0.41444299  0.41444300  1
  Cd  Cd3  1  0.49999999  0.24786899  0.00000000  1
  Cd  Cd4  1  0.49999999  0.99999998  0.24786901  1
  Cd  Cd5  1  0.49999999  0.75213098  0.75213100  1
  Au  Au6  1  0.49999999  0.33333333  0.66666666  1
  Au  Au7  1  0.00000000  0.00000000  0.00000000  1
  Au  Au8  1  0.49999999  0.66666665  0.33333334  1
