# generated using pymatgen
data_TbCoGe3
_symmetry_space_group_name_H-M   'P 1'
_cell_length_a   4.26283789
_cell_length_b   4.26283789
_cell_length_c   5.78799677
_cell_angle_alpha   111.60761261
_cell_angle_beta   111.60761261
_cell_angle_gamma   90.00000000
_symmetry_Int_Tables_number   1
_chemical_formula_structural   TbCoGe3
_chemical_formula_sum   'Tb1 Co1 Ge3'
_cell_volume   89.78961973
_cell_formula_units_Z   1
loop_
 _symmetry_equiv_pos_site_id
 _symmetry_equiv_pos_as_xyz
  1  'x, y, z'
loop_
 _atom_site_type_symbol
 _atom_site_label
 _atom_site_symmetry_multiplicity
 _atom_site_fract_x
 _atom_site_fract_y
 _atom_site_fract_z
 _atom_site_occupancy
  Tb  Tb0  1  0.99893596  0.99893600  0.99787190  1
  Ge  Ge1  1  0.41393298  0.41393300  0.82786596  1
  Ge  Ge2  1  0.26336596  0.76336600  0.52673195  1
  Ge  Ge3  1  0.76336599  0.26336600  0.52673195  1
  Co  Co4  1  0.65439997  0.65440000  0.30879994  1
