# generated using pymatgen
data_Mg(PO2)3
_symmetry_space_group_name_H-M   'P 1'
_cell_length_a   5.05766487
_cell_length_b   7.21217394
_cell_length_c   8.51481438
_cell_angle_alpha   90.00000000
_cell_angle_beta   90.00000000
_cell_angle_gamma   108.38385773
_symmetry_Int_Tables_number   1
_chemical_formula_structural   Mg(PO2)3
_chemical_formula_sum   'Mg2 P6 O12'
_cell_volume   294.74169502
_cell_formula_units_Z   2
loop_
 _symmetry_equiv_pos_site_id
 _symmetry_equiv_pos_as_xyz
  1  'x, y, z'
loop_
 _atom_site_type_symbol
 _atom_site_label
 _atom_site_symmetry_multiplicity
 _atom_site_fract_x
 _atom_site_fract_y
 _atom_site_fract_z
 _atom_site_occupancy
  Mg  Mg0  1  0.21141895  0.72239601  0.45007598  1
  Mg  Mg1  1  0.78858100  0.27760400  0.95007596  1
  P  P2  1  0.39837397  0.52282700  0.13065999  1
  P  P3  1  0.21969500  0.09290200  0.72370797  1
  P  P4  1  0.78030495  0.90709801  0.22370799  1
  P  P5  1  0.60162598  0.47717300  0.63065997  1
  O  O6  1  0.03972694  0.84854301  0.26416699  1
  O  O7  1  0.12702194  0.90313101  0.62862897  1
  P  P8  1  0.18672097  0.48615300  0.99617796  1
  O  O9  1  0.26939797  0.50776600  0.29583899  1
  O  O10  1  0.41373197  0.60824600  0.62668797  1
  O  O11  1  0.60554095  0.91720201  0.36931798  1
  O  O12  1  0.58940396  0.74627101  0.10313100  1
  O  O13  1  0.41059599  0.25372900  0.60313097  1
  O  O14  1  0.39445900  0.08279800  0.86931796  1
  O  O15  1  0.58626799  0.39175400  0.12668799  1
  O  O16  1  0.73060198  0.49223400  0.79583896  1
  O  O17  1  0.81327898  0.51384700  0.49617798  1
  P  P18  1  0.87297802  0.09686900  0.12862899  1
  O  O19  1  0.96027301  0.15145700  0.76416697  1
