# generated using pymatgen
data_Mn7F13
_symmetry_space_group_name_H-M   'P 1'
_cell_length_a   5.42772198
_cell_length_b   5.51152706
_cell_length_c   7.87528801
_cell_angle_alpha   90.00000000
_cell_angle_beta   90.00000000
_cell_angle_gamma   90.00000000
_symmetry_Int_Tables_number   1
_chemical_formula_structural   Mn7F13
_chemical_formula_sum   'Mn7 F13'
_cell_volume   235.58952873
_cell_formula_units_Z   1
loop_
 _symmetry_equiv_pos_site_id
 _symmetry_equiv_pos_as_xyz
  1  'x, y, z'
loop_
 _atom_site_type_symbol
 _atom_site_label
 _atom_site_symmetry_multiplicity
 _atom_site_fract_x
 _atom_site_fract_y
 _atom_site_fract_z
 _atom_site_occupancy
  F  F0  1  0.00000000  0.00000000  0.00000000  1
  Mn  Mn1  1  0.00000000  0.00000000  0.50000000  1
  Mn  Mn2  1  0.50000000  0.49999999  -0.00000000  1
  Mn  Mn3  1  0.50000000  0.49999999  0.50000000  1
  Mn  Mn4  1  0.99093200  0.46291399  0.75000000  1
  Mn  Mn5  1  0.50906800  0.96291399  0.75000000  1
  Mn  Mn6  1  0.49093200  0.03708600  0.25000000  1
  Mn  Mn7  1  0.00906800  0.53708599  0.25000000  1
  F  F8  1  0.11815400  0.92190399  0.25000000  1
  F  F9  1  0.17023800  0.67458299  0.56517200  1
  F  F10  1  0.17023800  0.67458299  0.93482800  1
  F  F11  1  0.32976200  0.17458300  0.56517200  1
  F  F12  1  0.32976200  0.17458300  0.93482800  1
  F  F13  1  0.38184600  0.42190400  0.25000000  1
  F  F14  1  0.61815400  0.57809599  0.75000000  1
  F  F15  1  0.67023800  0.82541699  0.06517200  1
  F  F16  1  0.67023800  0.82541699  0.43482800  1
  F  F17  1  0.82976200  0.32541700  0.06517200  1
  F  F18  1  0.82976200  0.32541700  0.43482800  1
  F  F19  1  0.88184600  0.07809600  0.75000000  1
