# generated using pymatgen
data_Bi7S13
_symmetry_space_group_name_H-M   'P 1'
_cell_length_a   6.31341410
_cell_length_b   9.82190800
_cell_length_c   9.82190800
_cell_angle_alpha   120.00000000
_cell_angle_beta   90.00000000
_cell_angle_gamma   90.00000000
_symmetry_Int_Tables_number   1
_chemical_formula_structural   Bi7S13
_chemical_formula_sum   'Bi7 S13'
_cell_volume   527.45647833
_cell_formula_units_Z   1
loop_
 _symmetry_equiv_pos_site_id
 _symmetry_equiv_pos_as_xyz
  1  'x, y, z'
loop_
 _atom_site_type_symbol
 _atom_site_label
 _atom_site_symmetry_multiplicity
 _atom_site_fract_x
 _atom_site_fract_y
 _atom_site_fract_z
 _atom_site_occupancy
  Bi  Bi0  1  0.98326198  0.66666667  0.33333334  1
  S  S1  1  0.48326199  0.33333334  0.66666668  1
  S  S2  1  0.94075699  0.46050800  0.92101602  1
  S  S3  1  0.44075699  0.53949200  0.07898401  1
  S  S4  1  0.94075699  0.46050800  0.53949201  1
  S  S5  1  0.94075699  0.07898400  0.53949201  1
  S  S6  1  0.44075699  0.92101600  0.46050802  1
  S  S7  1  0.44075699  0.53949200  0.46050801  1
  S  S8  1  0.75373299  0.87420700  0.74841402  1
  S  S9  1  0.25373300  0.12579300  0.25158600  1
  S  S10  1  0.75373299  0.87420700  0.12579201  1
  S  S11  1  0.75373299  0.25158500  0.12579200  1
  S  S12  1  0.25373300  0.74841500  0.87420802  1
  S  S13  1  0.25373300  0.12579300  0.87420801  1
  Bi  Bi14  1  0.70126399  0.18724900  0.37449801  1
  Bi  Bi15  1  0.20126400  0.81275100  0.62550202  1
  Bi  Bi16  1  0.70126399  0.18724900  0.81275101  1
  Bi  Bi17  1  0.70126399  0.62550200  0.81275102  1
  Bi  Bi18  1  0.20126400  0.37449800  0.18724901  1
  Bi  Bi19  1  0.20126400  0.81275100  0.18724901  1
