# generated using pymatgen
data_LaNiGe2
_symmetry_space_group_name_H-M   'P 1'
_cell_length_a   4.24931288
_cell_length_b   4.27728176
_cell_length_c   8.97088814
_cell_angle_alpha   103.79199982
_cell_angle_beta   90.00000000
_cell_angle_gamma   90.00000000
_symmetry_Int_Tables_number   1
_chemical_formula_structural   LaNiGe2
_chemical_formula_sum   'La2 Ni2 Ge4'
_cell_volume   158.34931364
_cell_formula_units_Z   2
loop_
 _symmetry_equiv_pos_site_id
 _symmetry_equiv_pos_as_xyz
  1  'x, y, z'
loop_
 _atom_site_type_symbol
 _atom_site_label
 _atom_site_symmetry_multiplicity
 _atom_site_fract_x
 _atom_site_fract_y
 _atom_site_fract_z
 _atom_site_occupancy
  La  La0  1  0.25000001  0.10420300  0.20840601  1
  La  La1  1  0.75000002  0.89579704  0.79159402  1
  Ni  Ni2  1  0.25000001  0.32573801  0.65147602  1
  Ni  Ni3  1  0.75000002  0.67426203  0.34852400  1
  Ge  Ge4  1  0.25000001  0.46232802  0.92465603  1
  Ge  Ge5  1  0.75000002  0.53767202  0.07534399  1
  Ge  Ge6  1  0.25000001  0.75053203  0.50106401  1
  Ge  Ge7  1  0.75000002  0.24946801  0.49893602  1
