# generated using pymatgen
data_LiAu4OF6
_symmetry_space_group_name_H-M   'P 1'
_cell_length_a   4.55693579
_cell_length_b   5.04307508
_cell_length_c   5.73379898
_cell_angle_alpha   90.00000000
_cell_angle_beta   90.00000000
_cell_angle_gamma   90.00000000
_symmetry_Int_Tables_number   1
_chemical_formula_structural   LiAu4OF6
_chemical_formula_sum   'Li1 Au4 O1 F6'
_cell_volume   131.76825853
_cell_formula_units_Z   1
loop_
 _symmetry_equiv_pos_site_id
 _symmetry_equiv_pos_as_xyz
  1  'x, y, z'
loop_
 _atom_site_type_symbol
 _atom_site_label
 _atom_site_symmetry_multiplicity
 _atom_site_fract_x
 _atom_site_fract_y
 _atom_site_fract_z
 _atom_site_occupancy
  O  O0  1  0.24598401  0.07637500  0.88187300  1
  F  F1  1  0.74598403  0.92362498  0.61812700  1
  F  F2  1  0.25401601  0.57637499  0.61812700  1
  F  F3  1  0.75401604  0.42362499  0.88187300  1
  F  F4  1  0.24598401  0.57637499  0.11812700  1
  F  F5  1  0.74598403  0.42362499  0.38187300  1
  F  F6  1  0.25401601  0.07637500  0.38187300  1
  Au  Au7  1  0.75401604  0.92362498  0.11812700  1
  Li  Li8  1  0.50000002  0.74999999  0.87276200  1
  Au  Au9  1  0.00000000  0.25000000  0.62723800  1
  Au  Au10  1  0.50000002  0.25000000  0.12723800  1
  Au  Au11  1  0.00000000  0.74999999  0.37276200  1
