# generated using pymatgen
data_GeF3
_symmetry_space_group_name_H-M   'P 1'
_cell_length_a   5.42385197
_cell_length_b   5.42385197
_cell_length_c   5.57938337
_cell_angle_alpha   92.31051636
_cell_angle_beta   118.00211334
_cell_angle_gamma   118.39590454
_symmetry_Int_Tables_number   1
_chemical_formula_structural   GeF3
_chemical_formula_sum   'Ge2 F6'
_cell_volume   119.91750840
_cell_formula_units_Z   2
loop_
 _symmetry_equiv_pos_site_id
 _symmetry_equiv_pos_as_xyz
  1  'x, y, z'
loop_
 _atom_site_type_symbol
 _atom_site_label
 _atom_site_symmetry_multiplicity
 _atom_site_fract_x
 _atom_site_fract_y
 _atom_site_fract_z
 _atom_site_occupancy
  Ge  Ge0  1  0.04654297  0.25191798  0.85803195  1
  Ge  Ge1  1  0.10611391  0.81148893  0.35803191  1
  F  F2  1  0.12461199  0.10262799  0.58589198  1
  F  F3  1  0.56389990  0.95053092  0.60046891  1
  F  F4  1  0.98326395  0.46127996  0.08589201  1
  F  F5  1  0.14993800  0.03656900  0.10046900  1
  F  F6  1  0.98121094  0.53240596  0.59195898  1
  F  F7  1  0.55955293  0.61074795  0.09195897  1
