# generated using pymatgen
data_BOs
_symmetry_space_group_name_H-M   'P 1'
_cell_length_a   5.56470156
_cell_length_b   5.56470156
_cell_length_c   5.94952536
_cell_angle_alpha   102.02526855
_cell_angle_beta   102.02526855
_cell_angle_gamma   117.99327850
_symmetry_Int_Tables_number   1
_chemical_formula_structural   BOs
_chemical_formula_sum   'B6 Os6'
_cell_volume   148.77638274
_cell_formula_units_Z   6
loop_
 _symmetry_equiv_pos_site_id
 _symmetry_equiv_pos_as_xyz
  1  'x, y, z'
loop_
 _atom_site_type_symbol
 _atom_site_label
 _atom_site_symmetry_multiplicity
 _atom_site_fract_x
 _atom_site_fract_y
 _atom_site_fract_z
 _atom_site_occupancy
  B  B0  1  0.26677604  0.73322402  0.75000001  1
  B  B1  1  0.57114502  0.42885501  0.75000000  1
  Os  Os2  1  0.73322401  0.26677601  0.25000002  1
  Os  Os3  1  0.42885503  0.57114501  0.25000002  1
  B  B4  1  0.90997800  0.09002200  0.75000000  1
  Os  Os5  1  0.09002205  0.90997802  0.25000003  1
  Os  Os6  1  0.16039502  0.31313501  0.52347800  1
  B  B7  1  0.31313501  0.16039500  0.02347801  1
  B  B8  1  0.00000003  0.50000001  0.00000002  1
  Os  Os9  1  0.68686504  0.83960502  0.97652201  1
  Os  Os10  1  0.50000000  0.00000000  0.49999999  1
  B  B11  1  0.83960503  0.68686502  0.47652203  1
