# generated using pymatgen
data_PrAu2
_symmetry_space_group_name_H-M   'P 1'
_cell_length_a   4.58894014
_cell_length_b   4.58894014
_cell_length_c   8.07557297
_cell_angle_alpha   90.00000000
_cell_angle_beta   90.00000000
_cell_angle_gamma   120.00000000
_symmetry_Int_Tables_number   1
_chemical_formula_structural   PrAu2
_chemical_formula_sum   'Pr2 Au4'
_cell_volume   147.27490905
_cell_formula_units_Z   2
loop_
 _symmetry_equiv_pos_site_id
 _symmetry_equiv_pos_as_xyz
  1  'x, y, z'
loop_
 _atom_site_type_symbol
 _atom_site_label
 _atom_site_symmetry_multiplicity
 _atom_site_fract_x
 _atom_site_fract_y
 _atom_site_fract_z
 _atom_site_occupancy
  Pr  Pr0  1  0.00000000  0.00000000  0.50325000  1
  Pr  Pr1  1  0.00000000  0.00000000  0.00325000  1
  Au  Au2  1  0.33333335  0.66666671  0.76571700  1
  Au  Au3  1  0.66666666  0.33333335  0.26571700  1
  Au  Au4  1  0.66666666  0.33333335  0.70713300  1
  Au  Au5  1  0.33333335  0.66666671  0.20713300  1
