# generated using pymatgen
data_TbGeAu
_symmetry_space_group_name_H-M   'P 1'
_cell_length_a   4.52069902
_cell_length_b   7.22506618
_cell_length_c   7.90113020
_cell_angle_alpha   90.00000000
_cell_angle_beta   90.00000000
_cell_angle_gamma   90.00000000
_symmetry_Int_Tables_number   1
_chemical_formula_structural   TbGeAu
_chemical_formula_sum   'Tb4 Ge4 Au4'
_cell_volume   258.06947722
_cell_formula_units_Z   4
loop_
 _symmetry_equiv_pos_site_id
 _symmetry_equiv_pos_as_xyz
  1  'x, y, z'
loop_
 _atom_site_type_symbol
 _atom_site_label
 _atom_site_symmetry_multiplicity
 _atom_site_fract_x
 _atom_site_fract_y
 _atom_site_fract_z
 _atom_site_occupancy
  Tb  Tb0  1  0.25000000  0.52817399  0.81756598  1
  Tb  Tb1  1  0.25000000  0.02817400  0.68243398  1
  Tb  Tb2  1  0.75000000  0.97182598  0.31756599  1
  Tb  Tb3  1  0.75000000  0.47182599  0.18243400  1
  Au  Au4  1  0.25000000  0.14629500  0.06713700  1
  Au  Au5  1  0.75000000  0.35370499  0.56713699  1
  Au  Au6  1  0.25000000  0.64629498  0.43286299  1
  Au  Au7  1  0.75000000  0.85370498  0.93286298  1
  Ge  Ge8  1  0.25000000  0.78533298  0.11075700  1
  Ge  Ge9  1  0.25000000  0.28533299  0.38924299  1
  Ge  Ge10  1  0.75000000  0.71466698  0.61075698  1
  Ge  Ge11  1  0.75000000  0.21466699  0.88924298  1
