# generated using pymatgen
data_LuSe2
_symmetry_space_group_name_H-M   'P 1'
_cell_length_a   4.08582401
_cell_length_b   8.12174797
_cell_length_c   8.19180679
_cell_angle_alpha   89.90234375
_cell_angle_beta   90.00000000
_cell_angle_gamma   90.00000000
_symmetry_Int_Tables_number   1
_chemical_formula_structural   LuSe2
_chemical_formula_sum   'Lu4 Se8'
_cell_volume   271.83679115
_cell_formula_units_Z   4
loop_
 _symmetry_equiv_pos_site_id
 _symmetry_equiv_pos_as_xyz
  1  'x, y, z'
loop_
 _atom_site_type_symbol
 _atom_site_label
 _atom_site_symmetry_multiplicity
 _atom_site_fract_x
 _atom_site_fract_y
 _atom_site_fract_z
 _atom_site_occupancy
  Lu  Lu0  1  0.78827200  0.87040100  0.27611797  1
  Lu  Lu1  1  0.71172800  0.37040100  0.27611799  1
  Lu  Lu2  1  0.21172800  0.12959900  0.72388200  1
  Lu  Lu3  1  0.28827200  0.62959900  0.72388199  1
  Se  Se4  1  0.26169200  0.62549900  0.36615498  1
  Se  Se5  1  0.15512700  0.39301700  0.00246499  1
  Se  Se6  1  0.76169200  0.87450100  0.63384498  1
  Se  Se7  1  0.73830800  0.37450100  0.63384499  1
  Se  Se8  1  0.23830800  0.12549900  0.36615500  1
  Se  Se9  1  0.65512700  0.10698300  0.99753501  1
  Se  Se10  1  0.34487300  0.89301700  0.00246497  1
  Se  Se11  1  0.84487300  0.60698300  0.99753499  1
