# generated using pymatgen
data_Ho3Ga2
_symmetry_space_group_name_H-M   'P 1'
_cell_length_a   3.77888799
_cell_length_b   7.95074987
_cell_length_c   7.95074987
_cell_angle_alpha   90.00000000
_cell_angle_beta   90.00000000
_cell_angle_gamma   90.00000000
_symmetry_Int_Tables_number   1
_chemical_formula_structural   Ho3Ga2
_chemical_formula_sum   'Ho6 Ga4'
_cell_volume   238.88022581
_cell_formula_units_Z   2
loop_
 _symmetry_equiv_pos_site_id
 _symmetry_equiv_pos_as_xyz
  1  'x, y, z'
loop_
 _atom_site_type_symbol
 _atom_site_label
 _atom_site_symmetry_multiplicity
 _atom_site_fract_x
 _atom_site_fract_y
 _atom_site_fract_z
 _atom_site_occupancy
  Ho  Ho0  1  0.50000000  0.67562901  0.17562900  1
  Ho  Ho1  1  0.50000000  0.17562900  0.32437101  1
  Ho  Ho2  1  0.50000000  0.82437101  0.67562901  1
  Ho  Ho3  1  0.50000000  0.32437101  0.82437101  1
  Ga  Ga4  1  0.00000000  0.37423601  0.12576400  1
  Ga  Ga5  1  0.00000000  0.12576400  0.62576401  1
  Ga  Ga6  1  0.00000000  0.62576401  0.87423601  1
  Ga  Ga7  1  1.00000000  0.87423601  0.37423601  1
  Ho  Ho8  1  0.00000000  0.00000000  0.00000000  1
  Ho  Ho9  1  0.00000000  0.50000001  0.50000001  1
