# generated using pymatgen
data_VF2
_symmetry_space_group_name_H-M   'P 1'
_cell_length_a   4.67834616
_cell_length_b   4.67834616
_cell_length_c   9.08080292
_cell_angle_alpha   90.00000000
_cell_angle_beta   90.00000000
_cell_angle_gamma   90.00000000
_symmetry_Int_Tables_number   1
_chemical_formula_structural   VF2
_chemical_formula_sum   'V6 F12'
_cell_volume   198.75083210
_cell_formula_units_Z   6
loop_
 _symmetry_equiv_pos_site_id
 _symmetry_equiv_pos_as_xyz
  1  'x, y, z'
loop_
 _atom_site_type_symbol
 _atom_site_label
 _atom_site_symmetry_multiplicity
 _atom_site_fract_x
 _atom_site_fract_y
 _atom_site_fract_z
 _atom_site_occupancy
  V  V0  1  0.49999998  0.49999998  0.83343801  1
  V  V1  1  0.00000000  0.00000000  0.33343800  1
  V  V2  1  0.49999998  0.49999998  0.49936700  1
  V  V3  1  0.00000000  0.00000000  0.99936701  1
  V  V4  1  0.49999998  0.49999998  0.16734200  1
  V  V5  1  0.00000000  0.00000000  0.66734201  1
  F  F6  1  0.19481599  0.80518397  0.16577700  1
  F  F7  1  0.19931199  0.80068797  0.49899600  1
  F  F8  1  0.19540199  0.80459797  0.83515301  1
  F  F9  1  0.80518397  0.19481599  0.16577700  1
  F  F10  1  0.80068797  0.19931199  0.49899600  1
  F  F11  1  0.80459797  0.19540199  0.83515301  1
  F  F12  1  0.30068799  0.30068799  0.99899601  1
  F  F13  1  0.30459799  0.30459799  0.33515300  1
  F  F14  1  0.30518399  0.30518399  0.66577701  1
  F  F15  1  0.69931198  0.69931198  0.99899601  1
  F  F16  1  0.69540198  0.69540198  0.33515300  1
  F  F17  1  0.69481598  0.69481598  0.66577701  1
