# generated using pymatgen
data_CsF3
_symmetry_space_group_name_H-M   'P 1'
_cell_length_a   6.20988607
_cell_length_b   6.83351612
_cell_length_c   6.83351660
_cell_angle_alpha   60.00000381
_cell_angle_beta   90.00000000
_cell_angle_gamma   90.00000000
_symmetry_Int_Tables_number   1
_chemical_formula_structural   CsF3
_chemical_formula_sum   'Cs2 F6'
_cell_volume   251.13240632
_cell_formula_units_Z   2
loop_
 _symmetry_equiv_pos_site_id
 _symmetry_equiv_pos_as_xyz
  1  'x, y, z'
loop_
 _atom_site_type_symbol
 _atom_site_label
 _atom_site_symmetry_multiplicity
 _atom_site_fract_x
 _atom_site_fract_y
 _atom_site_fract_z
 _atom_site_occupancy
  F  F0  1  0.25000000  0.33333332  0.33333334  1
  F  F1  1  0.74999999  0.66666664  0.66666667  1
  F  F2  1  0.74999999  0.65401798  0.17299102  1
  Cs  Cs3  1  0.74999999  0.17299099  0.17299100  1
  F  F4  1  0.74999999  0.17299099  0.65401799  1
  F  F5  1  0.25000000  0.34598199  0.82700900  1
  F  F6  1  0.25000000  0.82700897  0.82700901  1
  Cs  Cs7  1  0.25000000  0.82700897  0.34598202  1
