# generated using pymatgen
data_PrAu2
_symmetry_space_group_name_H-M   'P 1'
_cell_length_a   4.65028620
_cell_length_b   4.65028620
_cell_length_c   7.94339609
_cell_angle_alpha   90.00000000
_cell_angle_beta   90.00000000
_cell_angle_gamma   120.00000000
_symmetry_Int_Tables_number   1
_chemical_formula_structural   PrAu2
_chemical_formula_sum   'Pr2 Au4'
_cell_volume   148.76344072
_cell_formula_units_Z   2
loop_
 _symmetry_equiv_pos_site_id
 _symmetry_equiv_pos_as_xyz
  1  'x, y, z'
loop_
 _atom_site_type_symbol
 _atom_site_label
 _atom_site_symmetry_multiplicity
 _atom_site_fract_x
 _atom_site_fract_y
 _atom_site_fract_z
 _atom_site_occupancy
  Pr  Pr0  1  0.00000000  0.00000000  0.00840800  1
  Pr  Pr1  1  0.00000000  0.00000000  0.50840799  1
  Au  Au2  1  0.33333333  0.66666667  0.27593400  1
  Au  Au3  1  0.66666665  0.33333333  0.77593399  1
  Au  Au4  1  0.33333333  0.66666667  0.70665799  1
  Au  Au5  1  0.66666665  0.33333333  0.20665800  1
