# generated using pymatgen
data_Tb13Al3
_symmetry_space_group_name_H-M   'P 1'
_cell_length_a   6.53047991
_cell_length_b   8.92513561
_cell_length_c   8.92513561
_cell_angle_alpha   120.00000000
_cell_angle_beta   90.00000000
_cell_angle_gamma   90.00000000
_symmetry_Int_Tables_number   1
_chemical_formula_structural   Tb13Al3
_chemical_formula_sum   'Tb13 Al3'
_cell_volume   450.51097637
_cell_formula_units_Z   1
loop_
 _symmetry_equiv_pos_site_id
 _symmetry_equiv_pos_as_xyz
  1  'x, y, z'
loop_
 _atom_site_type_symbol
 _atom_site_label
 _atom_site_symmetry_multiplicity
 _atom_site_fract_x
 _atom_site_fract_y
 _atom_site_fract_z
 _atom_site_occupancy
  Tb  Tb0  1  0.25000000  0.00000000  0.76257900  1
  Tb  Tb1  1  0.75000001  0.00000000  0.23742100  1
  Tb  Tb2  1  0.75000001  0.23742101  -0.00000001  1
  Tb  Tb3  1  0.25000000  0.23742101  0.23742099  1
  Tb  Tb4  1  0.25000000  0.76257902  -0.00000003  1
  Tb  Tb5  1  0.75000001  0.76257902  0.76257897  1
  Tb  Tb6  1  0.50000001  0.66666668  0.33333331  1
  Tb  Tb7  1  1.00000001  0.33333334  0.66666665  1
  Tb  Tb8  1  0.50000001  0.33333334  0.66666665  1
  Al  Al9  1  0.00000000  0.66666668  0.33333331  1
  Tb  Tb10  1  0.25000000  0.60459302  0.60459298  1
  Tb  Tb11  1  0.75000001  0.60459302  -0.00000002  1
  Tb  Tb12  1  0.75000001  0.00000000  0.60459300  1
  Al  Al13  1  0.25000000  0.00000000  0.39540700  1
  Tb  Tb14  1  0.25000000  0.39540701  -0.00000001  1
  Al  Al15  1  0.75000001  0.39540701  0.39540698  1
