# generated using pymatgen
data_Ba3O4
_symmetry_space_group_name_H-M   'P 1'
_cell_length_a   8.27594662
_cell_length_b   8.27594662
_cell_length_c   8.27594662
_cell_angle_alpha   60.00000000
_cell_angle_beta   60.00000000
_cell_angle_gamma   60.00000000
_symmetry_Int_Tables_number   1
_chemical_formula_structural   Ba3O4
_chemical_formula_sum   'Ba6 O8'
_cell_volume   400.80953457
_cell_formula_units_Z   2
loop_
 _symmetry_equiv_pos_site_id
 _symmetry_equiv_pos_as_xyz
  1  'x, y, z'
loop_
 _atom_site_type_symbol
 _atom_site_label
 _atom_site_symmetry_multiplicity
 _atom_site_fract_x
 _atom_site_fract_y
 _atom_site_fract_z
 _atom_site_occupancy
  Ba  Ba0  1  0.37500000  0.37500000  0.37500000  1
  Ba  Ba1  1  0.87500000  0.37500000  0.37500000  1
  Ba  Ba2  1  0.37500000  0.37500000  0.87500000  1
  Ba  Ba3  1  0.37500000  0.87500000  0.37500000  1
  Ba  Ba4  1  0.75000000  0.75000000  0.75000000  1
  Ba  Ba5  1  0.00000000  0.00000000  0.00000000  1
  O  O6  1  0.12949000  0.61153200  0.12948900  1
  O  O7  1  0.62051000  0.62051100  0.62051100  1
  O  O8  1  0.62051000  0.13846800  0.62051100  1
  O  O9  1  0.61153300  0.12948900  0.12948900  1
  O  O10  1  0.12949000  0.12948900  0.12948900  1
  O  O11  1  0.62051000  0.62051100  0.13846800  1
  O  O12  1  0.13846700  0.62051100  0.62051100  1
  O  O13  1  0.12949000  0.12948900  0.61153200  1
