# generated using pymatgen
data_Cs2WF6
_symmetry_space_group_name_H-M   'P 1'
_cell_length_a   6.17340136
_cell_length_b   6.17340136
_cell_length_c   6.17340136
_cell_angle_alpha   60.00000000
_cell_angle_beta   60.00000000
_cell_angle_gamma   60.00000000
_symmetry_Int_Tables_number   1
_chemical_formula_structural   Cs2WF6
_chemical_formula_sum   'Cs2 W1 F6'
_cell_volume   166.36368867
_cell_formula_units_Z   1
loop_
 _symmetry_equiv_pos_site_id
 _symmetry_equiv_pos_as_xyz
  1  'x, y, z'
loop_
 _atom_site_type_symbol
 _atom_site_label
 _atom_site_symmetry_multiplicity
 _atom_site_fract_x
 _atom_site_fract_y
 _atom_site_fract_z
 _atom_site_occupancy
  Cs  Cs0  1  0.75000001  0.75000001  0.75000001  1
  F  F1  1  0.25000000  0.25000000  0.25000000  1
  W  W2  1  0.00000000  0.00000000  0.00000000  1
  F  F3  1  0.78585601  0.78585601  0.21414400  1
  F  F4  1  0.78585601  0.21414400  0.21414400  1
  F  F5  1  0.21414400  0.78585601  0.78585601  1
  F  F6  1  0.21414400  0.21414400  0.78585601  1
  F  F7  1  0.78585601  0.21414400  0.78585601  1
  Cs  Cs8  1  0.21414400  0.78585601  0.21414400  1
