# generated using pymatgen
data_Sc9Ga7
_symmetry_space_group_name_H-M   'P 1'
_cell_length_a   6.15823078
_cell_length_b   8.11011600
_cell_length_c   8.11011600
_cell_angle_alpha   120.00000000
_cell_angle_beta   90.00000000
_cell_angle_gamma   90.00000000
_symmetry_Int_Tables_number   1
_chemical_formula_structural   Sc9Ga7
_chemical_formula_sum   'Sc9 Ga7'
_cell_volume   350.78476604
_cell_formula_units_Z   1
loop_
 _symmetry_equiv_pos_site_id
 _symmetry_equiv_pos_as_xyz
  1  'x, y, z'
loop_
 _atom_site_type_symbol
 _atom_site_label
 _atom_site_symmetry_multiplicity
 _atom_site_fract_x
 _atom_site_fract_y
 _atom_site_fract_z
 _atom_site_occupancy
  Sc  Sc0  1  0.50000002  0.33333333  0.66666662  1
  Sc  Sc1  1  0.50000002  0.66666665  0.33333329  1
  Sc  Sc2  1  0.00000000  0.66666665  0.33333329  1
  Ga  Ga3  1  1.00000004  0.33333333  0.66666662  1
  Sc  Sc4  1  0.75000003  0.24991600  0.99999994  1
  Sc  Sc5  1  0.75000003  0.75008399  0.75008393  1
  Sc  Sc6  1  0.75000003  0.99999998  0.24991595  1
  Sc  Sc7  1  0.25000001  0.75008399  -0.00000003  1
  Sc  Sc8  1  0.25000001  0.24991600  0.24991598  1
  Sc  Sc9  1  0.25000001  0.99999998  0.75008393  1
  Ga  Ga10  1  0.75000003  0.60015599  -0.00000002  1
  Ga  Ga11  1  0.75000003  0.39984399  0.39984397  1
  Ga  Ga12  1  0.75000003  0.99999998  0.60015593  1
  Ga  Ga13  1  0.25000001  0.39984399  -0.00000001  1
  Ga  Ga14  1  0.25000001  0.60015599  0.60015595  1
  Ga  Ga15  1  0.25000001  0.99999998  0.39984394  1
