# generated using pymatgen
data_HoMg3Pt2
_symmetry_space_group_name_H-M   'P 1'
_cell_length_a   6.41029501
_cell_length_b   6.41609621
_cell_length_c   6.99808598
_cell_angle_alpha   62.71493530
_cell_angle_beta   90.00000000
_cell_angle_gamma   90.00000000
_symmetry_Int_Tables_number   1
_chemical_formula_structural   HoMg3Pt2
_chemical_formula_sum   'Ho2 Mg6 Pt4'
_cell_volume   255.80044837
_cell_formula_units_Z   2
loop_
 _symmetry_equiv_pos_site_id
 _symmetry_equiv_pos_as_xyz
  1  'x, y, z'
loop_
 _atom_site_type_symbol
 _atom_site_label
 _atom_site_symmetry_multiplicity
 _atom_site_fract_x
 _atom_site_fract_y
 _atom_site_fract_z
 _atom_site_occupancy
  Ho  Ho0  1  0.16339300  0.33586398  0.00000001  1
  Ho  Ho1  1  0.83660700  0.66413597  0.00000002  1
  Mg  Mg2  1  0.33660700  0.83586396  0.00000003  1
  Mg  Mg3  1  0.66339300  0.16413599  0.00000000  1
  Mg  Mg4  1  0.25000000  0.49704998  0.50000000  1
  Mg  Mg5  1  0.75000000  0.00295000  0.49999999  1
  Mg  Mg6  1  0.25000000  0.99704995  0.50000002  1
  Mg  Mg7  1  0.75000000  0.50294998  0.50000000  1
  Pt  Pt8  1  0.50000000  0.61764597  0.76470800  1
  Pt  Pt9  1  0.00000000  0.11764599  0.76470798  1
  Pt  Pt10  1  0.50000000  0.38235398  0.23529201  1
  Pt  Pt11  1  0.00000000  0.88235396  0.23529202  1
