# generated using pymatgen
data_Tb5CuBi3
_symmetry_space_group_name_H-M   'P 1'
_cell_length_a   6.59232092
_cell_length_b   9.07999802
_cell_length_c   9.07999802
_cell_angle_alpha   120.00000000
_cell_angle_beta   90.00000000
_cell_angle_gamma   90.00000000
_symmetry_Int_Tables_number   1
_chemical_formula_structural   Tb5CuBi3
_chemical_formula_sum   'Tb10 Cu2 Bi6'
_cell_volume   470.69596998
_cell_formula_units_Z   2
loop_
 _symmetry_equiv_pos_site_id
 _symmetry_equiv_pos_as_xyz
  1  'x, y, z'
loop_
 _atom_site_type_symbol
 _atom_site_label
 _atom_site_symmetry_multiplicity
 _atom_site_fract_x
 _atom_site_fract_y
 _atom_site_fract_z
 _atom_site_occupancy
  Tb  Tb0  1  0.50000001  0.66666667  0.33333334  1
  Tb  Tb1  1  0.50000001  0.33333333  0.66666667  1
  Tb  Tb2  1  1.00000001  0.33333333  0.66666667  1
  Tb  Tb3  1  1.00000001  0.66666667  0.33333334  1
  Tb  Tb4  1  0.25000000  0.71168300  0.71168301  1
  Tb  Tb5  1  0.75000001  0.28831700  0.28831700  1
  Tb  Tb6  1  0.25000000  0.00000000  0.28831700  1
  Tb  Tb7  1  0.75000001  0.00000000  0.71168300  1
  Tb  Tb8  1  0.25000000  0.28831700  0.00000000  1
  Tb  Tb9  1  0.75000001  0.71168300  1.00000001  1
  Cu  Cu10  1  0.50000001  0.00000000  -0.00000000  1
  Cu  Cu11  1  0.00000000  0.00000000  0.00000000  1
  Bi  Bi12  1  0.25000000  0.37441700  0.37441700  1
  Bi  Bi13  1  0.75000001  0.62558300  0.62558301  1
  Bi  Bi14  1  0.25000000  0.00000000  0.62558300  1
  Bi  Bi15  1  0.75000001  0.00000000  0.37441700  1
  Bi  Bi16  1  0.25000000  0.62558300  0.00000000  1
  Bi  Bi17  1  0.75000001  0.37441700  0.00000000  1
