# generated using pymatgen
data_GaBrF18
_symmetry_space_group_name_H-M   'P 1'
_cell_length_a   6.68354797
_cell_length_b   6.68354797
_cell_length_c   7.30179119
_cell_angle_alpha   90.00000000
_cell_angle_beta   90.00000000
_cell_angle_gamma   102.96403503
_symmetry_Int_Tables_number   1
_chemical_formula_structural   GaBrF18
_chemical_formula_sum   'Ga1 Br1 F18'
_cell_volume   317.85593746
_cell_formula_units_Z   1
loop_
 _symmetry_equiv_pos_site_id
 _symmetry_equiv_pos_as_xyz
  1  'x, y, z'
loop_
 _atom_site_type_symbol
 _atom_site_label
 _atom_site_symmetry_multiplicity
 _atom_site_fract_x
 _atom_site_fract_y
 _atom_site_fract_z
 _atom_site_occupancy
  F  F0  1  0.99208505  0.99208501  0.05961800  1
  Ga  Ga1  1  0.00791500  0.00791500  0.55961799  1
  F  F2  1  0.06216503  0.55711801  0.78977498  1
  F  F3  1  0.55711800  0.06216500  0.78977498  1
  F  F4  1  0.93783502  0.44288201  0.28977499  1
  F  F5  1  0.44288204  0.93783501  0.28977499  1
  Br  Br6  1  0.92741204  0.92741201  0.28883099  1
  F  F7  1  0.07258800  0.07258800  0.78883098  1
  F  F8  1  0.97128003  0.70071901  0.59707498  1
  F  F9  1  0.70071905  0.97128001  0.59707498  1
  F  F10  1  0.02872001  0.29928100  0.09707500  1
  F  F11  1  0.29928100  0.02872000  0.09707500  1
  F  F12  1  0.96923603  0.69588401  0.98458697  1
  F  F13  1  0.69588405  0.96923601  0.98458697  1
  F  F14  1  0.03076401  0.30411600  0.48458699  1
  F  F15  1  0.30411600  0.03076400  0.48458699  1
  F  F16  1  0.33235203  0.67336901  0.79054198  1
  F  F17  1  0.67336902  0.33235200  0.79054198  1
  F  F18  1  0.66764802  0.32663100  0.29054199  1
  F  F19  1  0.32663103  0.66764801  0.29054199  1
