# generated using pymatgen
data_Lu(BOs)4
_symmetry_space_group_name_H-M   'P 1'
_cell_length_a   5.39486408
_cell_length_b   5.39486408
_cell_length_c   7.44503498
_cell_angle_alpha   90.00000000
_cell_angle_beta   90.00000000
_cell_angle_gamma   90.00000000
_symmetry_Int_Tables_number   1
_chemical_formula_structural   Lu(BOs)4
_chemical_formula_sum   'Lu2 B8 Os8'
_cell_volume   216.68445589
_cell_formula_units_Z   2
loop_
 _symmetry_equiv_pos_site_id
 _symmetry_equiv_pos_as_xyz
  1  'x, y, z'
loop_
 _atom_site_type_symbol
 _atom_site_label
 _atom_site_symmetry_multiplicity
 _atom_site_fract_x
 _atom_site_fract_y
 _atom_site_fract_z
 _atom_site_occupancy
  Lu  Lu0  1  0.00000000  0.00000000  0.00000000  1
  Lu  Lu1  1  0.49999999  0.49999999  0.50000000  1
  B  B2  1  0.82754699  0.49999999  0.15318800  1
  B  B3  1  0.17245300  0.49999999  0.15318800  1
  B  B4  1  0.00000000  0.32754700  0.65318800  1
  B  B5  1  0.00000000  0.67245299  0.65318800  1
  B  B6  1  0.67245299  0.00000000  0.34681200  1
  B  B7  1  0.32754700  0.00000000  0.34681200  1
  B  B8  1  0.49999999  0.17245300  0.84681200  1
  B  B9  1  0.49999999  0.82754699  0.84681200  1
  Os  Os10  1  0.25113000  0.49999999  0.85506100  1
  Os  Os11  1  0.74886999  0.49999999  0.85506100  1
  Os  Os12  1  0.00000000  0.75112999  0.35506100  1
  Os  Os13  1  0.00000000  0.24887000  0.35506100  1
  Os  Os14  1  0.24887000  0.00000000  0.64493900  1
  Os  Os15  1  0.75112999  0.00000000  0.64493900  1
  Os  Os16  1  0.49999999  0.74886999  0.14493900  1
  Os  Os17  1  0.49999999  0.25113000  0.14493900  1
