# generated using pymatgen
data_HoGa2Co
_symmetry_space_group_name_H-M   'P 1'
_cell_length_a   5.50895309
_cell_length_b   7.00250196
_cell_length_c   7.28484583
_cell_angle_alpha   90.00000000
_cell_angle_beta   90.00000000
_cell_angle_gamma   90.00000000
_symmetry_Int_Tables_number   1
_chemical_formula_structural   HoGa2Co
_chemical_formula_sum   'Ho4 Ga8 Co4'
_cell_volume   281.02352633
_cell_formula_units_Z   4
loop_
 _symmetry_equiv_pos_site_id
 _symmetry_equiv_pos_as_xyz
  1  'x, y, z'
loop_
 _atom_site_type_symbol
 _atom_site_label
 _atom_site_symmetry_multiplicity
 _atom_site_fract_x
 _atom_site_fract_y
 _atom_site_fract_z
 _atom_site_occupancy
  Ho  Ho0  1  0.14004200  0.75000000  0.52721901  1
  Ho  Ho1  1  0.64004199  0.25000000  0.97278102  1
  Ho  Ho2  1  0.85995799  0.25000000  0.47278101  1
  Ho  Ho3  1  0.35995799  0.75000000  0.02721900  1
  Co  Co4  1  0.86021599  0.75000000  0.87895502  1
  Co  Co5  1  0.36021599  0.25000000  0.62104501  1
  Co  Co6  1  0.13978400  0.25000000  0.12104500  1
  Co  Co7  1  0.63978399  0.75000000  0.37895501  1
  Ga  Ga8  1  0.90568698  0.94846500  0.17917800  1
  Ga  Ga9  1  0.40568699  0.05153500  0.32082201  1
  Ga  Ga10  1  0.09431300  0.44846500  0.82082202  1
  Ga  Ga11  1  0.59431299  0.55153500  0.67917802  1
  Ga  Ga12  1  0.09431300  0.05153500  0.82082202  1
  Ga  Ga13  1  0.59431299  0.94846500  0.67917802  1
  Ga  Ga14  1  0.90568698  0.55153500  0.17917800  1
  Ga  Ga15  1  0.40568699  0.44846500  0.32082201  1
