# generated using pymatgen
data_BaPrMgIrO6
_symmetry_space_group_name_H-M   'P 1'
_cell_length_a   5.67200518
_cell_length_b   5.69645309
_cell_length_c   5.69768763
_cell_angle_alpha   90.68666840
_cell_angle_beta   119.01444244
_cell_angle_gamma   119.71117401
_symmetry_Int_Tables_number   1
_chemical_formula_structural   BaPrMgIrO6
_chemical_formula_sum   'Ba1 Pr1 Mg1 Ir1 O6'
_cell_volume   131.88037744
_cell_formula_units_Z   1
loop_
 _symmetry_equiv_pos_site_id
 _symmetry_equiv_pos_as_xyz
  1  'x, y, z'
loop_
 _atom_site_type_symbol
 _atom_site_label
 _atom_site_symmetry_multiplicity
 _atom_site_fract_x
 _atom_site_fract_y
 _atom_site_fract_z
 _atom_site_occupancy
  Ba  Ba0  1  0.99905392  0.75155697  0.74959092  1
  Pr  Pr1  1  0.98909893  0.25202499  0.23646693  1
  Mg  Mg2  1  0.49852897  0.00394700  0.50142695  1
  Ir  Ir3  1  0.50165095  0.49988398  0.00200097  1
  O  O4  1  0.53563094  0.73578797  0.29152696  1
  O  O5  1  0.41343497  0.25901799  0.66467895  1
  O  O6  1  0.01314699  0.28282599  0.79950397  1
  O  O7  1  0.98810192  0.68627297  0.22346194  1
  O  O8  1  0.51696296  0.22338199  0.21094396  1
  O  O9  1  0.54438894  0.80529897  0.82039794  1
