# generated using pymatgen
data_NdGe4
_symmetry_space_group_name_H-M   'P 1'
_cell_length_a   4.24423981
_cell_length_b   4.30163813
_cell_length_c   10.41194248
_cell_angle_alpha   90.00000000
_cell_angle_beta   89.90248871
_cell_angle_gamma   90.00000000
_symmetry_Int_Tables_number   1
_chemical_formula_structural   NdGe4
_chemical_formula_sum   'Nd2 Ge8'
_cell_volume   190.09247202
_cell_formula_units_Z   2
loop_
 _symmetry_equiv_pos_site_id
 _symmetry_equiv_pos_as_xyz
  1  'x, y, z'
loop_
 _atom_site_type_symbol
 _atom_site_label
 _atom_site_symmetry_multiplicity
 _atom_site_fract_x
 _atom_site_fract_y
 _atom_site_fract_z
 _atom_site_occupancy
  Nd  Nd0  1  0.75229403  0.74504698  0.24863199  1
  Nd  Nd1  1  0.24770601  0.24504699  0.75136797  1
  Ge  Ge2  1  0.24029701  0.25515199  0.36825799  1
  Ge  Ge3  1  0.74657703  0.23440799  0.99731796  1
  Ge  Ge4  1  0.25342301  0.73440798  0.00268200  1
  Ge  Ge5  1  0.75970303  0.75515198  0.63174198  1
  Ge  Ge6  1  0.26142201  0.75746798  0.49915198  1
  Ge  Ge7  1  0.24741301  0.23592399  0.13382899  1
  Ge  Ge8  1  0.75258703  0.73592398  0.86617097  1
  Ge  Ge9  1  0.73857803  0.25746799  0.50084798  1
