# generated using pymatgen
data_Te3Mo
_symmetry_space_group_name_H-M   'P 1'
_cell_length_a   6.93736935
_cell_length_b   6.93736935
_cell_length_c   13.40124702
_cell_angle_alpha   94.85308838
_cell_angle_beta   94.85308838
_cell_angle_gamma   119.50730896
_symmetry_Int_Tables_number   1
_chemical_formula_structural   Te3Mo
_chemical_formula_sum   'Te15 Mo5'
_cell_volume   553.33339549
_cell_formula_units_Z   5
loop_
 _symmetry_equiv_pos_site_id
 _symmetry_equiv_pos_as_xyz
  1  'x, y, z'
loop_
 _atom_site_type_symbol
 _atom_site_label
 _atom_site_symmetry_multiplicity
 _atom_site_fract_x
 _atom_site_fract_y
 _atom_site_fract_z
 _atom_site_occupancy
  Te  Te0  1  0.32059301  0.16023200  0.99945698  1
  Mo  Mo1  1  0.90758002  0.09242000  0.74999998  1
  Mo  Mo2  1  0.83976802  0.67940701  0.50054298  1
  Mo  Mo3  1  0.16023200  0.32059301  0.49945699  1
  Te  Te4  1  0.09242000  0.90758002  0.24999998  1
  Te  Te5  1  0.67940701  0.83976802  0.00054298  1
  Te  Te6  1  -0.00000000  0.50000001  -0.00000001  1
  Mo  Mo7  1  0.50000001  0.00000000  0.49999999  1
  Te  Te8  1  0.63416001  0.12207600  0.88086798  1
  Te  Te9  1  0.28476800  0.44448401  0.87900498  1
  Te  Te10  1  0.95989602  0.79942702  0.88123097  1
  Te  Te11  1  0.20057300  0.04010400  0.61876899  1
  Te  Te12  1  0.55551601  0.71523201  0.62099498  1
  Te  Te13  1  0.87792402  0.36584001  0.61913198  1
  Mo  Mo14  1  0.12207600  0.63416001  0.38086799  1
  Te  Te15  1  0.79942701  0.95989602  0.38123097  1
  Te  Te16  1  0.44448401  0.28476801  0.37900499  1
  Te  Te17  1  0.04010400  0.20057300  0.11876900  1
  Te  Te18  1  0.71523201  0.55551601  0.12099498  1
  Te  Te19  1  0.36584000  0.87792402  0.11913198  1
