# generated using pymatgen
data_BaGe2
_symmetry_space_group_name_H-M   'P 1'
_cell_length_a   3.68888307
_cell_length_b   4.84436083
_cell_length_c   8.41346455
_cell_angle_alpha   90.03604126
_cell_angle_beta   90.00000000
_cell_angle_gamma   90.00000000
_symmetry_Int_Tables_number   1
_chemical_formula_structural   BaGe2
_chemical_formula_sum   'Ba2 Ge4'
_cell_volume   150.35094273
_cell_formula_units_Z   2
loop_
 _symmetry_equiv_pos_site_id
 _symmetry_equiv_pos_as_xyz
  1  'x, y, z'
loop_
 _atom_site_type_symbol
 _atom_site_label
 _atom_site_symmetry_multiplicity
 _atom_site_fract_x
 _atom_site_fract_y
 _atom_site_fract_z
 _atom_site_occupancy
  Ba  Ba0  1  0.00000000  0.00001700  0.01326700  1
  Ba  Ba1  1  0.00000000  0.50016500  0.49234998  1
  Ge  Ge2  1  0.49999999  0.49991800  0.83600197  1
  Ge  Ge3  1  0.49999999  0.49964100  0.18042400  1
  Ge  Ge4  1  0.49999999  0.00017900  0.64918497  1
  Ge  Ge5  1  0.49999999  0.99988099  0.32877199  1
