# generated using pymatgen
data_InTe2P
_symmetry_space_group_name_H-M   'P 1'
_cell_length_a   4.09708023
_cell_length_b   4.09707975
_cell_length_c   6.45088291
_cell_angle_alpha   90.00000000
_cell_angle_beta   90.00000000
_cell_angle_gamma   120.00000000
_symmetry_Int_Tables_number   1
_chemical_formula_structural   InTe2P
_chemical_formula_sum   'In1 Te2 P1'
_cell_volume   93.77750577
_cell_formula_units_Z   1
loop_
 _symmetry_equiv_pos_site_id
 _symmetry_equiv_pos_as_xyz
  1  'x, y, z'
loop_
 _atom_site_type_symbol
 _atom_site_label
 _atom_site_symmetry_multiplicity
 _atom_site_fract_x
 _atom_site_fract_y
 _atom_site_fract_z
 _atom_site_occupancy
  In  In0  1  0.00000000  0.00000000  0.51251201  1
  P  P1  1  0.33333328  0.66666664  0.12578600  1
  Te  Te2  1  0.66666661  0.33333332  0.23862300  1
  Te  Te3  1  0.33333328  0.66666664  0.74907901  1
