# generated using pymatgen
data_Cu6P5
_symmetry_space_group_name_H-M   'P 1'
_cell_length_a   3.90330029
_cell_length_b   3.90330029
_cell_length_c   12.81208515
_cell_angle_alpha   81.23809052
_cell_angle_beta   81.23809052
_cell_angle_gamma   59.99999619
_symmetry_Int_Tables_number   1
_chemical_formula_structural   Cu6P5
_chemical_formula_sum   'Cu6 P5'
_cell_volume   166.41404223
_cell_formula_units_Z   1
loop_
 _symmetry_equiv_pos_site_id
 _symmetry_equiv_pos_as_xyz
  1  'x, y, z'
loop_
 _atom_site_type_symbol
 _atom_site_label
 _atom_site_symmetry_multiplicity
 _atom_site_fract_x
 _atom_site_fract_y
 _atom_site_fract_z
 _atom_site_occupancy
  P  P0  1  0.79173696  0.79173698  0.62478900  1
  P  P1  1  0.20826299  0.20826300  0.37521099  1
  P  P2  1  0.37402298  0.37402299  0.87793098  1
  P  P3  1  0.62597696  0.62597699  0.12206901  1
  P  P4  1  0.00000000  0.00000000  0.00000000  1
  Cu  Cu5  1  0.85426695  0.85426698  0.43719901  1
  Cu  Cu6  1  0.14573299  0.14573300  0.56280099  1
  Cu  Cu7  1  0.56299297  0.56299299  0.31102100  1
  Cu  Cu8  1  0.43700698  0.43700699  0.68897899  1
  Cu  Cu9  1  0.27035998  0.27035999  0.18892000  1
  Cu  Cu10  1  0.72963996  0.72963998  0.81107999  1
