# generated using pymatgen
data_Ba(GaP)2
_symmetry_space_group_name_H-M   'P 1'
_cell_length_a   4.06468010
_cell_length_b   4.07785416
_cell_length_c   7.57492828
_cell_angle_alpha   105.61475372
_cell_angle_beta   105.56302643
_cell_angle_gamma   90.00000000
_symmetry_Int_Tables_number   1
_chemical_formula_structural   Ba(GaP)2
_chemical_formula_sum   'Ba1 Ga2 P2'
_cell_volume   116.13497363
_cell_formula_units_Z   1
loop_
 _symmetry_equiv_pos_site_id
 _symmetry_equiv_pos_as_xyz
  1  'x, y, z'
loop_
 _atom_site_type_symbol
 _atom_site_label
 _atom_site_symmetry_multiplicity
 _atom_site_fract_x
 _atom_site_fract_y
 _atom_site_fract_z
 _atom_site_occupancy
  P  P0  1  0.67471298  0.66274397  0.32548800  1
  P  P1  1  0.34922499  0.33725599  0.67451201  1
  Ba  Ba2  1  0.02731299  0.99999996  0.00000000  1
  Ga  Ga3  1  0.76074198  0.24986699  0.49973400  1
  Ga  Ga4  1  0.26100799  0.75013297  0.50026601  1
