# generated using pymatgen
data_Co
_symmetry_space_group_name_H-M   'P 1'
_cell_length_a   5.01438808
_cell_length_b   5.01438808
_cell_length_c   6.73741245
_cell_angle_alpha   68.15294647
_cell_angle_beta   68.15294647
_cell_angle_gamma   59.99999619
_symmetry_Int_Tables_number   1
_chemical_formula_structural   Co
_chemical_formula_sum   Co12
_cell_volume   132.47502765
_cell_formula_units_Z   12
loop_
 _symmetry_equiv_pos_site_id
 _symmetry_equiv_pos_as_xyz
  1  'x, y, z'
loop_
 _atom_site_type_symbol
 _atom_site_label
 _atom_site_symmetry_multiplicity
 _atom_site_fract_x
 _atom_site_fract_y
 _atom_site_fract_z
 _atom_site_occupancy
  Co  Co0  1  0.78191106  0.78191104  0.65426689  1
  Co  Co1  1  0.99973108  0.99973105  0.00080689  1
  Co  Co2  1  0.76598405  0.28159101  0.67083392  1
  Co  Co3  1  0.28159103  0.76598404  0.67083392  1
  Co  Co4  1  0.28159102  0.28159101  0.67083395  1
  Co  Co5  1  0.23082703  0.71840503  0.33236294  1
  Co  Co6  1  0.71840505  0.23082701  0.33236294  1
  Co  Co7  1  0.71840506  0.71840503  0.33236291  1
  Co  Co8  1  0.50247305  0.99728505  0.99776888  1
  Co  Co9  1  0.50247304  0.50247302  0.99776891  1
  Co  Co10  1  0.99728507  0.50247302  0.99776889  1
  Co  Co11  1  0.21932502  0.21932501  0.34202496  1
