# generated using pymatgen
data_Ba2Br3
_symmetry_space_group_name_H-M   'P 1'
_cell_length_a   7.35013008
_cell_length_b   11.33538818
_cell_length_c   11.33538818
_cell_angle_alpha   120.00000000
_cell_angle_beta   90.00000000
_cell_angle_gamma   90.00000000
_symmetry_Int_Tables_number   1
_chemical_formula_structural   Ba2Br3
_chemical_formula_sum   'Ba8 Br12'
_cell_volume   817.89669150
_cell_formula_units_Z   4
loop_
 _symmetry_equiv_pos_site_id
 _symmetry_equiv_pos_as_xyz
  1  'x, y, z'
loop_
 _atom_site_type_symbol
 _atom_site_label
 _atom_site_symmetry_multiplicity
 _atom_site_fract_x
 _atom_site_fract_y
 _atom_site_fract_z
 _atom_site_occupancy
  Br  Br0  1  0.44876800  0.33333333  0.66666666  1
  Ba  Ba1  1  0.94876799  0.66666666  0.33333333  1
  Br  Br2  1  0.24772700  0.12552700  0.87447399  1
  Br  Br3  1  0.24772700  0.74894699  0.87447399  1
  Br  Br4  1  0.24772700  0.12552700  0.25105400  1
  Ba  Ba5  1  0.74772699  0.87447299  0.12552600  1
  Br  Br6  1  0.74772699  0.25105300  0.12552600  1
  Br  Br7  1  0.74772699  0.87447299  0.74894599  1
  Br  Br8  1  0.43840200  0.54155599  0.45844299  1
  Br  Br9  1  0.43840200  0.91688699  0.45844300  1
  Br  Br10  1  0.43840200  0.54155599  0.08311200  1
  Br  Br11  1  0.93840199  0.45844399  0.54155699  1
  Br  Br12  1  0.93840199  0.08311300  0.54155699  1
  Br  Br13  1  0.93840199  0.45844399  0.91688799  1
  Ba  Ba14  1  0.16897400  0.81159199  0.18840900  1
  Ba  Ba15  1  0.16897400  0.37681699  0.18840900  1
  Ba  Ba16  1  0.16897400  0.81159199  0.62318399  1
  Ba  Ba17  1  0.66897399  0.18840800  0.81159099  1
  Ba  Ba18  1  0.66897399  0.62318299  0.81159099  1
  Ba  Ba19  1  0.66897399  0.18840800  0.37681600  1
