# generated using pymatgen
data_Ga
_symmetry_space_group_name_H-M   'P 1'
_cell_length_a   5.95172024
_cell_length_b   5.95172024
_cell_length_c   7.25588703
_cell_angle_alpha   114.21302795
_cell_angle_beta   114.21302795
_cell_angle_gamma   90.00000000
_symmetry_Int_Tables_number   1
_chemical_formula_structural   Ga
_chemical_formula_sum   Ga8
_cell_volume   209.37468068
_cell_formula_units_Z   8
loop_
 _symmetry_equiv_pos_site_id
 _symmetry_equiv_pos_as_xyz
  1  'x, y, z'
loop_
 _atom_site_type_symbol
 _atom_site_label
 _atom_site_symmetry_multiplicity
 _atom_site_fract_x
 _atom_site_fract_y
 _atom_site_fract_z
 _atom_site_occupancy
  Ga  Ga0  1  0.24999999  0.74999997  0.49999999  1
  Ga  Ga1  1  0.49999998  0.49999998  -0.00000000  1
  Ga  Ga2  1  0.74999997  0.24999999  0.49999999  1
  Ga  Ga3  1  0.00000000  0.00000000  0.00000000  1
  Ga  Ga4  1  0.63729897  0.10851800  0.75716199  1
  Ga  Ga5  1  0.11986299  0.64864397  0.75716199  1
  Ga  Ga6  1  0.89148196  0.88013696  0.24283799  1
  Ga  Ga7  1  0.35135598  0.36270098  0.24283799  1
