# generated using pymatgen
data_Li2GeO4
_symmetry_space_group_name_H-M   'P 1'
_cell_length_a   5.16369772
_cell_length_b   5.16369677
_cell_length_c   6.26505995
_cell_angle_alpha   90.00000000
_cell_angle_beta   90.00000000
_cell_angle_gamma   113.51900482
_symmetry_Int_Tables_number   1
_chemical_formula_structural   Li2GeO4
_chemical_formula_sum   'Li4 Ge2 O8'
_cell_volume   153.17288556
_cell_formula_units_Z   2
loop_
 _symmetry_equiv_pos_site_id
 _symmetry_equiv_pos_as_xyz
  1  'x, y, z'
loop_
 _atom_site_type_symbol
 _atom_site_label
 _atom_site_symmetry_multiplicity
 _atom_site_fract_x
 _atom_site_fract_y
 _atom_site_fract_z
 _atom_site_occupancy
  Li  Li0  1  0.33551406  0.66448602  0.75000001  1
  Li  Li1  1  0.66448605  0.33551401  0.25000000  1
  Ge  Ge2  1  0.35274406  0.64725602  0.25000000  1
  Ge  Ge3  1  0.64725605  0.35274401  0.75000001  1
  Li  Li4  1  1.00000010  1.00000003  0.50000000  1
  Li  Li5  1  0.00000000  0.00000000  0.00000000  1
  O  O6  1  0.23713806  0.76286203  0.02819300  1
  O  O7  1  0.23713806  0.76286203  0.47180700  1
  O  O8  1  0.76286204  0.23713801  0.97180701  1
  O  O9  1  0.76286204  0.23713801  0.52819300  1
  O  O10  1  0.72800608  0.76543503  0.25000000  1
  O  O11  1  0.76543508  0.72800502  0.75000001  1
  O  O12  1  0.23456503  0.27199401  0.25000000  1
  O  O13  1  0.27199503  0.23456501  0.75000001  1
