# generated using pymatgen
data_CsU2I15
_symmetry_space_group_name_H-M   'P 1'
_cell_length_a   8.25024128
_cell_length_b   8.25024128
_cell_length_c   12.41227627
_cell_angle_alpha   90.00000000
_cell_angle_beta   90.00000000
_cell_angle_gamma   90.00000000
_symmetry_Int_Tables_number   1
_chemical_formula_structural   CsU2I15
_chemical_formula_sum   'Cs1 U2 I15'
_cell_volume   844.85996889
_cell_formula_units_Z   1
loop_
 _symmetry_equiv_pos_site_id
 _symmetry_equiv_pos_as_xyz
  1  'x, y, z'
loop_
 _atom_site_type_symbol
 _atom_site_label
 _atom_site_symmetry_multiplicity
 _atom_site_fract_x
 _atom_site_fract_y
 _atom_site_fract_z
 _atom_site_occupancy
  I  I0  1  0.00000000  0.49999998  0.24999999  1
  Cs  Cs1  1  0.49999998  0.00000000  0.24999999  1
  I  I2  1  0.00000000  0.49999998  0.74999998  1
  I  I3  1  0.49999998  0.00000000  0.74999998  1
  U  U4  1  0.00000000  0.00000000  0.00000000  1
  U  U5  1  0.49999998  0.49999998  0.49999999  1
  I  I6  1  0.00000000  0.00000000  0.24004499  1
  I  I7  1  0.49999998  0.49999998  0.25995399  1
  I  I8  1  0.00000000  0.00000000  0.75995398  1
  I  I9  1  0.49999998  0.49999998  0.74004598  1
  I  I10  1  0.20183299  0.29904399  -0.00000000  1
  I  I11  1  0.70095598  0.20183299  -0.00000000  1
  I  I12  1  0.29904399  0.79816697  -0.00000000  1
  I  I13  1  0.70183298  0.20095599  0.49999999  1
  I  I14  1  0.29816699  0.79904397  0.49999999  1
  I  I15  1  0.79816697  0.70095598  -0.00000000  1
  I  I16  1  0.79904397  0.70183298  0.49999999  1
  I  I17  1  0.20095599  0.29816699  0.49999999  1
