# generated using pymatgen
data_Ga7Ir
_symmetry_space_group_name_H-M   'P 1'
_cell_length_a   3.84085488
_cell_length_b   6.79691696
_cell_length_c   7.32761002
_cell_angle_alpha   107.74979401
_cell_angle_beta   90.00000000
_cell_angle_gamma   90.00000000
_symmetry_Int_Tables_number   1
_chemical_formula_structural   Ga7Ir
_chemical_formula_sum   'Ga7 Ir1'
_cell_volume   182.18817342
_cell_formula_units_Z   1
loop_
 _symmetry_equiv_pos_site_id
 _symmetry_equiv_pos_as_xyz
  1  'x, y, z'
loop_
 _atom_site_type_symbol
 _atom_site_label
 _atom_site_symmetry_multiplicity
 _atom_site_fract_x
 _atom_site_fract_y
 _atom_site_fract_z
 _atom_site_occupancy
  Ga  Ga0  1  0.25000001  0.82548599  0.00562096  1
  Ga  Ga1  1  0.75000002  0.17451400  0.99437900  1
  Ga  Ga2  1  0.25000001  0.60777599  0.59105498  1
  Ir  Ir3  1  0.75000002  0.39222400  0.40894498  1
  Ga  Ga4  1  0.75000002  0.99001199  0.28771695  1
  Ga  Ga5  1  0.75000002  0.50492099  0.79385998  1
  Ga  Ga6  1  0.25000001  0.00998800  0.71228301  1
  Ga  Ga7  1  0.25000001  0.49507899  0.20613998  1
