# generated using pymatgen
data_Ga7P4
_symmetry_space_group_name_H-M   'P 1'
_cell_length_a   5.27211046
_cell_length_b   5.27208757
_cell_length_c   6.04133797
_cell_angle_alpha   103.55250549
_cell_angle_beta   103.55257416
_cell_angle_gamma   112.43155670
_symmetry_Int_Tables_number   1
_chemical_formula_structural   Ga7P4
_chemical_formula_sum   'Ga7 P4'
_cell_volume   140.75807978
_cell_formula_units_Z   1
loop_
 _symmetry_equiv_pos_site_id
 _symmetry_equiv_pos_as_xyz
  1  'x, y, z'
loop_
 _atom_site_type_symbol
 _atom_site_label
 _atom_site_symmetry_multiplicity
 _atom_site_fract_x
 _atom_site_fract_y
 _atom_site_fract_z
 _atom_site_occupancy
  P  P0  1  0.81566897  0.18431799  0.49999902  1
  P  P1  1  0.18432299  0.81566597  0.49999903  1
  P  P2  1  0.33510298  0.66518797  0.00001602  1
  P  P3  1  0.66497497  0.33482299  0.99999203  1
  Ga  Ga4  1  0.00000699  0.99997496  0.99999905  1
  Ga  Ga5  1  0.24322399  0.24323499  0.84062202  1
  Ga  Ga6  1  0.64694997  0.97531296  0.78374805  1
  Ga  Ga7  1  0.75675796  0.75676697  0.15937503  1
  Ga  Ga8  1  0.97531496  0.64699398  0.78378704  1
  Ga  Ga9  1  0.35299499  0.02467400  0.21621001  1
  Ga  Ga10  1  0.02468200  0.35304699  0.21625201  1
