# generated using pymatgen
data_MoC
_symmetry_space_group_name_H-M   'P 1'
_cell_length_a   3.25689292
_cell_length_b   5.61471605
_cell_length_c   5.61471605
_cell_angle_alpha   109.53789520
_cell_angle_beta   90.00000000
_cell_angle_gamma   90.00000000
_symmetry_Int_Tables_number   1
_chemical_formula_structural   MoC
_chemical_formula_sum   'Mo4 C4'
_cell_volume   96.76176990
_cell_formula_units_Z   4
loop_
 _symmetry_equiv_pos_site_id
 _symmetry_equiv_pos_as_xyz
  1  'x, y, z'
loop_
 _atom_site_type_symbol
 _atom_site_label
 _atom_site_symmetry_multiplicity
 _atom_site_fract_x
 _atom_site_fract_y
 _atom_site_fract_z
 _atom_site_occupancy
  Mo  Mo0  1  -0.00000000  0.50000002  0.50000002  1
  Mo  Mo1  1  0.50000001  0.50000002  1.00000004  1
  Mo  Mo2  1  0.50000001  0.00000000  0.50000002  1
  Mo  Mo3  1  0.00000000  0.00000000  0.00000000  1
  C  C4  1  -0.00000000  0.75484903  0.24515101  1
  C  C5  1  0.50000001  0.75898803  0.75898803  1
  C  C6  1  0.50000001  0.24101201  0.24101201  1
  C  C7  1  -0.00000000  0.24515101  0.75484903  1
