# generated using pymatgen
data_Tb(Si4Mo3)2
_symmetry_space_group_name_H-M   'P 1'
_cell_length_a   6.79894590
_cell_length_b   6.79894590
_cell_length_c   6.79894590
_cell_angle_alpha   88.91822052
_cell_angle_beta   88.91822052
_cell_angle_gamma   88.91822052
_symmetry_Int_Tables_number   1
_chemical_formula_structural   Tb(Si4Mo3)2
_chemical_formula_sum   'Tb1 Si8 Mo6'
_cell_volume   314.11983576
_cell_formula_units_Z   1
loop_
 _symmetry_equiv_pos_site_id
 _symmetry_equiv_pos_as_xyz
  1  'x, y, z'
loop_
 _atom_site_type_symbol
 _atom_site_label
 _atom_site_symmetry_multiplicity
 _atom_site_fract_x
 _atom_site_fract_y
 _atom_site_fract_z
 _atom_site_occupancy
  Tb  Tb0  1  0.00000000  0.00000000  0.00000000  1
  Mo  Mo1  1  0.42304901  0.23556100  0.56024602  1
  Mo  Mo2  1  0.56024602  0.42304900  0.23556103  1
  Mo  Mo3  1  0.23556103  0.56024600  0.42304903  1
  Mo  Mo4  1  0.76443902  0.43975400  0.57695104  1
  Mo  Mo5  1  0.43975403  0.57695100  0.76443904  1
  Mo  Mo6  1  0.57695104  0.76443899  0.43975405  1
  Si  Si7  1  0.62598701  0.24435900  0.87879503  1
  Si  Si8  1  0.87879503  0.62598699  0.24435905  1
  Si  Si9  1  0.76045404  0.76045399  0.76045405  1
  Si  Si10  1  0.24435905  0.87879499  0.62598704  1
  Si  Si11  1  0.75564100  0.12120500  0.37401303  1
  Si  Si12  1  0.23954601  0.23954600  0.23954602  1
  Si  Si13  1  0.12120502  0.37401300  0.75564102  1
  Si  Si14  1  0.37401304  0.75564099  0.12120504  1
