# generated using pymatgen
data_W2O5
_symmetry_space_group_name_H-M   'P 1'
_cell_length_a   5.64175940
_cell_length_b   5.64175940
_cell_length_c   8.45882320
_cell_angle_alpha   101.95561218
_cell_angle_beta   103.78840637
_cell_angle_gamma   109.39416504
_symmetry_Int_Tables_number   1
_chemical_formula_structural   W2O5
_chemical_formula_sum   'W4 O10'
_cell_volume   234.28894084
_cell_formula_units_Z   2
loop_
 _symmetry_equiv_pos_site_id
 _symmetry_equiv_pos_as_xyz
  1  'x, y, z'
loop_
 _atom_site_type_symbol
 _atom_site_label
 _atom_site_symmetry_multiplicity
 _atom_site_fract_x
 _atom_site_fract_y
 _atom_site_fract_z
 _atom_site_occupancy
  W  W0  1  0.24182997  0.50303799  0.74324603  1
  W  W1  1  0.74020797  0.50141599  0.24324601  1
  W  W2  1  0.96632293  0.98446198  0.98894503  1
  W  W3  1  0.50448300  0.02262200  0.48894501  1
  O  O4  1  0.04831995  0.85600298  0.19102201  1
  O  O5  1  0.83501899  0.14270200  0.69102202  1
  O  O6  1  0.69286595  0.79845198  0.36892401  1
  O  O7  1  0.94601398  0.31009499  0.16864800  1
  O  O8  1  0.38538798  0.24148000  0.08598700  1
  O  O9  1  0.76366797  0.36909799  0.45648101  1
  O  O10  1  0.58738295  0.69281299  0.95648103  1
  O  O11  1  0.34450695  0.70059899  0.58598702  1
  O  O12  1  0.07047196  0.67605799  0.86892403  1
  O  O13  1  0.35855298  0.22263400  0.66864802  1
