# generated using pymatgen
data_Al4H5O7
_symmetry_space_group_name_H-M   'P 1'
_cell_length_a   2.87155700
_cell_length_b   4.42149115
_cell_length_c   9.49871635
_cell_angle_alpha   90.00000000
_cell_angle_beta   90.00000000
_cell_angle_gamma   90.00000000
_symmetry_Int_Tables_number   1
_chemical_formula_structural   Al4H5O7
_chemical_formula_sum   'Al4 H5 O7'
_cell_volume   120.60105858
_cell_formula_units_Z   1
loop_
 _symmetry_equiv_pos_site_id
 _symmetry_equiv_pos_as_xyz
  1  'x, y, z'
loop_
 _atom_site_type_symbol
 _atom_site_label
 _atom_site_symmetry_multiplicity
 _atom_site_fract_x
 _atom_site_fract_y
 _atom_site_fract_z
 _atom_site_occupancy
  Al  Al0  1  0.25000000  0.45412198  0.35595799  1
  Al  Al1  1  0.25000000  0.04587800  0.85595797  1
  Al  Al2  1  0.75000000  0.54587798  0.64404198  1
  Al  Al3  1  0.75000000  0.95412197  0.14404199  1
  H  H4  1  0.25000000  0.08680200  0.58920298  1
  H  H5  1  0.25000000  0.41319799  0.08920300  1
  H  H6  1  0.75000000  0.91319797  0.41079698  1
  H  H7  1  0.75000000  0.58680198  0.91079697  1
  O  O8  1  0.25000000  0.79060597  0.69799197  1
  O  O9  1  0.25000000  0.70939398  0.19799199  1
  O  O10  1  0.75000000  0.20939399  0.30200799  1
  O  O11  1  0.75000000  0.29060599  0.80200797  1
  O  O12  1  0.25000000  0.30231999  0.55386298  1
  O  O13  1  0.25000000  0.19767999  0.05386300  1
  O  O14  1  0.75000000  0.69767998  0.44613698  1
  H  H15  1  0.75000000  0.80231997  0.94613696  1
