# generated using pymatgen
data_Mg2GaGe5O12
_symmetry_space_group_name_H-M   'P 1'
_cell_length_a   5.40642738
_cell_length_b   7.03828573
_cell_length_c   7.03828573
_cell_angle_alpha   86.09152222
_cell_angle_beta   74.81138611
_cell_angle_gamma   74.81138611
_symmetry_Int_Tables_number   1
_chemical_formula_structural   Mg2GaGe5O12
_chemical_formula_sum   'Mg2 Ga1 Ge5 O12'
_cell_volume   249.43675965
_cell_formula_units_Z   1
loop_
 _symmetry_equiv_pos_site_id
 _symmetry_equiv_pos_as_xyz
  1  'x, y, z'
loop_
 _atom_site_type_symbol
 _atom_site_label
 _atom_site_symmetry_multiplicity
 _atom_site_fract_x
 _atom_site_fract_y
 _atom_site_fract_z
 _atom_site_occupancy
  Ga  Ga0  1  0.74999996  0.76258802  0.23741199  1
  Ge  Ge1  1  0.24999999  0.23741201  0.76258800  1
  Mg  Mg2  1  0.75000002  0.10702700  0.89297297  1
  Mg  Mg3  1  0.24999993  0.89297302  0.10702702  1
  Ge  Ge4  1  0.75685801  0.20874201  0.38650397  1
  Ge  Ge5  1  0.74314198  0.61349602  0.79125799  1
  Ge  Ge6  1  0.24314194  0.79125802  0.61349602  1
  Ge  Ge7  1  0.25685798  0.38650401  0.20874200  1
  O  O8  1  0.52405799  0.40444701  0.30375599  1
  O  O9  1  0.97594198  0.69624402  0.59555298  1
  O  O10  1  0.47594197  0.59555301  0.69624400  1
  O  O11  1  0.02405797  0.30375601  0.40444701  1
  O  O12  1  0.11502195  0.62291102  0.13365701  1
  O  O13  1  0.38497794  0.86634302  0.37708901  1
  O  O14  1  0.88497800  0.37708901  0.86634298  1
  O  O15  1  0.61502201  0.13365700  0.62291098  1
  O  O16  1  0.87966904  0.02143100  0.20164096  1
  O  O17  1  0.62033095  0.79835902  0.97856900  1
  O  O18  1  0.12033092  0.97856902  0.79835903  1
  O  O19  1  0.37966900  0.20164100  0.02143099  1
