# generated using pymatgen
data_CdGa4Te7
_symmetry_space_group_name_H-M   'P 1'
_cell_length_a   6.65008020
_cell_length_b   6.65008020
_cell_length_c   6.65008020
_cell_angle_alpha   90.00000000
_cell_angle_beta   90.00000000
_cell_angle_gamma   90.00000000
_symmetry_Int_Tables_number   1
_chemical_formula_structural   CdGa4Te7
_chemical_formula_sum   'Cd1 Ga4 Te7'
_cell_volume   294.09026559
_cell_formula_units_Z   1
loop_
 _symmetry_equiv_pos_site_id
 _symmetry_equiv_pos_as_xyz
  1  'x, y, z'
loop_
 _atom_site_type_symbol
 _atom_site_label
 _atom_site_symmetry_multiplicity
 _atom_site_fract_x
 _atom_site_fract_y
 _atom_site_fract_z
 _atom_site_occupancy
  Te  Te0  1  0.12868500  0.87131497  0.37131499  1
  Te  Te1  1  0.87131497  0.37131499  0.12868500  1
  Te  Te2  1  0.37131499  0.12868500  0.87131497  1
  Te  Te3  1  0.62868498  0.62868498  0.62868498  1
  Te  Te4  1  0.87252297  0.12747700  0.62747698  1
  Te  Te5  1  0.12747700  0.62747698  0.87252297  1
  Te  Te6  1  0.62747698  0.87252297  0.12747700  1
  Cd  Cd7  1  0.37252299  0.37252299  0.37252299  1
  Ga  Ga8  1  0.50470098  0.49529898  0.99529897  1
  Ga  Ga9  1  0.49529898  0.99529897  0.50470098  1
  Ga  Ga10  1  0.99529897  0.50470098  0.49529898  1
  Ga  Ga11  1  0.00470100  0.00470100  0.00470100  1
