# generated using pymatgen
data_Ba2Sn
_symmetry_space_group_name_H-M   'P 1'
_cell_length_a   6.26854277
_cell_length_b   6.26854277
_cell_length_c   6.68425703
_cell_angle_alpha   67.22401428
_cell_angle_beta   67.22401428
_cell_angle_gamma   63.49751663
_symmetry_Int_Tables_number   1
_chemical_formula_structural   Ba2Sn
_chemical_formula_sum   'Ba4 Sn2'
_cell_volume   209.28360961
_cell_formula_units_Z   2
loop_
 _symmetry_equiv_pos_site_id
 _symmetry_equiv_pos_as_xyz
  1  'x, y, z'
loop_
 _atom_site_type_symbol
 _atom_site_label
 _atom_site_symmetry_multiplicity
 _atom_site_fract_x
 _atom_site_fract_y
 _atom_site_fract_z
 _atom_site_occupancy
  Ba  Ba0  1  0.54512504  0.79139602  0.77926802  1
  Sn  Sn1  1  0.20860402  0.45487501  0.72073201  1
  Sn  Sn2  1  0.79139604  0.54512501  0.27926802  1
  Ba  Ba3  1  0.45487502  0.20860400  0.22073201  1
  Ba  Ba4  1  0.08127403  0.91872602  0.25000001  1
  Ba  Ba5  1  0.91872603  0.08127400  0.75000002  1
