# generated using pymatgen
data_HoBi18Au
_symmetry_space_group_name_H-M   'P 1'
_cell_length_a   4.50052977
_cell_length_b   11.51087379
_cell_length_c   11.51087379
_cell_angle_alpha   90.00000000
_cell_angle_beta   90.00000000
_cell_angle_gamma   90.00000000
_symmetry_Int_Tables_number   1
_chemical_formula_structural   HoBi18Au
_chemical_formula_sum   'Ho1 Bi18 Au1'
_cell_volume   596.32116393
_cell_formula_units_Z   1
loop_
 _symmetry_equiv_pos_site_id
 _symmetry_equiv_pos_as_xyz
  1  'x, y, z'
loop_
 _atom_site_type_symbol
 _atom_site_label
 _atom_site_symmetry_multiplicity
 _atom_site_fract_x
 _atom_site_fract_y
 _atom_site_fract_z
 _atom_site_occupancy
  Ho  Ho0  1  1.00000005  0.70589801  0.29410201  1
  Bi  Bi1  1  1.00000005  0.29410201  0.70589801  1
  Bi  Bi2  1  0.50000003  0.79410201  0.79410201  1
  Bi  Bi3  1  0.50000003  0.20589800  0.20589800  1
  Bi  Bi4  1  1.00000005  0.39204801  0.39204801  1
  Bi  Bi5  1  0.00000000  0.60795201  0.60795201  1
  Bi  Bi6  1  0.50000003  0.89204802  0.10795200  1
  Bi  Bi7  1  0.50000003  0.10795200  0.89204802  1
  Bi  Bi8  1  0.00000000  0.33773601  0.00138800  1
  Bi  Bi9  1  0.00000000  0.66226401  0.99861202  1
  Bi  Bi10  1  0.50000003  0.50138801  0.16226400  1
  Bi  Bi11  1  0.50000003  0.83773601  0.49861201  1
  Bi  Bi12  1  0.50000003  0.49861201  0.83773601  1
  Bi  Bi13  1  0.50000003  0.16226400  0.50138801  1
  Bi  Bi14  1  0.00000000  0.00138800  0.33773601  1
  Bi  Bi15  1  0.00000000  0.99861202  0.66226401  1
  Bi  Bi16  1  1.00000005  0.08715100  0.08715100  1
  Bi  Bi17  1  1.00000005  0.91284902  0.91284902  1
  Au  Au18  1  0.50000003  0.58715101  0.41284901  1
  Bi  Bi19  1  0.50000003  0.41284901  0.58715101  1
