# generated using pymatgen
data_MgGa7S12
_symmetry_space_group_name_H-M   'P 1'
_cell_length_a   5.89812422
_cell_length_b   6.18867397
_cell_length_c   8.65345478
_cell_angle_alpha   90.00000000
_cell_angle_beta   90.00000000
_cell_angle_gamma   90.00000000
_symmetry_Int_Tables_number   1
_chemical_formula_structural   MgGa7S12
_chemical_formula_sum   'Mg1 Ga7 S12'
_cell_volume   315.86466671
_cell_formula_units_Z   1
loop_
 _symmetry_equiv_pos_site_id
 _symmetry_equiv_pos_as_xyz
  1  'x, y, z'
loop_
 _atom_site_type_symbol
 _atom_site_label
 _atom_site_symmetry_multiplicity
 _atom_site_fract_x
 _atom_site_fract_y
 _atom_site_fract_z
 _atom_site_occupancy
  Ga  Ga0  1  0.48680898  0.20059000  0.00000000  1
  Ga  Ga1  1  0.98680896  0.79941000  0.50000001  1
  Mg  Mg2  1  0.02474400  0.68485400  -0.00000000  1
  Ga  Ga3  1  0.52474398  0.31514600  0.50000001  1
  Ga  Ga4  1  0.00216800  0.24510700  0.75076302  1
  Ga  Ga5  1  0.00216800  0.24510700  0.24923701  1
  Ga  Ga6  1  0.50216798  0.75489300  0.25076301  1
  Ga  Ga7  1  0.50216798  0.75489300  0.74923702  1
  S  S8  1  0.14543499  0.18096600  0.50000001  1
  S  S9  1  0.18383399  0.93665600  0.82327302  1
  S  S10  1  0.18383399  0.93665600  0.17672700  1
  S  S11  1  0.30515999  0.44834300  0.17338600  1
  S  S12  1  0.30515999  0.44834300  0.82661402  1
  S  S13  1  0.36121899  0.68123700  0.50000001  1
  S  S14  1  0.64543498  0.81903400  -0.00000000  1
  S  S15  1  0.68383397  0.06334400  0.67672702  1
  S  S16  1  0.68383397  0.06334400  0.32327301  1
  S  S17  1  0.80515997  0.55165700  0.67338602  1
  S  S18  1  0.80515997  0.55165700  0.32661401  1
  S  S19  1  0.86121897  0.31876300  0.00000000  1
