# generated using pymatgen
data_CsRb(InCl4)2
_symmetry_space_group_name_H-M   'P 1'
_cell_length_a   6.37765789
_cell_length_b   6.37765789
_cell_length_c   8.45975780
_cell_angle_alpha   90.00000000
_cell_angle_beta   90.00000000
_cell_angle_gamma   90.00000000
_symmetry_Int_Tables_number   1
_chemical_formula_structural   CsRb(InCl4)2
_chemical_formula_sum   'Cs1 Rb1 In2 Cl8'
_cell_volume   344.09658943
_cell_formula_units_Z   1
loop_
 _symmetry_equiv_pos_site_id
 _symmetry_equiv_pos_as_xyz
  1  'x, y, z'
loop_
 _atom_site_type_symbol
 _atom_site_label
 _atom_site_symmetry_multiplicity
 _atom_site_fract_x
 _atom_site_fract_y
 _atom_site_fract_z
 _atom_site_occupancy
  Cs  Cs0  1  0.50000001  0.50000001  0.50000001  1
  Rb  Rb1  1  0.00000000  0.00000000  0.50000001  1
  In  In2  1  0.50000001  0.50000001  0.00000000  1
  In  In3  1  0.00000000  0.00000000  0.00000000  1
  Cl  Cl4  1  0.63664201  0.86335801  0.21010100  1
  Cl  Cl5  1  0.13664200  0.63664201  0.21010100  1
  Cl  Cl6  1  0.86335801  0.36335801  0.21010100  1
  Cl  Cl7  1  0.63664201  0.13664200  0.78989902  1
  Cl  Cl8  1  0.36335801  0.86335801  0.78989902  1
  Cl  Cl9  1  0.36335801  0.13664200  0.21010100  1
  Cl  Cl10  1  0.86335801  0.63664201  0.78989902  1
  Cl  Cl11  1  0.13664200  0.36335801  0.78989902  1
