# generated using pymatgen
data_Er(Fe2Si)2
_symmetry_space_group_name_H-M   'P 1'
_cell_length_a   3.77364492
_cell_length_b   7.19785786
_cell_length_c   7.19785786
_cell_angle_alpha   90.00000000
_cell_angle_beta   90.00000000
_cell_angle_gamma   90.00000000
_symmetry_Int_Tables_number   1
_chemical_formula_structural   Er(Fe2Si)2
_chemical_formula_sum   'Er2 Fe8 Si4'
_cell_volume   195.50936508
_cell_formula_units_Z   2
loop_
 _symmetry_equiv_pos_site_id
 _symmetry_equiv_pos_as_xyz
  1  'x, y, z'
loop_
 _atom_site_type_symbol
 _atom_site_label
 _atom_site_symmetry_multiplicity
 _atom_site_fract_x
 _atom_site_fract_y
 _atom_site_fract_z
 _atom_site_occupancy
  Er  Er0  1  0.00000000  0.50000001  0.50000001  1
  Er  Er1  1  0.50000001  0.00000000  -0.00000000  1
  Fe  Fe2  1  0.50000001  0.58930801  0.15403900  1
  Fe  Fe3  1  0.50000001  0.41069201  0.84596102  1
  Fe  Fe4  1  0.00000000  0.08930800  0.34596101  1
  Fe  Fe5  1  0.00000000  0.91069202  0.65403901  1
  Fe  Fe6  1  0.50000001  0.15403900  0.58930801  1
  Fe  Fe7  1  0.50000001  0.84596102  0.41069201  1
  Fe  Fe8  1  1.00000002  0.34596101  0.08930800  1
  Fe  Fe9  1  0.00000000  0.65403901  0.91069202  1
  Si  Si10  1  0.50000001  0.71696901  0.71696901  1
  Si  Si11  1  0.50000001  0.28303101  0.28303101  1
  Si  Si12  1  0.00000000  0.21696900  0.78303102  1
  Si  Si13  1  0.00000000  0.78303102  0.21696900  1
