# generated using pymatgen
data_TbB4Mo
_symmetry_space_group_name_H-M   'P 1'
_cell_length_a   3.74786997
_cell_length_b   6.08595991
_cell_length_c   6.08595991
_cell_angle_alpha   104.06519318
_cell_angle_beta   90.00000000
_cell_angle_gamma   90.00000000
_symmetry_Int_Tables_number   1
_chemical_formula_structural   TbB4Mo
_chemical_formula_sum   'Tb2 B8 Mo2'
_cell_volume   134.65525365
_cell_formula_units_Z   2
loop_
 _symmetry_equiv_pos_site_id
 _symmetry_equiv_pos_as_xyz
  1  'x, y, z'
loop_
 _atom_site_type_symbol
 _atom_site_label
 _atom_site_symmetry_multiplicity
 _atom_site_fract_x
 _atom_site_fract_y
 _atom_site_fract_z
 _atom_site_occupancy
  Tb  Tb0  1  -0.00000000  0.69937101  0.30062897  1
  Tb  Tb1  1  -0.00000000  0.30062900  0.69937100  1
  Mo  Mo2  1  -0.00000000  0.18243900  0.18243899  1
  Mo  Mo3  1  1.00000001  0.81756101  0.81756097  1
  B  B4  1  0.50000000  0.06429200  0.37454101  1
  B  B5  1  0.50000000  0.93570801  0.62545896  1
  B  B6  1  0.50000000  0.37454100  0.06429198  1
  B  B7  1  0.50000000  0.62545901  0.93570799  1
  B  B8  1  0.50000000  0.37193100  0.37193099  1
  B  B9  1  0.50000000  0.62806901  0.62806898  1
  B  B10  1  0.50000000  0.91092201  0.08907795  1
  B  B11  1  0.50000000  0.08907800  0.91092202  1
