# generated using pymatgen
data_GaAg2F4
_symmetry_space_group_name_H-M   'P 1'
_cell_length_a   6.89985180
_cell_length_b   6.89985180
_cell_length_c   6.89985180
_cell_angle_alpha   60.00000000
_cell_angle_beta   60.00000000
_cell_angle_gamma   60.00000000
_symmetry_Int_Tables_number   1
_chemical_formula_structural   GaAg2F4
_chemical_formula_sum   'Ga2 Ag4 F8'
_cell_volume   232.27597419
_cell_formula_units_Z   2
loop_
 _symmetry_equiv_pos_site_id
 _symmetry_equiv_pos_as_xyz
  1  'x, y, z'
loop_
 _atom_site_type_symbol
 _atom_site_label
 _atom_site_symmetry_multiplicity
 _atom_site_fract_x
 _atom_site_fract_y
 _atom_site_fract_z
 _atom_site_occupancy
  Ga  Ga0  1  0.50000000  0.50000000  0.50000000  1
  Ag  Ag1  1  0.25000000  0.25000000  0.25000000  1
  Ag  Ag2  1  0.87371900  0.87371800  0.37884500  1
  Ga  Ga3  1  0.87371900  0.87371800  0.87371800  1
  Ag  Ag4  1  0.87371900  0.37884500  0.87371800  1
  Ag  Ag5  1  0.37884600  0.87371800  0.87371800  1
  F  F6  1  0.11600200  0.11600200  0.65199400  1
  F  F7  1  0.11600200  0.11600200  0.11600200  1
  F  F8  1  0.11600200  0.65199400  0.11600200  1
  F  F9  1  0.65199400  0.11600200  0.11600200  1
  F  F10  1  0.62623900  0.62624000  0.12128100  1
  F  F11  1  0.62623900  0.62624000  0.62624000  1
  F  F12  1  0.62623900  0.12128100  0.62624000  1
  F  F13  1  0.12128000  0.62624000  0.62624000  1
