# generated using pymatgen
data_BaCoO3
_symmetry_space_group_name_H-M   'P 1'
_cell_length_a   5.77001667
_cell_length_b   5.77032042
_cell_length_c   10.06267357
_cell_angle_alpha   73.44020844
_cell_angle_beta   73.43402863
_cell_angle_gamma   60.02717590
_symmetry_Int_Tables_number   1
_chemical_formula_structural   BaCoO3
_chemical_formula_sum   'Ba4 Co4 O12'
_cell_volume   274.04983188
_cell_formula_units_Z   4
loop_
 _symmetry_equiv_pos_site_id
 _symmetry_equiv_pos_as_xyz
  1  'x, y, z'
loop_
 _atom_site_type_symbol
 _atom_site_label
 _atom_site_symmetry_multiplicity
 _atom_site_fract_x
 _atom_site_fract_y
 _atom_site_fract_z
 _atom_site_occupancy
  Ba  Ba0  1  0.12285201  0.12283599  0.63157099  1
  Ba  Ba1  1  0.87715504  0.87715396  0.36840599  1
  Ba  Ba2  1  0.62713803  0.62718197  0.11823800  1
  Ba  Ba3  1  0.37285902  0.37282898  0.88178399  1
  Co  Co4  1  0.74889704  0.74884797  0.75321699  1
  Co  Co5  1  0.25111201  0.25110499  0.24675200  1
  Co  Co6  1  0.99999201  0.00004600  0.00003298  1
  Co  Co7  1  0.49998802  0.50006098  0.50002899  1
  O  O8  1  0.37816902  0.37816598  0.38121799  1
  O  O9  1  0.62182403  0.62180397  0.61875299  1
  O  O10  1  0.13792103  0.62173797  0.61862300  1
  O  O11  1  0.86211102  0.37824898  0.38135998  1
  O  O12  1  0.62176201  0.13790399  0.61860498  1
  O  O13  1  0.37823404  0.86206696  0.38139000  1
  O  O14  1  0.12356801  0.12358999  0.13063900  1
  O  O15  1  0.87644704  0.87641696  0.86938798  1
  O  O16  1  0.62142801  0.12348499  0.13110299  1
  O  O17  1  0.37854504  0.87651796  0.86890099  1
  O  O18  1  0.12344103  0.62147597  0.13110401  1
  O  O19  1  0.87655802  0.37852498  0.86888598  1
