# generated using pymatgen
data_BiF2
_symmetry_space_group_name_H-M   'P 1'
_cell_length_a   6.77158546
_cell_length_b   6.77277708
_cell_length_c   6.79055309
_cell_angle_alpha   118.60807037
_cell_angle_beta   118.65299988
_cell_angle_gamma   61.28190613
_symmetry_Int_Tables_number   1
_chemical_formula_structural   BiF2
_chemical_formula_sum   'Bi4 F8'
_cell_volume   226.84752958
_cell_formula_units_Z   4
loop_
 _symmetry_equiv_pos_site_id
 _symmetry_equiv_pos_as_xyz
  1  'x, y, z'
loop_
 _atom_site_type_symbol
 _atom_site_label
 _atom_site_symmetry_multiplicity
 _atom_site_fract_x
 _atom_site_fract_y
 _atom_site_fract_z
 _atom_site_occupancy
  Bi  Bi0  1  0.50031303  0.99988796  0.50013201  1
  Bi  Bi1  1  0.49959103  0.50012698  0.49959203  1
  Bi  Bi2  1  0.00003500  0.00023900  0.50006801  1
  Bi  Bi3  1  0.50008403  0.99989096  0.00047500  1
  F  F4  1  0.75347204  0.75295997  0.24702403  1
  F  F5  1  0.74669504  0.74672797  0.75300104  1
  F  F6  1  0.24668102  0.74687497  0.25285600  1
  F  F7  1  0.25592102  0.75554097  0.74446501  1
  F  F8  1  0.75332404  0.25302299  0.74701705  1
  F  F9  1  0.74431804  0.24434299  0.25549304  1
  F  F10  1  0.24643701  0.24696299  0.75286002  1
  F  F11  1  0.25311901  0.25343199  0.24701201  1
