# generated using pymatgen
data_Li4VOF6
_symmetry_space_group_name_H-M   'P 1'
_cell_length_a   4.93478489
_cell_length_b   5.54824591
_cell_length_c   5.59965467
_cell_angle_alpha   60.30323410
_cell_angle_beta   90.00000000
_cell_angle_gamma   90.00000000
_symmetry_Int_Tables_number   1
_chemical_formula_structural   Li4VOF6
_chemical_formula_sum   'Li4 V1 O1 F6'
_cell_volume   133.17868929
_cell_formula_units_Z   1
loop_
 _symmetry_equiv_pos_site_id
 _symmetry_equiv_pos_as_xyz
  1  'x, y, z'
loop_
 _atom_site_type_symbol
 _atom_site_label
 _atom_site_symmetry_multiplicity
 _atom_site_fract_x
 _atom_site_fract_y
 _atom_site_fract_z
 _atom_site_occupancy
  O  O0  1  0.01168500  0.16753600  0.34888500  1
  F  F1  1  0.51168501  0.83246400  0.65111502  1
  F  F2  1  0.51168501  0.48357900  0.34888501  1
  F  F3  1  0.01168500  0.51642100  0.65111501  1
  F  F4  1  0.50161301  0.17810300  1.00000000  1
  F  F5  1  0.00161300  0.82189700  0.00000003  1
  F  F6  1  0.87242602  0.13445600  0.00000000  1
  Li  Li7  1  0.41034601  0.46967000  0.69479601  1
  Li  Li8  1  0.41034601  0.16446600  0.30520400  1
  V  V9  1  0.37242601  0.86554400  0.00000003  1
  Li  Li10  1  0.91034602  0.83553400  0.69479602  1
  Li  Li11  1  0.91034602  0.53033000  0.30520401  1
