# generated using pymatgen
data_AlB4Os6W
_symmetry_space_group_name_H-M   'P 1'
_cell_length_a   3.50615191
_cell_length_b   5.87303782
_cell_length_c   6.70112801
_cell_angle_alpha   90.00000000
_cell_angle_beta   90.00000000
_cell_angle_gamma   90.00000000
_symmetry_Int_Tables_number   1
_chemical_formula_structural   AlB4Os6W
_chemical_formula_sum   'Al1 B4 Os6 W1'
_cell_volume   137.98803826
_cell_formula_units_Z   1
loop_
 _symmetry_equiv_pos_site_id
 _symmetry_equiv_pos_as_xyz
  1  'x, y, z'
loop_
 _atom_site_type_symbol
 _atom_site_label
 _atom_site_symmetry_multiplicity
 _atom_site_fract_x
 _atom_site_fract_y
 _atom_site_fract_z
 _atom_site_occupancy
  Al  Al0  1  0.25000001  0.02890800  0.16825800  1
  Os  Os1  1  0.25000001  0.52890802  0.33174200  1
  Os  Os2  1  0.75000002  0.97109203  0.83174200  1
  W  W3  1  0.75000002  0.47109201  0.66825800  1
  Os  Os4  1  0.25000001  0.14337100  0.56181500  1
  Os  Os5  1  0.25000001  0.64337102  0.93818500  1
  Os  Os6  1  0.75000002  0.85662903  0.43818500  1
  Os  Os7  1  0.75000002  0.35662901  0.06181500  1
  B  B8  1  0.25000001  0.76771102  0.62530300  1
  B  B9  1  0.25000001  0.26771101  0.87469700  1
  B  B10  1  0.75000002  0.23228901  0.37469700  1
  B  B11  1  0.75000002  0.73228902  0.12530300  1
