# generated using pymatgen
data_LiV2O5
_symmetry_space_group_name_H-M   'P 1'
_cell_length_a   4.76175785
_cell_length_b   6.46030378
_cell_length_c   6.57267141
_cell_angle_alpha   90.00000000
_cell_angle_beta   92.69182587
_cell_angle_gamma   90.00000000
_symmetry_Int_Tables_number   1
_chemical_formula_structural   LiV2O5
_chemical_formula_sum   'Li2 V4 O10'
_cell_volume   201.96806122
_cell_formula_units_Z   2
loop_
 _symmetry_equiv_pos_site_id
 _symmetry_equiv_pos_as_xyz
  1  'x, y, z'
loop_
 _atom_site_type_symbol
 _atom_site_label
 _atom_site_symmetry_multiplicity
 _atom_site_fract_x
 _atom_site_fract_y
 _atom_site_fract_z
 _atom_site_occupancy
  Li  Li0  1  0.00000000  0.00000000  0.50000000  1
  Li  Li1  1  0.00000000  0.50000002  0.50000000  1
  V  V2  1  0.38647401  0.75000003  0.24599798  1
  V  V3  1  0.61352602  0.25000001  0.75400197  1
  V  V4  1  0.49723701  0.25000001  0.25629198  1
  V  V5  1  0.50276301  0.75000003  0.74370797  1
  O  O6  1  0.67920502  0.25000001  0.02767297  1
  O  O7  1  0.72799202  0.75000003  0.28563796  1
  O  O8  1  0.27648601  0.47027902  0.27129499  1
  O  O9  1  0.27648601  0.02972100  0.27129499  1
  O  O10  1  0.75258802  0.25000001  0.45980096  1
  O  O11  1  0.24741201  0.75000003  0.54019899  1
  O  O12  1  0.72351402  0.97027903  0.72870496  1
  O  O13  1  0.72351402  0.52972102  0.72870496  1
  O  O14  1  0.27200801  0.25000001  0.71436199  1
  O  O15  1  0.32079501  0.75000003  0.97232698  1
