# generated using pymatgen
data_P2N3
_symmetry_space_group_name_H-M   'P 1'
_cell_length_a   4.62563467
_cell_length_b   4.62563467
_cell_length_c   4.62563467
_cell_angle_alpha   85.85247040
_cell_angle_beta   85.85247040
_cell_angle_gamma   85.85246277
_symmetry_Int_Tables_number   1
_chemical_formula_structural   P2N3
_chemical_formula_sum   'P2 N3'
_cell_volume   98.23046672
_cell_formula_units_Z   1
loop_
 _symmetry_equiv_pos_site_id
 _symmetry_equiv_pos_as_xyz
  1  'x, y, z'
loop_
 _atom_site_type_symbol
 _atom_site_label
 _atom_site_symmetry_multiplicity
 _atom_site_fract_x
 _atom_site_fract_y
 _atom_site_fract_z
 _atom_site_occupancy
  P  P0  1  0.99028605  0.99028601  0.99028600  1
  P  P1  1  0.47133703  0.47133700  0.47133700  1
  N  N2  1  0.10814802  0.53309500  0.53309499  1
  N  N3  1  0.53309501  0.10814800  0.53309499  1
  N  N4  1  0.53309503  0.53309500  0.10814801  1
