# generated using pymatgen
data_BaPr3Ga8Co7Si
_symmetry_space_group_name_H-M   'P 1'
_cell_length_a   5.89850998
_cell_length_b   8.23156357
_cell_length_c   8.23156357
_cell_angle_alpha   73.13343048
_cell_angle_beta   69.00502014
_cell_angle_gamma   69.00502014
_symmetry_Int_Tables_number   1
_chemical_formula_structural   BaPr3Ga8Co7Si
_chemical_formula_sum   'Ba1 Pr3 Ga8 Co7 Si1'
_cell_volume   342.31634504
_cell_formula_units_Z   1
loop_
 _symmetry_equiv_pos_site_id
 _symmetry_equiv_pos_as_xyz
  1  'x, y, z'
loop_
 _atom_site_type_symbol
 _atom_site_label
 _atom_site_symmetry_multiplicity
 _atom_site_fract_x
 _atom_site_fract_y
 _atom_site_fract_z
 _atom_site_occupancy
  Ba  Ba0  1  0.86556598  0.89857499  0.37029299  1
  Pr  Pr1  1  0.13443400  0.10142500  0.62970699  1
  Pr  Pr2  1  0.36556699  0.37029300  0.89857399  1
  Pr  Pr3  1  0.63443299  0.62970699  0.10142600  1
  Co  Co4  1  0.63723598  0.97046299  0.75506499  1
  Co  Co5  1  0.36276400  0.02953700  0.24493499  1
  Co  Co6  1  0.13723498  0.75506499  0.97046400  1
  Co  Co7  1  0.86276500  0.24493500  0.02953599  1
  Ga  Ga8  1  0.24999999  0.49999999  0.50000000  1
  Ga  Ga9  1  0.74999999  0.49999999  0.49999999  1
  Ga  Ga10  1  0.51795098  0.73204899  0.73204899  1
  Ga  Ga11  1  0.48204900  0.26795100  0.26795099  1
  Ga  Ga12  1  0.98204900  0.26795100  0.26795098  1
  Ga  Ga13  1  0.01795098  0.73204899  0.73204900  1
  Co  Co14  1  0.59732000  0.24430000  0.56106099  1
  Co  Co15  1  0.40267998  0.75569999  0.43893900  1
  Si  Si16  1  0.09731898  0.56106199  0.24430000  1
  Co  Co17  1  0.90268100  0.43893800  0.75569998  1
  Ga  Ga18  1  0.24999997  0.99999999  1.00000000  1
  Ga  Ga19  1  0.75000001  0.00000000  0.99999997  1
