# generated using pymatgen
data_U6Br12N
_symmetry_space_group_name_H-M   'P 1'
_cell_length_a   9.28257179
_cell_length_b   9.28257179
_cell_length_c   9.28257179
_cell_angle_alpha   107.04663849
_cell_angle_beta   107.04663849
_cell_angle_gamma   107.04663086
_symmetry_Int_Tables_number   1
_chemical_formula_structural   U6Br12N
_chemical_formula_sum   'U6 Br12 N1'
_cell_volume   665.26797878
_cell_formula_units_Z   1
loop_
 _symmetry_equiv_pos_site_id
 _symmetry_equiv_pos_as_xyz
  1  'x, y, z'
loop_
 _atom_site_type_symbol
 _atom_site_label
 _atom_site_symmetry_multiplicity
 _atom_site_fract_x
 _atom_site_fract_y
 _atom_site_fract_z
 _atom_site_occupancy
  U  U0  1  0.27262799  0.02769500  0.08974101  1
  U  U1  1  0.91025897  0.72737198  0.97230504  1
  U  U2  1  0.97230497  0.91025897  0.72737205  1
  U  U3  1  0.02769500  0.08974100  0.27262800  1
  U  U4  1  0.08974100  0.27262799  0.02769501  1
  U  U5  1  0.72737198  0.97230497  0.91025904  1
  N  N6  1  0.00000000  0.00000000  0.00000000  1
  Br  Br7  1  0.69261498  0.07797100  0.22443202  1
  Br  Br8  1  0.77556798  0.30738499  0.92202902  1
  Br  Br9  1  0.85519697  0.55715098  0.63124903  1
  Br  Br10  1  0.36875099  0.14480300  0.44284901  1
  Br  Br11  1  0.92202897  0.77556798  0.30738505  1
  Br  Br12  1  0.44284899  0.36875099  0.14480302  1
  Br  Br13  1  0.55715098  0.63124898  0.85519702  1
  Br  Br14  1  0.07797100  0.22443199  0.69261500  1
  Br  Br15  1  0.63124898  0.85519697  0.55715104  1
  Br  Br16  1  0.14480300  0.44284899  0.36875101  1
  Br  Br17  1  0.22443200  0.69261498  0.07797103  1
  Br  Br18  1  0.30738499  0.92202897  0.77556803  1
