# generated using pymatgen
data_Tb(CoGe)2
_symmetry_space_group_name_H-M   'P 1'
_cell_length_a   3.90926194
_cell_length_b   3.90926194
_cell_length_c   6.07740736
_cell_angle_alpha   108.76107788
_cell_angle_beta   108.76107788
_cell_angle_gamma   90.00000000
_symmetry_Int_Tables_number   1
_chemical_formula_structural   Tb(CoGe)2
_chemical_formula_sum   'Tb1 Co2 Ge2'
_cell_volume   82.71356897
_cell_formula_units_Z   1
loop_
 _symmetry_equiv_pos_site_id
 _symmetry_equiv_pos_as_xyz
  1  'x, y, z'
loop_
 _atom_site_type_symbol
 _atom_site_label
 _atom_site_symmetry_multiplicity
 _atom_site_fract_x
 _atom_site_fract_y
 _atom_site_fract_z
 _atom_site_occupancy
  Tb  Tb0  1  0.00000000  0.00000000  0.00000000  1
  Co  Co1  1  0.75000003  0.25000001  0.50000004  1
  Co  Co2  1  0.25000003  0.75000002  0.50000004  1
  Ge  Ge3  1  0.61763404  0.61763402  0.23526804  1
  Ge  Ge4  1  0.38236602  0.38236601  0.76473203  1
