# generated using pymatgen
data_MoSe4
_symmetry_space_group_name_H-M   'P 1'
_cell_length_a   3.75387096
_cell_length_b   9.57251263
_cell_length_c   14.15166473
_cell_angle_alpha   90.00000000
_cell_angle_beta   90.00000000
_cell_angle_gamma   90.00000000
_symmetry_Int_Tables_number   1
_chemical_formula_structural   MoSe4
_chemical_formula_sum   'Mo4 Se16'
_cell_volume   508.52559792
_cell_formula_units_Z   4
loop_
 _symmetry_equiv_pos_site_id
 _symmetry_equiv_pos_as_xyz
  1  'x, y, z'
loop_
 _atom_site_type_symbol
 _atom_site_label
 _atom_site_symmetry_multiplicity
 _atom_site_fract_x
 _atom_site_fract_y
 _atom_site_fract_z
 _atom_site_occupancy
  Se  Se0  1  0.25000000  0.15758701  0.95258402  1
  Se  Se1  1  0.75000001  0.84241303  0.04741600  1
  Mo  Mo2  1  0.25000000  0.65758703  0.54741601  1
  Mo  Mo3  1  0.75000001  0.34241301  0.45258401  1
  Se  Se4  1  0.75000001  0.44446802  0.83404202  1
  Se  Se5  1  0.25000000  0.55553202  0.16595800  1
  Se  Se6  1  0.75000001  0.94446804  0.66595801  1
  Se  Se7  1  0.25000000  0.05553200  0.33404201  1
  Se  Se8  1  0.25000000  0.01063500  0.10656900  1
  Se  Se9  1  0.75000001  0.98936504  0.89343102  1
  Se  Se10  1  0.25000000  0.51063502  0.39343101  1
  Se  Se11  1  0.75000001  0.48936502  0.60656901  1
  Se  Se12  1  0.75000001  0.32326401  0.00792900  1
  Se  Se13  1  0.25000000  0.67673603  0.99207102  1
  Se  Se14  1  0.75000001  0.82326403  0.49207101  1
  Se  Se15  1  0.25000000  0.17673601  0.50792901  1
  Se  Se16  1  0.75000001  0.23360601  0.28731201  1
  Se  Se17  1  0.25000000  0.76639403  0.71268801  1
  Mo  Mo18  1  0.75000001  0.73360603  0.21268800  1
  Mo  Mo19  1  0.25000000  0.26639401  0.78731201  1
