# generated using pymatgen
data_Mo7Se8
_symmetry_space_group_name_H-M   'P 1'
_cell_length_a   6.79197741
_cell_length_b   6.79197741
_cell_length_c   6.79197693
_cell_angle_alpha   91.35687256
_cell_angle_beta   91.35687256
_cell_angle_gamma   91.35687256
_symmetry_Int_Tables_number   1
_chemical_formula_structural   Mo7Se8
_chemical_formula_sum   'Mo7 Se8'
_cell_volume   313.05259057
_cell_formula_units_Z   1
loop_
 _symmetry_equiv_pos_site_id
 _symmetry_equiv_pos_as_xyz
  1  'x, y, z'
loop_
 _atom_site_type_symbol
 _atom_site_label
 _atom_site_symmetry_multiplicity
 _atom_site_fract_x
 _atom_site_fract_y
 _atom_site_fract_z
 _atom_site_occupancy
  Mo  Mo0  1  0.00000000  0.00000000  0.00000000  1
  Mo  Mo1  1  0.41667300  0.23161700  0.55080002  1
  Mo  Mo2  1  0.23161703  0.55079999  0.41667303  1
  Mo  Mo3  1  0.55080001  0.41667299  0.23161703  1
  Mo  Mo4  1  0.58332703  0.76838299  0.44920005  1
  Mo  Mo5  1  0.76838301  0.44919999  0.58332704  1
  Mo  Mo6  1  0.44920002  0.58332699  0.76838304  1
  Se  Se7  1  0.22357101  0.22357100  0.22357102  1
  Se  Se8  1  0.77642903  0.77642899  0.77642905  1
  Se  Se9  1  0.38094803  0.74383899  0.12605104  1
  Se  Se10  1  0.74383899  0.12605100  0.38094803  1
  Se  Se11  1  0.12605102  0.38094799  0.74383902  1
  Se  Se12  1  0.61905200  0.25616100  0.87394903  1
  Se  Se13  1  0.25616104  0.87394898  0.61905204  1
  Se  Se14  1  0.87394902  0.61905199  0.25616105  1
