# generated using pymatgen
data_Au
_symmetry_space_group_name_H-M   'P 1'
_cell_length_a   4.06062365
_cell_length_b   4.06062365
_cell_length_c   7.07733011
_cell_angle_alpha   73.32901764
_cell_angle_beta   73.32901764
_cell_angle_gamma   60.00000763
_symmetry_Int_Tables_number   1
_chemical_formula_structural   Au
_chemical_formula_sum   Au4
_cell_volume   95.35565804
_cell_formula_units_Z   4
loop_
 _symmetry_equiv_pos_site_id
 _symmetry_equiv_pos_as_xyz
  1  'x, y, z'
loop_
 _atom_site_type_symbol
 _atom_site_label
 _atom_site_symmetry_multiplicity
 _atom_site_fract_x
 _atom_site_fract_y
 _atom_site_fract_z
 _atom_site_occupancy
  Au  Au0  1  0.00000000  0.00000000  0.00000000  1
  Au  Au1  1  0.49999998  0.49999999  0.49999997  1
  Au  Au2  1  0.25086799  0.25086799  0.24739598  1
  Au  Au3  1  0.74913197  0.74913198  0.75260395  1
