# generated using pymatgen
data_MgGa2Si
_symmetry_space_group_name_H-M   'P 1'
_cell_length_a   3.33600211
_cell_length_b   3.33600163
_cell_length_c   8.83652782
_cell_angle_alpha   90.00000000
_cell_angle_beta   90.00000000
_cell_angle_gamma   120.00000763
_symmetry_Int_Tables_number   1
_chemical_formula_structural   MgGa2Si
_chemical_formula_sum   'Mg1 Ga2 Si1'
_cell_volume   85.16571939
_cell_formula_units_Z   1
loop_
 _symmetry_equiv_pos_site_id
 _symmetry_equiv_pos_as_xyz
  1  'x, y, z'
loop_
 _atom_site_type_symbol
 _atom_site_label
 _atom_site_symmetry_multiplicity
 _atom_site_fract_x
 _atom_site_fract_y
 _atom_site_fract_z
 _atom_site_occupancy
  Si  Si0  1  0.00000000  0.00000000  0.50000001  1
  Mg  Mg1  1  0.33333337  0.66666668  1.00000002  1
  Ga  Ga2  1  0.33333337  0.66666668  0.32150301  1
  Ga  Ga3  1  0.33333337  0.66666668  0.67849701  1
