# generated using pymatgen
data_BaNa(AgS)4
_symmetry_space_group_name_H-M   'P 1'
_cell_length_a   4.13121605
_cell_length_b   7.17896080
_cell_length_c   8.58291054
_cell_angle_alpha   114.49412537
_cell_angle_beta   103.92580414
_cell_angle_gamma   90.00000000
_symmetry_Int_Tables_number   1
_chemical_formula_structural   BaNa(AgS)4
_chemical_formula_sum   'Ba1 Na1 Ag4 S4'
_cell_volume   223.39436307
_cell_formula_units_Z   1
loop_
 _symmetry_equiv_pos_site_id
 _symmetry_equiv_pos_as_xyz
  1  'x, y, z'
loop_
 _atom_site_type_symbol
 _atom_site_label
 _atom_site_symmetry_multiplicity
 _atom_site_fract_x
 _atom_site_fract_y
 _atom_site_fract_z
 _atom_site_occupancy
  Ba  Ba0  1  0.49171197  0.49233299  0.98342393  1
  Na  Na1  1  0.99579793  0.99414598  0.99159590  1
  Ag  Ag2  1  0.19735797  0.51840899  0.39471595  1
  Ag  Ag3  1  0.32750394  0.97860598  0.65500791  1
  Ag  Ag4  1  0.81897696  0.49969299  0.63795394  1
  Ag  Ag5  1  0.68660999  0.03038400  0.37321998  1
  S  S6  1  0.37202796  0.69940999  0.74405593  1
  S  S7  1  0.85279798  0.19008400  0.70559596  1
  S  S8  1  0.62983697  0.30156800  0.25967397  1
  S  S9  1  0.13326296  0.79536699  0.26652594  1
