# generated using pymatgen
data_LuCoGe2
_symmetry_space_group_name_H-M   'P 1'
_cell_length_a   3.96139002
_cell_length_b   3.98472595
_cell_length_c   8.24808216
_cell_angle_alpha   103.97831726
_cell_angle_beta   90.00000000
_cell_angle_gamma   90.00000000
_symmetry_Int_Tables_number   1
_chemical_formula_structural   LuCoGe2
_chemical_formula_sum   'Lu2 Co2 Ge4'
_cell_volume   126.34093971
_cell_formula_units_Z   2
loop_
 _symmetry_equiv_pos_site_id
 _symmetry_equiv_pos_as_xyz
  1  'x, y, z'
loop_
 _atom_site_type_symbol
 _atom_site_label
 _atom_site_symmetry_multiplicity
 _atom_site_fract_x
 _atom_site_fract_y
 _atom_site_fract_z
 _atom_site_occupancy
  Lu  Lu0  1  0.25000000  0.10624400  0.21248799  1
  Lu  Lu1  1  0.75000000  0.89375601  0.78751195  1
  Ge  Ge2  1  0.25000000  0.46027300  0.92054595  1
  Ge  Ge3  1  0.75000000  0.53972700  0.07945399  1
  Ge  Ge4  1  0.25000000  0.75028200  0.50056397  1
  Ge  Ge5  1  0.75000000  0.24971800  0.49943597  1
  Co  Co6  1  0.25000000  0.32073800  0.64147597  1
  Co  Co7  1  0.75000000  0.67926200  0.35852397  1
