# generated using pymatgen
data_MgInF6
_symmetry_space_group_name_H-M   'P 1'
_cell_length_a   5.10444546
_cell_length_b   5.10444546
_cell_length_c   5.42135382
_cell_angle_alpha   61.91556168
_cell_angle_beta   61.91556168
_cell_angle_gamma   60.00000381
_symmetry_Int_Tables_number   1
_chemical_formula_structural   MgInF6
_chemical_formula_sum   'Mg1 In1 F6'
_cell_volume   102.67752685
_cell_formula_units_Z   1
loop_
 _symmetry_equiv_pos_site_id
 _symmetry_equiv_pos_as_xyz
  1  'x, y, z'
loop_
 _atom_site_type_symbol
 _atom_site_label
 _atom_site_symmetry_multiplicity
 _atom_site_fract_x
 _atom_site_fract_y
 _atom_site_fract_z
 _atom_site_occupancy
  Mg  Mg0  1  0.50000002  0.50000002  0.49999997  1
  In  In1  1  0.00000000  0.00000000  0.00000000  1
  F  F2  1  0.38069502  0.10938001  0.75268397  1
  F  F3  1  0.10938000  0.75724104  0.75268397  1
  F  F4  1  0.24275901  0.61930503  0.24731598  1
  F  F5  1  0.89062004  0.24275901  0.24731597  1
  F  F6  1  0.61930502  0.89062004  0.24731597  1
  F  F7  1  0.75724103  0.38069502  0.75268396  1
