# generated using pymatgen
data_Ho
_symmetry_space_group_name_H-M   'P 1'
_cell_length_a   5.65738487
_cell_length_b   7.18798590
_cell_length_c   7.18798542
_cell_angle_alpha   120.00000000
_cell_angle_beta   90.00000000
_cell_angle_gamma   90.00000000
_symmetry_Int_Tables_number   1
_chemical_formula_structural   Ho
_chemical_formula_sum   Ho8
_cell_volume   253.13999105
_cell_formula_units_Z   8
loop_
 _symmetry_equiv_pos_site_id
 _symmetry_equiv_pos_as_xyz
  1  'x, y, z'
loop_
 _atom_site_type_symbol
 _atom_site_label
 _atom_site_symmetry_multiplicity
 _atom_site_fract_x
 _atom_site_fract_y
 _atom_site_fract_z
 _atom_site_occupancy
  Ho  Ho0  1  0.75000002  0.33333333  0.66666667  1
  Ho  Ho1  1  0.25000001  0.66666666  0.33333332  1
  Ho  Ho2  1  0.25000001  0.16471000  0.32942000  1
  Ho  Ho3  1  0.25000001  0.67057900  0.83528899  1
  Ho  Ho4  1  0.25000001  0.16471000  0.83528901  1
  Ho  Ho5  1  0.75000002  0.83529000  0.67057998  1
  Ho  Ho6  1  0.75000002  0.32942100  0.16471099  1
  Ho  Ho7  1  0.75000002  0.83529000  0.16471097  1
