# generated using pymatgen
data_TbGa2
_symmetry_space_group_name_H-M   'P 1'
_cell_length_a   4.57988119
_cell_length_b   7.41680717
_cell_length_c   7.60321808
_cell_angle_alpha   90.00000000
_cell_angle_beta   90.00000000
_cell_angle_gamma   90.00000000
_symmetry_Int_Tables_number   1
_chemical_formula_structural   TbGa2
_chemical_formula_sum   'Tb4 Ga8'
_cell_volume   258.26683916
_cell_formula_units_Z   4
loop_
 _symmetry_equiv_pos_site_id
 _symmetry_equiv_pos_as_xyz
  1  'x, y, z'
loop_
 _atom_site_type_symbol
 _atom_site_label
 _atom_site_symmetry_multiplicity
 _atom_site_fract_x
 _atom_site_fract_y
 _atom_site_fract_z
 _atom_site_occupancy
  Tb  Tb0  1  0.74999997  0.47746699  0.20177900  1
  Tb  Tb1  1  0.74999997  0.97746698  0.29822100  1
  Tb  Tb2  1  0.24999999  0.52253299  0.79822099  1
  Tb  Tb3  1  0.24999999  0.02253300  0.70177899  1
  Ga  Ga4  1  0.74999997  0.19450700  0.92425199  1
  Ga  Ga5  1  0.74999997  0.69450698  0.57574799  1
  Ga  Ga6  1  0.24999999  0.80549298  0.07574800  1
  Ga  Ga7  1  0.24999999  0.30549299  0.42425200  1
  Ga  Ga8  1  0.74999997  0.30922199  0.59400799  1
  Ga  Ga9  1  0.74999997  0.80922198  0.90599199  1
  Ga  Ga10  1  0.24999999  0.69077798  0.40599200  1
  Ga  Ga11  1  0.24999999  0.19077800  0.09400800  1
