# generated using pymatgen
data_Ba2MoO4
_symmetry_space_group_name_H-M   'P 1'
_cell_length_a   4.22117376
_cell_length_b   4.22117376
_cell_length_c   7.54148912
_cell_angle_alpha   106.25205231
_cell_angle_beta   106.25205231
_cell_angle_gamma   90.00000000
_symmetry_Int_Tables_number   1
_chemical_formula_structural   Ba2MoO4
_chemical_formula_sum   'Ba2 Mo1 O4'
_cell_volume   123.40372067
_cell_formula_units_Z   1
loop_
 _symmetry_equiv_pos_site_id
 _symmetry_equiv_pos_as_xyz
  1  'x, y, z'
loop_
 _atom_site_type_symbol
 _atom_site_label
 _atom_site_symmetry_multiplicity
 _atom_site_fract_x
 _atom_site_fract_y
 _atom_site_fract_z
 _atom_site_occupancy
  Ba  Ba0  1  0.35480301  0.35480302  0.70960600  1
  Ba  Ba1  1  0.64519702  0.64519703  0.29039399  1
  Mo  Mo2  1  0.00000000  0.00000000  0.00000000  1
  O  O3  1  0.14717801  0.14717801  0.29435600  1
  O  O4  1  0.85282203  0.85282204  0.70564399  1
  O  O5  1  0.50000002  0.00000000  -0.00000001  1
  O  O6  1  -0.00000001  0.50000002  -0.00000001  1
