# generated using pymatgen
data_Ho2SiGe2
_symmetry_space_group_name_H-M   'P 1'
_cell_length_a   4.32867193
_cell_length_b   4.32867289
_cell_length_c   12.98968124
_cell_angle_alpha   90.00000000
_cell_angle_beta   90.00000000
_cell_angle_gamma   119.99999237
_symmetry_Int_Tables_number   1
_chemical_formula_structural   Ho2SiGe2
_chemical_formula_sum   'Ho4 Si2 Ge4'
_cell_volume   210.78446457
_cell_formula_units_Z   2
loop_
 _symmetry_equiv_pos_site_id
 _symmetry_equiv_pos_as_xyz
  1  'x, y, z'
loop_
 _atom_site_type_symbol
 _atom_site_label
 _atom_site_symmetry_multiplicity
 _atom_site_fract_x
 _atom_site_fract_y
 _atom_site_fract_z
 _atom_site_occupancy
  Ho  Ho0  1  0.33333333  0.66666667  0.37898599  1
  Ge  Ge1  1  0.66666667  0.33333334  0.87898598  1
  Ho  Ho2  1  0.33333333  0.66666667  0.65584599  1
  Ho  Ho3  1  0.66666667  0.33333334  0.15584600  1
  Ho  Ho4  1  0.00000000  0.00000000  0.99012598  1
  Ge  Ge5  1  0.00000000  0.00000000  0.49012599  1
  Ge  Ge6  1  0.33333333  0.66666667  0.01411100  1
  Si  Si7  1  0.66666667  0.33333334  0.51411099  1
  Si  Si8  1  0.00000000  0.00000000  0.27659999  1
  Ge  Ge9  1  0.00000000  0.00000000  0.77659999  1
