# generated using pymatgen
data_Ba2La3(BiO4)3
_symmetry_space_group_name_H-M   'P 1'
_cell_length_a   6.02730179
_cell_length_b   6.13530111
_cell_length_c   8.62200642
_cell_angle_alpha   90.32065582
_cell_angle_beta   89.68640137
_cell_angle_gamma   89.91183472
_symmetry_Int_Tables_number   1
_chemical_formula_structural   Ba2La3(BiO4)3
_chemical_formula_sum   'Ba2 La3 Bi3 O12'
_cell_volume   318.82569851
_cell_formula_units_Z   1
loop_
 _symmetry_equiv_pos_site_id
 _symmetry_equiv_pos_as_xyz
  1  'x, y, z'
loop_
 _atom_site_type_symbol
 _atom_site_label
 _atom_site_symmetry_multiplicity
 _atom_site_fract_x
 _atom_site_fract_y
 _atom_site_fract_z
 _atom_site_occupancy
  Ba  Ba0  1  0.99393646  0.03942922  0.25066289  1
  Ba  Ba1  1  0.00606347  0.96057079  0.74933708  1
  La  La2  1  0.51102390  0.54732658  0.25195308  1
  La  La3  1  0.48897603  0.45267342  0.74804689  1
  La  La4  1  0.50000000  0.00000000  -0.00000001  1
  Bi  Bi5  1  -0.00000003  0.50000000  0.50000000  1
  Bi  Bi6  1  -0.00000003  0.50000000  0.00000002  1
  Bi  Bi7  1  0.50000000  0.00000000  0.49999996  1
  O  O8  1  0.19920030  0.21872968  0.95415941  1
  O  O9  1  0.31462416  0.70817561  0.55841226  1
  O  O10  1  0.80079964  0.78127033  0.04584057  1
  O  O11  1  0.68537578  0.29182440  0.44158772  1
  O  O12  1  0.28886380  0.68934863  0.93562905  1
  O  O13  1  0.21679256  0.20360769  0.53920399  1
  O  O14  1  0.71113614  0.31065138  0.06437093  1
  O  O15  1  0.78320738  0.79639232  0.46079599  1
  O  O16  1  0.42729217  0.93646262  0.25953995  1
  O  O17  1  0.11950091  0.48949758  0.23831172  1
  O  O18  1  0.57270776  0.06353739  0.74046002  1
  O  O19  1  0.88049902  0.51050242  0.76168826  1
