# generated using pymatgen
data_BaLi2N2
_symmetry_space_group_name_H-M   'P 1'
_cell_length_a   5.58801508
_cell_length_b   5.58801508
_cell_length_c   5.93212700
_cell_angle_alpha   109.29515076
_cell_angle_beta   109.29515076
_cell_angle_gamma   107.36359406
_symmetry_Int_Tables_number   1
_chemical_formula_structural   BaLi2N2
_chemical_formula_sum   'Ba2 Li4 N4'
_cell_volume   146.72202137
_cell_formula_units_Z   2
loop_
 _symmetry_equiv_pos_site_id
 _symmetry_equiv_pos_as_xyz
  1  'x, y, z'
loop_
 _atom_site_type_symbol
 _atom_site_label
 _atom_site_symmetry_multiplicity
 _atom_site_fract_x
 _atom_site_fract_y
 _atom_site_fract_z
 _atom_site_occupancy
  Ba  Ba0  1  0.00000000  0.00000000  0.00000000  1
  Ba  Ba1  1  0.24999998  0.74999997  0.50000000  1
  N  N2  1  0.31369498  0.68630497  0.00000000  1
  N  N3  1  0.68630497  0.31369499  0.00000001  1
  N  N4  1  0.56369497  0.43630498  0.50000000  1
  N  N5  1  0.93630496  0.06369500  0.50000000  1
  Li  Li6  1  0.63798396  0.63798397  0.27596800  1
  Li  Li7  1  0.36201598  0.36201598  0.72403200  1
  Li  Li8  1  0.61201597  0.11201599  0.22403200  1
  Li  Li9  1  0.88798396  0.38798398  0.77596800  1
