# generated using pymatgen
data_Ga5MoSe8
_symmetry_space_group_name_H-M   'P 1'
_cell_length_a   7.46340418
_cell_length_b   7.46482515
_cell_length_c   7.46624231
_cell_angle_alpha   60.46105957
_cell_angle_beta   60.46273804
_cell_angle_gamma   60.54315186
_symmetry_Int_Tables_number   1
_chemical_formula_structural   Ga5MoSe8
_chemical_formula_sum   'Ga5 Mo1 Se8'
_cell_volume   297.38324746
_cell_formula_units_Z   1
loop_
 _symmetry_equiv_pos_site_id
 _symmetry_equiv_pos_as_xyz
  1  'x, y, z'
loop_
 _atom_site_type_symbol
 _atom_site_label
 _atom_site_symmetry_multiplicity
 _atom_site_fract_x
 _atom_site_fract_y
 _atom_site_fract_z
 _atom_site_occupancy
  Ga  Ga0  1  0.37520904  0.87509402  0.87522798  1
  Ga  Ga1  1  0.62478203  0.12491700  0.12476998  1
  Mo  Mo2  1  0.50000804  0.50001101  0.49998598  1
  Se  Se3  1  0.00000901  0.49999201  -0.00000001  1
  Ga  Ga4  1  0.99999007  0.99998103  0.50001695  1
  Ga  Ga5  1  0.99999806  0.50000001  0.50000396  1
  Se  Se6  1  0.77633405  0.73526902  0.73519997  1
  Se  Se7  1  0.76511304  0.26496601  0.72347398  1
  Se  Se8  1  0.75760004  0.25784001  0.25783497  1
  Se  Se9  1  0.76507105  0.72353902  0.26497896  1
  Se  Se10  1  0.24242703  0.74215202  0.74214999  1
  Se  Se11  1  0.23493502  0.27646501  0.73501700  1
  Ga  Ga12  1  0.22365502  0.26472701  0.26482099  1
  Se  Se13  1  0.23486903  0.73505102  0.27652098  1
