# generated using pymatgen
data_Cs2F3
_symmetry_space_group_name_H-M   'P 1'
_cell_length_a   4.30935812
_cell_length_b   7.52728271
_cell_length_c   10.85699081
_cell_angle_alpha   90.00000000
_cell_angle_beta   90.00000000
_cell_angle_gamma   106.63353729
_symmetry_Int_Tables_number   1
_chemical_formula_structural   Cs2F3
_chemical_formula_sum   'Cs4 F6'
_cell_volume   337.43967162
_cell_formula_units_Z   2
loop_
 _symmetry_equiv_pos_site_id
 _symmetry_equiv_pos_as_xyz
  1  'x, y, z'
loop_
 _atom_site_type_symbol
 _atom_site_label
 _atom_site_symmetry_multiplicity
 _atom_site_fract_x
 _atom_site_fract_y
 _atom_site_fract_z
 _atom_site_occupancy
  Cs  Cs0  1  0.25613301  0.51226600  0.25000000  1
  Cs  Cs1  1  0.74386699  0.48773400  0.75000001  1
  Cs  Cs2  1  0.00000000  0.00000000  0.50000001  1
  Cs  Cs3  1  0.00000000  0.00000000  0.00000000  1
  F  F4  1  0.36820701  0.73641400  0.55535501  1
  F  F5  1  0.63179299  0.26358600  0.05535500  1
  F  F6  1  0.36820701  0.73641400  0.94464502  1
  F  F7  1  0.63179299  0.26358600  0.44464501  1
  F  F8  1  0.92926300  0.85852600  0.25000000  1
  F  F9  1  0.07073700  0.14147400  0.75000001  1
