# generated using pymatgen
data_HoCo4Pb
_symmetry_space_group_name_H-M   'P 1'
_cell_length_a   5.10811090
_cell_length_b   5.10811090
_cell_length_c   5.10811090
_cell_angle_alpha   60.00000000
_cell_angle_beta   60.00000000
_cell_angle_gamma   60.00000000
_symmetry_Int_Tables_number   1
_chemical_formula_structural   HoCo4Pb
_chemical_formula_sum   'Ho1 Co4 Pb1'
_cell_volume   94.24665730
_cell_formula_units_Z   1
loop_
 _symmetry_equiv_pos_site_id
 _symmetry_equiv_pos_as_xyz
  1  'x, y, z'
loop_
 _atom_site_type_symbol
 _atom_site_label
 _atom_site_symmetry_multiplicity
 _atom_site_fract_x
 _atom_site_fract_y
 _atom_site_fract_z
 _atom_site_occupancy
  Ho  Ho0  1  0.25000001  0.25000001  0.25000001  1
  Pb  Pb1  1  0.00000000  0.00000000  0.00000000  1
  Co  Co2  1  0.62617402  0.62617302  0.62617302  1
  Co  Co3  1  0.62617402  0.12148000  0.62617302  1
  Co  Co4  1  0.62617402  0.62617302  0.12148000  1
  Co  Co5  1  0.12148100  0.62617302  0.62617302  1
