# generated using pymatgen
data_Ba(VS2)2
_symmetry_space_group_name_H-M   'P 1'
_cell_length_a   3.51096797
_cell_length_b   5.91566515
_cell_length_c   7.63699484
_cell_angle_alpha   89.67741394
_cell_angle_beta   90.00000000
_cell_angle_gamma   90.00000000
_symmetry_Int_Tables_number   1
_chemical_formula_structural   Ba(VS2)2
_chemical_formula_sum   'Ba1 V2 S4'
_cell_volume   158.61566063
_cell_formula_units_Z   1
loop_
 _symmetry_equiv_pos_site_id
 _symmetry_equiv_pos_as_xyz
  1  'x, y, z'
loop_
 _atom_site_type_symbol
 _atom_site_label
 _atom_site_symmetry_multiplicity
 _atom_site_fract_x
 _atom_site_fract_y
 _atom_site_fract_z
 _atom_site_occupancy
  Ba  Ba0  1  0.00000000  0.49999999  0.00000003  1
  V  V1  1  0.50000000  0.00000000  0.50000001  1
  V  V2  1  0.00000000  0.49999999  0.50000004  1
  S  S3  1  0.00000000  0.83700098  0.32668205  1
  S  S4  1  0.50000000  0.33581499  0.32642203  1
  S  S5  1  0.50000000  0.66418498  0.67357805  1
  S  S6  1  0.00000000  0.16299900  0.67331803  1
