# generated using pymatgen
data_Li3VF8
_symmetry_space_group_name_H-M   'P 1'
_cell_length_a   3.77196407
_cell_length_b   6.35694981
_cell_length_c   6.46274233
_cell_angle_alpha   106.13574982
_cell_angle_beta   90.00000000
_cell_angle_gamma   107.25832367
_symmetry_Int_Tables_number   1
_chemical_formula_structural   Li3VF8
_chemical_formula_sum   'Li3 V1 F8'
_cell_volume   141.58262775
_cell_formula_units_Z   1
loop_
 _symmetry_equiv_pos_site_id
 _symmetry_equiv_pos_as_xyz
  1  'x, y, z'
loop_
 _atom_site_type_symbol
 _atom_site_label
 _atom_site_symmetry_multiplicity
 _atom_site_fract_x
 _atom_site_fract_y
 _atom_site_fract_z
 _atom_site_occupancy
  Li  Li0  1  0.39965897  0.79931801  0.28191300  1
  Li  Li1  1  0.60044198  0.20088400  0.72407500  1
  V  V2  1  0.29443098  0.58886201  0.69892000  1
  Li  Li3  1  0.70454697  0.40909401  0.30724700  1
  F  F4  1  0.13160699  0.26321400  0.68978000  1
  F  F5  1  0.25122198  0.50244401  0.37176300  1
  F  F6  1  0.35803797  0.71607601  0.98913400  1
  F  F7  1  0.44811696  0.89623401  0.64119300  1
  F  F8  1  0.54671899  0.09343800  0.35210600  1
  F  F9  1  0.63392098  0.26784200  0.98974200  1
  F  F10  1  0.75609697  0.51219401  0.66189800  1
  F  F11  1  0.87519896  0.75039801  0.29222900  1
