# generated using pymatgen
data_P9S
_symmetry_space_group_name_H-M   'P 1'
_cell_length_a   3.22046399
_cell_length_b   6.48896885
_cell_length_c   6.48896885
_cell_angle_alpha   103.21610260
_cell_angle_beta   90.00000000
_cell_angle_gamma   90.00000000
_symmetry_Int_Tables_number   1
_chemical_formula_structural   P9S
_chemical_formula_sum   'P9 S1'
_cell_volume   132.01167286
_cell_formula_units_Z   1
loop_
 _symmetry_equiv_pos_site_id
 _symmetry_equiv_pos_as_xyz
  1  'x, y, z'
loop_
 _atom_site_type_symbol
 _atom_site_label
 _atom_site_symmetry_multiplicity
 _atom_site_fract_x
 _atom_site_fract_y
 _atom_site_fract_z
 _atom_site_occupancy
  P  P0  1  0.50000000  0.50000001  -0.00000002  1
  P  P1  1  0.50000000  0.00000000  0.50000002  1
  P  P2  1  0.00000000  0.00000000  0.00000000  1
  P  P3  1  1.00000000  0.50000001  0.50000000  1
  S  S4  1  1.00000000  0.31286201  0.03574099  1
  P  P5  1  -0.00000000  0.03574100  0.31286201  1
  P  P6  1  0.50000000  0.63624602  0.36375399  1
  P  P7  1  0.50000000  0.36375401  0.63624601  1
  P  P8  1  1.00000000  0.68713802  0.96425901  1
  P  P9  1  1.00000000  0.96425902  0.68713799  1
