# generated using pymatgen
data_Ga3Co
_symmetry_space_group_name_H-M   'P 1'
_cell_length_a   3.50457621
_cell_length_b   3.50457621
_cell_length_c   6.31470823
_cell_angle_alpha   73.88935852
_cell_angle_beta   73.88935852
_cell_angle_gamma   59.99999237
_symmetry_Int_Tables_number   1
_chemical_formula_structural   Ga3Co
_chemical_formula_sum   'Ga3 Co1'
_cell_volume   63.62547331
_cell_formula_units_Z   1
loop_
 _symmetry_equiv_pos_site_id
 _symmetry_equiv_pos_as_xyz
  1  'x, y, z'
loop_
 _atom_site_type_symbol
 _atom_site_label
 _atom_site_symmetry_multiplicity
 _atom_site_fract_x
 _atom_site_fract_y
 _atom_site_fract_z
 _atom_site_occupancy
  Ga  Ga0  1  0.00000000  0.00000000  0.00000000  1
  Co  Co1  1  0.50000002  0.50000003  0.49999998  1
  Ga  Ga2  1  0.24328701  0.24328701  0.27013899  1
  Ga  Ga3  1  0.75671302  0.75671304  0.72986097  1
