# generated using pymatgen
data_Nd7Au5
_symmetry_space_group_name_H-M   'P 1'
_cell_length_a   5.00080109
_cell_length_b   7.30213213
_cell_length_c   9.49965096
_cell_angle_alpha   90.00000000
_cell_angle_beta   90.00000000
_cell_angle_gamma   90.00000000
_symmetry_Int_Tables_number   1
_chemical_formula_structural   Nd7Au5
_chemical_formula_sum   'Nd7 Au5'
_cell_volume   346.89410183
_cell_formula_units_Z   1
loop_
 _symmetry_equiv_pos_site_id
 _symmetry_equiv_pos_as_xyz
  1  'x, y, z'
loop_
 _atom_site_type_symbol
 _atom_site_label
 _atom_site_symmetry_multiplicity
 _atom_site_fract_x
 _atom_site_fract_y
 _atom_site_fract_z
 _atom_site_occupancy
  Au  Au0  1  0.25000000  0.74416799  0.87260900  1
  Au  Au1  1  0.74999999  0.25583200  0.12739100  1
  Au  Au2  1  0.74999999  0.75583199  0.37260900  1
  Au  Au3  1  0.25000000  0.24416800  0.62739100  1
  Nd  Nd4  1  0.25000000  0.67947799  0.55506400  1
  Nd  Nd5  1  0.74999999  0.32052199  0.44493600  1
  Nd  Nd6  1  0.74999999  0.82052199  0.05506400  1
  Au  Au7  1  0.25000000  0.17947800  0.94493600  1
  Nd  Nd8  1  0.25000000  0.54194999  0.18046600  1
  Nd  Nd9  1  0.74999999  0.45804999  0.81953400  1
  Nd  Nd10  1  0.74999999  0.95804998  0.68046600  1
  Nd  Nd11  1  0.25000000  0.04195000  0.31953400  1
