# generated using pymatgen
data_Tb4MgGa7
_symmetry_space_group_name_H-M   'P 1'
_cell_length_a   4.46406317
_cell_length_b   7.46380901
_cell_length_c   7.98372316
_cell_angle_alpha   90.00000000
_cell_angle_beta   90.00000000
_cell_angle_gamma   90.00000000
_symmetry_Int_Tables_number   1
_chemical_formula_structural   Tb4MgGa7
_chemical_formula_sum   'Tb4 Mg1 Ga7'
_cell_volume   266.00899272
_cell_formula_units_Z   1
loop_
 _symmetry_equiv_pos_site_id
 _symmetry_equiv_pos_as_xyz
  1  'x, y, z'
loop_
 _atom_site_type_symbol
 _atom_site_label
 _atom_site_symmetry_multiplicity
 _atom_site_fract_x
 _atom_site_fract_y
 _atom_site_fract_z
 _atom_site_occupancy
  Mg  Mg0  1  0.24999999  0.15713100  0.92886998  1
  Ga  Ga1  1  0.24999999  0.65713100  0.57112999  1
  Ga  Ga2  1  0.74999997  0.84286900  0.07113000  1
  Ga  Ga3  1  0.74999997  0.34286900  0.42886999  1
  Tb  Tb4  1  0.24999999  0.00864500  0.29593199  1
  Tb  Tb5  1  0.24999999  0.50864500  0.20406800  1
  Tb  Tb6  1  0.74999997  0.99135500  0.70406799  1
  Tb  Tb7  1  0.74999997  0.49135500  0.79593198  1
  Ga  Ga8  1  0.24999999  0.27468200  0.59590899  1
  Ga  Ga9  1  0.24999999  0.77468200  0.90409098  1
  Ga  Ga10  1  0.74999997  0.72531800  0.40409099  1
  Ga  Ga11  1  0.74999997  0.22531800  0.09590900  1
