# generated using pymatgen
data_Nd2B3Ir5
_symmetry_space_group_name_H-M   'P 1'
_cell_length_a   5.50696135
_cell_length_b   5.50696135
_cell_length_c   6.15978909
_cell_angle_alpha   104.77747345
_cell_angle_beta   104.77747345
_cell_angle_gamma   115.42916107
_symmetry_Int_Tables_number   1
_chemical_formula_structural   Nd2B3Ir5
_chemical_formula_sum   'Nd2 B3 Ir5'
_cell_volume   148.22899135
_cell_formula_units_Z   1
loop_
 _symmetry_equiv_pos_site_id
 _symmetry_equiv_pos_as_xyz
  1  'x, y, z'
loop_
 _atom_site_type_symbol
 _atom_site_label
 _atom_site_symmetry_multiplicity
 _atom_site_fract_x
 _atom_site_fract_y
 _atom_site_fract_z
 _atom_site_occupancy
  Nd  Nd0  1  0.75000001  0.25000000  0.50000005  1
  Nd  Nd1  1  0.50000000  0.50000001  0.00000004  1
  B  B2  1  0.06849300  0.93150701  0.50000005  1
  Ir  Ir3  1  0.81849301  0.18150700  0.00000004  1
  B  B4  1  0.43150700  0.56849301  0.50000005  1
  B  B5  1  0.18150700  0.81849301  0.00000004  1
  Ir  Ir6  1  0.37802500  0.87802501  0.75605007  1
  Ir  Ir7  1  0.12802500  0.12802500  0.25605002  1
  Ir  Ir8  1  0.87197501  0.87197501  0.74395009  1
  Ir  Ir9  1  0.12197500  0.62197501  0.24395003  1
