# generated using pymatgen
data_Na3Mn5O7F5
_symmetry_space_group_name_H-M   'P 1'
_cell_length_a   5.09163761
_cell_length_b   5.09163761
_cell_length_c   8.76117897
_cell_angle_alpha   90.00000000
_cell_angle_beta   90.00000000
_cell_angle_gamma   93.22138977
_symmetry_Int_Tables_number   1
_chemical_formula_structural   Na3Mn5O7F5
_chemical_formula_sum   'Na3 Mn5 O7 F5'
_cell_volume   226.77268019
_cell_formula_units_Z   1
loop_
 _symmetry_equiv_pos_site_id
 _symmetry_equiv_pos_as_xyz
  1  'x, y, z'
loop_
 _atom_site_type_symbol
 _atom_site_label
 _atom_site_symmetry_multiplicity
 _atom_site_fract_x
 _atom_site_fract_y
 _atom_site_fract_z
 _atom_site_occupancy
  Mn  Mn0  1  0.52761901  0.04434700  0.50000000  1
  Mn  Mn1  1  0.95565300  0.47238101  0.50000000  1
  Mn  Mn2  1  0.48147099  0.51852901  0.50000000  1
  Na  Na3  1  0.01804596  0.98195402  -0.00000000  1
  Mn  Mn4  1  0.49108899  0.50891101  0.16797500  1
  Mn  Mn5  1  0.49108899  0.50891101  0.83202500  1
  Na  Na6  1  0.00764296  0.99235702  0.31612000  1
  Na  Na7  1  0.00764296  0.99235702  0.68388000  1
  O  O8  1  0.18802700  0.18863900  0.50000000  1
  F  F9  1  0.19411100  0.19745800  0.16933900  1
  F  F10  1  0.19411100  0.19745800  0.83066100  1
  O  O11  1  0.67878500  0.32121500  0.64954600  1
  O  O12  1  0.67878500  0.32121500  0.35045400  1
  O  O13  1  0.65894700  0.34105301  -0.00000000  1
  F  F14  1  0.31041298  0.68958701  -0.00000000  1
  O  O15  1  0.31203298  0.68796701  0.65914500  1
  O  O16  1  0.31203298  0.68796701  0.34085500  1
  F  F17  1  0.80254198  0.80588901  0.83066100  1
  F  F18  1  0.80254198  0.80588901  0.16933900  1
  O  O19  1  0.81136098  0.81197301  0.50000000  1
