# generated using pymatgen
data_Pr6GeIrI6
_symmetry_space_group_name_H-M   'P 1'
_cell_length_a   4.28271294
_cell_length_b   8.91248035
_cell_length_c   12.35048103
_cell_angle_alpha   93.58238220
_cell_angle_beta   90.00000000
_cell_angle_gamma   90.00000000
_symmetry_Int_Tables_number   1
_chemical_formula_structural   Pr6GeIrI6
_chemical_formula_sum   'Pr6 Ge1 Ir1 I6'
_cell_volume   470.49171188
_cell_formula_units_Z   1
loop_
 _symmetry_equiv_pos_site_id
 _symmetry_equiv_pos_as_xyz
  1  'x, y, z'
loop_
 _atom_site_type_symbol
 _atom_site_label
 _atom_site_symmetry_multiplicity
 _atom_site_fract_x
 _atom_site_fract_y
 _atom_site_fract_z
 _atom_site_occupancy
  Pr  Pr0  1  0.25000000  0.85852397  0.12983900  1
  Pr  Pr1  1  0.75000001  0.14147599  0.87016100  1
  Pr  Pr2  1  0.25000000  0.90347896  0.68424999  1
  Pr  Pr3  1  0.75000001  0.09652100  0.31575000  1
  Pr  Pr4  1  0.75000001  0.74982997  0.90058199  1
  Pr  Pr5  1  0.25000000  0.25016999  0.09941800  1
  Ir  Ir6  1  0.25000000  0.95076496  0.90744699  1
  Ge  Ge7  1  0.75000001  0.04923500  0.09255300  1
  I  I8  1  0.75000001  0.57255998  0.13295100  1
  I  I9  1  0.25000000  0.42743998  0.86704899  1
  I  I10  1  0.75000001  0.65123897  0.63876100  1
  I  I11  1  0.25000000  0.34876099  0.36123900  1
  I  I12  1  0.25000000  0.85881297  0.39411500  1
  I  I13  1  0.75000001  0.14118699  0.60588500  1
