# generated using pymatgen
data_MgO
_symmetry_space_group_name_H-M   'P 1'
_cell_length_a   5.27902269
_cell_length_b   5.27905083
_cell_length_c   6.32666016
_cell_angle_alpha   91.83670807
_cell_angle_beta   91.83550262
_cell_angle_gamma   106.67390442
_symmetry_Int_Tables_number   1
_chemical_formula_structural   MgO
_chemical_formula_sum   'Mg8 O8'
_cell_volume   168.65610210
_cell_formula_units_Z   8
loop_
 _symmetry_equiv_pos_site_id
 _symmetry_equiv_pos_as_xyz
  1  'x, y, z'
loop_
 _atom_site_type_symbol
 _atom_site_label
 _atom_site_symmetry_multiplicity
 _atom_site_fract_x
 _atom_site_fract_y
 _atom_site_fract_z
 _atom_site_occupancy
  Mg  Mg0  1  0.49999993  0.99999902  0.75000006  1
  Mg  Mg1  1  0.49999993  0.99999802  0.25000005  1
  Mg  Mg2  1  0.00000197  0.50000001  0.25000002  1
  Mg  Mg3  1  0.00000297  0.50000001  0.75000204  1
  Mg  Mg4  1  0.99342992  0.99989902  0.00377605  1
  Mg  Mg5  1  0.00656700  0.00009600  0.49622502  1
  Mg  Mg6  1  0.50009796  0.50656501  0.49622704  1
  Mg  Mg7  1  0.49990596  0.49344001  0.00377102  1
  O  O8  1  0.22653995  0.72654402  0.97822506  1
  O  O9  1  0.25394395  0.75394302  0.50071104  1
  O  O10  1  0.77345697  0.27345701  0.52177504  1
  O  O11  1  0.74605697  0.24605501  0.99928905  1
  O  O12  1  0.23580298  0.26419701  0.75000504  1
  O  O13  1  0.25751798  0.24248401  0.25000302  1
  O  O14  1  0.76419494  0.73580402  0.74999506  1
  O  O15  1  0.74248094  0.75751702  0.24999604  1
