# generated using pymatgen
data_HoGa2
_symmetry_space_group_name_H-M   'P 1'
_cell_length_a   4.51325798
_cell_length_b   5.68878889
_cell_length_c   5.78345251
_cell_angle_alpha   76.36726379
_cell_angle_beta   67.03385162
_cell_angle_gamma   66.62920380
_symmetry_Int_Tables_number   1
_chemical_formula_structural   HoGa2
_chemical_formula_sum   'Ho2 Ga4'
_cell_volume   124.92657657
_cell_formula_units_Z   2
loop_
 _symmetry_equiv_pos_site_id
 _symmetry_equiv_pos_as_xyz
  1  'x, y, z'
loop_
 _atom_site_type_symbol
 _atom_site_label
 _atom_site_symmetry_multiplicity
 _atom_site_fract_x
 _atom_site_fract_y
 _atom_site_fract_z
 _atom_site_occupancy
  Ho  Ho0  1  0.53734701  0.22146399  0.70384202  1
  Ho  Ho1  1  0.46265299  0.77853596  0.29615805  1
  Ga  Ga2  1  0.84111401  0.20888099  0.10889099  1
  Ga  Ga3  1  0.15888598  0.79111896  0.89110908  1
  Ga  Ga4  1  0.17724899  0.36428698  0.28121503  1
  Ga  Ga5  1  0.82275100  0.63571297  0.71878504  1
