# generated using pymatgen
data_MgZn2Cd4PN6
_symmetry_space_group_name_H-M   'P 1'
_cell_length_a   3.21922302
_cell_length_b   7.81242418
_cell_length_c   7.89308405
_cell_angle_alpha   119.66252899
_cell_angle_beta   90.00000000
_cell_angle_gamma   90.00000000
_symmetry_Int_Tables_number   1
_chemical_formula_structural   MgZn2Cd4PN6
_chemical_formula_sum   'Mg1 Zn2 Cd4 P1 N6'
_cell_volume   172.49681153
_cell_formula_units_Z   1
loop_
 _symmetry_equiv_pos_site_id
 _symmetry_equiv_pos_as_xyz
  1  'x, y, z'
loop_
 _atom_site_type_symbol
 _atom_site_label
 _atom_site_symmetry_multiplicity
 _atom_site_fract_x
 _atom_site_fract_y
 _atom_site_fract_z
 _atom_site_occupancy
  Mg  Mg0  1  0.50000000  0.91670800  0.25531105  1
  Cd  Cd1  1  0.50000000  0.66139700  0.74468905  1
  Cd  Cd2  1  0.00000000  0.50000000  0.00000002  1
  Cd  Cd3  1  0.50000000  0.08329200  0.74468902  1
  Cd  Cd4  1  0.50000000  0.33860300  0.25531102  1
  Zn  Zn5  1  0.00000000  0.28468200  0.56936403  1
  Zn  Zn6  1  0.00000000  0.71531800  0.43063605  1
  P  P7  1  0.00000000  0.00000000  0.00000000  1
  N  N8  1  0.00000000  0.00000000  0.50000001  1
  N  N9  1  0.00000000  0.50000000  0.50000004  1
  N  N10  1  -0.00000000  0.82651000  0.00000004  1
  N  N11  1  0.00000000  0.17349000  0.00000001  1
  N  N12  1  0.50000000  0.38122700  0.76245404  1
  N  N13  1  0.50000000  0.61877300  0.23754604  1
