# generated using pymatgen
data_BMo2
_symmetry_space_group_name_H-M   'P 1'
_cell_length_a   3.43058705
_cell_length_b   5.81119585
_cell_length_c   5.81119633
_cell_angle_alpha   120.00000000
_cell_angle_beta   90.00000000
_cell_angle_gamma   90.00000000
_symmetry_Int_Tables_number   1
_chemical_formula_structural   BMo2
_chemical_formula_sum   'B3 Mo6'
_cell_volume   100.32984387
_cell_formula_units_Z   3
loop_
 _symmetry_equiv_pos_site_id
 _symmetry_equiv_pos_as_xyz
  1  'x, y, z'
loop_
 _atom_site_type_symbol
 _atom_site_label
 _atom_site_symmetry_multiplicity
 _atom_site_fract_x
 _atom_site_fract_y
 _atom_site_fract_z
 _atom_site_occupancy
  Mo  Mo0  1  0.49999999  0.40846802  0.40846804  1
  Mo  Mo1  1  0.49999999  0.59153203  0.00000004  1
  Mo  Mo2  1  0.49999999  0.00000000  0.59153202  1
  Mo  Mo3  1  0.00000000  0.00000000  0.25655601  1
  Mo  Mo4  1  0.00000000  0.25655601  1.00000005  1
  Mo  Mo5  1  0.00000000  0.74344404  0.74344408  1
  B  B6  1  0.00000000  0.33333335  0.66666671  1
  B  B7  1  0.00000000  0.66666670  0.33333339  1
  B  B8  1  0.49999999  0.00000000  -0.00000000  1
