# generated using pymatgen
data_Mg
_symmetry_space_group_name_H-M   'P 1'
_cell_length_a   5.00461817
_cell_length_b   6.67731619
_cell_length_c   6.67731667
_cell_angle_alpha   120.00000000
_cell_angle_beta   90.00000000
_cell_angle_gamma   90.00000000
_symmetry_Int_Tables_number   1
_chemical_formula_structural   Mg
_chemical_formula_sum   Mg8
_cell_volume   193.24376678
_cell_formula_units_Z   8
loop_
 _symmetry_equiv_pos_site_id
 _symmetry_equiv_pos_as_xyz
  1  'x, y, z'
loop_
 _atom_site_type_symbol
 _atom_site_label
 _atom_site_symmetry_multiplicity
 _atom_site_fract_x
 _atom_site_fract_y
 _atom_site_fract_z
 _atom_site_occupancy
  Mg  Mg0  1  0.24999999  0.66666667  0.33333337  1
  Mg  Mg1  1  0.74999997  0.33333333  0.66666668  1
  Mg  Mg2  1  0.74999997  0.83362900  0.16637005  1
  Mg  Mg3  1  0.74999997  0.33274100  0.16637002  1
  Mg  Mg4  1  0.74999997  0.83362900  0.66725805  1
  Mg  Mg5  1  0.24999999  0.16637100  0.83363000  1
  Mg  Mg6  1  0.24999999  0.66725900  0.83363004  1
  Mg  Mg7  1  0.24999999  0.16637100  0.33274201  1
