# generated using pymatgen
data_SrPdF6
_symmetry_space_group_name_H-M   'P 1'
_cell_length_a   4.79317093
_cell_length_b   4.79317093
_cell_length_c   4.79317141
_cell_angle_alpha   98.32803345
_cell_angle_beta   98.32803345
_cell_angle_gamma   98.32802582
_symmetry_Int_Tables_number   1
_chemical_formula_structural   SrPdF6
_chemical_formula_sum   'Sr1 Pd1 F6'
_cell_volume   106.25283878
_cell_formula_units_Z   1
loop_
 _symmetry_equiv_pos_site_id
 _symmetry_equiv_pos_as_xyz
  1  'x, y, z'
loop_
 _atom_site_type_symbol
 _atom_site_label
 _atom_site_symmetry_multiplicity
 _atom_site_fract_x
 _atom_site_fract_y
 _atom_site_fract_z
 _atom_site_occupancy
  Sr  Sr0  1  0.49999999  0.50000001  0.50000002  1
  Pd  Pd1  1  0.00000000  0.00000000  0.00000000  1
  F  F2  1  0.27904799  0.27904801  0.92355203  1
  F  F3  1  0.27904796  0.92355202  0.27904800  1
  F  F4  1  0.72095202  0.07644800  0.72095203  1
  F  F5  1  0.72095198  0.72095201  0.07644800  1
  F  F6  1  0.07644796  0.72095201  0.72095202  1
  F  F7  1  0.92355201  0.27904801  0.27904801  1
