# generated using pymatgen
data_Co4Ge3
_symmetry_space_group_name_H-M   'P 1'
_cell_length_a   3.98860407
_cell_length_b   3.98860407
_cell_length_c   14.51939678
_cell_angle_alpha   97.89478302
_cell_angle_beta   97.89478302
_cell_angle_gamma   90.00000000
_symmetry_Int_Tables_number   1
_chemical_formula_structural   Co4Ge3
_chemical_formula_sum   'Co8 Ge6'
_cell_volume   226.58875464
_cell_formula_units_Z   2
loop_
 _symmetry_equiv_pos_site_id
 _symmetry_equiv_pos_as_xyz
  1  'x, y, z'
loop_
 _atom_site_type_symbol
 _atom_site_label
 _atom_site_symmetry_multiplicity
 _atom_site_fract_x
 _atom_site_fract_y
 _atom_site_fract_z
 _atom_site_occupancy
  Ge  Ge0  1  0.44325800  0.94325799  0.88651602  1
  Ge  Ge1  1  0.05674200  0.55674199  0.11348401  1
  Ge  Ge2  1  0.65153499  0.15153500  0.30307001  1
  Ge  Ge3  1  0.25000000  0.74999999  0.50000001  1
  Ge  Ge4  1  0.84846499  0.34846500  0.69693002  1
  Co  Co5  1  0.10630500  0.10630500  0.21261000  1
  Co  Co6  1  0.69865900  0.69865899  0.39731801  1
  Co  Co7  1  0.30134100  0.30134100  0.60268201  1
  Co  Co8  1  0.89369500  0.89369499  0.78739002  1
  Co  Co9  1  0.40228200  0.40228199  0.80456401  1
  Ge  Ge10  1  0.00000000  0.00000000  0.00000000  1
  Co  Co11  1  0.59771800  0.59771799  0.19543601  1
  Co  Co12  1  0.20277100  0.20277100  0.40554201  1
  Co  Co13  1  0.79722900  0.79722899  0.59445802  1
