# generated using pymatgen
data_NaMg(GeO3)2
_symmetry_space_group_name_H-M   'P 1'
_cell_length_a   5.68838310
_cell_length_b   6.69050026
_cell_length_c   6.69050455
_cell_angle_alpha   83.00778961
_cell_angle_beta   78.59494019
_cell_angle_gamma   78.59493256
_symmetry_Int_Tables_number   1
_chemical_formula_structural   NaMg(GeO3)2
_chemical_formula_sum   'Na2 Mg2 Ge4 O12'
_cell_volume   243.76508814
_cell_formula_units_Z   2
loop_
 _symmetry_equiv_pos_site_id
 _symmetry_equiv_pos_as_xyz
  1  'x, y, z'
loop_
 _atom_site_type_symbol
 _atom_site_label
 _atom_site_symmetry_multiplicity
 _atom_site_fract_x
 _atom_site_fract_y
 _atom_site_fract_z
 _atom_site_occupancy
  Na  Na0  1  0.75000000  0.80070199  0.19929802  1
  Na  Na1  1  0.25000000  0.19929800  0.80070199  1
  Mg  Mg2  1  0.75000100  0.40951900  0.59048200  1
  Mg  Mg3  1  0.25000100  0.59048399  0.40951601  1
  Ge  Ge4  1  0.74065400  0.30126300  0.11726201  1
  Ge  Ge5  1  0.75934600  0.88273799  0.69873701  1
  Ge  Ge6  1  0.25934600  0.69873599  0.88273700  1
  Ge  Ge7  1  0.24065400  0.11726200  0.30126300  1
  O  O8  1  0.65138500  0.47119100  0.31198201  1
  O  O9  1  0.84861500  0.68801899  0.52880901  1
  O  O10  1  0.34861500  0.52880900  0.68801800  1
  O  O11  1  0.15138600  0.31198200  0.47119100  1
  O  O12  1  0.51730500  0.14592200  0.12530300  1
  O  O13  1  0.98269500  0.87469699  0.85407801  1
  O  O14  1  0.48269500  0.85407799  0.87469700  1
  O  O15  1  0.01730500  0.12530300  0.14592200  1
  O  O16  1  0.68990200  0.13334200  0.58879799  1
  O  O17  1  0.81009800  0.41120300  0.86665799  1
  O  O18  1  0.31009800  0.86665799  0.41120302  1
  O  O19  1  0.18990100  0.58879699  0.13334201  1
