# generated using pymatgen
data_LuCo4B
_symmetry_space_group_name_H-M   'P 1'
_cell_length_a   4.92996788
_cell_length_b   4.92996740
_cell_length_c   6.94001102
_cell_angle_alpha   90.00000000
_cell_angle_beta   90.00000000
_cell_angle_gamma   120.00000000
_symmetry_Int_Tables_number   1
_chemical_formula_structural   LuCo4B
_chemical_formula_sum   'Lu2 Co8 B2'
_cell_volume   146.07602069
_cell_formula_units_Z   2
loop_
 _symmetry_equiv_pos_site_id
 _symmetry_equiv_pos_as_xyz
  1  'x, y, z'
loop_
 _atom_site_type_symbol
 _atom_site_label
 _atom_site_symmetry_multiplicity
 _atom_site_fract_x
 _atom_site_fract_y
 _atom_site_fract_z
 _atom_site_occupancy
  Lu  Lu0  1  0.00000000  0.00000000  0.50000000  1
  Lu  Lu1  1  0.00000000  0.00000000  0.00000000  1
  Co  Co2  1  -0.00000003  0.50000000  0.70852000  1
  Co  Co3  1  0.50000001  0.00000000  0.70852000  1
  Co  Co4  1  0.50000001  0.00000000  0.29148000  1
  Co  Co5  1  0.49999998  0.50000000  0.29148000  1
  Co  Co6  1  -0.00000003  0.50000000  0.29148000  1
  Co  Co7  1  0.33333330  0.66666666  -0.00000000  1
  Co  Co8  1  0.66666666  0.33333333  -0.00000000  1
  Co  Co9  1  0.49999998  0.50000000  0.70852000  1
  B  B10  1  0.33333330  0.66666666  0.50000000  1
  B  B11  1  0.66666666  0.33333333  0.50000000  1
