# generated using pymatgen
data_Tb(Co2B)6
_symmetry_space_group_name_H-M   'P 1'
_cell_length_a   5.98927498
_cell_length_b   5.98927498
_cell_length_c   5.98927546
_cell_angle_alpha   104.37409210
_cell_angle_beta   104.37409210
_cell_angle_gamma   104.37409973
_symmetry_Int_Tables_number   1
_chemical_formula_structural   Tb(Co2B)6
_chemical_formula_sum   'Tb1 Co12 B6'
_cell_volume   190.29313042
_cell_formula_units_Z   1
loop_
 _symmetry_equiv_pos_site_id
 _symmetry_equiv_pos_as_xyz
  1  'x, y, z'
loop_
 _atom_site_type_symbol
 _atom_site_label
 _atom_site_symmetry_multiplicity
 _atom_site_fract_x
 _atom_site_fract_y
 _atom_site_fract_z
 _atom_site_occupancy
  Tb  Tb0  1  0.00000000  0.00000000  0.00000000  1
  Co  Co1  1  0.86907904  0.13092101  0.50000003  1
  Co  Co2  1  0.50000003  0.86907904  0.13092105  1
  Co  Co3  1  0.13092101  0.50000002  0.86907901  1
  Co  Co4  1  0.50000002  0.13092101  0.86907901  1
  Co  Co5  1  0.86907904  0.50000002  0.13092105  1
  Co  Co6  1  0.13092101  0.86907904  0.50000003  1
  Co  Co7  1  0.45312102  0.18830101  0.45312101  1
  Co  Co8  1  0.45312102  0.45312102  0.18830103  1
  Co  Co9  1  0.18830101  0.45312102  0.45312101  1
  Co  Co10  1  0.54687903  0.81169903  0.54687904  1
  Co  Co11  1  0.54687903  0.54687902  0.81169902  1
  Co  Co12  1  0.81169904  0.54687902  0.54687904  1
  B  B13  1  0.23431901  0.66765603  0.23431903  1
  B  B14  1  0.23431901  0.23431901  0.66765600  1
  B  B15  1  0.66765603  0.23431901  0.23431903  1
  B  B16  1  0.76568103  0.33234401  0.76568102  1
  B  B17  1  0.76568104  0.76568103  0.33234405  1
  B  B18  1  0.33234402  0.76568103  0.76568103  1
