# generated using pymatgen
data_B2MoOs3
_symmetry_space_group_name_H-M   'P 1'
_cell_length_a   3.52655005
_cell_length_b   5.83280420
_cell_length_c   6.82620192
_cell_angle_alpha   90.00000000
_cell_angle_beta   90.00000000
_cell_angle_gamma   90.00000000
_symmetry_Int_Tables_number   1
_chemical_formula_structural   B2MoOs3
_chemical_formula_sum   'B4 Mo2 Os6'
_cell_volume   140.41276158
_cell_formula_units_Z   2
loop_
 _symmetry_equiv_pos_site_id
 _symmetry_equiv_pos_as_xyz
  1  'x, y, z'
loop_
 _atom_site_type_symbol
 _atom_site_label
 _atom_site_symmetry_multiplicity
 _atom_site_fract_x
 _atom_site_fract_y
 _atom_site_fract_z
 _atom_site_occupancy
  Mo  Mo0  1  0.74999999  0.46722098  0.17147000  1
  Os  Os1  1  0.74999999  0.96722097  0.32853000  1
  Mo  Mo2  1  0.25000000  0.53277898  0.82853001  1
  Os  Os3  1  0.25000000  0.03277900  0.67147001  1
  Os  Os4  1  0.74999999  0.35931899  0.56110401  1
  Os  Os5  1  0.74999999  0.85931897  0.93889601  1
  Os  Os6  1  0.25000000  0.64068098  0.43889601  1
  Os  Os7  1  0.25000000  0.14068100  0.06110400  1
  B  B8  1  0.74999999  0.24523799  0.87310701  1
  B  B9  1  0.74999999  0.74523797  0.62689301  1
  B  B10  1  0.25000000  0.75476197  0.12689300  1
  B  B11  1  0.25000000  0.25476199  0.37310700  1
