# generated using pymatgen
data_FeAs2Ru
_symmetry_space_group_name_H-M   'P 1'
_cell_length_a   3.92046094
_cell_length_b   3.92046094
_cell_length_c   8.63066006
_cell_angle_alpha   90.00000000
_cell_angle_beta   90.00000000
_cell_angle_gamma   90.00000000
_symmetry_Int_Tables_number   1
_chemical_formula_structural   FeAs2Ru
_chemical_formula_sum   'Fe2 As4 Ru2'
_cell_volume   132.65336571
_cell_formula_units_Z   2
loop_
 _symmetry_equiv_pos_site_id
 _symmetry_equiv_pos_as_xyz
  1  'x, y, z'
loop_
 _atom_site_type_symbol
 _atom_site_label
 _atom_site_symmetry_multiplicity
 _atom_site_fract_x
 _atom_site_fract_y
 _atom_site_fract_z
 _atom_site_occupancy
  As  As0  1  0.00000000  0.50000001  0.32350100  1
  As  As1  1  0.50000001  0.00000000  0.67649900  1
  Fe  Fe2  1  0.50000001  0.50000001  0.00000000  1
  Fe  Fe3  1  0.00000000  0.00000000  0.00000000  1
  As  As4  1  0.50000001  0.00000000  0.16504500  1
  As  As5  1  0.00000000  0.50000001  0.83495499  1
  Ru  Ru6  1  0.50000001  0.50000001  0.50000000  1
  Ru  Ru7  1  0.00000000  0.00000000  0.50000000  1
