# generated using pymatgen
data_Lu2As2O7
_symmetry_space_group_name_H-M   'P 1'
_cell_length_a   5.09478617
_cell_length_b   5.55659962
_cell_length_c   5.55658197
_cell_angle_alpha   107.51192474
_cell_angle_beta   97.24219513
_cell_angle_gamma   97.24220276
_symmetry_Int_Tables_number   1
_chemical_formula_structural   Lu2As2O7
_chemical_formula_sum   'Lu2 As2 O7'
_cell_volume   146.56482975
_cell_formula_units_Z   1
loop_
 _symmetry_equiv_pos_site_id
 _symmetry_equiv_pos_as_xyz
  1  'x, y, z'
loop_
 _atom_site_type_symbol
 _atom_site_label
 _atom_site_symmetry_multiplicity
 _atom_site_fract_x
 _atom_site_fract_y
 _atom_site_fract_z
 _atom_site_occupancy
  Lu  Lu0  1  0.49999797  0.68618900  0.31381298  1
  Lu  Lu1  1  0.49999898  0.31119200  0.68880497  1
  As  As2  1  0.10301099  0.75362100  0.75907200  1
  As  As3  1  0.89698897  0.24093000  0.24638296  1
  O  O4  1  0.00000399  0.99256200  0.00742201  1
  O  O5  1  0.70464498  0.06751500  0.39646496  1
  O  O6  1  0.29535398  0.60354100  0.93247999  1
  O  O7  1  0.70912497  0.38798300  0.06779597  1
  O  O8  1  0.29087298  0.93219800  0.61201799  1
  O  O9  1  0.21762599  0.41735800  0.41909599  1
  O  O10  1  0.78237497  0.58091200  0.58265196  1
