# generated using pymatgen
data_Ba6S11
_symmetry_space_group_name_H-M   'P 1'
_cell_length_a   8.19052124
_cell_length_b   10.13714790
_cell_length_c   10.16520882
_cell_angle_alpha   107.68616486
_cell_angle_beta   97.22928619
_cell_angle_gamma   105.47864532
_symmetry_Int_Tables_number   1
_chemical_formula_structural   Ba6S11
_chemical_formula_sum   'Ba6 S11'
_cell_volume   755.01064538
_cell_formula_units_Z   1
loop_
 _symmetry_equiv_pos_site_id
 _symmetry_equiv_pos_as_xyz
  1  'x, y, z'
loop_
 _atom_site_type_symbol
 _atom_site_label
 _atom_site_symmetry_multiplicity
 _atom_site_fract_x
 _atom_site_fract_y
 _atom_site_fract_z
 _atom_site_occupancy
  Ba  Ba0  1  0.46826098  0.28322498  0.58418396  1
  Ba  Ba1  1  0.53173896  0.71677495  0.41581595  1
  Ba  Ba2  1  0.86276797  0.13538099  0.67932197  1
  Ba  Ba3  1  0.13723197  0.86461895  0.32067794  1
  Ba  Ba4  1  0.38280096  0.95679094  0.73663192  1
  Ba  Ba5  1  0.61719898  0.04320900  0.26336799  1
  S  S6  1  0.49999999  0.00000000  0.49999998  1
  S  S7  1  0.41414697  0.62980196  0.68058594  1
  S  S8  1  0.58585297  0.37019798  0.31941397  1
  S  S9  1  0.29317598  0.26207998  0.85179895  1
  S  S10  1  0.70682396  0.73791995  0.14820096  1
  S  S11  1  0.85596996  0.45921497  0.77194095  1
  S  S12  1  0.14402998  0.54078497  0.22805896  1
  S  S13  1  0.04603499  0.18101099  0.41211097  1
  S  S14  1  0.24100997  0.91453394  0.03858195  1
  S  S15  1  0.75898998  0.08546599  0.96141796  1
  S  S16  1  0.95396495  0.81898895  0.58788894  1
