# generated using pymatgen
data_Ba3SrI6
_symmetry_space_group_name_H-M   'P 1'
_cell_length_a   6.54443741
_cell_length_b   6.54443741
_cell_length_c   7.95987701
_cell_angle_alpha   90.00000000
_cell_angle_beta   90.00000000
_cell_angle_gamma   109.41744232
_symmetry_Int_Tables_number   1
_chemical_formula_structural   Ba3SrI6
_chemical_formula_sum   'Ba3 Sr1 I6'
_cell_volume   321.52788072
_cell_formula_units_Z   1
loop_
 _symmetry_equiv_pos_site_id
 _symmetry_equiv_pos_as_xyz
  1  'x, y, z'
loop_
 _atom_site_type_symbol
 _atom_site_label
 _atom_site_symmetry_multiplicity
 _atom_site_fract_x
 _atom_site_fract_y
 _atom_site_fract_z
 _atom_site_occupancy
  Ba  Ba0  1  0.42007199  0.57992800  0.80907100  1
  Ba  Ba1  1  0.57992800  0.42007200  0.30907100  1
  Sr  Sr2  1  0.89385000  0.10615000  0.53807400  1
  Ba  Ba3  1  0.10614999  0.89385000  0.03807400  1
  I  I4  1  0.38205900  0.06622500  0.65170900  1
  I  I5  1  0.61794099  0.93377500  0.15170900  1
  I  I6  1  0.93377500  0.61794100  0.65170900  1
  I  I7  1  0.06622499  0.38205900  0.15170900  1
  I  I8  1  0.80035400  0.19964600  0.00683700  1
  I  I9  1  0.19964599  0.80035400  0.50683700  1
