# generated using pymatgen
data_Ho3Co13B2
_symmetry_space_group_name_H-M   'P 1'
_cell_length_a   4.93260622
_cell_length_b   4.93260670
_cell_length_c   10.85195827
_cell_angle_alpha   90.00000000
_cell_angle_beta   90.00000000
_cell_angle_gamma   119.99999237
_symmetry_Int_Tables_number   1
_chemical_formula_structural   Ho3Co13B2
_chemical_formula_sum   'Ho3 Co13 B2'
_cell_volume   228.66079802
_cell_formula_units_Z   1
loop_
 _symmetry_equiv_pos_site_id
 _symmetry_equiv_pos_as_xyz
  1  'x, y, z'
loop_
 _atom_site_type_symbol
 _atom_site_label
 _atom_site_symmetry_multiplicity
 _atom_site_fract_x
 _atom_site_fract_y
 _atom_site_fract_z
 _atom_site_occupancy
  Ho  Ho0  1  0.00000000  0.00000000  0.32830199  1
  Ho  Ho1  1  0.00000000  0.00000000  0.67169798  1
  Ho  Ho2  1  0.00000000  0.00000000  0.00000000  1
  Co  Co3  1  0.49999993  0.99999999  0.13377900  1
  Co  Co4  1  0.49999995  0.50000000  0.13377900  1
  Co  Co5  1  -0.00000002  0.50000000  0.13377900  1
  Co  Co6  1  0.49999993  0.99999999  0.86622098  1
  Co  Co7  1  0.49999995  0.50000000  0.86622098  1
  Co  Co8  1  -0.00000002  0.50000000  0.86622098  1
  Co  Co9  1  0.33333329  0.66666666  0.31827299  1
  Co  Co10  1  0.66666662  0.33333333  0.31827299  1
  Co  Co11  1  0.66666662  0.33333333  0.68172698  1
  Co  Co12  1  0.33333329  0.66666666  0.68172698  1
  Co  Co13  1  0.49999993  0.99999999  0.49999999  1
  Co  Co14  1  0.49999995  0.50000000  0.49999999  1
  Co  Co15  1  -0.00000002  0.50000000  0.49999999  1
  B  B16  1  0.33333329  0.66666666  0.99999997  1
  B  B17  1  0.66666662  0.33333333  0.99999997  1
