# generated using pymatgen
data_Ag3Te2IBr2
_symmetry_space_group_name_H-M   'P 1'
_cell_length_a   5.76731491
_cell_length_b   5.76731491
_cell_length_c   7.16621113
_cell_angle_alpha   113.63567352
_cell_angle_beta   113.63567352
_cell_angle_gamma   90.21028137
_symmetry_Int_Tables_number   1
_chemical_formula_structural   Ag3Te2IBr2
_chemical_formula_sum   'Ag3 Te2 I1 Br2'
_cell_volume   196.17258059
_cell_formula_units_Z   1
loop_
 _symmetry_equiv_pos_site_id
 _symmetry_equiv_pos_as_xyz
  1  'x, y, z'
loop_
 _atom_site_type_symbol
 _atom_site_label
 _atom_site_symmetry_multiplicity
 _atom_site_fract_x
 _atom_site_fract_y
 _atom_site_fract_z
 _atom_site_occupancy
  Te  Te0  1  0.00021596  0.99978394  -0.00000006  1
  I  I1  1  0.25021596  0.74978396  0.49999994  1
  Br  Br2  1  0.73417995  0.26581998  0.49999994  1
  Br  Br3  1  0.48417995  0.51581997  -0.00000006  1
  Te  Te4  1  0.01166798  0.48899297  0.98103796  1
  Ag  Ag5  1  0.51100693  0.98833194  0.01896191  1
  Ag  Ag6  1  0.74204493  0.71936996  0.48103791  1
  Ag  Ag7  1  0.28062997  0.25795498  0.51896197  1
