# generated using pymatgen
data_BaLaI4
_symmetry_space_group_name_H-M   'P 1'
_cell_length_a   6.85935402
_cell_length_b   6.85935402
_cell_length_c   8.94798374
_cell_angle_alpha   90.00000000
_cell_angle_beta   90.00000000
_cell_angle_gamma   90.00000000
_symmetry_Int_Tables_number   1
_chemical_formula_structural   BaLaI4
_chemical_formula_sum   'Ba2 La2 I8'
_cell_volume   421.00923473
_cell_formula_units_Z   2
loop_
 _symmetry_equiv_pos_site_id
 _symmetry_equiv_pos_as_xyz
  1  'x, y, z'
loop_
 _atom_site_type_symbol
 _atom_site_label
 _atom_site_symmetry_multiplicity
 _atom_site_fract_x
 _atom_site_fract_y
 _atom_site_fract_z
 _atom_site_occupancy
  Ba  Ba0  1  0.00000000  0.00000000  0.00000000  1
  Ba  Ba1  1  0.50000000  0.50000000  -0.00000000  1
  La  La2  1  0.00000000  0.00000000  0.50000001  1
  La  La3  1  0.50000000  0.50000000  0.50000001  1
  I  I4  1  0.35349500  0.85349500  0.28929901  1
  I  I5  1  0.14650500  0.35349500  0.28929901  1
  I  I6  1  0.85349500  0.64650500  0.28929901  1
  I  I7  1  0.35349500  0.14650500  0.71070102  1
  I  I8  1  0.64650500  0.85349500  0.71070102  1
  I  I9  1  0.64650500  0.14650500  0.28929901  1
  I  I10  1  0.85349500  0.35349500  0.71070102  1
  I  I11  1  0.14650500  0.64650500  0.71070102  1
