# generated using pymatgen
data_Ho4Ga7
_symmetry_space_group_name_H-M   'P 1'
_cell_length_a   5.60750818
_cell_length_b   5.60750818
_cell_length_c   8.08470821
_cell_angle_alpha   90.00000000
_cell_angle_beta   90.00000000
_cell_angle_gamma   90.00000000
_symmetry_Int_Tables_number   1
_chemical_formula_structural   Ho4Ga7
_chemical_formula_sum   'Ho4 Ga7'
_cell_volume   254.21676175
_cell_formula_units_Z   1
loop_
 _symmetry_equiv_pos_site_id
 _symmetry_equiv_pos_as_xyz
  1  'x, y, z'
loop_
 _atom_site_type_symbol
 _atom_site_label
 _atom_site_symmetry_multiplicity
 _atom_site_fract_x
 _atom_site_fract_y
 _atom_site_fract_z
 _atom_site_occupancy
  Ga  Ga0  1  0.24654199  0.24654199  0.27220299  1
  Ga  Ga1  1  0.75345798  0.75345798  0.27220299  1
  Ga  Ga2  1  0.24654199  0.75345798  0.72779698  1
  Ga  Ga3  1  0.75345798  0.24654199  0.72779698  1
  Ho  Ho4  1  0.25295199  0.25295199  0.63566098  1
  Ho  Ho5  1  0.74704798  0.74704798  0.63566098  1
  Ho  Ho6  1  0.25295199  0.74704798  0.36433899  1
  Ho  Ho7  1  0.74704798  0.25295199  0.36433899  1
  Ga  Ga8  1  0.00000000  0.00000000  0.00000000  1
  Ga  Ga9  1  0.49999998  0.00000000  0.00000000  1
  Ga  Ga10  1  0.00000000  0.49999998  0.00000000  1
