# generated using pymatgen
data_Mn3P
_symmetry_space_group_name_H-M   'P 1'
_cell_length_a   4.44867420
_cell_length_b   6.70221615
_cell_length_c   6.70221615
_cell_angle_alpha   83.67633057
_cell_angle_beta   70.61702728
_cell_angle_gamma   70.61702728
_symmetry_Int_Tables_number   1
_chemical_formula_structural   Mn3P
_chemical_formula_sum   'Mn12 P4'
_cell_volume   177.82252353
_cell_formula_units_Z   4
loop_
 _symmetry_equiv_pos_site_id
 _symmetry_equiv_pos_as_xyz
  1  'x, y, z'
loop_
 _atom_site_type_symbol
 _atom_site_label
 _atom_site_symmetry_multiplicity
 _atom_site_fract_x
 _atom_site_fract_y
 _atom_site_fract_z
 _atom_site_occupancy
  Mn  Mn0  1  0.34241001  0.61483401  0.67402998  1
  Mn  Mn1  1  0.04275601  0.32597001  0.61483400  1
  Mn  Mn2  1  0.98355998  0.67403001  0.38516598  1
  Mn  Mn3  1  0.63127398  0.38516601  0.32596999  1
  Mn  Mn4  1  0.92957998  0.60723201  0.04687198  1
  Mn  Mn5  1  0.46318801  0.95312802  0.60723197  1
  Mn  Mn6  1  0.02354800  0.04687200  0.39276801  1
  Mn  Mn7  1  0.58368399  0.39276801  0.95312800  1
  Mn  Mn8  1  0.13530100  0.18921700  0.97712601  1
  Mn  Mn9  1  0.67548197  0.02287400  0.18921801  1
  Mn  Mn10  1  0.88757299  0.97712602  0.81078297  1
  Mn  Mn11  1  0.30164301  0.81078301  0.02287496  1
  P  P12  1  0.20130400  0.33142801  0.25023799  1
  P  P13  1  0.46726800  0.74976201  0.33142797  1
  P  P14  1  0.54845798  0.25023800  0.66857200  1
  P  P15  1  0.78296999  0.66857201  0.74976199  1
