# generated using pymatgen
data_Li4O3
_symmetry_space_group_name_H-M   'P 1'
_cell_length_a   5.67037058
_cell_length_b   5.67037058
_cell_length_c   6.03888226
_cell_angle_alpha   61.99890137
_cell_angle_beta   61.99890137
_cell_angle_gamma   59.99999237
_symmetry_Int_Tables_number   1
_chemical_formula_structural   Li4O3
_chemical_formula_sum   'Li8 O6'
_cell_volume   141.30106516
_cell_formula_units_Z   2
loop_
 _symmetry_equiv_pos_site_id
 _symmetry_equiv_pos_as_xyz
  1  'x, y, z'
loop_
 _atom_site_type_symbol
 _atom_site_label
 _atom_site_symmetry_multiplicity
 _atom_site_fract_x
 _atom_site_fract_y
 _atom_site_fract_z
 _atom_site_occupancy
  Li  Li0  1  0.92798397  0.49131400  0.35087703  1
  Li  Li1  1  0.49486796  0.72935100  0.65084703  1
  Li  Li2  1  0.72935098  0.12493400  0.65084702  1
  Li  Li3  1  0.65328596  0.65328600  0.04014203  1
  Li  Li4  1  0.22982496  0.92798400  0.35087703  1
  Li  Li5  1  0.49131398  0.22982500  0.35087702  1
  Li  Li6  1  0.12493398  0.49486800  0.65084702  1
  Li  Li7  1  0.00019500  0.00019500  0.99941500  1
  O  O8  1  0.79682397  0.38727000  0.74575903  1
  O  O9  1  0.63002995  0.88098600  0.25089304  1
  O  O10  1  0.88098598  0.23809100  0.25089302  1
  O  O11  1  0.07014697  0.79682400  0.74575903  1
  O  O12  1  0.38726999  0.07014700  0.74575901  1
  O  O13  1  0.23809097  0.63003000  0.25089302  1
