# generated using pymatgen
data_Lu3Co2Si3
_symmetry_space_group_name_H-M   'P 1'
_cell_length_a   4.05733204
_cell_length_b   5.51877260
_cell_length_c   13.45410538
_cell_angle_alpha   90.00000000
_cell_angle_beta   90.00000000
_cell_angle_gamma   111.56729126
_symmetry_Int_Tables_number   1
_chemical_formula_structural   Lu3Co2Si3
_chemical_formula_sum   'Lu6 Co4 Si6'
_cell_volume   280.16540887
_cell_formula_units_Z   2
loop_
 _symmetry_equiv_pos_site_id
 _symmetry_equiv_pos_as_xyz
  1  'x, y, z'
loop_
 _atom_site_type_symbol
 _atom_site_label
 _atom_site_symmetry_multiplicity
 _atom_site_fract_x
 _atom_site_fract_y
 _atom_site_fract_z
 _atom_site_occupancy
  Lu  Lu0  1  0.36196601  0.72393201  0.74999998  1
  Lu  Lu1  1  0.63803400  0.27606800  0.24999999  1
  Lu  Lu2  1  0.08035100  0.16070200  0.88790398  1
  Lu  Lu3  1  0.91964901  0.83929801  0.11209600  1
  Lu  Lu4  1  0.91964901  0.83929801  0.38790399  1
  Lu  Lu5  1  0.08035100  0.16070200  0.61209598  1
  Co  Co6  1  0.21307701  0.42615400  0.41801499  1
  Co  Co7  1  0.78692301  0.57384601  0.58198498  1
  Co  Co8  1  0.78692301  0.57384601  0.91801497  1
  Co  Co9  1  0.21307701  0.42615400  0.08198500  1
  Si  Si10  1  0.66818100  0.33636200  0.74999998  1
  Si  Si11  1  0.33181901  0.66363801  0.24999999  1
  Si  Si12  1  0.38144101  0.76288201  0.96061697  1
  Si  Si13  1  0.61855900  0.23711800  0.03938300  1
  Si  Si14  1  0.61855900  0.23711800  0.46061699  1
  Si  Si15  1  0.38144101  0.76288201  0.53938298  1
