# generated using pymatgen
data_BaIn2Co2S
_symmetry_space_group_name_H-M   'P 1'
_cell_length_a   3.79107189
_cell_length_b   3.79107189
_cell_length_c   7.91690922
_cell_angle_alpha   90.00000000
_cell_angle_beta   90.00000000
_cell_angle_gamma   90.00000000
_symmetry_Int_Tables_number   1
_chemical_formula_structural   BaIn2Co2S
_chemical_formula_sum   'Ba1 In2 Co2 S1'
_cell_volume   113.78360920
_cell_formula_units_Z   1
loop_
 _symmetry_equiv_pos_site_id
 _symmetry_equiv_pos_as_xyz
  1  'x, y, z'
loop_
 _atom_site_type_symbol
 _atom_site_label
 _atom_site_symmetry_multiplicity
 _atom_site_fract_x
 _atom_site_fract_y
 _atom_site_fract_z
 _atom_site_occupancy
  In  In0  1  0.00000000  0.50000001  0.84303498  1
  S  S1  1  0.50000001  0.00000000  0.15696500  1
  In  In2  1  0.50000001  0.00000000  0.66894198  1
  Ba  Ba3  1  0.00000000  0.50000001  0.33105799  1
  Co  Co4  1  0.00000000  0.00000000  0.00000000  1
  Co  Co5  1  0.50000001  0.50000001  -0.00000000  1
