# generated using pymatgen
data_Ho2MgGa6
_symmetry_space_group_name_H-M   'P 1'
_cell_length_a   3.94272304
_cell_length_b   7.26656199
_cell_length_c   7.26656199
_cell_angle_alpha   120.00000000
_cell_angle_beta   90.00000000
_cell_angle_gamma   90.00000000
_symmetry_Int_Tables_number   1
_chemical_formula_structural   Ho2MgGa6
_chemical_formula_sum   'Ho2 Mg1 Ga6'
_cell_volume   180.29549158
_cell_formula_units_Z   1
loop_
 _symmetry_equiv_pos_site_id
 _symmetry_equiv_pos_as_xyz
  1  'x, y, z'
loop_
 _atom_site_type_symbol
 _atom_site_label
 _atom_site_symmetry_multiplicity
 _atom_site_fract_x
 _atom_site_fract_y
 _atom_site_fract_z
 _atom_site_occupancy
  Mg  Mg0  1  0.00000000  0.99999999  0.58389596  1
  Ho  Ho1  1  0.00000000  0.58389599  -0.00000001  1
  Ho  Ho2  1  0.99999999  0.41610400  0.41610398  1
  Ga  Ga3  1  0.50000000  0.77110799  0.77110796  1
  Ga  Ga4  1  0.50000000  0.22889200  -0.00000001  1
  Ga  Ga5  1  0.50000000  0.99999999  0.22889197  1
  Ga  Ga6  1  0.00000000  0.00000000  0.00000000  1
  Ga  Ga7  1  0.50000000  0.33333333  0.66666664  1
  Ga  Ga8  1  0.50000000  0.66666666  0.33333331  1
