# generated using pymatgen
data_BaSb2O5
_symmetry_space_group_name_H-M   'P 1'
_cell_length_a   5.17790890
_cell_length_b   5.27189779
_cell_length_c   5.49356556
_cell_angle_alpha   62.63697815
_cell_angle_beta   89.77824402
_cell_angle_gamma   62.29294205
_symmetry_Int_Tables_number   1
_chemical_formula_structural   BaSb2O5
_chemical_formula_sum   'Ba1 Sb2 O5'
_cell_volume   113.63403526
_cell_formula_units_Z   1
loop_
 _symmetry_equiv_pos_site_id
 _symmetry_equiv_pos_as_xyz
  1  'x, y, z'
loop_
 _atom_site_type_symbol
 _atom_site_label
 _atom_site_symmetry_multiplicity
 _atom_site_fract_x
 _atom_site_fract_y
 _atom_site_fract_z
 _atom_site_occupancy
  Sb  Sb0  1  0.00000000  0.00000000  0.00000000  1
  Sb  Sb1  1  0.50000001  0.00000000  0.50000002  1
  O  O2  1  0.75546907  0.87526494  0.24653904  1
  O  O3  1  0.24453101  0.12473499  0.75346103  1
  Ba  Ba4  1  0.60619704  0.53258196  0.73432104  1
  O  O5  1  0.39380303  0.46741797  0.26567902  1
  O  O6  1  0.12931401  0.11511899  0.24747601  1
  O  O7  1  0.87068607  0.88488094  0.75252406  1
