# generated using pymatgen
data_Li2CoO3
_symmetry_space_group_name_H-M   'P 1'
_cell_length_a   5.05677795
_cell_length_b   5.06926584
_cell_length_c   5.11842680
_cell_angle_alpha   80.55461884
_cell_angle_beta   70.79038239
_cell_angle_gamma   60.08145523
_symmetry_Int_Tables_number   1
_chemical_formula_structural   Li2CoO3
_chemical_formula_sum   'Li4 Co2 O6'
_cell_volume   107.38946543
_cell_formula_units_Z   2
loop_
 _symmetry_equiv_pos_site_id
 _symmetry_equiv_pos_as_xyz
  1  'x, y, z'
loop_
 _atom_site_type_symbol
 _atom_site_label
 _atom_site_symmetry_multiplicity
 _atom_site_fract_x
 _atom_site_fract_y
 _atom_site_fract_z
 _atom_site_occupancy
  Li  Li0  1  0.00018499  0.99963001  0.49999998  1
  Li  Li1  1  0.49575101  0.00849800  -0.00000003  1
  Li  Li2  1  0.65730501  0.68539001  0.49999995  1
  Li  Li3  1  0.33425001  0.33150000  0.49999999  1
  Co  Co4  1  0.83175802  0.33648400  -0.00000006  1
  Co  Co5  1  0.16377500  0.67245001  -0.00000003  1
  O  O6  1  0.21610201  0.00707700  0.76761302  1
  O  O7  1  0.77682102  0.00707700  0.23238696  1
  O  O8  1  0.92915002  0.65383601  0.77613495  1
  O  O9  1  0.41701400  0.65383601  0.22386496  1
  O  O10  1  0.06100800  0.36327500  0.22801099  1
  O  O11  1  0.57571701  0.36327500  0.77198898  1
