# generated using pymatgen
data_Mg3Ge5Ir4
_symmetry_space_group_name_H-M   'P 1'
_cell_length_a   3.97487497
_cell_length_b   6.51821423
_cell_length_c   7.57430220
_cell_angle_alpha   90.00000000
_cell_angle_beta   90.00000000
_cell_angle_gamma   90.00000000
_symmetry_Int_Tables_number   1
_chemical_formula_structural   Mg3Ge5Ir4
_chemical_formula_sum   'Mg3 Ge5 Ir4'
_cell_volume   196.24325152
_cell_formula_units_Z   1
loop_
 _symmetry_equiv_pos_site_id
 _symmetry_equiv_pos_as_xyz
  1  'x, y, z'
loop_
 _atom_site_type_symbol
 _atom_site_label
 _atom_site_symmetry_multiplicity
 _atom_site_fract_x
 _atom_site_fract_y
 _atom_site_fract_z
 _atom_site_occupancy
  Mg  Mg0  1  0.25000000  0.02791400  0.32835799  1
  Mg  Mg1  1  0.25000000  0.52791398  0.17164200  1
  Ge  Ge2  1  0.75000001  0.97208597  0.67164198  1
  Mg  Mg3  1  0.75000001  0.47208598  0.82835798  1
  Ge  Ge4  1  0.25000000  0.26215799  0.62393698  1
  Ge  Ge5  1  0.25000000  0.76215797  0.87606298  1
  Ge  Ge6  1  0.75000001  0.73784197  0.37606299  1
  Ge  Ge7  1  0.75000001  0.23784199  0.12393700  1
  Ir  Ir8  1  0.25000000  0.15333599  0.93612998  1
  Ir  Ir9  1  0.25000000  0.65333598  0.56386999  1
  Ir  Ir10  1  0.75000001  0.84666397  0.06387000  1
  Ir  Ir11  1  0.75000001  0.34666399  0.43612999  1
