# generated using pymatgen
data_Dy5(CoB3)2
_symmetry_space_group_name_H-M   'P 1'
_cell_length_a   5.26380825
_cell_length_b   5.26380825
_cell_length_c   7.82104492
_cell_angle_alpha   70.33526611
_cell_angle_beta   70.33526611
_cell_angle_gamma   59.99999237
_symmetry_Int_Tables_number   1
_chemical_formula_structural   Dy5(CoB3)2
_chemical_formula_sum   'Dy5 Co2 B6'
_cell_volume   172.92261525
_cell_formula_units_Z   1
loop_
 _symmetry_equiv_pos_site_id
 _symmetry_equiv_pos_as_xyz
  1  'x, y, z'
loop_
 _atom_site_type_symbol
 _atom_site_label
 _atom_site_symmetry_multiplicity
 _atom_site_fract_x
 _atom_site_fract_y
 _atom_site_fract_z
 _atom_site_occupancy
  Dy  Dy0  1  0.73710003  0.73710005  0.78869994  1
  Dy  Dy1  1  0.26290001  0.26290002  0.21129998  1
  Dy  Dy2  1  0.59637003  0.59637004  0.21088896  1
  Dy  Dy3  1  0.40363002  0.40363003  0.78910996  1
  Dy  Dy4  1  0.00000000  0.00000000  0.00000000  1
  Co  Co5  1  0.88595904  0.88595906  0.34212194  1
  Co  Co6  1  0.11404101  0.11404101  0.65787798  1
  B  B7  1  0.16903600  0.83096405  0.49999996  1
  B  B8  1  0.50000003  0.16903601  0.49999997  1
  B  B9  1  0.83096404  0.50000003  0.49999995  1
  B  B10  1  0.50000002  0.83096405  0.49999995  1
  B  B11  1  0.16903600  0.50000003  0.49999997  1
  B  B12  1  0.83096405  0.16903601  0.49999996  1
