# generated using pymatgen
data_V2O3F
_symmetry_space_group_name_H-M   'P 1'
_cell_length_a   4.58538818
_cell_length_b   4.93503523
_cell_length_c   5.58117104
_cell_angle_alpha   90.00000000
_cell_angle_beta   90.00000000
_cell_angle_gamma   90.00000000
_symmetry_Int_Tables_number   1
_chemical_formula_structural   V2O3F
_chemical_formula_sum   'V4 O6 F2'
_cell_volume   126.29661084
_cell_formula_units_Z   2
loop_
 _symmetry_equiv_pos_site_id
 _symmetry_equiv_pos_as_xyz
  1  'x, y, z'
loop_
 _atom_site_type_symbol
 _atom_site_label
 _atom_site_symmetry_multiplicity
 _atom_site_fract_x
 _atom_site_fract_y
 _atom_site_fract_z
 _atom_site_occupancy
  V  V0  1  0.49999998  0.74999997  0.67652400  1
  V  V1  1  0.00000000  0.24999999  0.82347599  1
  V  V2  1  0.49999998  0.24999999  0.32347600  1
  V  V3  1  0.00000000  0.74999997  0.17652400  1
  O  O4  1  0.72868297  0.08125500  0.61936200  1
  O  O5  1  0.22868299  0.91874496  0.88063799  1
  O  O6  1  0.77131697  0.58125497  0.88063799  1
  O  O7  1  0.27131699  0.41874498  0.61936200  1
  F  F8  1  0.72868297  0.58125497  0.38063800  1
  O  O9  1  0.22868299  0.41874498  0.11936200  1
  O  O10  1  0.77131697  0.08125500  0.11936200  1
  F  F11  1  0.27131699  0.91874496  0.38063800  1
