# generated using pymatgen
data_Bi3BrF4
_symmetry_space_group_name_H-M   'P 1'
_cell_length_a   3.96463203
_cell_length_b   3.96463203
_cell_length_c   9.41892338
_cell_angle_alpha   90.00000000
_cell_angle_beta   90.00000000
_cell_angle_gamma   90.00000000
_symmetry_Int_Tables_number   1
_chemical_formula_structural   Bi3BrF4
_chemical_formula_sum   'Bi3 Br1 F4'
_cell_volume   148.04953084
_cell_formula_units_Z   1
loop_
 _symmetry_equiv_pos_site_id
 _symmetry_equiv_pos_as_xyz
  1  'x, y, z'
loop_
 _atom_site_type_symbol
 _atom_site_label
 _atom_site_symmetry_multiplicity
 _atom_site_fract_x
 _atom_site_fract_y
 _atom_site_fract_z
 _atom_site_occupancy
  Bi  Bi0  1  0.00000000  0.00000000  0.00000000  1
  Bi  Bi1  1  0.50000000  0.50000000  0.72772797  1
  Bi  Bi2  1  0.50000000  0.50000000  0.27227199  1
  Br  Br3  1  0.00000000  0.00000000  0.49999998  1
  F  F4  1  0.50000000  0.00000000  0.15529999  1
  F  F5  1  0.00000000  0.50000000  0.84469997  1
  F  F6  1  0.00000000  0.50000000  0.15529999  1
  F  F7  1  0.50000000  0.00000000  0.84469997  1
