# generated using pymatgen
data_BaPO3
_symmetry_space_group_name_H-M   'P 1'
_cell_length_a   5.42133522
_cell_length_b   6.89965677
_cell_length_c   8.89004421
_cell_angle_alpha   90.00000000
_cell_angle_beta   90.00000000
_cell_angle_gamma   90.00000000
_symmetry_Int_Tables_number   1
_chemical_formula_structural   BaPO3
_chemical_formula_sum   'Ba4 P4 O12'
_cell_volume   332.53523545
_cell_formula_units_Z   4
loop_
 _symmetry_equiv_pos_site_id
 _symmetry_equiv_pos_as_xyz
  1  'x, y, z'
loop_
 _atom_site_type_symbol
 _atom_site_label
 _atom_site_symmetry_multiplicity
 _atom_site_fract_x
 _atom_site_fract_y
 _atom_site_fract_z
 _atom_site_occupancy
  Ba  Ba0  1  0.24999999  0.34442401  0.68452698  1
  Ba  Ba1  1  0.74999997  0.65557602  0.31547299  1
  Ba  Ba2  1  0.74999997  0.84442403  0.81547298  1
  Ba  Ba3  1  0.24999999  0.15557601  0.18452700  1
  P  P4  1  0.24999999  0.85020403  0.54851199  1
  P  P5  1  0.74999997  0.14979600  0.45148799  1
  P  P6  1  0.74999997  0.35020401  0.95148798  1
  P  P7  1  0.24999999  0.64979602  0.04851200  1
  O  O8  1  0.95695996  0.30016601  0.41850499  1
  O  O9  1  0.45695998  0.69983402  0.58149499  1
  O  O10  1  0.04304000  0.80016603  0.08149500  1
  O  O11  1  0.54303998  0.19983401  0.91850498  1
  O  O12  1  0.04304000  0.69983402  0.58149499  1
  O  O13  1  0.54303998  0.30016601  0.41850499  1
  O  O14  1  0.95695996  0.19983401  0.91850498  1
  O  O15  1  0.45695998  0.80016603  0.08149500  1
  O  O16  1  0.24999999  0.69273202  0.87819298  1
  O  O17  1  0.74999997  0.30726801  0.12180700  1
  O  O18  1  0.74999997  0.19273201  0.62180699  1
  O  O19  1  0.24999999  0.80726803  0.37819299  1
