# generated using pymatgen
data_Na3MoF6
_symmetry_space_group_name_H-M   'P 1'
_cell_length_a   5.72443581
_cell_length_b   6.02150011
_cell_length_c   8.28537750
_cell_angle_alpha   90.00000000
_cell_angle_beta   90.96089935
_cell_angle_gamma   90.00000000
_symmetry_Int_Tables_number   1
_chemical_formula_structural   Na3MoF6
_chemical_formula_sum   'Na6 Mo2 F12'
_cell_volume   285.55423857
_cell_formula_units_Z   2
loop_
 _symmetry_equiv_pos_site_id
 _symmetry_equiv_pos_as_xyz
  1  'x, y, z'
loop_
 _atom_site_type_symbol
 _atom_site_label
 _atom_site_symmetry_multiplicity
 _atom_site_fract_x
 _atom_site_fract_y
 _atom_site_fract_z
 _atom_site_occupancy
  Na  Na0  1  0.50000002  0.49999999  0.49999999  1
  Na  Na1  1  0.00000000  0.00000000  0.00000000  1
  Na  Na2  1  0.48147202  0.94147998  0.25654100  1
  Na  Na3  1  0.01852800  0.44147999  0.24345899  1
  Na  Na4  1  0.98147203  0.55851999  0.75654100  1
  Na  Na5  1  0.51852802  0.05852000  0.74345898  1
  Mo  Mo6  1  0.50000002  0.49999999  0.99999997  1
  Mo  Mo7  1  0.00000000  0.00000000  0.49999998  1
  F  F8  1  0.83250603  0.27497999  0.57725200  1
  F  F9  1  0.66749402  0.77497999  0.92274798  1
  F  F10  1  0.16749401  0.72501999  0.42274799  1
  F  F11  1  0.33250601  0.22502000  0.07725201  1
  F  F12  1  0.12419700  0.93978298  0.72468097  1
  F  F13  1  0.37580301  0.43978299  0.77531898  1
  F  F14  1  0.87580303  0.06021700  0.27531902  1
  F  F15  1  0.62419702  0.56021699  0.22468101  1
  F  F16  1  0.21433501  0.67521399  0.05205400  1
  F  F17  1  0.28566501  0.17521400  0.44794599  1
  F  F18  1  0.78566503  0.32478599  0.94794598  1
  F  F19  1  0.71433502  0.82478598  0.55205400  1
