# generated using pymatgen
data_Lu(CoGe)2
_symmetry_space_group_name_H-M   'P 1'
_cell_length_a   3.81910205
_cell_length_b   3.81910205
_cell_length_c   5.72641993
_cell_angle_alpha   109.47911835
_cell_angle_beta   109.47911835
_cell_angle_gamma   90.00000000
_symmetry_Int_Tables_number   1
_chemical_formula_structural   Lu(CoGe)2
_chemical_formula_sum   'Lu1 Co2 Ge2'
_cell_volume   73.65209303
_cell_formula_units_Z   1
loop_
 _symmetry_equiv_pos_site_id
 _symmetry_equiv_pos_as_xyz
  1  'x, y, z'
loop_
 _atom_site_type_symbol
 _atom_site_label
 _atom_site_symmetry_multiplicity
 _atom_site_fract_x
 _atom_site_fract_y
 _atom_site_fract_z
 _atom_site_occupancy
  Lu  Lu0  1  0.00000000  0.00000000  0.00000000  1
  Co  Co1  1  0.24999998  0.74999998  0.49999999  1
  Co  Co2  1  0.74999998  0.24999999  0.49999999  1
  Ge  Ge3  1  0.61291697  0.61291699  0.22583398  1
  Ge  Ge4  1  0.38708298  0.38708299  0.77416600  1
