# generated using pymatgen
data_Na2LiCuF7
_symmetry_space_group_name_H-M   'P 1'
_cell_length_a   3.84993219
_cell_length_b   3.84993219
_cell_length_c   9.83220196
_cell_angle_alpha   82.27216339
_cell_angle_beta   82.27216339
_cell_angle_gamma   89.61221313
_symmetry_Int_Tables_number   1
_chemical_formula_structural   Na2LiCuF7
_chemical_formula_sum   'Na2 Li1 Cu1 F7'
_cell_volume   143.08810982
_cell_formula_units_Z   1
loop_
 _symmetry_equiv_pos_site_id
 _symmetry_equiv_pos_as_xyz
  1  'x, y, z'
loop_
 _atom_site_type_symbol
 _atom_site_label
 _atom_site_symmetry_multiplicity
 _atom_site_fract_x
 _atom_site_fract_y
 _atom_site_fract_z
 _atom_site_occupancy
  Cu  Cu0  1  0.36427398  0.36427399  0.19817401  1
  Li  Li1  1  0.63572597  0.63572598  0.80182603  1
  F  F2  1  0.00000000  0.00000000  0.00000000  1
  Na  Na3  1  0.19635799  0.19635799  0.63375302  1
  Na  Na4  1  0.80364197  0.80364198  0.36624703  1
  F  F5  1  0.63836298  0.12604100  0.84923303  1
  F  F6  1  0.30268599  0.30268599  0.39271402  1
  F  F7  1  0.87395897  0.36163699  0.15076702  1
  F  F8  1  0.12604099  0.63836298  0.84923303  1
  F  F9  1  0.69731397  0.69731398  0.60728603  1
  F  F10  1  0.36163698  0.87395897  0.15076702  1
