# generated using pymatgen
data_CsHgCl3
_symmetry_space_group_name_H-M   'P 1'
_cell_length_a   5.40021181
_cell_length_b   5.40021181
_cell_length_c   5.40021181
_cell_angle_alpha   89.83657837
_cell_angle_beta   89.83657837
_cell_angle_gamma   89.83658600
_symmetry_Int_Tables_number   1
_chemical_formula_structural   CsHgCl3
_chemical_formula_sum   'Cs1 Hg1 Cl3'
_cell_volume   157.48061191
_cell_formula_units_Z   1
loop_
 _symmetry_equiv_pos_site_id
 _symmetry_equiv_pos_as_xyz
  1  'x, y, z'
loop_
 _atom_site_type_symbol
 _atom_site_label
 _atom_site_symmetry_multiplicity
 _atom_site_fract_x
 _atom_site_fract_y
 _atom_site_fract_z
 _atom_site_occupancy
  Cs  Cs0  1  0.99114803  0.99114800  0.99114807  1
  Hg  Hg1  1  0.48176102  0.48176100  0.48176103  1
  Cl  Cl2  1  0.48320003  0.98269100  0.48320005  1
  Cl  Cl3  1  0.48320002  0.48320000  0.98269103  1
  Cl  Cl4  1  0.98269102  0.48320000  0.48320005  1
