# generated using pymatgen
data_Tb2Zn2P3
_symmetry_space_group_name_H-M   'P 1'
_cell_length_a   4.00096989
_cell_length_b   5.42659283
_cell_length_c   6.57891798
_cell_angle_alpha   99.98103333
_cell_angle_beta   90.00000000
_cell_angle_gamma   111.63205719
_symmetry_Int_Tables_number   1
_chemical_formula_structural   Tb2Zn2P3
_chemical_formula_sum   'Tb2 Zn2 P3'
_cell_volume   130.45050650
_cell_formula_units_Z   1
loop_
 _symmetry_equiv_pos_site_id
 _symmetry_equiv_pos_as_xyz
  1  'x, y, z'
loop_
 _atom_site_type_symbol
 _atom_site_label
 _atom_site_symmetry_multiplicity
 _atom_site_fract_x
 _atom_site_fract_y
 _atom_site_fract_z
 _atom_site_occupancy
  Tb  Tb0  1  0.38066596  0.76133201  0.67707600  1
  Tb  Tb1  1  0.61933400  0.23866800  0.32292400  1
  Zn  Zn2  1  0.69489000  0.38978001  0.86686600  1
  P  P3  1  0.00000000  0.00000000  0.00000000  1
  Zn  Zn4  1  0.30510997  0.61022001  0.13313400  1
  P  P5  1  0.90610598  0.81221201  0.36077100  1
  P  P6  1  0.09389399  0.18778800  0.63922900  1
