# generated using pymatgen
data_P
_symmetry_space_group_name_H-M   'P 1'
_cell_length_a   5.48740816
_cell_length_b   5.48740816
_cell_length_c   5.48740816
_cell_angle_alpha   89.99602509
_cell_angle_beta   89.99602509
_cell_angle_gamma   89.99602509
_symmetry_Int_Tables_number   1
_chemical_formula_structural   P
_chemical_formula_sum   P12
_cell_volume   165.23490358
_cell_formula_units_Z   12
loop_
 _symmetry_equiv_pos_site_id
 _symmetry_equiv_pos_as_xyz
  1  'x, y, z'
loop_
 _atom_site_type_symbol
 _atom_site_label
 _atom_site_symmetry_multiplicity
 _atom_site_fract_x
 _atom_site_fract_y
 _atom_site_fract_z
 _atom_site_occupancy
  P  P0  1  0.00000000  0.00000000  0.00000000  1
  P  P1  1  0.49999997  0.50000000  -0.00000005  1
  P  P2  1  0.50000000  0.00000000  0.49999996  1
  P  P3  1  -0.00000002  0.50000000  0.49999996  1
  P  P4  1  0.88773999  0.11167700  0.61838494  1
  P  P5  1  0.11167697  0.61838500  0.88773994  1
  P  P6  1  0.61838495  0.88773999  0.11167693  1
  P  P7  1  0.38922498  0.38922500  0.38922495  1
  P  P8  1  0.11225996  0.88832299  0.38161494  1
  P  P9  1  0.88832298  0.38161500  0.11225994  1
  P  P10  1  0.38161499  0.11226000  0.88832296  1
  P  P11  1  0.61077497  0.61077500  0.61077493  1
