# generated using pymatgen
data_GaCuGe2
_symmetry_space_group_name_H-M   'P 1'
_cell_length_a   2.49689150
_cell_length_b   2.49689150
_cell_length_c   8.16487694
_cell_angle_alpha   90.00000000
_cell_angle_beta   90.00000000
_cell_angle_gamma   107.60768890
_symmetry_Int_Tables_number   1
_chemical_formula_structural   GaCuGe2
_chemical_formula_sum   'Ga1 Cu1 Ge2'
_cell_volume   48.51882495
_cell_formula_units_Z   1
loop_
 _symmetry_equiv_pos_site_id
 _symmetry_equiv_pos_as_xyz
  1  'x, y, z'
loop_
 _atom_site_type_symbol
 _atom_site_label
 _atom_site_symmetry_multiplicity
 _atom_site_fract_x
 _atom_site_fract_y
 _atom_site_fract_z
 _atom_site_occupancy
  Ga  Ga0  1  0.00000000  0.00000000  0.00000000  1
  Ge  Ge1  1  0.49999997  0.49999998  0.74271402  1
  Cu  Cu2  1  0.00000000  0.00000000  0.50000001  1
  Ge  Ge3  1  0.49999997  0.49999998  0.25728601  1
