# generated using pymatgen
data_MgSeO3
_symmetry_space_group_name_H-M   'P 1'
_cell_length_a   5.01392412
_cell_length_b   5.94957399
_cell_length_c   7.62682676
_cell_angle_alpha   90.00000000
_cell_angle_beta   90.00000000
_cell_angle_gamma   90.00000000
_symmetry_Int_Tables_number   1
_chemical_formula_structural   MgSeO3
_chemical_formula_sum   'Mg4 Se4 O12'
_cell_volume   227.51367693
_cell_formula_units_Z   4
loop_
 _symmetry_equiv_pos_site_id
 _symmetry_equiv_pos_as_xyz
  1  'x, y, z'
loop_
 _atom_site_type_symbol
 _atom_site_label
 _atom_site_symmetry_multiplicity
 _atom_site_fract_x
 _atom_site_fract_y
 _atom_site_fract_z
 _atom_site_occupancy
  Mg  Mg0  1  0.00000000  0.49999900  -0.00000000  1
  Mg  Mg1  1  0.49999999  0.00000000  0.50000002  1
  Mg  Mg2  1  0.49999999  0.00000000  -0.00000000  1
  Mg  Mg3  1  0.00000000  0.49999900  0.50000002  1
  Se  Se4  1  0.98149798  0.01967600  0.25000001  1
  Se  Se5  1  0.48149799  0.48032600  0.75000002  1
  Se  Se6  1  0.51850099  0.51967500  0.25000001  1
  Se  Se7  1  0.01850100  0.98032500  0.75000002  1
  O  O8  1  0.32486099  0.07338900  0.25000001  1
  O  O9  1  0.82486098  0.42661000  0.75000002  1
  O  O10  1  0.67513798  0.92660900  0.75000002  1
  O  O11  1  0.17513800  0.57338900  0.25000001  1
  O  O12  1  0.85887698  0.18304600  0.42496401  1
  O  O13  1  0.35887699  0.31695300  0.57503602  1
  O  O14  1  0.64112198  0.68304500  0.07503600  1
  O  O15  1  0.14112300  0.81695500  0.92496503  1
  O  O16  1  0.14112300  0.81695500  0.57503602  1
  O  O17  1  0.64112198  0.68304500  0.42496401  1
  O  O18  1  0.35887699  0.31695300  0.92496503  1
  O  O19  1  0.85887698  0.18304600  0.07503600  1
