# generated using pymatgen
data_Tb4(Ge3Rh)3
_symmetry_space_group_name_H-M   'P 1'
_cell_length_a   4.26397181
_cell_length_b   8.90516376
_cell_length_c   9.46833611
_cell_angle_alpha   118.05119324
_cell_angle_beta   103.01287842
_cell_angle_gamma   90.00000000
_symmetry_Int_Tables_number   1
_chemical_formula_structural   Tb4(Ge3Rh)3
_chemical_formula_sum   'Tb4 Ge9 Rh3'
_cell_volume   306.79016653
_cell_formula_units_Z   1
loop_
 _symmetry_equiv_pos_site_id
 _symmetry_equiv_pos_as_xyz
  1  'x, y, z'
loop_
 _atom_site_type_symbol
 _atom_site_label
 _atom_site_symmetry_multiplicity
 _atom_site_fract_x
 _atom_site_fract_y
 _atom_site_fract_z
 _atom_site_occupancy
  Tb  Tb0  1  0.79513102  0.29513101  0.59026197  1
  Tb  Tb1  1  -0.00000001  0.73732003  0.00000002  1
  Tb  Tb2  1  0.20486899  0.70486903  0.40973800  1
  Tb  Tb3  1  -0.00000001  0.26268001  0.00000001  1
  Ge  Ge4  1  0.79857001  0.95113204  0.59713899  1
  Ge  Ge5  1  0.20143001  0.04886800  0.40286098  1
  Ge  Ge6  1  0.20143100  0.35399301  0.40286199  1
  Ge  Ge7  1  0.79856902  0.64600702  0.59713798  1
  Ge  Ge8  1  0.42329301  0.42329302  0.84658597  1
  Ge  Ge9  1  0.57775702  0.07775700  0.15551399  1
  Ge  Ge10  1  0.42224300  0.92224304  0.84448598  1
  Ge  Ge11  1  0.57670701  0.57670702  0.15341400  1
  Rh  Rh12  1  0.64514502  0.39459202  0.29028899  1
  Rh  Rh13  1  0.35485500  0.60540802  0.70971098  1
  Ge  Ge14  1  0.35485601  0.10430300  0.70971197  1
  Rh  Rh15  1  0.64514401  0.89569703  0.29028800  1
