# generated using pymatgen
data_Nd3Au
_symmetry_space_group_name_H-M   'P 1'
_cell_length_a   6.81694412
_cell_length_b   7.86182213
_cell_length_c   9.91693497
_cell_angle_alpha   90.00000000
_cell_angle_beta   90.00000000
_cell_angle_gamma   90.00000000
_symmetry_Int_Tables_number   1
_chemical_formula_structural   Nd3Au
_chemical_formula_sum   'Nd12 Au4'
_cell_volume   531.48426715
_cell_formula_units_Z   4
loop_
 _symmetry_equiv_pos_site_id
 _symmetry_equiv_pos_as_xyz
  1  'x, y, z'
loop_
 _atom_site_type_symbol
 _atom_site_label
 _atom_site_symmetry_multiplicity
 _atom_site_fract_x
 _atom_site_fract_y
 _atom_site_fract_z
 _atom_site_occupancy
  Nd  Nd0  1  0.66272299  0.17493300  0.43628300  1
  Nd  Nd1  1  0.16272300  0.32506699  0.56371700  1
  Nd  Nd2  1  0.83727698  0.67493299  0.06371700  1
  Nd  Nd3  1  0.33727699  0.82506699  0.93628300  1
  Nd  Nd4  1  0.14352700  0.03649700  0.25000000  1
  Nd  Nd5  1  0.64352699  0.46350299  0.75000000  1
  Nd  Nd6  1  0.35647299  0.53649699  0.25000000  1
  Nd  Nd7  1  0.85647298  0.96350298  0.75000000  1
  Nd  Nd8  1  0.66272299  0.17493300  0.06371700  1
  Nd  Nd9  1  0.16272300  0.32506699  0.93628300  1
  Nd  Nd10  1  0.83727698  0.67493299  0.43628300  1
  Nd  Nd11  1  0.33727699  0.82506699  0.56371700  1
  Au  Au12  1  0.04990100  0.62199599  0.75000000  1
  Au  Au13  1  0.54990099  0.87800399  0.25000000  1
  Au  Au14  1  0.45009899  0.12199600  0.75000000  1
  Au  Au15  1  0.95009898  0.37800399  0.25000000  1
