# generated using pymatgen
data_La3(B3Os4)2
_symmetry_space_group_name_H-M   'P 1'
_cell_length_a   5.55189419
_cell_length_b   5.63805389
_cell_length_c   9.00537491
_cell_angle_alpha   81.27037811
_cell_angle_beta   72.04593658
_cell_angle_gamma   60.50424576
_symmetry_Int_Tables_number   1
_chemical_formula_structural   La3(B3Os4)2
_chemical_formula_sum   'La3 B6 Os8'
_cell_volume   233.40302993
_cell_formula_units_Z   1
loop_
 _symmetry_equiv_pos_site_id
 _symmetry_equiv_pos_as_xyz
  1  'x, y, z'
loop_
 _atom_site_type_symbol
 _atom_site_label
 _atom_site_symmetry_multiplicity
 _atom_site_fract_x
 _atom_site_fract_y
 _atom_site_fract_z
 _atom_site_occupancy
  La  La0  1  0.31794098  0.00000000  0.36411803  1
  La  La1  1  0.68205896  0.00000000  0.63588205  1
  La  La2  1  0.49999998  0.99999999  0.00000003  1
  B  B3  1  0.66873097  0.32029000  0.34224804  1
  B  B4  1  0.98902095  0.67970999  0.34224806  1
  B  B5  1  0.33126899  0.67970999  0.65775205  1
  B  B6  1  0.01097900  0.32029000  0.65775203  1
  B  B7  1  0.16635700  0.66728599  0.00000002  1
  B  B8  1  0.83364296  0.33271400  1.00000008  1
  Os  Os9  1  0.08476400  0.50000000  0.83047204  1
  Os  Os10  1  0.91346795  0.00000000  0.17306404  1
  Os  Os11  1  0.91523596  0.50000000  0.16952805  1
  Os  Os12  1  0.58476397  0.50000000  0.83047206  1
  Os  Os13  1  0.41523598  0.50000000  0.16952803  1
  Os  Os14  1  0.74999996  0.50000000  0.50000006  1
  Os  Os15  1  0.08653200  0.00000000  0.82693604  1
  Os  Os16  1  0.24999999  0.50000000  0.50000004  1
