# generated using pymatgen
data_ZnH14
_symmetry_space_group_name_H-M   'P 1'
_cell_length_a   4.52438307
_cell_length_b   5.55466795
_cell_length_c   5.55466747
_cell_angle_alpha   120.00000000
_cell_angle_beta   90.00000000
_cell_angle_gamma   90.00000000
_symmetry_Int_Tables_number   1
_chemical_formula_structural   ZnH14
_chemical_formula_sum   'Zn1 H14'
_cell_volume   120.89439547
_cell_formula_units_Z   1
loop_
 _symmetry_equiv_pos_site_id
 _symmetry_equiv_pos_as_xyz
  1  'x, y, z'
loop_
 _atom_site_type_symbol
 _atom_site_label
 _atom_site_symmetry_multiplicity
 _atom_site_fract_x
 _atom_site_fract_y
 _atom_site_fract_z
 _atom_site_occupancy
  Zn  Zn0  1  -0.00000000  0.33333333  0.66666665  1
  H  H1  1  0.00000000  0.66666665  0.33333329  1
  H  H2  1  0.56167899  0.69755798  -0.00000004  1
  H  H3  1  0.43832099  0.30244199  -0.00000002  1
  H  H4  1  0.56167899  0.30244199  0.30244198  1
  H  H5  1  0.43832099  0.69755798  0.69755796  1
  H  H6  1  0.56167899  0.00000000  0.69755800  1
  H  H7  1  0.43832099  0.00000000  0.30244200  1
  H  H8  1  0.00000000  0.00000000  0.00000000  1
  H  H9  1  0.77647299  0.68014298  -0.00000004  1
  H  H10  1  0.22352700  0.31985699  -0.00000002  1
  H  H11  1  0.77647299  0.31985699  0.31985698  1
  H  H12  1  0.22352700  0.68014298  0.68014296  1
  H  H13  1  0.77647299  0.00000000  0.68014300  1
  H  H14  1  0.22352700  0.00000000  0.31985700  1
