# generated using pymatgen
data_Ba2Nd2Co4O11
_symmetry_space_group_name_H-M   'P 1'
_cell_length_a   3.94164109
_cell_length_b   8.05249023
_cell_length_c   8.85215950
_cell_angle_alpha   117.05412292
_cell_angle_beta   90.00000000
_cell_angle_gamma   90.00000000
_symmetry_Int_Tables_number   1
_chemical_formula_structural   Ba2Nd2Co4O11
_chemical_formula_sum   'Ba2 Nd2 Co4 O11'
_cell_volume   250.22351703
_cell_formula_units_Z   1
loop_
 _symmetry_equiv_pos_site_id
 _symmetry_equiv_pos_as_xyz
  1  'x, y, z'
loop_
 _atom_site_type_symbol
 _atom_site_label
 _atom_site_symmetry_multiplicity
 _atom_site_fract_x
 _atom_site_fract_y
 _atom_site_fract_z
 _atom_site_occupancy
  Ba  Ba0  1  0.49999999  0.00000000  0.49999999  1
  Ba  Ba1  1  0.49999999  0.49999999  0.49999999  1
  Nd  Nd2  1  0.49999999  0.77144098  0.00000000  1
  Nd  Nd3  1  0.49999999  0.22855899  0.00000000  1
  Co  Co4  1  0.00000000  0.37609999  0.75219999  1
  Co  Co5  1  0.00000000  0.12292400  0.24584800  1
  Co  Co6  1  0.00000000  0.87707598  0.75415199  1
  Co  Co7  1  0.00000000  0.62389998  0.24780000  1
  O  O8  1  0.00000000  0.15583100  0.79412599  1
  O  O9  1  0.00000000  0.84416898  0.20587400  1
  O  O10  1  0.00000000  0.74749998  0.49499999  1
  O  O11  1  0.49999999  0.40969599  0.81939199  1
  O  O12  1  0.49999999  0.88397097  0.76794199  1
  O  O13  1  0.00000000  0.63829498  0.79412599  1
  O  O14  1  0.00000000  0.36170499  0.20587400  1
  O  O15  1  0.00000000  0.25249999  0.50499999  1
  O  O16  1  0.49999999  0.11602900  0.23205800  1
  O  O17  1  0.00000000  0.00000000  0.00000000  1
  O  O18  1  0.49999999  0.59030398  0.18060800  1
