# generated using pymatgen
data_Nb2Si
_symmetry_space_group_name_H-M   'P 1'
_cell_length_a   5.02322817
_cell_length_b   6.22850513
_cell_length_c   6.22850513
_cell_angle_alpha   90.00000000
_cell_angle_beta   90.00000000
_cell_angle_gamma   90.00000000
_symmetry_Int_Tables_number   1
_chemical_formula_structural   Nb2Si
_chemical_formula_sum   'Nb8 Si4'
_cell_volume   194.87250104
_cell_formula_units_Z   4
loop_
 _symmetry_equiv_pos_site_id
 _symmetry_equiv_pos_as_xyz
  1  'x, y, z'
loop_
 _atom_site_type_symbol
 _atom_site_label
 _atom_site_symmetry_multiplicity
 _atom_site_fract_x
 _atom_site_fract_y
 _atom_site_fract_z
 _atom_site_occupancy
  Nb  Nb0  1  0.49999998  0.33333333  0.15245100  1
  Nb  Nb1  1  0.49999998  0.66666665  0.84754898  1
  Nb  Nb2  1  0.49999998  0.15245100  0.66666665  1
  Nb  Nb3  1  0.49999998  0.84754898  0.33333333  1
  Nb  Nb4  1  0.00000000  0.33333333  0.84754898  1
  Nb  Nb5  1  0.00000000  0.84754898  0.66666665  1
  Nb  Nb6  1  0.00000000  0.15245100  0.33333333  1
  Nb  Nb7  1  0.99999997  0.66666665  0.15245100  1
  Si  Si8  1  0.74999997  0.00000000  -0.00000000  1
  Si  Si9  1  0.24999999  0.00000000  -0.00000000  1
  Si  Si10  1  0.74999997  0.49999999  0.49999999  1
  Si  Si11  1  0.24999999  0.49999999  0.49999999  1
