# generated using pymatgen
data_LuAlGe
_symmetry_space_group_name_H-M   'P 1'
_cell_length_a   3.83951092
_cell_length_b   7.09501696
_cell_length_c   7.09501791
_cell_angle_alpha   119.99017334
_cell_angle_beta   90.00000000
_cell_angle_gamma   90.00000000
_symmetry_Int_Tables_number   1
_chemical_formula_structural   LuAlGe
_chemical_formula_sum   'Lu3 Al3 Ge3'
_cell_volume   167.40039084
_cell_formula_units_Z   3
loop_
 _symmetry_equiv_pos_site_id
 _symmetry_equiv_pos_as_xyz
  1  'x, y, z'
loop_
 _atom_site_type_symbol
 _atom_site_label
 _atom_site_symmetry_multiplicity
 _atom_site_fract_x
 _atom_site_fract_y
 _atom_site_fract_z
 _atom_site_occupancy
  Lu  Lu0  1  0.50000001  0.41943699  0.41943698  1
  Lu  Lu1  1  0.50000001  0.58071599  0.99974097  1
  Lu  Lu2  1  0.50000001  0.99974198  0.58071694  1
  Al  Al3  1  -0.00000000  0.76771498  0.76771496  1
  Al  Al4  1  0.00000000  0.23256400  0.99989899  1
  Al  Al5  1  0.00000000  0.99989898  0.23256394  1
  Ge  Ge6  1  0.50000001  0.99930698  0.99930694  1
  Ge  Ge7  1  0.00000000  0.66790999  0.33280996  1
  Ge  Ge8  1  0.00000000  0.33280999  0.66790998  1
