# generated using pymatgen
data_HoGa9
_symmetry_space_group_name_H-M   'P 1'
_cell_length_a   6.76534986
_cell_length_b   7.54526281
_cell_length_c   7.54526281
_cell_angle_alpha   90.00000000
_cell_angle_beta   90.00000000
_cell_angle_gamma   90.00000000
_symmetry_Int_Tables_number   1
_chemical_formula_structural   HoGa9
_chemical_formula_sum   'Ho2 Ga18'
_cell_volume   385.15807177
_cell_formula_units_Z   2
loop_
 _symmetry_equiv_pos_site_id
 _symmetry_equiv_pos_as_xyz
  1  'x, y, z'
loop_
 _atom_site_type_symbol
 _atom_site_label
 _atom_site_symmetry_multiplicity
 _atom_site_fract_x
 _atom_site_fract_y
 _atom_site_fract_z
 _atom_site_occupancy
  Ga  Ga0  1  0.00000000  0.15400300  0.15400300  1
  Ga  Ga1  1  0.00000000  0.84599702  0.84599702  1
  Ga  Ga2  1  0.50000001  0.65400302  0.34599701  1
  Ga  Ga3  1  0.50000001  0.34599701  0.65400302  1
  Ga  Ga4  1  0.00000000  0.68144702  0.31855301  1
  Ga  Ga5  1  0.00000000  0.31855301  0.68144702  1
  Ga  Ga6  1  0.50000001  0.81855302  0.81855302  1
  Ga  Ga7  1  0.50000001  0.18144700  0.18144700  1
  Ho  Ho8  1  0.25000000  0.50000001  -0.00000000  1
  Ga  Ga9  1  0.75000001  0.50000001  -0.00000000  1
  Ho  Ho10  1  0.25000000  0.00000000  0.50000001  1
  Ga  Ga11  1  0.75000001  0.00000000  0.50000001  1
  Ga  Ga12  1  0.22280100  0.37041801  0.37041801  1
  Ga  Ga13  1  0.77719902  0.62958202  0.62958202  1
  Ga  Ga14  1  0.22280100  0.62958202  0.62958202  1
  Ga  Ga15  1  0.72280101  0.87041802  0.12958200  1
  Ga  Ga16  1  0.27719901  0.87041802  0.12958200  1
  Ga  Ga17  1  0.77719902  0.37041801  0.37041801  1
  Ga  Ga18  1  0.27719901  0.12958200  0.87041802  1
  Ga  Ga19  1  0.72280101  0.12958200  0.87041802  1
