# generated using pymatgen
data_Tb(HO)3
_symmetry_space_group_name_H-M   'P 1'
_cell_length_a   3.69077492
_cell_length_b   6.42764378
_cell_length_c   6.42764330
_cell_angle_alpha   120.00000763
_cell_angle_beta   90.00000000
_cell_angle_gamma   90.00000000
_symmetry_Int_Tables_number   1
_chemical_formula_structural   Tb(HO)3
_chemical_formula_sum   'Tb2 H6 O6'
_cell_volume   132.05405034
_cell_formula_units_Z   2
loop_
 _symmetry_equiv_pos_site_id
 _symmetry_equiv_pos_as_xyz
  1  'x, y, z'
loop_
 _atom_site_type_symbol
 _atom_site_label
 _atom_site_symmetry_multiplicity
 _atom_site_fract_x
 _atom_site_fract_y
 _atom_site_fract_z
 _atom_site_occupancy
  Tb  Tb0  1  0.75000002  0.66666671  0.33333337  1
  Tb  Tb1  1  0.25000001  0.33333336  0.66666667  1
  H  H2  1  0.75000002  0.14071101  0.86417599  1
  H  H3  1  0.75000002  0.13582401  0.27653500  1
  H  H4  1  0.75000002  0.72346505  0.85928903  1
  H  H5  1  0.25000001  0.85928906  0.13582405  1
  H  H6  1  0.25000001  0.86417606  0.72346504  1
  H  H7  1  0.25000001  0.27653502  0.14071101  1
  O  O8  1  0.75000002  0.08355301  0.69235499  1
  O  O9  1  0.75000002  0.30764502  0.39119801  1
  O  O10  1  0.75000002  0.60880204  0.91644702  1
  O  O11  1  0.25000001  0.91644706  0.30764505  1
  O  O12  1  0.25000001  0.69235505  0.60880203  1
  O  O13  1  0.25000001  0.39119803  0.08355302  1
