# generated using pymatgen
data_Ga6S7
_symmetry_space_group_name_H-M   'P 1'
_cell_length_a   6.95768976
_cell_length_b   6.96194601
_cell_length_c   7.07046890
_cell_angle_alpha   89.99639130
_cell_angle_beta   60.52873611
_cell_angle_gamma   60.03707886
_symmetry_Int_Tables_number   1
_chemical_formula_structural   Ga6S7
_chemical_formula_sum   'Ga6 S7'
_cell_volume   244.23420432
_cell_formula_units_Z   1
loop_
 _symmetry_equiv_pos_site_id
 _symmetry_equiv_pos_as_xyz
  1  'x, y, z'
loop_
 _atom_site_type_symbol
 _atom_site_label
 _atom_site_symmetry_multiplicity
 _atom_site_fract_x
 _atom_site_fract_y
 _atom_site_fract_z
 _atom_site_occupancy
  S  S0  1  0.24303503  0.62850300  0.88610200  1
  S  S1  1  0.02660102  0.45684000  0.48964199  1
  S  S2  1  0.46697800  0.01662500  0.48937702  1
  S  S3  1  0.02669400  0.01666000  0.48948501  1
  S  S4  1  0.49129200  0.00415200  0.01359500  1
  Ga  Ga5  1  0.49470504  0.75790200  0.25294697  1
  S  S6  1  0.97498804  0.76256000  0.73250599  1
  S  S7  1  0.96825004  0.76599000  0.29740698  1
  Ga  Ga8  1  0.52974704  0.76259400  0.73266299  1
  Ga  Ga9  1  0.99800501  0.25087500  0.75308402  1
  Ga  Ga10  1  0.49459401  0.24728200  0.25280000  1
  Ga  Ga11  1  0.52980501  0.20762200  0.73267601  1
  Ga  Ga12  1  0.00528501  0.24740100  0.25272100  1
