# generated using pymatgen
data_Ca4Ga3SnO12
_symmetry_space_group_name_H-M   'P 1'
_cell_length_a   5.44188976
_cell_length_b   5.66115808
_cell_length_c   7.76464558
_cell_angle_alpha   90.00001526
_cell_angle_beta   89.73725891
_cell_angle_gamma   89.99985504
_symmetry_Int_Tables_number   1
_chemical_formula_structural   Ca4Ga3SnO12
_chemical_formula_sum   'Ca4 Ga3 Sn1 O12'
_cell_volume   239.20601327
_cell_formula_units_Z   1
loop_
 _symmetry_equiv_pos_site_id
 _symmetry_equiv_pos_as_xyz
  1  'x, y, z'
loop_
 _atom_site_type_symbol
 _atom_site_label
 _atom_site_symmetry_multiplicity
 _atom_site_fract_x
 _atom_site_fract_y
 _atom_site_fract_z
 _atom_site_occupancy
  Ga  Ga0  1  0.50001302  0.00000000  0.50000302  1
  Ga  Ga1  1  0.99998404  0.50001599  0.99999102  1
  Sn  Sn2  1  0.99999504  0.50000099  0.50000102  1
  Ga  Ga3  1  0.49999202  0.00000100  0.00000201  1
  Ca  Ca4  1  0.01001300  0.05656300  0.24995600  1
  Ca  Ca5  1  0.48998802  0.55656199  0.25004500  1
  Ca  Ca6  1  0.51001402  0.44343499  0.74995501  1
  Ca  Ca7  1  0.98998804  0.94343599  0.75004501  1
  O  O8  1  0.81125703  0.21167700  0.95505403  1
  O  O9  1  0.79099103  0.19318200  0.54352702  1
  O  O10  1  0.90911304  0.47360099  0.24221401  1
  O  O11  1  0.18874500  0.78832199  0.04494598  1
  O  O12  1  0.40911302  0.02639600  0.74221802  1
  O  O13  1  0.68874102  0.71167599  0.54494600  1
  O  O14  1  0.70901203  0.69318099  0.95647401  1
  O  O15  1  0.20901300  0.80681499  0.45647399  1
  O  O16  1  0.59088902  0.97360099  0.25778299  1
  O  O17  1  0.31125901  0.28832300  0.45505301  1
  O  O18  1  0.29099201  0.30681500  0.04352600  1
  O  O19  1  0.09088800  0.52639599  0.75778600  1
