# generated using pymatgen
data_Ba3ZnW2O9
_symmetry_space_group_name_H-M   'P 1'
_cell_length_a   5.85428619
_cell_length_b   5.86202049
_cell_length_c   7.19110680
_cell_angle_alpha   90.11072540
_cell_angle_beta   90.09644318
_cell_angle_gamma   60.12882614
_symmetry_Int_Tables_number   1
_chemical_formula_structural   Ba3ZnW2O9
_chemical_formula_sum   'Ba3 Zn1 W2 O9'
_cell_volume   213.99764931
_cell_formula_units_Z   1
loop_
 _symmetry_equiv_pos_site_id
 _symmetry_equiv_pos_as_xyz
  1  'x, y, z'
loop_
 _atom_site_type_symbol
 _atom_site_label
 _atom_site_symmetry_multiplicity
 _atom_site_fract_x
 _atom_site_fract_y
 _atom_site_fract_z
 _atom_site_occupancy
  Ba  Ba0  1  0.00000000  0.00000000  0.00000000  1
  Ba  Ba1  1  0.33341101  0.33241599  0.33497699  1
  Ba  Ba2  1  0.66658902  0.66758397  0.66502297  1
  W  W3  1  0.33342301  0.33339699  0.82218200  1
  W  W4  1  0.66651335  0.66666664  0.17781796  1
  Zn  Zn5  1  0.00000000  0.00000000  0.50000001  1
  O  O6  1  0.00000001  0.49999998  -0.00000001  1
  O  O7  1  0.50000001  0.49999998  0.99999999  1
  O  O8  1  0.50000000  0.00000000  -0.00000002  1
  O  O9  1  0.65716501  0.17078799  0.67476499  1
  O  O10  1  0.17128000  0.17064899  0.67377701  1
  O  O11  1  0.17128901  0.65657997  0.67497199  1
  O  O12  1  0.34283502  0.82921197  0.32523497  1
  O  O13  1  0.82871902  0.82935197  0.32622296  1
  O  O14  1  0.82871101  0.34341999  0.32502797  1
