# generated using pymatgen
data_TbB4
_symmetry_space_group_name_H-M   'P 1'
_cell_length_a   4.00815296
_cell_length_b   7.08618593
_cell_length_c   7.08618593
_cell_angle_alpha   90.00000000
_cell_angle_beta   90.00000000
_cell_angle_gamma   90.00000000
_symmetry_Int_Tables_number   1
_chemical_formula_structural   TbB4
_chemical_formula_sum   'Tb4 B16'
_cell_volume   201.26551733
_cell_formula_units_Z   4
loop_
 _symmetry_equiv_pos_site_id
 _symmetry_equiv_pos_as_xyz
  1  'x, y, z'
loop_
 _atom_site_type_symbol
 _atom_site_label
 _atom_site_symmetry_multiplicity
 _atom_site_fract_x
 _atom_site_fract_y
 _atom_site_fract_z
 _atom_site_occupancy
  Tb  Tb0  1  0.00000000  0.31766400  0.18233600  1
  Tb  Tb1  1  0.00000000  0.68233601  0.81766401  1
  Tb  Tb2  1  1.00000001  0.18233600  0.68233601  1
  Tb  Tb3  1  0.00000000  0.81766401  0.31766400  1
  B  B4  1  0.79728401  0.50000000  0.50000000  1
  B  B5  1  0.50000000  0.08693300  0.41306700  1
  B  B6  1  0.50000000  0.58693301  0.08693300  1
  B  B7  1  0.50000000  0.67637501  0.53854601  1
  B  B8  1  0.50000000  0.91306701  0.58693301  1
  B  B9  1  0.50000000  0.46145400  0.67637501  1
  B  B10  1  0.20271600  0.00000000  -0.00000000  1
  B  B11  1  0.20271600  0.50000000  0.50000000  1
  B  B12  1  0.79728401  0.00000000  -0.00000000  1
  B  B13  1  0.50000000  0.82362501  0.03854600  1
  B  B14  1  0.50000000  0.41306700  0.91306701  1
  B  B15  1  0.50000000  0.96145401  0.82362501  1
  B  B16  1  0.50000000  0.32362500  0.46145400  1
  B  B17  1  0.50000000  0.53854601  0.32362500  1
  B  B18  1  0.50000000  0.03854600  0.17637500  1
  B  B19  1  0.50000000  0.17637500  0.96145401  1
