# generated using pymatgen
data_Ho(CoB)2
_symmetry_space_group_name_H-M   'P 1'
_cell_length_a   3.55184007
_cell_length_b   3.55184007
_cell_length_c   5.34698820
_cell_angle_alpha   109.39839172
_cell_angle_beta   109.39839172
_cell_angle_gamma   90.00000000
_symmetry_Int_Tables_number   1
_chemical_formula_structural   Ho(CoB)2
_chemical_formula_sum   'Ho1 Co2 B2'
_cell_volume   59.55095730
_cell_formula_units_Z   1
loop_
 _symmetry_equiv_pos_site_id
 _symmetry_equiv_pos_as_xyz
  1  'x, y, z'
loop_
 _atom_site_type_symbol
 _atom_site_label
 _atom_site_symmetry_multiplicity
 _atom_site_fract_x
 _atom_site_fract_y
 _atom_site_fract_z
 _atom_site_occupancy
  Ho  Ho0  1  0.00000000  0.00000000  0.00000000  1
  Co  Co1  1  0.74999999  0.25000000  0.49999999  1
  Co  Co2  1  0.25000000  0.74999999  0.49999999  1
  B  B3  1  0.65227999  0.65227999  0.30455999  1
  B  B4  1  0.34772000  0.34771999  0.69543998  1
