# generated using pymatgen
data_CsMg3(SiO3)4
_symmetry_space_group_name_H-M   'P 1'
_cell_length_a   5.25304985
_cell_length_b   5.31933260
_cell_length_c   10.37244320
_cell_angle_alpha   85.73575592
_cell_angle_beta   81.33892822
_cell_angle_gamma   60.41134644
_symmetry_Int_Tables_number   1
_chemical_formula_structural   CsMg3(SiO3)4
_chemical_formula_sum   'Cs1 Mg3 Si4 O12'
_cell_volume   249.16364231
_cell_formula_units_Z   1
loop_
 _symmetry_equiv_pos_site_id
 _symmetry_equiv_pos_as_xyz
  1  'x, y, z'
loop_
 _atom_site_type_symbol
 _atom_site_label
 _atom_site_symmetry_multiplicity
 _atom_site_fract_x
 _atom_site_fract_y
 _atom_site_fract_z
 _atom_site_occupancy
  Cs  Cs0  1  0.00000000  0.00000000  0.00000000  1
  Mg  Mg1  1  0.83436701  0.33126600  0.50000000  1
  Mg  Mg2  1  0.16563299  0.66873401  0.49999998  1
  Mg  Mg3  1  0.50000001  0.00000000  0.50000000  1
  Si  Si4  1  0.74188800  0.66592501  0.77036498  1
  Si  Si5  1  0.25811200  0.33407500  0.22963499  1
  Si  Si6  1  0.59218700  0.66592501  0.22963500  1
  Si  Si7  1  0.40781300  0.33407500  0.77036498  1
  O  O8  1  0.53087501  0.00000000  0.82993699  1
  O  O9  1  0.46912499  1.00000001  0.17006299  1
  O  O10  1  0.12835098  1.00000001  0.59221797  1
  O  O11  1  0.87164902  0.00000000  0.40778201  1
  O  O12  1  0.05578999  0.52588500  0.83475697  1
  O  O13  1  0.94421001  0.47411500  0.16524301  1
  O  O14  1  0.41832500  0.52588500  0.16524300  1
  O  O15  1  0.58167500  0.47411500  0.83475698  1
  O  O16  1  0.78780000  0.65969201  0.61410099  1
  O  O17  1  0.21220000  0.34030800  0.38589899  1
  O  O18  1  0.55250800  0.65969201  0.38589899  1
  O  O19  1  0.44749200  0.34030800  0.61410099  1
