# generated using pymatgen
data_WI5
_symmetry_space_group_name_H-M   'P 1'
_cell_length_a   7.67343187
_cell_length_b   8.20218277
_cell_length_c   10.73925972
_cell_angle_alpha   109.58089447
_cell_angle_beta   91.09754181
_cell_angle_gamma   115.93524170
_symmetry_Int_Tables_number   1
_chemical_formula_structural   WI5
_chemical_formula_sum   'W2 I10'
_cell_volume   561.63036576
_cell_formula_units_Z   2
loop_
 _symmetry_equiv_pos_site_id
 _symmetry_equiv_pos_as_xyz
  1  'x, y, z'
loop_
 _atom_site_type_symbol
 _atom_site_label
 _atom_site_symmetry_multiplicity
 _atom_site_fract_x
 _atom_site_fract_y
 _atom_site_fract_z
 _atom_site_occupancy
  W  W0  1  0.09978999  0.21537700  0.22125701  1
  W  W1  1  0.90020996  0.78462299  0.77874303  1
  I  I2  1  0.88019398  0.36753599  0.14925303  1
  I  I3  1  0.77928296  0.82707299  0.04330104  1
  I  I4  1  0.29694700  0.01667700  0.25108100  1
  I  I5  1  0.70305295  0.98332299  0.74891903  1
  I  I6  1  0.22071699  0.17292700  0.95669900  1
  I  I7  1  0.11980597  0.63246399  0.85074701  1
  I  I8  1  0.42561197  0.56240899  0.32519202  1
  I  I9  1  0.92323098  0.17396000  0.42882602  1
  I  I10  1  0.57438798  0.43759099  0.67480802  1
  I  I11  1  0.07676896  0.82603999  0.57117402  1
