# generated using pymatgen
data_Lu2GeTe
_symmetry_space_group_name_H-M   'P 1'
_cell_length_a   3.08551598
_cell_length_b   3.08551574
_cell_length_c   9.47325897
_cell_angle_alpha   90.00000000
_cell_angle_beta   90.00000000
_cell_angle_gamma   120.00000000
_symmetry_Int_Tables_number   1
_chemical_formula_structural   Lu2GeTe
_chemical_formula_sum   'Lu2 Ge1 Te1'
_cell_volume   78.10621756
_cell_formula_units_Z   1
loop_
 _symmetry_equiv_pos_site_id
 _symmetry_equiv_pos_as_xyz
  1  'x, y, z'
loop_
 _atom_site_type_symbol
 _atom_site_label
 _atom_site_symmetry_multiplicity
 _atom_site_fract_x
 _atom_site_fract_y
 _atom_site_fract_z
 _atom_site_occupancy
  Te  Te0  1  0.66666666  0.33333333  -0.00000000  1
  Ge  Ge1  1  0.66666666  0.33333333  0.50000000  1
  Lu  Lu2  1  0.33333331  0.66666666  0.74680500  1
  Lu  Lu3  1  0.33333331  0.66666666  0.25319500  1
