# generated using pymatgen
data_CsMgI3
_symmetry_space_group_name_H-M   'P 1'
_cell_length_a   6.96396112
_cell_length_b   8.28977585
_cell_length_c   8.28977680
_cell_angle_alpha   60.00000000
_cell_angle_beta   90.00000000
_cell_angle_gamma   90.00000000
_symmetry_Int_Tables_number   1
_chemical_formula_structural   CsMgI3
_chemical_formula_sum   'Cs2 Mg2 I6'
_cell_volume   414.45043031
_cell_formula_units_Z   2
loop_
 _symmetry_equiv_pos_site_id
 _symmetry_equiv_pos_as_xyz
  1  'x, y, z'
loop_
 _atom_site_type_symbol
 _atom_site_label
 _atom_site_symmetry_multiplicity
 _atom_site_fract_x
 _atom_site_fract_y
 _atom_site_fract_z
 _atom_site_occupancy
  Cs  Cs0  1  0.25000000  0.66666669  0.66666661  1
  Cs  Cs1  1  0.74999999  0.33333334  0.33333331  1
  Mg  Mg2  1  0.49999999  0.00000000  0.00000000  1
  Mg  Mg3  1  0.00000000  0.00000000  0.00000000  1
  I  I4  1  0.25000000  0.15827301  0.15827399  1
  I  I5  1  0.74999999  0.84172703  0.31654596  1
  I  I6  1  0.25000000  0.15827301  0.68345396  1
  I  I7  1  0.74999999  0.84172703  0.84172593  1
  I  I8  1  0.74999999  0.31654701  0.84172594  1
  I  I9  1  0.25000000  0.68345302  0.15827397  1
