# generated using pymatgen
data_Ho
_symmetry_space_group_name_H-M   'P 1'
_cell_length_a   4.71228218
_cell_length_b   4.83157492
_cell_length_c   9.70231056
_cell_angle_alpha   90.00000000
_cell_angle_beta   90.00000000
_cell_angle_gamma   90.00000000
_symmetry_Int_Tables_number   1
_chemical_formula_structural   Ho
_chemical_formula_sum   Ho8
_cell_volume   220.89972683
_cell_formula_units_Z   8
loop_
 _symmetry_equiv_pos_site_id
 _symmetry_equiv_pos_as_xyz
  1  'x, y, z'
loop_
 _atom_site_type_symbol
 _atom_site_label
 _atom_site_symmetry_multiplicity
 _atom_site_fract_x
 _atom_site_fract_y
 _atom_site_fract_z
 _atom_site_occupancy
  Ho  Ho0  1  0.00000000  0.00000000  0.76092403  1
  Ho  Ho1  1  0.00000000  0.00000000  0.23907601  1
  Ho  Ho2  1  0.49999998  0.00000000  0.50000002  1
  Ho  Ho3  1  0.00000000  0.50000001  -0.00000000  1
  Ho  Ho4  1  0.00000000  0.50000001  0.50000002  1
  Ho  Ho5  1  0.49999998  0.50000001  0.75342803  1
  Ho  Ho6  1  0.49999998  0.50000001  0.24657201  1
  Ho  Ho7  1  0.49999998  0.00000000  0.00000000  1
