# generated using pymatgen
data_Cs2Ba4BiS7N2
_symmetry_space_group_name_H-M   'P 1'
_cell_length_a   4.15243101
_cell_length_b   9.25405502
_cell_length_c   13.02525234
_cell_angle_alpha   109.07097626
_cell_angle_beta   90.00000000
_cell_angle_gamma   90.00000000
_symmetry_Int_Tables_number   1
_chemical_formula_structural   Cs2Ba4BiS7N2
_chemical_formula_sum   'Cs2 Ba4 Bi1 S7 N2'
_cell_volume   473.04787561
_cell_formula_units_Z   1
loop_
 _symmetry_equiv_pos_site_id
 _symmetry_equiv_pos_as_xyz
  1  'x, y, z'
loop_
 _atom_site_type_symbol
 _atom_site_label
 _atom_site_symmetry_multiplicity
 _atom_site_fract_x
 _atom_site_fract_y
 _atom_site_fract_z
 _atom_site_occupancy
  Cs  Cs0  1  0.25000000  0.68385898  0.13817497  1
  S  S1  1  0.75000000  0.31614099  0.86182497  1
  S  S2  1  0.25000000  0.05708300  0.35918599  1
  S  S3  1  0.75000000  0.94291698  0.64081395  1
  Bi  Bi4  1  0.25000000  0.18374600  0.10801899  1
  S  S5  1  0.75000000  0.81625398  0.89198095  1
  N  N6  1  0.25000000  0.58069699  0.39162597  1
  N  N7  1  0.75000000  0.41930299  0.60837397  1
  S  S8  1  0.25000000  0.05962500  0.89566498  1
  S  S9  1  0.75000000  0.94037498  0.10433496  1
  Ba  Ba10  1  0.25000000  0.65195698  0.60374596  1
  Ba  Ba11  1  0.75000000  0.34804299  0.39625398  1
  Cs  Cs12  1  0.25000000  0.61000999  0.88253196  1
  S  S13  1  0.75000000  0.38998999  0.11746798  1
  Ba  Ba14  1  0.25000000  0.21057800  0.60774598  1
  Ba  Ba15  1  0.75000000  0.78942198  0.39225396  1
