# generated using pymatgen
data_Ga2Co
_symmetry_space_group_name_H-M   'P 1'
_cell_length_a   3.75819612
_cell_length_b   6.27625179
_cell_length_c   7.02458191
_cell_angle_alpha   90.00000000
_cell_angle_beta   90.00000000
_cell_angle_gamma   90.00000000
_symmetry_Int_Tables_number   1
_chemical_formula_structural   Ga2Co
_chemical_formula_sum   'Ga8 Co4'
_cell_volume   165.69151871
_cell_formula_units_Z   4
loop_
 _symmetry_equiv_pos_site_id
 _symmetry_equiv_pos_as_xyz
  1  'x, y, z'
loop_
 _atom_site_type_symbol
 _atom_site_label
 _atom_site_symmetry_multiplicity
 _atom_site_fract_x
 _atom_site_fract_y
 _atom_site_fract_z
 _atom_site_occupancy
  Ga  Ga0  1  0.24999999  0.01855100  0.81629501  1
  Ga  Ga1  1  0.24999999  0.51855102  0.68370501  1
  Ga  Ga2  1  0.74999998  0.98144903  0.18370500  1
  Ga  Ga3  1  0.74999998  0.48144902  0.31629500  1
  Co  Co4  1  0.24999999  0.14694300  0.43970701  1
  Co  Co5  1  0.24999999  0.64694302  0.06029300  1
  Co  Co6  1  0.74999998  0.85305703  0.56029301  1
  Co  Co7  1  0.74999998  0.35305701  0.93970701  1
  Ga  Ga8  1  0.24999999  0.27916601  0.11615400  1
  Ga  Ga9  1  0.24999999  0.77916603  0.38384600  1
  Ga  Ga10  1  0.74999998  0.72083402  0.88384601  1
  Ga  Ga11  1  0.74999998  0.22083401  0.61615401  1
