# generated using pymatgen
data_BaCr5S8
_symmetry_space_group_name_H-M   'P 1'
_cell_length_a   3.31249094
_cell_length_b   8.78543758
_cell_length_c   8.88183689
_cell_angle_alpha   103.79821777
_cell_angle_beta   100.74716949
_cell_angle_gamma   90.00000000
_symmetry_Int_Tables_number   1
_chemical_formula_structural   BaCr5S8
_chemical_formula_sum   'Ba1 Cr5 S8'
_cell_volume   246.34618890
_cell_formula_units_Z   1
loop_
 _symmetry_equiv_pos_site_id
 _symmetry_equiv_pos_as_xyz
  1  'x, y, z'
loop_
 _atom_site_type_symbol
 _atom_site_label
 _atom_site_symmetry_multiplicity
 _atom_site_fract_x
 _atom_site_fract_y
 _atom_site_fract_z
 _atom_site_occupancy
  Ba  Ba0  1  0.50000000  0.49999998  -0.00000001  1
  Cr  Cr1  1  0.00000000  0.00000000  0.00000000  1
  Cr  Cr2  1  0.64703500  0.98653197  0.29406898  1
  Cr  Cr3  1  0.35296501  0.01346800  0.70593100  1
  Cr  Cr4  1  0.70778601  0.33347099  0.41557199  1
  Cr  Cr5  1  0.29221400  0.66652898  0.58442799  1
  S  S6  1  0.42608900  0.83234497  0.85217798  1
  S  S7  1  0.57391101  0.16765499  0.14782200  1
  S  S8  1  0.91638301  0.18347599  0.83276699  1
  S  S9  1  0.08361699  0.81652397  0.16723299  1
  S  S10  1  0.83469301  0.50776698  0.66938499  1
  S  S11  1  0.16530700  0.49223298  0.33061499  1
  S  S12  1  0.76023001  0.84973597  0.52045999  1
  S  S13  1  0.23977000  0.15026399  0.47954000  1
