# generated using pymatgen
data_Ga
_symmetry_space_group_name_H-M   'P 1'
_cell_length_a   5.15707874
_cell_length_b   5.15707874
_cell_length_c   5.15707874
_cell_angle_alpha   97.23526764
_cell_angle_beta   97.23526764
_cell_angle_gamma   97.23526001
_symmetry_Int_Tables_number   1
_chemical_formula_structural   Ga
_chemical_formula_sum   Ga8
_cell_volume   133.57076674
_cell_formula_units_Z   8
loop_
 _symmetry_equiv_pos_site_id
 _symmetry_equiv_pos_as_xyz
  1  'x, y, z'
loop_
 _atom_site_type_symbol
 _atom_site_label
 _atom_site_symmetry_multiplicity
 _atom_site_fract_x
 _atom_site_fract_y
 _atom_site_fract_z
 _atom_site_occupancy
  Ga  Ga0  1  0.50000004  0.50000001  0.50000005  1
  Ga  Ga1  1  0.00000000  0.00000000  0.00000000  1
  Ga  Ga2  1  0.29477302  0.29477301  0.93176500  1
  Ga  Ga3  1  0.29477307  0.93176502  0.29477308  1
  Ga  Ga4  1  0.70522701  0.06823500  0.70522702  1
  Ga  Ga5  1  0.70522706  0.70522702  0.06823510  1
  Ga  Ga6  1  0.06823505  0.70522702  0.70522703  1
  Ga  Ga7  1  0.93176503  0.29477301  0.29477307  1
