# generated using pymatgen
data_Te4Mo3Se2
_symmetry_space_group_name_H-M   'P 1'
_cell_length_a   3.47741008
_cell_length_b   3.47740960
_cell_length_c   32.07518768
_cell_angle_alpha   90.00000000
_cell_angle_beta   90.00000000
_cell_angle_gamma   120.00000000
_symmetry_Int_Tables_number   1
_chemical_formula_structural   Te4Mo3Se2
_chemical_formula_sum   'Te4 Mo3 Se2'
_cell_volume   335.90123088
_cell_formula_units_Z   1
loop_
 _symmetry_equiv_pos_site_id
 _symmetry_equiv_pos_as_xyz
  1  'x, y, z'
loop_
 _atom_site_type_symbol
 _atom_site_label
 _atom_site_symmetry_multiplicity
 _atom_site_fract_x
 _atom_site_fract_y
 _atom_site_fract_z
 _atom_site_occupancy
  Te  Te0  1  0.66666663  0.33333333  0.94168998  1
  Te  Te1  1  0.66666663  0.33333333  0.47941499  1
  Te  Te2  1  0.66666663  0.33333333  0.82699098  1
  Te  Te3  1  0.66666663  0.33333333  0.36396499  1
  Mo  Mo4  1  0.00000000  0.00000000  0.88435098  1
  Mo  Mo5  1  0.00000000  0.00000000  0.42168399  1
  Mo  Mo6  1  0.66666663  0.33333333  0.65302099  1
  Se  Se7  1  0.00000000  0.00000000  0.60220099  1
  Se  Se8  1  0.00000000  0.00000000  0.70384199  1
