# generated using pymatgen
data_Ga2Co
_symmetry_space_group_name_H-M   'P 1'
_cell_length_a   3.71258712
_cell_length_b   6.26296186
_cell_length_c   6.26296186
_cell_angle_alpha   120.00000000
_cell_angle_beta   90.00000000
_cell_angle_gamma   90.00000000
_symmetry_Int_Tables_number   1
_chemical_formula_structural   Ga2Co
_chemical_formula_sum   'Ga6 Co3'
_cell_volume   126.11502191
_cell_formula_units_Z   3
loop_
 _symmetry_equiv_pos_site_id
 _symmetry_equiv_pos_as_xyz
  1  'x, y, z'
loop_
 _atom_site_type_symbol
 _atom_site_label
 _atom_site_symmetry_multiplicity
 _atom_site_fract_x
 _atom_site_fract_y
 _atom_site_fract_z
 _atom_site_occupancy
  Ga  Ga0  1  0.49999998  0.58539601  0.99999998  1
  Ga  Ga1  1  0.49999998  0.41460401  0.41460399  1
  Ga  Ga2  1  0.49999998  1.00000001  0.58539598  1
  Ga  Ga3  1  0.99999997  0.33333334  0.66666666  1
  Ga  Ga4  1  0.00000000  0.66666667  0.33333332  1
  Ga  Ga5  1  0.49999998  0.00000000  -0.00000000  1
  Co  Co6  1  -0.00000000  0.25288200  -0.00000000  1
  Co  Co7  1  0.99999997  0.74711801  0.74711798  1
  Co  Co8  1  0.00000000  1.00000001  0.25288198  1
