# generated using pymatgen
data_BaBPRh2N
_symmetry_space_group_name_H-M   'P 1'
_cell_length_a   3.89879990
_cell_length_b   3.89879990
_cell_length_c   6.05759859
_cell_angle_alpha   108.77246094
_cell_angle_beta   108.77246094
_cell_angle_gamma   90.00000000
_symmetry_Int_Tables_number   1
_chemical_formula_structural   BaBPRh2N
_chemical_formula_sum   'Ba1 B1 P1 Rh2 N1'
_cell_volume   81.99077018
_cell_formula_units_Z   1
loop_
 _symmetry_equiv_pos_site_id
 _symmetry_equiv_pos_as_xyz
  1  'x, y, z'
loop_
 _atom_site_type_symbol
 _atom_site_label
 _atom_site_symmetry_multiplicity
 _atom_site_fract_x
 _atom_site_fract_y
 _atom_site_fract_z
 _atom_site_occupancy
  Ba  Ba0  1  0.00000000  0.00000000  0.00000000  1
  P  P1  1  0.36218499  0.36218500  0.72436996  1
  B  B2  1  0.63781498  0.63781500  0.27562995  1
  Rh  Rh3  1  0.75000000  0.25000000  0.49999996  1
  Rh  Rh4  1  0.24999998  0.75000000  0.49999995  1
  N  N5  1  0.49999999  0.50000000  -0.00000004  1
