# generated using pymatgen
data_Ga
_symmetry_space_group_name_H-M   'P 1'
_cell_length_a   5.10365629
_cell_length_b   5.10462475
_cell_length_c   9.43055248
_cell_angle_alpha   90.03034973
_cell_angle_beta   90.00000000
_cell_angle_gamma   119.99372864
_symmetry_Int_Tables_number   1
_chemical_formula_structural   Ga
_chemical_formula_sum   Ga12
_cell_volume   212.78468607
_cell_formula_units_Z   12
loop_
 _symmetry_equiv_pos_site_id
 _symmetry_equiv_pos_as_xyz
  1  'x, y, z'
loop_
 _atom_site_type_symbol
 _atom_site_label
 _atom_site_symmetry_multiplicity
 _atom_site_fract_x
 _atom_site_fract_y
 _atom_site_fract_z
 _atom_site_occupancy
  Ga  Ga0  1  0.66666665  0.33333332  0.24972598  1
  Ga  Ga1  1  0.33336699  0.66666663  0.75027399  1
  Ga  Ga2  1  0.67782399  0.00000000  0.49999998  1
  Ga  Ga3  1  0.32185499  0.32160798  0.50001199  1
  Ga  Ga4  1  0.00024699  0.67839197  0.49998800  1
  Ga  Ga5  1  0.32130900  0.00000000  -0.00000001  1
  Ga  Ga6  1  0.67839598  0.67815597  0.00000098  1
  Ga  Ga7  1  0.00024000  0.32184398  0.99999900  1
  Ga  Ga8  1  0.66649699  0.33325698  0.75007398  1
  Ga  Ga9  1  0.33323999  0.66674297  0.24992599  1
  Ga  Ga10  1  0.00029400  0.00006800  0.75019300  1
  Ga  Ga11  1  0.00022698  0.99993195  0.24980700  1
