# generated using pymatgen
data_CsBaAl4HN11
_symmetry_space_group_name_H-M   'P 1'
_cell_length_a   6.26042223
_cell_length_b   6.30550718
_cell_length_c   6.76580334
_cell_angle_alpha   114.09223938
_cell_angle_beta   90.00000000
_cell_angle_gamma   90.00000000
_symmetry_Int_Tables_number   1
_chemical_formula_structural   CsBaAl4HN11
_chemical_formula_sum   'Cs1 Ba1 Al4 H1 N11'
_cell_volume   243.81544884
_cell_formula_units_Z   1
loop_
 _symmetry_equiv_pos_site_id
 _symmetry_equiv_pos_as_xyz
  1  'x, y, z'
loop_
 _atom_site_type_symbol
 _atom_site_label
 _atom_site_symmetry_multiplicity
 _atom_site_fract_x
 _atom_site_fract_y
 _atom_site_fract_z
 _atom_site_occupancy
  Cs  Cs0  1  0.74999997  0.81005499  0.77872905  1
  Ba  Ba1  1  0.24999999  0.18994500  0.22127101  1
  Al  Al2  1  0.45170498  0.30104600  0.74502103  1
  Al  Al3  1  0.95170497  0.69895399  0.25497904  1
  Al  Al4  1  0.54829498  0.69895399  0.25497904  1
  Al  Al5  1  0.04829500  0.30104600  0.74502103  1
  N  N6  1  0.74999997  0.36159800  0.94414003  1
  N  N7  1  0.24999999  0.63840199  0.05586003  1
  N  N8  1  0.74999997  0.06331200  0.41240801  1
  N  N9  1  0.24999999  0.93668799  0.58759205  1
  N  N10  1  0.74999997  0.32973500  0.27177702  1
  H  H11  1  0.24999999  0.67026499  0.72822304  1
  N  N12  1  0.74999997  0.47847600  0.26016703  1
  N  N13  1  0.24999999  0.52152399  0.73983304  1
  N  N14  1  0.74999997  0.94045799  0.26661205  1
  N  N15  1  0.24999999  0.05954200  0.73338801  1
  N  N16  1  0.74999997  0.31594400  0.78557903  1
  N  N17  1  0.24999999  0.68405599  0.21442104  1
