# generated using pymatgen
data_Mn5O2F11
_symmetry_space_group_name_H-M   'P 1'
_cell_length_a   4.70737123
_cell_length_b   5.63291597
_cell_length_c   7.78142786
_cell_angle_alpha   86.10635376
_cell_angle_beta   89.37565613
_cell_angle_gamma   89.12282562
_symmetry_Int_Tables_number   1
_chemical_formula_structural   Mn5O2F11
_chemical_formula_sum   'Mn5 O2 F11'
_cell_volume   205.82367445
_cell_formula_units_Z   1
loop_
 _symmetry_equiv_pos_site_id
 _symmetry_equiv_pos_as_xyz
  1  'x, y, z'
loop_
 _atom_site_type_symbol
 _atom_site_label
 _atom_site_symmetry_multiplicity
 _atom_site_fract_x
 _atom_site_fract_y
 _atom_site_fract_z
 _atom_site_occupancy
  Mn  Mn0  1  0.49999995  0.50000001  -0.00000001  1
  Mn  Mn1  1  0.50735094  0.82558302  0.66666667  1
  Mn  Mn2  1  0.49264897  0.17441700  0.33336699  1
  Mn  Mn3  1  0.98726694  0.33973101  0.67072998  1
  Mn  Mn4  1  0.01273297  0.66026902  0.32927001  1
  F  F5  1  0.00000000  0.00000000  0.00000000  1
  O  O6  1  0.69361694  0.53560801  0.77009299  1
  O  O7  1  0.30638297  0.46439201  0.22990700  1
  F  F8  1  0.80389694  0.36852601  0.43434198  1
  F  F9  1  0.80247996  0.03451100  0.76757499  1
  F  F10  1  0.80421393  0.70294502  0.10137798  1
  F  F11  1  0.70012096  0.20030700  0.10229298  1
  F  F12  1  0.69814993  0.86868702  0.42993899  1
  F  F13  1  0.30184998  0.13131300  0.57006100  1
  F  F14  1  0.29987895  0.79969302  0.89770701  1
  F  F15  1  0.19751995  0.96548902  0.23242501  1
  F  F16  1  0.19578598  0.29705501  0.89862201  1
  F  F17  1  0.19610296  0.63147401  0.56565801  1
