# generated using pymatgen
data_BaLa2(BOs)7
_symmetry_space_group_name_H-M   'P 1'
_cell_length_a   5.58773422
_cell_length_b   5.65958500
_cell_length_c   9.24147987
_cell_angle_alpha   81.41711426
_cell_angle_beta   72.40311432
_cell_angle_gamma   60.41907883
_symmetry_Int_Tables_number   1
_chemical_formula_structural   BaLa2(BOs)7
_chemical_formula_sum   'Ba1 La2 B7 Os7'
_cell_volume   242.26924940
_cell_formula_units_Z   1
loop_
 _symmetry_equiv_pos_site_id
 _symmetry_equiv_pos_as_xyz
  1  'x, y, z'
loop_
 _atom_site_type_symbol
 _atom_site_label
 _atom_site_symmetry_multiplicity
 _atom_site_fract_x
 _atom_site_fract_y
 _atom_site_fract_z
 _atom_site_occupancy
  Ba  Ba0  1  0.00000000  0.00000000  0.00000000  1
  La  La1  1  0.81798995  0.00000000  0.36402003  1
  La  La2  1  0.18200999  0.00000000  0.63598000  1
  B  B3  1  0.66916093  0.66167799  0.00000005  1
  Os  Os4  1  0.33083896  0.33832200  0.00000003  1
  Os  Os5  1  0.16499398  0.32807200  0.34194002  1
  B  B6  1  0.49306594  0.67192799  0.34194004  1
  B  B7  1  0.83500592  0.67192799  0.65806005  1
  B  B8  1  0.50693395  0.32807200  0.65806003  1
  B  B9  1  0.41418595  0.49999999  0.17162803  1
  B  B10  1  0.41317998  0.00000000  0.17364002  1
  Os  Os11  1  0.58681996  0.00000000  0.82636002  1
  Os  Os12  1  0.74999993  0.49999999  0.50000004  1
  B  B13  1  0.24999996  0.49999999  0.50000002  1
  Os  Os14  1  0.58581394  0.49999999  0.82837203  1
  Os  Os15  1  0.08581397  0.49999999  0.82837201  1
  Os  Os16  1  0.91418592  0.49999999  0.17162805  1
