# generated using pymatgen
data_Al2ZnSi2H3O8
_symmetry_space_group_name_H-M   'P 1'
_cell_length_a   3.10578609
_cell_length_b   4.81111526
_cell_length_c   9.81970882
_cell_angle_alpha   104.14174652
_cell_angle_beta   99.09897614
_cell_angle_gamma   90.00000000
_symmetry_Int_Tables_number   1
_chemical_formula_structural   Al2ZnSi2H3O8
_chemical_formula_sum   'Al2 Zn1 Si2 H3 O8'
_cell_volume   140.37743446
_cell_formula_units_Z   1
loop_
 _symmetry_equiv_pos_site_id
 _symmetry_equiv_pos_as_xyz
  1  'x, y, z'
loop_
 _atom_site_type_symbol
 _atom_site_label
 _atom_site_symmetry_multiplicity
 _atom_site_fract_x
 _atom_site_fract_y
 _atom_site_fract_z
 _atom_site_occupancy
  Zn  Zn0  1  0.99874797  0.48154600  0.99749602  1
  Al  Al1  1  0.18074100  0.37769800  0.36148201  1
  Al  Al2  1  0.82048698  0.62284000  0.64097402  1
  H  H3  1  0.41684699  0.09738200  0.83369402  1
  H  H4  1  0.50466199  0.95733700  0.00932401  1
  H  H5  1  0.58678699  0.90576500  0.17357402  1
  Si  Si6  1  0.68840799  0.92571700  0.37681602  1
  Si  Si7  1  0.31143699  0.07218600  0.62287401  1
  O  O8  1  0.46966399  0.20076500  0.93932802  1
  O  O9  1  0.53213399  0.79425800  0.06426801  1
  O  O10  1  0.09390200  0.41939400  0.18780401  1
  O  O11  1  0.90713598  0.57735400  0.81427202  1
  O  O12  1  0.66089398  0.08008200  0.32178801  1
  O  O13  1  0.33725700  0.91240200  0.67451403  1
  O  O14  1  0.28300099  0.35715600  0.56600202  1
  O  O15  1  0.71729798  0.64038500  0.43459602  1
