# generated using pymatgen
data_Np4AsP2Au
_symmetry_space_group_name_H-M   'P 1'
_cell_length_a   5.74675417
_cell_length_b   5.74675417
_cell_length_c   7.27875519
_cell_angle_alpha   113.25114441
_cell_angle_beta   113.25114441
_cell_angle_gamma   90.00000000
_symmetry_Int_Tables_number   1
_chemical_formula_structural   Np4AsP2Au
_chemical_formula_sum   'Np4 As1 P2 Au1'
_cell_volume   199.43405163
_cell_formula_units_Z   1
loop_
 _symmetry_equiv_pos_site_id
 _symmetry_equiv_pos_as_xyz
  1  'x, y, z'
loop_
 _atom_site_type_symbol
 _atom_site_label
 _atom_site_symmetry_multiplicity
 _atom_site_fract_x
 _atom_site_fract_y
 _atom_site_fract_z
 _atom_site_occupancy
  Au  Au0  1  0.00000000  0.00000000  0.00000000  1
  P  P1  1  0.50000003  0.50000001  0.00000007  1
  P  P2  1  0.25000005  0.75000001  0.50000007  1
  As  As3  1  0.75000002  0.25000000  0.50000006  1
  Np  Np4  1  0.00000003  0.50000001  0.00000004  1
  Np  Np5  1  0.27547302  0.27547300  0.55094603  1
  Np  Np6  1  0.50000000  0.00000000  0.00000003  1
  Np  Np7  1  0.72452705  0.72452701  0.44905410  1
