# generated using pymatgen
data_Cs(PRh)2
_symmetry_space_group_name_H-M   'P 1'
_cell_length_a   3.96957612
_cell_length_b   3.96957612
_cell_length_c   7.49080849
_cell_angle_alpha   105.36476135
_cell_angle_beta   105.36476135
_cell_angle_gamma   90.00000000
_symmetry_Int_Tables_number   1
_chemical_formula_structural   Cs(PRh)2
_chemical_formula_sum   'Cs1 P2 Rh2'
_cell_volume   109.43655423
_cell_formula_units_Z   1
loop_
 _symmetry_equiv_pos_site_id
 _symmetry_equiv_pos_as_xyz
  1  'x, y, z'
loop_
 _atom_site_type_symbol
 _atom_site_label
 _atom_site_symmetry_multiplicity
 _atom_site_fract_x
 _atom_site_fract_y
 _atom_site_fract_z
 _atom_site_occupancy
  Cs  Cs0  1  0.00000000  0.00000000  0.00000000  1
  P  P1  1  0.34257099  0.34257099  0.68514198  1
  P  P2  1  0.65742897  0.65742898  0.31485798  1
  Rh  Rh3  1  0.74999997  0.24999999  0.49999998  1
  Rh  Rh4  1  0.24999999  0.74999997  0.49999998  1
