# generated using pymatgen
data_Lu(Co2Ge)2
_symmetry_space_group_name_H-M   'P 1'
_cell_length_a   3.89096498
_cell_length_b   7.07119513
_cell_length_c   7.31875992
_cell_angle_alpha   90.00000000
_cell_angle_beta   90.00000000
_cell_angle_gamma   90.00000000
_symmetry_Int_Tables_number   1
_chemical_formula_structural   Lu(Co2Ge)2
_chemical_formula_sum   'Lu2 Co8 Ge4'
_cell_volume   201.36669636
_cell_formula_units_Z   2
loop_
 _symmetry_equiv_pos_site_id
 _symmetry_equiv_pos_as_xyz
  1  'x, y, z'
loop_
 _atom_site_type_symbol
 _atom_site_label
 _atom_site_symmetry_multiplicity
 _atom_site_fract_x
 _atom_site_fract_y
 _atom_site_fract_z
 _atom_site_occupancy
  Lu  Lu0  1  1.00000000  0.49999999  0.50000001  1
  Lu  Lu1  1  0.50000000  0.00000000  0.00000000  1
  Co  Co2  1  0.50000000  0.85604498  0.40211700  1
  Co  Co3  1  0.50000000  0.14395500  0.59788301  1
  Co  Co4  1  0.00000000  0.64395499  0.90211701  1
  Co  Co5  1  1.00000000  0.35604499  0.09788300  1
  Co  Co6  1  0.50000000  0.58698899  0.14628000  1
  Co  Co7  1  0.50000000  0.41301099  0.85372001  1
  Co  Co8  1  0.00000000  0.91301098  0.64628001  1
  Co  Co9  1  1.00000000  0.08698900  0.35372000  1
  Ge  Ge10  1  0.50000000  0.27877500  0.29091800  1
  Ge  Ge11  1  0.50000000  0.72122499  0.70908201  1
  Ge  Ge12  1  1.00000000  0.22122500  0.79091801  1
  Ge  Ge13  1  0.00000000  0.77877499  0.20908200  1
