# generated using pymatgen
data_Ga3PNOF2
_symmetry_space_group_name_H-M   'P 1'
_cell_length_a   4.49406576
_cell_length_b   4.49406672
_cell_length_c   5.41625738
_cell_angle_alpha   114.51103210
_cell_angle_beta   114.51100922
_cell_angle_gamma   90.00000000
_symmetry_Int_Tables_number   1
_chemical_formula_structural   Ga3PNOF2
_chemical_formula_sum   'Ga3 P1 N1 O1 F2'
_cell_volume   88.58364720
_cell_formula_units_Z   1
loop_
 _symmetry_equiv_pos_site_id
 _symmetry_equiv_pos_as_xyz
  1  'x, y, z'
loop_
 _atom_site_type_symbol
 _atom_site_label
 _atom_site_symmetry_multiplicity
 _atom_site_fract_x
 _atom_site_fract_y
 _atom_site_fract_z
 _atom_site_occupancy
  N  N0  1  0.25000004  0.75000002  0.50000004  1
  O  O1  1  0.50000001  0.50000001  0.00000002  1
  F  F2  1  0.74999998  0.25000001  0.49999997  1
  F  F3  1  0.00000000  0.00000000  0.00000000  1
  Ga  Ga4  1  0.87500001  0.83111502  0.25000002  1
  Ga  Ga5  1  0.37500001  0.41888501  0.25000001  1
  P  P6  1  0.58111498  0.12500000  0.74999896  1
  Ga  Ga7  1  0.16888503  0.62500002  0.75000103  1
