# generated using pymatgen
data_P7Ir
_symmetry_space_group_name_H-M   'P 1'
_cell_length_a   3.60307002
_cell_length_b   6.72094107
_cell_length_c   6.78230953
_cell_angle_alpha   113.64734650
_cell_angle_beta   90.00000000
_cell_angle_gamma   90.00000000
_symmetry_Int_Tables_number   1
_chemical_formula_structural   P7Ir
_chemical_formula_sum   'P7 Ir1'
_cell_volume   150.44953345
_cell_formula_units_Z   1
loop_
 _symmetry_equiv_pos_site_id
 _symmetry_equiv_pos_as_xyz
  1  'x, y, z'
loop_
 _atom_site_type_symbol
 _atom_site_label
 _atom_site_symmetry_multiplicity
 _atom_site_fract_x
 _atom_site_fract_y
 _atom_site_fract_z
 _atom_site_occupancy
  P  P0  1  0.75000000  0.01944000  0.68200002  1
  P  P1  1  0.25000000  0.98055999  0.31800002  1
  Ir  Ir2  1  0.25000000  0.54355000  0.75314003  1
  P  P3  1  0.75000000  0.45645000  0.24686001  1
  P  P4  1  0.75000000  0.35934000  0.80526003  1
  P  P5  1  0.25000000  0.64066000  0.19474001  1
  P  P6  1  0.25000000  0.31846000  0.41209002  1
  P  P7  1  0.75000000  0.68154000  0.58791003  1
