# generated using pymatgen
data_Rb2SiHO4
_symmetry_space_group_name_H-M   'P 1'
_cell_length_a   6.12071419
_cell_length_b   6.12414455
_cell_length_c   8.34261703
_cell_angle_alpha   90.00000000
_cell_angle_beta   90.00000000
_cell_angle_gamma   118.24800110
_symmetry_Int_Tables_number   1
_chemical_formula_structural   Rb2SiHO4
_chemical_formula_sum   'Rb4 Si2 H2 O8'
_cell_volume   275.47362620
_cell_formula_units_Z   2
loop_
 _symmetry_equiv_pos_site_id
 _symmetry_equiv_pos_as_xyz
  1  'x, y, z'
loop_
 _atom_site_type_symbol
 _atom_site_label
 _atom_site_symmetry_multiplicity
 _atom_site_fract_x
 _atom_site_fract_y
 _atom_site_fract_z
 _atom_site_occupancy
  Rb  Rb0  1  0.63567497  0.27671998  0.77010700  1
  Rb  Rb1  1  0.36432495  0.72327995  0.27010700  1
  Rb  Rb2  1  0.98343692  0.98958394  0.51712000  1
  Rb  Rb3  1  0.01656300  0.01041600  0.01712000  1
  Si  Si4  1  0.30754596  0.61648296  0.75429200  1
  Si  Si5  1  0.69245396  0.38351698  0.25429200  1
  H  H6  1  0.48279596  0.53918797  0.98691200  1
  H  H7  1  0.51720396  0.46081197  0.48691200  1
  O  O8  1  0.15380795  0.77405495  0.76326600  1
  O  O9  1  0.84619196  0.22594499  0.26326600  1
  O  O10  1  0.12616798  0.31522098  0.75939500  1
  O  O11  1  0.87383194  0.68477896  0.25939500  1
  O  O12  1  0.50917395  0.69718696  0.60620500  1
  O  O13  1  0.49082597  0.30281298  0.10620500  1
  O  O14  1  0.49127895  0.68453796  0.92570300  1
  O  O15  1  0.50872097  0.31546198  0.42570300  1
