# generated using pymatgen
data_EuAu2
_symmetry_space_group_name_H-M   'P 1'
_cell_length_a   4.65030098
_cell_length_b   7.60172892
_cell_length_c   7.78655291
_cell_angle_alpha   90.00000000
_cell_angle_beta   90.00000000
_cell_angle_gamma   90.00000000
_symmetry_Int_Tables_number   1
_chemical_formula_structural   EuAu2
_chemical_formula_sum   'Eu4 Au8'
_cell_volume   275.25719475
_cell_formula_units_Z   4
loop_
 _symmetry_equiv_pos_site_id
 _symmetry_equiv_pos_as_xyz
  1  'x, y, z'
loop_
 _atom_site_type_symbol
 _atom_site_label
 _atom_site_symmetry_multiplicity
 _atom_site_fract_x
 _atom_site_fract_y
 _atom_site_fract_z
 _atom_site_occupancy
  Eu  Eu0  1  0.25000000  0.01186300  0.30535000  1
  Eu  Eu1  1  0.25000000  0.51186301  0.19465000  1
  Eu  Eu2  1  0.75000000  0.98813701  0.69465001  1
  Eu  Eu3  1  0.75000000  0.48813701  0.80535001  1
  Au  Au4  1  0.25000000  0.17528400  0.91644401  1
  Au  Au5  1  0.25000000  0.67528401  0.58355601  1
  Au  Au6  1  0.75000000  0.82471601  0.08355600  1
  Au  Au7  1  0.75000000  0.32471600  0.41644401  1
  Au  Au8  1  0.25000000  0.30357000  0.58997001  1
  Au  Au9  1  0.25000000  0.80357001  0.91003001  1
  Au  Au10  1  0.75000000  0.69643001  0.41003000  1
  Au  Au11  1  0.75000000  0.19643000  0.08997000  1
