# generated using pymatgen
data_Ba4Au3S5
_symmetry_space_group_name_H-M   'P 1'
_cell_length_a   4.28840590
_cell_length_b   4.28840542
_cell_length_c   17.72033119
_cell_angle_alpha   90.00000000
_cell_angle_beta   90.00000000
_cell_angle_gamma   120.00000000
_symmetry_Int_Tables_number   1
_chemical_formula_structural   Ba4Au3S5
_chemical_formula_sum   'Ba4 Au3 S5'
_cell_volume   282.22415844
_cell_formula_units_Z   1
loop_
 _symmetry_equiv_pos_site_id
 _symmetry_equiv_pos_as_xyz
  1  'x, y, z'
loop_
 _atom_site_type_symbol
 _atom_site_label
 _atom_site_symmetry_multiplicity
 _atom_site_fract_x
 _atom_site_fract_y
 _atom_site_fract_z
 _atom_site_occupancy
  Ba  Ba0  1  0.00000000  0.00000000  0.62863503  1
  Ba  Ba1  1  0.00000000  0.00000000  0.37136502  1
  Ba  Ba2  1  0.00000000  0.00000000  0.12863501  1
  Ba  Ba3  1  0.00000000  0.00000000  0.87136504  1
  Au  Au4  1  0.66666666  0.33333333  0.75000003  1
  Au  Au5  1  0.33333329  0.66666666  0.25000001  1
  S  S6  1  0.66666666  0.33333333  0.25000001  1
  S  S7  1  0.33333329  0.66666666  0.75000003  1
  S  S8  1  0.66666666  0.33333333  0.52492902  1
  Au  Au9  1  0.33333329  0.66666666  0.47507102  1
  S  S10  1  0.33333329  0.66666666  0.02492900  1
  S  S11  1  0.66666666  0.33333333  0.97507104  1
