# generated using pymatgen
data_ZnMoOF3
_symmetry_space_group_name_H-M   'P 1'
_cell_length_a   2.87610102
_cell_length_b   5.00714588
_cell_length_c   5.00714588
_cell_angle_alpha   90.00000000
_cell_angle_beta   90.00000000
_cell_angle_gamma   90.00000000
_symmetry_Int_Tables_number   1
_chemical_formula_structural   ZnMoOF3
_chemical_formula_sum   'Zn1 Mo1 O1 F3'
_cell_volume   72.10819506
_cell_formula_units_Z   1
loop_
 _symmetry_equiv_pos_site_id
 _symmetry_equiv_pos_as_xyz
  1  'x, y, z'
loop_
 _atom_site_type_symbol
 _atom_site_label
 _atom_site_symmetry_multiplicity
 _atom_site_fract_x
 _atom_site_fract_y
 _atom_site_fract_z
 _atom_site_occupancy
  Mo  Mo0  1  0.50000000  0.00000000  0.00000000  1
  Zn  Zn1  1  0.00000000  0.50000001  0.50000001  1
  F  F2  1  0.50000000  0.71472402  0.28527601  1
  O  O3  1  0.50000000  0.28527601  0.71472402  1
  F  F4  1  0.00000000  0.21472401  0.21472401  1
  F  F5  1  0.00000000  0.78527602  0.78527602  1
