# generated using pymatgen
data_Na4MoO4
_symmetry_space_group_name_H-M   'P 1'
_cell_length_a   5.80359793
_cell_length_b   5.81636763
_cell_length_c   8.10246372
_cell_angle_alpha   88.90588379
_cell_angle_beta   73.05696869
_cell_angle_gamma   70.09310150
_symmetry_Int_Tables_number   1
_chemical_formula_structural   Na4MoO4
_chemical_formula_sum   'Na8 Mo2 O8'
_cell_volume   245.02249125
_cell_formula_units_Z   2
loop_
 _symmetry_equiv_pos_site_id
 _symmetry_equiv_pos_as_xyz
  1  'x, y, z'
loop_
 _atom_site_type_symbol
 _atom_site_label
 _atom_site_symmetry_multiplicity
 _atom_site_fract_x
 _atom_site_fract_y
 _atom_site_fract_z
 _atom_site_occupancy
  Na  Na0  1  0.45691601  0.77079199  0.57116199  1
  Na  Na1  1  0.26631000  0.25896500  0.83821101  1
  Na  Na2  1  0.92028501  0.28313200  0.62290002  1
  Na  Na3  1  0.28813601  0.75699199  0.98485600  1
  Na  Na4  1  0.73369001  0.74103499  0.16178899  1
  Na  Na5  1  0.54308400  0.22920800  0.42883801  1
  Na  Na6  1  0.07971501  0.71686799  0.37709998  1
  Na  Na7  1  0.71186401  0.24300800  0.01514400  1
  Mo  Mo8  1  0.09031800  0.22087500  0.24989200  1
  Mo  Mo9  1  0.90968201  0.77912499  0.75010800  1
  O  O10  1  0.67209100  0.00163300  0.67310802  1
  O  O11  1  0.73413101  0.60378000  0.88172801  1
  O  O12  1  0.26586900  0.39622000  0.11827199  1
  O  O13  1  0.92948301  0.02534300  0.20545902  1
  O  O14  1  0.32790901  0.99836699  0.32689198  1
  O  O15  1  0.80772601  0.47258700  0.37101200  1
  O  O16  1  0.07051701  0.97465699  0.79454098  1
  O  O17  1  0.19227401  0.52741300  0.62898800  1
