# generated using pymatgen
data_TbCoGe2
_symmetry_space_group_name_H-M   'P 1'
_cell_length_a   4.22380877
_cell_length_b   4.22421598
_cell_length_c   8.53528690
_cell_angle_alpha   75.67297363
_cell_angle_beta   90.00000000
_cell_angle_gamma   90.00000000
_symmetry_Int_Tables_number   1
_chemical_formula_structural   TbCoGe2
_chemical_formula_sum   'Tb2 Co2 Ge4'
_cell_volume   147.55266085
_cell_formula_units_Z   2
loop_
 _symmetry_equiv_pos_site_id
 _symmetry_equiv_pos_as_xyz
  1  'x, y, z'
loop_
 _atom_site_type_symbol
 _atom_site_label
 _atom_site_symmetry_multiplicity
 _atom_site_fract_x
 _atom_site_fract_y
 _atom_site_fract_z
 _atom_site_occupancy
  Tb  Tb0  1  0.25000001  0.89273102  0.21453797  1
  Tb  Tb1  1  0.75000004  0.10726900  0.78546199  1
  Co  Co2  1  0.25000001  0.68338501  0.63322997  1
  Co  Co3  1  0.75000004  0.31661501  0.36676999  1
  Ge  Ge4  1  0.25000001  0.54603401  0.90793198  1
  Ge  Ge5  1  0.75000004  0.45396601  0.09206798  1
  Ge  Ge6  1  0.25000001  0.25075800  0.49848399  1
  Ge  Ge7  1  0.75000004  0.74924201  0.50151597  1
