# generated using pymatgen
data_Pr2Co17
_symmetry_space_group_name_H-M   'P 1'
_cell_length_a   6.47086620
_cell_length_b   6.47086620
_cell_length_c   6.47086668
_cell_angle_alpha   82.67557526
_cell_angle_beta   82.67557526
_cell_angle_gamma   82.67557526
_symmetry_Int_Tables_number   1
_chemical_formula_structural   Pr2Co17
_chemical_formula_sum   'Pr2 Co17'
_cell_volume   264.83568127
_cell_formula_units_Z   1
loop_
 _symmetry_equiv_pos_site_id
 _symmetry_equiv_pos_as_xyz
  1  'x, y, z'
loop_
 _atom_site_type_symbol
 _atom_site_label
 _atom_site_symmetry_multiplicity
 _atom_site_fract_x
 _atom_site_fract_y
 _atom_site_fract_z
 _atom_site_occupancy
  Pr  Pr0  1  0.34832399  0.34832401  0.34832400  1
  Pr  Pr1  1  0.65167598  0.65167603  0.65167600  1
  Co  Co2  1  0.10240700  0.10240700  0.10240700  1
  Co  Co3  1  0.89759297  0.89759304  0.89759301  1
  Co  Co4  1  0.00000000  0.00000000  0.49999999  1
  Co  Co5  1  -0.00000003  0.50000002  0.00000001  1
  Co  Co6  1  0.50000002  0.00000000  0.00000000  1
  Co  Co7  1  0.71057800  0.28942201  0.00000001  1
  Co  Co8  1  0.28942201  0.00000000  0.71057799  1
  Co  Co9  1  -0.00000005  0.71057803  0.28942201  1
  Co  Co10  1  0.71057802  0.00000000  0.28942200  1
  Co  Co11  1  -0.00000002  0.28942201  0.71057799  1
  Co  Co12  1  0.28942196  0.71057803  0.00000001  1
  Co  Co13  1  0.65931798  0.65931803  0.15299201  1
  Co  Co14  1  0.65931801  0.15299201  0.65931800  1
  Co  Co15  1  0.15299196  0.65931803  0.65931800  1
  Co  Co16  1  0.34068199  0.34068201  0.84700799  1
  Co  Co17  1  0.34068195  0.84700803  0.34068201  1
  Co  Co18  1  0.84700800  0.34068201  0.34068201  1
