# generated using pymatgen
data_Ga4Co3
_symmetry_space_group_name_H-M   'P 1'
_cell_length_a   3.70580506
_cell_length_b   7.22464514
_cell_length_c   7.22464514
_cell_angle_alpha   90.00000000
_cell_angle_beta   90.00000000
_cell_angle_gamma   90.00000000
_symmetry_Int_Tables_number   1
_chemical_formula_structural   Ga4Co3
_chemical_formula_sum   'Ga8 Co6'
_cell_volume   193.42633842
_cell_formula_units_Z   2
loop_
 _symmetry_equiv_pos_site_id
 _symmetry_equiv_pos_as_xyz
  1  'x, y, z'
loop_
 _atom_site_type_symbol
 _atom_site_label
 _atom_site_symmetry_multiplicity
 _atom_site_fract_x
 _atom_site_fract_y
 _atom_site_fract_z
 _atom_site_occupancy
  Ga  Ga0  1  0.00000000  0.00000000  0.00000000  1
  Ga  Ga1  1  0.49999999  0.49999999  0.49999999  1
  Co  Co2  1  0.99999998  0.58212599  0.14634000  1
  Ga  Ga3  1  0.00000000  0.41787399  0.85365998  1
  Co  Co4  1  0.49999999  0.64633999  0.91787398  1
  Co  Co5  1  0.49999999  0.08212600  0.35365999  1
  Co  Co6  1  0.49999999  0.35365999  0.08212600  1
  Ga  Ga7  1  0.49999999  0.91787398  0.64633999  1
  Co  Co8  1  0.99999998  0.14634000  0.58212599  1
  Co  Co9  1  0.00000000  0.85365998  0.41787399  1
  Ga  Ga10  1  0.99999998  0.27823999  0.27823999  1
  Ga  Ga11  1  0.99999998  0.72175999  0.72175999  1
  Ga  Ga12  1  0.49999999  0.77823999  0.22176000  1
  Ga  Ga13  1  0.49999999  0.22176000  0.77823999  1
