# generated using pymatgen
data_Mg6Ga4P
_symmetry_space_group_name_H-M   'P 1'
_cell_length_a   4.24625111
_cell_length_b   4.24625111
_cell_length_c   11.01832485
_cell_angle_alpha   90.00000000
_cell_angle_beta   90.00000000
_cell_angle_gamma   90.00000000
_symmetry_Int_Tables_number   1
_chemical_formula_structural   Mg6Ga4P
_chemical_formula_sum   'Mg6 Ga4 P1'
_cell_volume   198.66754200
_cell_formula_units_Z   1
loop_
 _symmetry_equiv_pos_site_id
 _symmetry_equiv_pos_as_xyz
  1  'x, y, z'
loop_
 _atom_site_type_symbol
 _atom_site_label
 _atom_site_symmetry_multiplicity
 _atom_site_fract_x
 _atom_site_fract_y
 _atom_site_fract_z
 _atom_site_occupancy
  Mg  Mg0  1  0.00000000  0.00000000  0.69470501  1
  Ga  Ga1  1  0.00000000  0.00000000  0.30529500  1
  Mg  Mg2  1  0.49999999  0.00000000  0.50000001  1
  Mg  Mg3  1  0.00000000  0.49999999  0.50000001  1
  Ga  Ga4  1  0.49999999  0.49999999  0.69812901  1
  Ga  Ga5  1  0.49999999  0.49999999  0.30187100  1
  Ga  Ga6  1  0.49999999  0.00000000  0.88346801  1
  Mg  Mg7  1  0.00000000  0.49999999  0.88346801  1
  Mg  Mg8  1  0.49999999  0.00000000  0.11653200  1
  Mg  Mg9  1  0.00000000  0.49999999  0.11653200  1
  P  P10  1  0.00000000  0.00000000  0.00000000  1
