# generated using pymatgen
data_Ba5Se3
_symmetry_space_group_name_H-M   'P 1'
_cell_length_a   9.02190781
_cell_length_b   9.20134735
_cell_length_c   9.02190781
_cell_angle_alpha   119.35697174
_cell_angle_beta   90.00000000
_cell_angle_gamma   119.35697174
_symmetry_Int_Tables_number   1
_chemical_formula_structural   Ba5Se3
_chemical_formula_sum   'Ba10 Se6'
_cell_volume   539.71193407
_cell_formula_units_Z   2
loop_
 _symmetry_equiv_pos_site_id
 _symmetry_equiv_pos_as_xyz
  1  'x, y, z'
loop_
 _atom_site_type_symbol
 _atom_site_label
 _atom_site_symmetry_multiplicity
 _atom_site_fract_x
 _atom_site_fract_y
 _atom_site_fract_z
 _atom_site_occupancy
  Ba  Ba0  1  0.19642206  0.68796004  0.69732407  1
  Ba  Ba1  1  0.49153807  0.68796004  0.99063608  1
  Ba  Ba2  1  0.69732407  0.68796004  0.49153807  1
  Ba  Ba3  1  0.99063608  0.68796004  0.19642206  1
  Se  Se4  1  0.80357804  0.31204002  0.30267603  1
  Se  Se5  1  0.50846204  0.31204002  0.00936403  1
  Se  Se6  1  0.30267603  0.31204002  0.50846204  1
  Se  Se7  1  0.00936403  0.31204002  0.80357804  1
  Se  Se8  1  0.50000001  0.00000000  0.50000001  1
  Se  Se9  1  0.00000000  0.00000000  0.00000000  1
  Ba  Ba10  1  0.14948200  0.00000000  0.67103201  1
  Ba  Ba11  1  0.85051802  0.00000000  0.32896801  1
  Ba  Ba12  1  0.67103201  0.00000000  0.85051802  1
  Ba  Ba13  1  0.32896801  0.00000000  0.14948200  1
  Ba  Ba14  1  0.23969505  0.47939002  0.23969505  1
  Ba  Ba15  1  0.76030506  0.52061003  0.76030506  1
