# generated using pymatgen
data_CaMoO3
_symmetry_space_group_name_H-M   'P 1'
_cell_length_a   5.53672314
_cell_length_b   5.77534199
_cell_length_c   7.64615154
_cell_angle_alpha   90.00000000
_cell_angle_beta   89.58097839
_cell_angle_gamma   90.00000000
_symmetry_Int_Tables_number   1
_chemical_formula_structural   CaMoO3
_chemical_formula_sum   'Ca4 Mo4 O12'
_cell_volume   244.49039405
_cell_formula_units_Z   4
loop_
 _symmetry_equiv_pos_site_id
 _symmetry_equiv_pos_as_xyz
  1  'x, y, z'
loop_
 _atom_site_type_symbol
 _atom_site_label
 _atom_site_symmetry_multiplicity
 _atom_site_fract_x
 _atom_site_fract_y
 _atom_site_fract_z
 _atom_site_occupancy
  Ca  Ca0  1  0.48557399  0.56062100  0.24976399  1
  Ca  Ca1  1  0.01442600  0.06062100  0.25023600  1
  Ca  Ca2  1  0.51442599  0.43937900  0.75023599  1
  Ca  Ca3  1  0.98557398  0.93937900  0.74976398  1
  Mo  Mo4  1  0.00000000  0.50000000  -0.00000000  1
  Mo  Mo5  1  0.49999999  0.00000000  0.49999999  1
  Mo  Mo6  1  0.00000000  0.50000000  0.50000000  1
  Mo  Mo7  1  0.49999999  0.00000000  -0.00000001  1
  O  O8  1  0.20771899  0.80502500  0.04989400  1
  O  O9  1  0.29228099  0.30502500  0.45010599  1
  O  O10  1  0.80107598  0.20487400  0.54699698  1
  O  O11  1  0.69892398  0.70487400  0.95300298  1
  O  O12  1  0.79228098  0.19497500  0.95010598  1
  O  O13  1  0.70771898  0.69497500  0.54989398  1
  O  O14  1  0.19892400  0.79512600  0.45300299  1
  O  O15  1  0.30107599  0.29512600  0.04699700  1
  O  O16  1  0.59397199  0.97208200  0.25600699  1
  O  O17  1  0.90602798  0.47208200  0.24399298  1
  O  O18  1  0.40602799  0.02791800  0.74399299  1
  O  O19  1  0.09397200  0.52791800  0.75600699  1
