# generated using pymatgen
data_Lu4CoGe7
_symmetry_space_group_name_H-M   'P 1'
_cell_length_a   4.34137583
_cell_length_b   7.00278521
_cell_length_c   7.10908604
_cell_angle_alpha   90.00000000
_cell_angle_beta   90.00000000
_cell_angle_gamma   90.00000000
_symmetry_Int_Tables_number   1
_chemical_formula_structural   Lu4CoGe7
_chemical_formula_sum   'Lu4 Co1 Ge7'
_cell_volume   216.12846035
_cell_formula_units_Z   1
loop_
 _symmetry_equiv_pos_site_id
 _symmetry_equiv_pos_as_xyz
  1  'x, y, z'
loop_
 _atom_site_type_symbol
 _atom_site_label
 _atom_site_symmetry_multiplicity
 _atom_site_fract_x
 _atom_site_fract_y
 _atom_site_fract_z
 _atom_site_occupancy
  Lu  Lu0  1  0.25000001  0.98598397  0.81337500  1
  Lu  Lu1  1  0.75000003  0.01401600  0.18662500  1
  Lu  Lu2  1  0.25000001  0.48598399  0.68662500  1
  Lu  Lu3  1  0.75000003  0.51401598  0.31337500  1
  Ge  Ge4  1  0.25000001  0.30425099  0.10612000  1
  Ge  Ge5  1  0.75000003  0.69574898  0.89388000  1
  Ge  Ge6  1  0.25000001  0.80425098  0.39388000  1
  Ge  Ge7  1  0.75000003  0.19574899  0.60612000  1
  Ge  Ge8  1  0.75000003  0.84704198  0.56733400  1
  Ge  Ge9  1  0.25000001  0.15295800  0.43266600  1
  Ge  Ge10  1  0.75000003  0.34704199  0.93266600  1
  Co  Co11  1  0.25000001  0.65295798  0.06733400  1
