# generated using pymatgen
data_Tb2NiGe6
_symmetry_space_group_name_H-M   'P 1'
_cell_length_a   4.06945419
_cell_length_b   4.07611322
_cell_length_c   10.88388348
_cell_angle_alpha   90.00000000
_cell_angle_beta   100.77476501
_cell_angle_gamma   90.00000000
_symmetry_Int_Tables_number   1
_chemical_formula_structural   Tb2NiGe6
_chemical_formula_sum   'Tb2 Ni1 Ge6'
_cell_volume   177.35410246
_cell_formula_units_Z   1
loop_
 _symmetry_equiv_pos_site_id
 _symmetry_equiv_pos_as_xyz
  1  'x, y, z'
loop_
 _atom_site_type_symbol
 _atom_site_label
 _atom_site_symmetry_multiplicity
 _atom_site_fract_x
 _atom_site_fract_y
 _atom_site_fract_z
 _atom_site_occupancy
  Tb  Tb0  1  0.99635696  0.00000000  0.99271399  1
  Tb  Tb1  1  0.32965799  0.00000000  0.65931599  1
  Ni  Ni2  1  0.77571197  0.49999997  0.55142400  1
  Ge  Ge3  1  0.71522897  0.00000000  0.43045800  1
  Ge  Ge4  1  0.59965398  0.00000000  0.19930800  1
  Ge  Ge5  1  0.45383098  0.49999997  0.90766198  1
  Ge  Ge6  1  0.88439896  0.49999997  0.76879799  1
  Ge  Ge7  1  0.09896100  0.49999997  0.19792200  1
  Ge  Ge8  1  0.21519899  0.49999997  0.43039799  1
