# generated using pymatgen
data_MoOs3
_symmetry_space_group_name_H-M   'P 1'
_cell_length_a   4.38475084
_cell_length_b   4.38475084
_cell_length_c   4.38475084
_cell_angle_alpha   60.00000000
_cell_angle_beta   60.00000000
_cell_angle_gamma   60.00000000
_symmetry_Int_Tables_number   1
_chemical_formula_structural   MoOs3
_chemical_formula_sum   'Mo1 Os3'
_cell_volume   59.61008800
_cell_formula_units_Z   1
loop_
 _symmetry_equiv_pos_site_id
 _symmetry_equiv_pos_as_xyz
  1  'x, y, z'
loop_
 _atom_site_type_symbol
 _atom_site_label
 _atom_site_symmetry_multiplicity
 _atom_site_fract_x
 _atom_site_fract_y
 _atom_site_fract_z
 _atom_site_occupancy
  Os  Os0  1  0.74999999  0.74999999  0.74999999  1
  Os  Os1  1  0.25000000  0.25000000  0.25000000  1
  Mo  Mo2  1  0.49999999  0.49999999  0.49999999  1
  Os  Os3  1  0.00000000  0.00000000  0.00000000  1
