# generated using pymatgen
data_BiP7
_symmetry_space_group_name_H-M   'P 1'
_cell_length_a   3.16040206
_cell_length_b   3.16040254
_cell_length_c   24.36537743
_cell_angle_alpha   90.00000000
_cell_angle_beta   90.00000000
_cell_angle_gamma   119.99999237
_symmetry_Int_Tables_number   1
_chemical_formula_structural   BiP7
_chemical_formula_sum   'Bi2 P14'
_cell_volume   210.76017281
_cell_formula_units_Z   2
loop_
 _symmetry_equiv_pos_site_id
 _symmetry_equiv_pos_as_xyz
  1  'x, y, z'
loop_
 _atom_site_type_symbol
 _atom_site_label
 _atom_site_symmetry_multiplicity
 _atom_site_fract_x
 _atom_site_fract_y
 _atom_site_fract_z
 _atom_site_occupancy
  P  P0  1  0.00000000  0.00000000  0.65723402  1
  P  P1  1  0.00000000  0.00000000  0.15723400  1
  P  P2  1  0.00000000  0.00000000  0.34276601  1
  P  P3  1  0.00000000  0.00000000  0.84276602  1
  P  P4  1  0.66666664  0.33333332  0.55518101  1
  P  P5  1  0.33333330  0.66666664  0.05518100  1
  P  P6  1  0.33333330  0.66666664  0.44481901  1
  P  P7  1  0.66666664  0.33333332  0.94481902  1
  Bi  Bi8  1  0.33333330  0.66666664  0.25000001  1
  Bi  Bi9  1  0.66666664  0.33333332  0.75000002  1
  P  P10  1  0.33333330  0.66666664  0.60870001  1
  P  P11  1  0.66666664  0.33333332  0.10870000  1
  P  P12  1  0.66666664  0.33333332  0.39130001  1
  P  P13  1  0.00000000  0.00000000  0.00000000  1
  P  P14  1  0.33333330  0.66666664  0.89130002  1
  P  P15  1  0.00000000  0.00000000  0.50000001  1
