# generated using pymatgen
data_Ba2HBrN
_symmetry_space_group_name_H-M   'P 1'
_cell_length_a   4.54254389
_cell_length_b   7.13698912
_cell_length_c   9.05103016
_cell_angle_alpha   107.08084869
_cell_angle_beta   90.00000000
_cell_angle_gamma   90.00000000
_symmetry_Int_Tables_number   1
_chemical_formula_structural   Ba2HBrN
_chemical_formula_sum   'Ba4 H2 Br2 N2'
_cell_volume   280.49211848
_cell_formula_units_Z   2
loop_
 _symmetry_equiv_pos_site_id
 _symmetry_equiv_pos_as_xyz
  1  'x, y, z'
loop_
 _atom_site_type_symbol
 _atom_site_label
 _atom_site_symmetry_multiplicity
 _atom_site_fract_x
 _atom_site_fract_y
 _atom_site_fract_z
 _atom_site_occupancy
  Ba  Ba0  1  0.25000001  0.29019000  0.03971201  1
  Ba  Ba1  1  0.75000002  0.71035299  0.38337004  1
  Ba  Ba2  1  0.25000001  0.28964700  0.61663004  1
  Ba  Ba3  1  0.75000002  0.70980999  0.96028806  1
  H  H4  1  0.75000002  0.17288700  0.80258804  1
  H  H5  1  0.25000001  0.82711299  0.19741203  1
  Br  Br6  1  0.75000002  0.17916900  0.30024502  1
  Br  Br7  1  0.25000001  0.82083099  0.69975505  1
  N  N8  1  0.75000002  0.31584800  0.83345605  1
  N  N9  1  0.25000001  0.68415199  0.16654402  1
