# generated using pymatgen
data_Cu2P
_symmetry_space_group_name_H-M   'P 1'
_cell_length_a   3.80984998
_cell_length_b   3.80985022
_cell_length_c   9.21646786
_cell_angle_alpha   90.00000000
_cell_angle_beta   90.00000000
_cell_angle_gamma   120.00000000
_symmetry_Int_Tables_number   1
_chemical_formula_structural   Cu2P
_chemical_formula_sum   'Cu6 P3'
_cell_volume   115.85397009
_cell_formula_units_Z   3
loop_
 _symmetry_equiv_pos_site_id
 _symmetry_equiv_pos_as_xyz
  1  'x, y, z'
loop_
 _atom_site_type_symbol
 _atom_site_label
 _atom_site_symmetry_multiplicity
 _atom_site_fract_x
 _atom_site_fract_y
 _atom_site_fract_z
 _atom_site_occupancy
  P  P0  1  0.66666668  0.33333333  0.32557601  1
  P  P1  1  0.33333335  0.66666665  0.67442401  1
  P  P2  1  0.00000000  0.00000000  0.00000000  1
  Cu  Cu3  1  0.33333335  0.66666665  0.92948401  1
  Cu  Cu4  1  0.00000000  0.00000000  0.23615000  1
  Cu  Cu5  1  0.66666668  0.33333333  0.58621901  1
  Cu  Cu6  1  0.66666668  0.33333333  0.07051600  1
  Cu  Cu7  1  0.33333335  0.66666665  0.41378101  1
  Cu  Cu8  1  0.00000000  0.00000000  0.76385001  1
