# generated using pymatgen
data_Hg
_symmetry_space_group_name_H-M   'P 1'
_cell_length_a   3.20997190
_cell_length_b   5.95816994
_cell_length_c   8.34032726
_cell_angle_alpha   103.20619965
_cell_angle_beta   90.00000000
_cell_angle_gamma   105.62712097
_symmetry_Int_Tables_number   1
_chemical_formula_structural   Hg
_chemical_formula_sum   Hg6
_cell_volume   149.23198011
_cell_formula_units_Z   6
loop_
 _symmetry_equiv_pos_site_id
 _symmetry_equiv_pos_as_xyz
  1  'x, y, z'
loop_
 _atom_site_type_symbol
 _atom_site_label
 _atom_site_symmetry_multiplicity
 _atom_site_fract_x
 _atom_site_fract_y
 _atom_site_fract_z
 _atom_site_occupancy
  Hg  Hg0  1  0.35543905  0.71087798  0.47253199  1
  Hg  Hg1  1  0.64456103  0.28912199  0.52746800  1
  Hg  Hg2  1  0.69129004  0.38257999  0.12746700  1
  Hg  Hg3  1  0.97182108  0.94364197  0.18325399  1
  Hg  Hg4  1  0.02817900  0.05635800  0.81674600  1
  Hg  Hg5  1  0.30871004  0.61741998  0.87253300  1
