# generated using pymatgen
data_Hg
_symmetry_space_group_name_H-M   'P 1'
_cell_length_a   5.25038290
_cell_length_b   6.82893801
_cell_length_c   6.82893801
_cell_angle_alpha   60.00000000
_cell_angle_beta   90.00000000
_cell_angle_gamma   90.00000000
_symmetry_Int_Tables_number   1
_chemical_formula_structural   Hg
_chemical_formula_sum   Hg8
_cell_volume   212.04495737
_cell_formula_units_Z   8
loop_
 _symmetry_equiv_pos_site_id
 _symmetry_equiv_pos_as_xyz
  1  'x, y, z'
loop_
 _atom_site_type_symbol
 _atom_site_label
 _atom_site_symmetry_multiplicity
 _atom_site_fract_x
 _atom_site_fract_y
 _atom_site_fract_z
 _atom_site_occupancy
  Hg  Hg0  1  0.75000001  0.70502801  0.14748599  1
  Hg  Hg1  1  0.75000001  0.14748600  0.14748600  1
  Hg  Hg2  1  0.75000001  0.14748600  0.70502802  1
  Hg  Hg3  1  0.25000000  0.29497200  0.85251402  1
  Hg  Hg4  1  0.25000000  0.85251401  0.85251401  1
  Hg  Hg5  1  0.25000000  0.85251401  0.29497199  1
  Hg  Hg6  1  0.25000000  0.33333334  0.33333334  1
  Hg  Hg7  1  0.75000001  0.66666667  0.66666667  1
