# generated using pymatgen
data_NdIn8Bi5
_symmetry_space_group_name_H-M   'P 1'
_cell_length_a   6.65936327
_cell_length_b   6.73644209
_cell_length_c   10.23738861
_cell_angle_alpha   70.79119873
_cell_angle_beta   86.15663910
_cell_angle_gamma   90.00000000
_symmetry_Int_Tables_number   1
_chemical_formula_structural   NdIn8Bi5
_chemical_formula_sum   'Nd1 In8 Bi5'
_cell_volume   432.59105803
_cell_formula_units_Z   1
loop_
 _symmetry_equiv_pos_site_id
 _symmetry_equiv_pos_as_xyz
  1  'x, y, z'
loop_
 _atom_site_type_symbol
 _atom_site_label
 _atom_site_symmetry_multiplicity
 _atom_site_fract_x
 _atom_site_fract_y
 _atom_site_fract_z
 _atom_site_occupancy
  Nd  Nd0  1  0.80005797  0.20004600  0.40390602  1
  In  In1  1  0.69994197  0.60395199  0.59609403  1
  In  In2  1  0.19994199  0.79995399  0.59609403  1
  In  In3  1  0.30005799  0.39604799  0.40390602  1
  In  In4  1  0.24999999  0.77892799  1.00000005  1
  In  In5  1  0.74999997  0.22107200  1.00000005  1
  Bi  Bi6  1  0.22736099  0.21950700  0.15518101  1
  In  In7  1  0.27263899  0.37468799  0.84481904  1
  In  In8  1  0.77263897  0.78049299  0.84481905  1
  Bi  Bi9  1  0.72736097  0.62531199  0.15518102  1
  In  In10  1  0.98622096  0.82529799  0.30689903  1
  Bi  Bi11  1  0.51377898  0.13219700  0.69310103  1
  Bi  Bi12  1  0.01377900  0.17470200  0.69310103  1
  Bi  Bi13  1  0.48622098  0.86780298  0.30689902  1
