# generated using pymatgen
data_Ba3Br4
_symmetry_space_group_name_H-M   'P 1'
_cell_length_a   8.57021618
_cell_length_b   8.57021618
_cell_length_c   8.57466888
_cell_angle_alpha   109.70309448
_cell_angle_beta   109.19776917
_cell_angle_gamma   109.49217224
_symmetry_Int_Tables_number   1
_chemical_formula_structural   Ba3Br4
_chemical_formula_sum   'Ba6 Br8'
_cell_volume   484.93455643
_cell_formula_units_Z   2
loop_
 _symmetry_equiv_pos_site_id
 _symmetry_equiv_pos_as_xyz
  1  'x, y, z'
loop_
 _atom_site_type_symbol
 _atom_site_label
 _atom_site_symmetry_multiplicity
 _atom_site_fract_x
 _atom_site_fract_y
 _atom_site_fract_z
 _atom_site_occupancy
  Ba  Ba0  1  0.99862704  0.25034901  0.60432709  1
  Ba  Ba1  1  0.50106603  0.60740802  0.75125308  1
  Ba  Ba2  1  0.85615504  0.74981303  0.24874711  1
  Br  Br3  1  0.64602203  0.39430002  0.39567308  1
  Ba  Ba4  1  0.50065802  0.10536400  0.75094305  1
  Br  Br5  1  0.99966004  0.25116301  0.10711209  1
  Ba  Ba6  1  0.35442102  0.74971503  0.24905708  1
  Ba  Ba7  1  0.14405102  0.89254804  0.89288808  1
  Br  Br8  1  0.25012101  0.12538901  0.37541303  1
  Br  Br9  1  0.74997604  0.87470803  0.62458712  1
  Br  Br10  1  0.37400402  0.37400401  1.00000006  1
  Br  Br11  1  0.12585201  0.62585202  0.50000006  1
  Br  Br12  1  0.62504703  0.99978904  0.12545011  1
  Br  Br13  1  0.87433904  0.49959702  0.87455010  1
