# generated using pymatgen
data_Cs(CoP)2
_symmetry_space_group_name_H-M   'P 1'
_cell_length_a   3.90796804
_cell_length_b   3.90796804
_cell_length_c   7.35010767
_cell_angle_alpha   105.41712189
_cell_angle_beta   105.41712189
_cell_angle_gamma   90.00000000
_symmetry_Int_Tables_number   1
_chemical_formula_structural   Cs(CoP)2
_chemical_formula_sum   'Cs1 Co2 P2'
_cell_volume   104.01709836
_cell_formula_units_Z   1
loop_
 _symmetry_equiv_pos_site_id
 _symmetry_equiv_pos_as_xyz
  1  'x, y, z'
loop_
 _atom_site_type_symbol
 _atom_site_label
 _atom_site_symmetry_multiplicity
 _atom_site_fract_x
 _atom_site_fract_y
 _atom_site_fract_z
 _atom_site_occupancy
  P  P0  1  0.66882596  0.66882598  0.33765196  1
  P  P1  1  0.33117398  0.33117399  0.66234799  1
  Cs  Cs2  1  0.00000000  0.00000000  0.00000000  1
  Co  Co3  1  0.74999997  0.24999999  0.49999997  1
  Co  Co4  1  0.24999997  0.74999998  0.49999997  1
