# generated using pymatgen
data_Pr2Ni2Bi
_symmetry_space_group_name_H-M   'P 1'
_cell_length_a   3.76358294
_cell_length_b   7.85567617
_cell_length_c   7.85567617
_cell_angle_alpha   90.00000000
_cell_angle_beta   90.00000000
_cell_angle_gamma   90.00000000
_symmetry_Int_Tables_number   1
_chemical_formula_structural   Pr2Ni2Bi
_chemical_formula_sum   'Pr4 Ni4 Bi2'
_cell_volume   232.25690649
_cell_formula_units_Z   2
loop_
 _symmetry_equiv_pos_site_id
 _symmetry_equiv_pos_as_xyz
  1  'x, y, z'
loop_
 _atom_site_type_symbol
 _atom_site_label
 _atom_site_symmetry_multiplicity
 _atom_site_fract_x
 _atom_site_fract_y
 _atom_site_fract_z
 _atom_site_occupancy
  Pr  Pr0  1  0.50000001  0.67251599  0.82748398  1
  Pr  Pr1  1  0.50000001  0.82748398  0.32748399  1
  Pr  Pr2  1  0.50000001  0.32748399  0.17251600  1
  Pr  Pr3  1  0.50000001  0.17251600  0.67251599  1
  Bi  Bi4  1  0.00000000  0.49999999  0.49999999  1
  Bi  Bi5  1  0.00000000  0.00000000  0.00000000  1
  Ni  Ni6  1  1.00000001  0.63101699  0.13101700  1
  Ni  Ni7  1  1.00000001  0.86898298  0.63101699  1
  Ni  Ni8  1  0.00000000  0.13101700  0.36898299  1
  Ni  Ni9  1  1.00000001  0.36898299  0.86898298  1
