# generated using pymatgen
data_NaGa7O12
_symmetry_space_group_name_H-M   'P 1'
_cell_length_a   6.38479471
_cell_length_b   6.38479471
_cell_length_c   6.38479471
_cell_angle_alpha   109.47122192
_cell_angle_beta   109.47122192
_cell_angle_gamma   109.47122192
_symmetry_Int_Tables_number   1
_chemical_formula_structural   NaGa7O12
_chemical_formula_sum   'Na1 Ga7 O12'
_cell_volume   200.36363537
_cell_formula_units_Z   1
loop_
 _symmetry_equiv_pos_site_id
 _symmetry_equiv_pos_as_xyz
  1  'x, y, z'
loop_
 _atom_site_type_symbol
 _atom_site_label
 _atom_site_symmetry_multiplicity
 _atom_site_fract_x
 _atom_site_fract_y
 _atom_site_fract_z
 _atom_site_occupancy
  Na  Na0  1  0.00000000  0.00000000  0.00000000  1
  Ga  Ga1  1  0.50000008  1.00000006  0.00000007  1
  Ga  Ga2  1  0.00000000  0.00000000  0.50000001  1
  Ga  Ga3  1  0.50000004  0.50000003  0.50000005  1
  Ga  Ga4  1  1.00000006  0.50000003  0.00000005  1
  Ga  Ga5  1  0.50000001  0.00000000  0.50000002  1
  Ga  Ga6  1  1.00000006  0.50000003  0.50000006  1
  Ga  Ga7  1  0.50000004  0.50000003  0.00000004  1
  O  O8  1  0.69287303  0.17080001  0.86367304  1
  O  O9  1  0.52207306  0.69287304  0.82920006  1
  O  O10  1  0.13632702  0.30712702  0.82920003  1
  O  O11  1  0.30712706  0.82920005  0.13632706  1
  O  O12  1  0.69287307  0.82920005  0.52207307  1
  O  O13  1  0.82920003  0.13632701  0.30712703  1
  O  O14  1  0.17080003  0.47792703  0.30712704  1
  O  O15  1  0.47792703  0.30712702  0.17080003  1
  O  O16  1  0.86367306  0.69287304  0.17080006  1
  O  O17  1  0.30712702  0.17080001  0.47792702  1
  O  O18  1  0.82920005  0.52207303  0.69287306  1
  O  O19  1  0.17080006  0.86367305  0.69287306  1
