# generated using pymatgen
data_PrAu2
_symmetry_space_group_name_H-M   'P 1'
_cell_length_a   4.45381880
_cell_length_b   7.39551210
_cell_length_c   7.39551258
_cell_angle_alpha   120.00000000
_cell_angle_beta   90.00000000
_cell_angle_gamma   90.00000000
_symmetry_Int_Tables_number   1
_chemical_formula_structural   PrAu2
_chemical_formula_sum   'Pr3 Au6'
_cell_volume   210.95980146
_cell_formula_units_Z   3
loop_
 _symmetry_equiv_pos_site_id
 _symmetry_equiv_pos_as_xyz
  1  'x, y, z'
loop_
 _atom_site_type_symbol
 _atom_site_label
 _atom_site_symmetry_multiplicity
 _atom_site_fract_x
 _atom_site_fract_y
 _atom_site_fract_z
 _atom_site_occupancy
  Pr  Pr0  1  0.50000002  0.57821101  1.00000004  1
  Pr  Pr1  1  0.50000002  0.42178901  0.42178903  1
  Pr  Pr2  1  0.50000002  1.00000002  0.57821106  1
  Au  Au3  1  1.00000005  0.24796300  1.00000002  1
  Au  Au4  1  1.00000005  0.75203701  0.75203705  1
  Au  Au5  1  0.00000000  1.00000002  0.24796306  1
  Au  Au6  1  1.00000005  0.33333334  0.66666669  1
  Au  Au7  1  1.00000005  0.66666668  0.33333337  1
  Au  Au8  1  0.50000002  0.00000000  -0.00000000  1
