# generated using pymatgen
data_PrCu7O12
_symmetry_space_group_name_H-M   'P 1'
_cell_length_a   6.43284702
_cell_length_b   6.43284702
_cell_length_c   6.43284702
_cell_angle_alpha   109.47122192
_cell_angle_beta   109.47122192
_cell_angle_gamma   109.47122192
_symmetry_Int_Tables_number   1
_chemical_formula_structural   PrCu7O12
_chemical_formula_sum   'Pr1 Cu7 O12'
_cell_volume   204.92161019
_cell_formula_units_Z   1
loop_
 _symmetry_equiv_pos_site_id
 _symmetry_equiv_pos_as_xyz
  1  'x, y, z'
loop_
 _atom_site_type_symbol
 _atom_site_label
 _atom_site_symmetry_multiplicity
 _atom_site_fract_x
 _atom_site_fract_y
 _atom_site_fract_z
 _atom_site_occupancy
  Pr  Pr0  1  0.00000000  0.00000000  0.00000000  1
  Cu  Cu1  1  0.50000001  0.00000000  0.00000001  1
  Cu  Cu2  1  0.00000000  0.00000000  0.50000001  1
  Cu  Cu3  1  0.50000004  0.50000003  0.50000004  1
  Cu  Cu4  1  0.00000003  0.50000003  1.00000004  1
  Cu  Cu5  1  0.50000001  0.00000000  0.50000002  1
  Cu  Cu6  1  0.00000003  0.50000003  0.50000003  1
  Cu  Cu7  1  0.50000004  0.50000003  0.00000004  1
  O  O8  1  0.30453002  0.16707401  0.47160402  1
  O  O9  1  0.52839705  0.69547103  0.83292706  1
  O  O10  1  0.47160303  0.30452902  0.16707303  1
  O  O11  1  0.83292602  0.13745601  0.30452903  1
  O  O12  1  0.83292605  0.52839603  0.69547006  1
  O  O13  1  0.69547002  0.16707301  0.86254403  1
  O  O14  1  0.16707403  0.47160402  0.30453003  1
  O  O15  1  0.16707406  0.86254404  0.69547106  1
  O  O16  1  0.13745602  0.30453002  0.83292603  1
  O  O17  1  0.86254406  0.69547003  0.16707406  1
  O  O18  1  0.30453006  0.83292704  0.13745606  1
  O  O19  1  0.69547007  0.83292604  0.52839607  1
