# generated using pymatgen
data_Na5(CO4)3
_symmetry_space_group_name_H-M   'P 1'
_cell_length_a   5.18763685
_cell_length_b   6.43406582
_cell_length_c   7.20147085
_cell_angle_alpha   90.00000000
_cell_angle_beta   90.00000000
_cell_angle_gamma   90.00000000
_symmetry_Int_Tables_number   1
_chemical_formula_structural   Na5(CO4)3
_chemical_formula_sum   'Na5 C3 O12'
_cell_volume   240.36779155
_cell_formula_units_Z   1
loop_
 _symmetry_equiv_pos_site_id
 _symmetry_equiv_pos_as_xyz
  1  'x, y, z'
loop_
 _atom_site_type_symbol
 _atom_site_label
 _atom_site_symmetry_multiplicity
 _atom_site_fract_x
 _atom_site_fract_y
 _atom_site_fract_z
 _atom_site_occupancy
  Na  Na0  1  0.00000000  0.48221301  0.02772900  1
  Na  Na1  1  0.00000000  0.51778701  0.52772901  1
  Na  Na2  1  0.50000001  0.12912900  0.32777901  1
  Na  Na3  1  0.50000001  0.87087102  0.82777902  1
  C  C4  1  0.50000001  0.58088402  0.24304300  1
  C  C5  1  0.50000001  0.41911601  0.74304302  1
  Na  Na6  1  0.00000000  0.03694700  0.99851902  1
  C  C7  1  0.00000000  0.96305303  0.49851901  1
  O  O8  1  0.00000000  0.14149000  0.41526101  1
  O  O9  1  0.00000000  0.85851002  0.91526102  1
  O  O10  1  0.28736801  0.48422001  0.28025201  1
  O  O11  1  0.71263202  0.51578001  0.78025202  1
  O  O12  1  0.28736801  0.51578001  0.78025202  1
  O  O13  1  0.71263202  0.48422001  0.28025201  1
  O  O14  1  0.21981301  0.12567600  0.03392400  1
  O  O15  1  0.78018702  0.87432402  0.53392401  1
  O  O16  1  0.21981301  0.87432402  0.53392401  1
  O  O17  1  0.78018702  0.12567600  0.03392400  1
  O  O18  1  0.50000001  0.23588901  0.66531901  1
  O  O19  1  0.50000001  0.76411102  0.16531900  1
