# generated using pymatgen
data_Ba2Bi
_symmetry_space_group_name_H-M   'P 1'
_cell_length_a   3.65135407
_cell_length_b   3.65135455
_cell_length_c   35.59005737
_cell_angle_alpha   90.00000000
_cell_angle_beta   90.00000000
_cell_angle_gamma   119.99999237
_symmetry_Int_Tables_number   1
_chemical_formula_structural   Ba2Bi
_chemical_formula_sum   'Ba8 Bi4'
_cell_volume   410.92948854
_cell_formula_units_Z   4
loop_
 _symmetry_equiv_pos_site_id
 _symmetry_equiv_pos_as_xyz
  1  'x, y, z'
loop_
 _atom_site_type_symbol
 _atom_site_label
 _atom_site_symmetry_multiplicity
 _atom_site_fract_x
 _atom_site_fract_y
 _atom_site_fract_z
 _atom_site_occupancy
  Ba  Ba0  1  0.66666664  0.33333333  0.33343200  1
  Ba  Ba1  1  0.66666664  0.33333333  0.66656799  1
  Bi  Bi2  1  0.00000000  0.00000000  0.08314700  1
  Bi  Bi3  1  0.00000000  0.00000000  0.41914200  1
  Ba  Ba4  1  0.00000000  0.00000000  0.75262699  1
  Ba  Ba5  1  0.00000000  0.00000000  0.91685299  1
  Bi  Bi6  1  0.00000000  0.00000000  0.24737300  1
  Bi  Bi7  1  0.00000000  0.00000000  0.58085799  1
  Ba  Ba8  1  0.33333330  0.66666666  0.16632800  1
  Ba  Ba9  1  0.33333330  0.66666666  0.49999999  1
  Ba  Ba10  1  0.33333330  0.66666666  0.83367199  1
  Ba  Ba11  1  0.66666664  0.33333333  -0.00000000  1
