# generated using pymatgen
data_Ge7Te
_symmetry_space_group_name_H-M   'P 1'
_cell_length_a   3.93589306
_cell_length_b   4.02468777
_cell_length_c   10.52519226
_cell_angle_alpha   101.02242279
_cell_angle_beta   90.00000000
_cell_angle_gamma   90.00000000
_symmetry_Int_Tables_number   1
_chemical_formula_structural   Ge7Te
_chemical_formula_sum   'Ge7 Te1'
_cell_volume   163.65113660
_cell_formula_units_Z   1
loop_
 _symmetry_equiv_pos_site_id
 _symmetry_equiv_pos_as_xyz
  1  'x, y, z'
loop_
 _atom_site_type_symbol
 _atom_site_label
 _atom_site_symmetry_multiplicity
 _atom_site_fract_x
 _atom_site_fract_y
 _atom_site_fract_z
 _atom_site_occupancy
  Ge  Ge0  1  0.25000000  0.08180001  0.16360000  1
  Ge  Ge1  1  0.74999999  0.91820006  0.83640000  1
  Ge  Ge2  1  0.25000000  0.45957603  0.91915199  1
  Te  Te3  1  0.74999999  0.54042404  0.08084801  1
  Ge  Ge4  1  0.25000000  0.68821005  0.37642001  1
  Ge  Ge5  1  0.74999999  0.31179002  0.62357999  1
  Ge  Ge6  1  0.74999999  0.19057901  0.38115800  1
  Ge  Ge7  1  0.25000000  0.80942105  0.61884200  1
