# generated using pymatgen
data_Cr3Ga2AgS8
_symmetry_space_group_name_H-M   'P 1'
_cell_length_a   6.94266224
_cell_length_b   7.04038286
_cell_length_c   7.04038286
_cell_angle_alpha   61.03407288
_cell_angle_beta   60.45809555
_cell_angle_gamma   60.45809555
_symmetry_Int_Tables_number   1
_chemical_formula_structural   Cr3Ga2AgS8
_chemical_formula_sum   'Cr3 Ga2 Ag1 S8'
_cell_volume   246.88959976
_cell_formula_units_Z   1
loop_
 _symmetry_equiv_pos_site_id
 _symmetry_equiv_pos_as_xyz
  1  'x, y, z'
loop_
 _atom_site_type_symbol
 _atom_site_label
 _atom_site_symmetry_multiplicity
 _atom_site_fract_x
 _atom_site_fract_y
 _atom_site_fract_z
 _atom_site_occupancy
  Cr  Cr0  1  0.75359397  0.49073401  0.99073501  1
  Ag  Ag1  1  0.23506399  0.50926501  0.00926500  1
  Cr  Cr2  1  0.75203497  1.00000002  -0.00000000  1
  Cr  Cr3  1  0.75203497  0.50000001  0.50000000  1
  Ga  Ga4  1  0.13066898  0.87889201  0.37889101  1
  Ga  Ga5  1  0.38845099  0.12110900  0.62110900  1
  S  S6  1  0.98803697  0.25117700  0.75117700  1
  S  S7  1  0.50234698  0.25422700  0.23426800  1
  S  S8  1  0.50234698  0.73426901  0.75422601  1
  S  S9  1  0.51199898  0.25809900  0.75809901  1
  S  S10  1  0.52819698  0.74190001  0.24190100  1
  S  S11  1  0.99039096  0.74882301  0.24882300  1
  S  S12  1  0.99084097  0.26573200  0.24577399  1
  S  S13  1  0.99084096  0.74577401  0.76573200  1
