# generated using pymatgen
data_ErGe
_symmetry_space_group_name_H-M   'P 1'
_cell_length_a   4.44799995
_cell_length_b   5.41755199
_cell_length_c   7.20772696
_cell_angle_alpha   90.00000000
_cell_angle_beta   90.00000000
_cell_angle_gamma   90.00000000
_symmetry_Int_Tables_number   1
_chemical_formula_structural   ErGe
_chemical_formula_sum   'Er4 Ge4'
_cell_volume   173.68654990
_cell_formula_units_Z   4
loop_
 _symmetry_equiv_pos_site_id
 _symmetry_equiv_pos_as_xyz
  1  'x, y, z'
loop_
 _atom_site_type_symbol
 _atom_site_label
 _atom_site_symmetry_multiplicity
 _atom_site_fract_x
 _atom_site_fract_y
 _atom_site_fract_z
 _atom_site_occupancy
  Er  Er0  1  0.25000000  0.36675300  0.68114400  1
  Er  Er1  1  0.25000000  0.13324700  0.18114400  1
  Er  Er2  1  0.75000001  0.63324700  0.31885600  1
  Er  Er3  1  0.75000001  0.86675300  0.81885601  1
  Ge  Ge4  1  0.25000000  0.87592300  0.53201100  1
  Ge  Ge5  1  0.25000000  0.62407700  0.03201100  1
  Ge  Ge6  1  0.75000001  0.12407700  0.46798900  1
  Ge  Ge7  1  0.75000001  0.37592300  0.96798901  1
