# generated using pymatgen
data_Mn2P
_symmetry_space_group_name_H-M   'P 1'
_cell_length_a   3.78750205
_cell_length_b   5.36071205
_cell_length_c   6.68301916
_cell_angle_alpha   90.00000000
_cell_angle_beta   90.00000000
_cell_angle_gamma   90.00000000
_symmetry_Int_Tables_number   1
_chemical_formula_structural   Mn2P
_chemical_formula_sum   'Mn8 P4'
_cell_volume   135.69006885
_cell_formula_units_Z   4
loop_
 _symmetry_equiv_pos_site_id
 _symmetry_equiv_pos_as_xyz
  1  'x, y, z'
loop_
 _atom_site_type_symbol
 _atom_site_label
 _atom_site_symmetry_multiplicity
 _atom_site_fract_x
 _atom_site_fract_y
 _atom_site_fract_z
 _atom_site_occupancy
  Mn  Mn0  1  0.25000000  0.74845999  0.58930999  1
  Mn  Mn1  1  0.25000000  0.24846000  0.91068998  1
  Mn  Mn2  1  0.74999999  0.25154000  0.41068999  1
  Mn  Mn3  1  0.74999999  0.75153999  0.08931000  1
  P  P4  1  0.25000000  0.76005699  0.91924198  1
  P  P5  1  0.25000000  0.26005700  0.58075799  1
  P  P6  1  0.74999999  0.23994300  0.08075800  1
  P  P7  1  0.74999999  0.73994299  0.41924199  1
  Mn  Mn8  1  0.25000000  0.99821899  0.25552199  1
  Mn  Mn9  1  0.25000000  0.49821900  0.24447799  1
  Mn  Mn10  1  0.74999999  0.00178100  0.74447798  1
  Mn  Mn11  1  0.74999999  0.50178100  0.75552198  1
