# generated using pymatgen
data_Li2VCo3O8
_symmetry_space_group_name_H-M   'P 1'
_cell_length_a   5.70980787
_cell_length_b   5.74062204
_cell_length_c   5.74062204
_cell_angle_alpha   60.50580215
_cell_angle_beta   60.17740250
_cell_angle_gamma   60.17740250
_symmetry_Int_Tables_number   1
_chemical_formula_structural   Li2VCo3O8
_chemical_formula_sum   'Li2 V1 Co3 O8'
_cell_volume   133.91380702
_cell_formula_units_Z   1
loop_
 _symmetry_equiv_pos_site_id
 _symmetry_equiv_pos_as_xyz
  1  'x, y, z'
loop_
 _atom_site_type_symbol
 _atom_site_label
 _atom_site_symmetry_multiplicity
 _atom_site_fract_x
 _atom_site_fract_y
 _atom_site_fract_z
 _atom_site_occupancy
  Li  Li0  1  0.00000000  0.00000000  0.49999999  1
  Li  Li1  1  0.50000002  0.00000000  0.49999998  1
  V  V2  1  0.86459802  0.38540199  0.88540197  1
  Co  Co3  1  0.50000002  0.00000000  -0.00000001  1
  Co  Co4  1  0.50000000  0.49999999  0.49999999  1
  Co  Co5  1  0.13540199  0.61459799  0.11459801  1
  O  O6  1  0.73459801  0.76643799  0.76436599  1
  O  O7  1  0.73459802  0.26436600  0.26643798  1
  O  O8  1  0.73145402  0.25399700  0.75399697  1
  O  O9  1  0.26055200  0.25399700  0.75399699  1
  O  O10  1  0.73944801  0.74600299  0.24600299  1
  O  O11  1  0.26540199  0.73563399  0.73356200  1
  O  O12  1  0.26854599  0.74600299  0.24600301  1
  O  O13  1  0.26540200  0.23356200  0.23563399  1
