# generated using pymatgen
data_Li(CoO2)2
_symmetry_space_group_name_H-M   'P 1'
_cell_length_a   5.80633926
_cell_length_b   5.80633926
_cell_length_c   5.80633879
_cell_angle_alpha   60.13427734
_cell_angle_beta   60.13427734
_cell_angle_gamma   60.13427734
_symmetry_Int_Tables_number   1
_chemical_formula_structural   Li(CoO2)2
_chemical_formula_sum   'Li2 Co4 O8'
_cell_volume   138.83892082
_cell_formula_units_Z   2
loop_
 _symmetry_equiv_pos_site_id
 _symmetry_equiv_pos_as_xyz
  1  'x, y, z'
loop_
 _atom_site_type_symbol
 _atom_site_label
 _atom_site_symmetry_multiplicity
 _atom_site_fract_x
 _atom_site_fract_y
 _atom_site_fract_z
 _atom_site_occupancy
  Li  Li0  1  0.12532500  0.12532500  0.12532500  1
  Li  Li1  1  0.87467499  0.87467502  0.87467501  1
  Co  Co2  1  0.49999999  0.50000001  0.50000001  1
  Co  Co3  1  -0.00000001  0.50000001  0.50000000  1
  Co  Co4  1  0.50000001  0.00000000  0.50000000  1
  Co  Co5  1  0.49999999  0.50000001  0.00000001  1
  O  O6  1  0.26569498  0.70973501  0.26569501  1
  O  O7  1  0.70973500  0.26569501  0.26569501  1
  O  O8  1  0.73810499  0.73810501  0.73810501  1
  O  O9  1  0.26569500  0.26569501  0.70973500  1
  O  O10  1  0.73430499  0.73430501  0.29026501  1
  O  O11  1  0.26189500  0.26189501  0.26189500  1
  O  O12  1  0.29026498  0.73430501  0.73430501  1
  O  O13  1  0.73430500  0.29026501  0.73430500  1
