# generated using pymatgen
data_Cs8F9
_symmetry_space_group_name_H-M   'P 1'
_cell_length_a   8.16949272
_cell_length_b   8.16949272
_cell_length_c   8.16949272
_cell_angle_alpha   109.47122192
_cell_angle_beta   109.47122192
_cell_angle_gamma   109.47122192
_symmetry_Int_Tables_number   1
_chemical_formula_structural   Cs8F9
_chemical_formula_sum   'Cs8 F9'
_cell_volume   419.72357090
_cell_formula_units_Z   1
loop_
 _symmetry_equiv_pos_site_id
 _symmetry_equiv_pos_as_xyz
  1  'x, y, z'
loop_
 _atom_site_type_symbol
 _atom_site_label
 _atom_site_symmetry_multiplicity
 _atom_site_fract_x
 _atom_site_fract_y
 _atom_site_fract_z
 _atom_site_occupancy
  Cs  Cs0  1  0.00000000  0.00000000  0.00000000  1
  F  F1  1  0.15692803  0.33879203  0.49572004  1
  F  F2  1  0.84307208  0.66120805  0.50428008  1
  Cs  Cs3  1  0.15692805  0.66120805  0.81813607  1
  Cs  Cs4  1  0.84307206  0.33879203  0.18186405  1
  F  F5  1  0.66120806  0.50428004  0.84307208  1
  F  F6  1  0.33879205  0.49572004  0.15692804  1
  Cs  Cs7  1  0.33879203  0.18186401  0.84307205  1
  Cs  Cs8  1  0.66120808  0.81813606  0.15692807  1
  Cs  Cs9  1  0.81813605  0.15692801  0.66120805  1
  Cs  Cs10  1  0.18186406  0.84307207  0.33879206  1
  F  F11  1  0.49572003  0.15692801  0.33879203  1
  F  F12  1  0.50428008  0.84307207  0.66120808  1
  Cs  Cs13  1  0.50000005  0.50000004  0.50000006  1
  F  F14  1  0.00000000  0.00000000  0.50000002  1
  F  F15  1  1.00000008  0.50000004  1.00000009  1
  F  F16  1  0.50000002  0.00000000  0.00000001  1
