# generated using pymatgen
data_Lu4SeS3
_symmetry_space_group_name_H-M   'P 1'
_cell_length_a   2.90296102
_cell_length_b   2.90296102
_cell_length_c   14.68051624
_cell_angle_alpha   90.00000000
_cell_angle_beta   90.00000000
_cell_angle_gamma   90.00000000
_symmetry_Int_Tables_number   1
_chemical_formula_structural   Lu4SeS3
_chemical_formula_sum   'Lu4 Se1 S3'
_cell_volume   123.71539190
_cell_formula_units_Z   1
loop_
 _symmetry_equiv_pos_site_id
 _symmetry_equiv_pos_as_xyz
  1  'x, y, z'
loop_
 _atom_site_type_symbol
 _atom_site_label
 _atom_site_symmetry_multiplicity
 _atom_site_fract_x
 _atom_site_fract_y
 _atom_site_fract_z
 _atom_site_occupancy
  S  S0  1  0.50000000  0.50000000  0.25362900  1
  S  S1  1  0.50000000  0.50000000  0.49999999  1
  S  S2  1  0.50000000  0.50000000  0.74637099  1
  Se  Se3  1  0.50000000  0.50000000  -0.00000000  1
  Lu  Lu4  1  0.00000000  0.00000000  0.86522899  1
  Lu  Lu5  1  0.00000000  0.00000000  0.13477100  1
  Lu  Lu6  1  0.00000000  0.00000000  0.37645199  1
  Lu  Lu7  1  0.00000000  0.00000000  0.62354799  1
