# generated using pymatgen
data_Sr4MgMo(WO6)2
_symmetry_space_group_name_H-M   'P 1'
_cell_length_a   5.66416216
_cell_length_b   5.67199707
_cell_length_c   8.01065254
_cell_angle_alpha   90.02570343
_cell_angle_beta   90.00000000
_cell_angle_gamma   90.00000000
_symmetry_Int_Tables_number   1
_chemical_formula_structural   Sr4MgMo(WO6)2
_chemical_formula_sum   'Sr4 Mg1 Mo1 W2 O12'
_cell_volume   257.35909888
_cell_formula_units_Z   1
loop_
 _symmetry_equiv_pos_site_id
 _symmetry_equiv_pos_as_xyz
  1  'x, y, z'
loop_
 _atom_site_type_symbol
 _atom_site_label
 _atom_site_symmetry_multiplicity
 _atom_site_fract_x
 _atom_site_fract_y
 _atom_site_fract_z
 _atom_site_occupancy
  Sr  Sr0  1  0.48256899  0.49650099  0.24919399  1
  Sr  Sr1  1  0.98256897  0.00349900  0.25080601  1
  Sr  Sr2  1  0.51743099  0.50349899  0.75080601  1
  Sr  Sr3  1  0.01743100  0.99650099  0.74919399  1
  Mg  Mg4  1  0.49999999  0.99999999  -0.00000003  1
  Mo  Mo5  1  0.00000000  0.49999999  0.50000000  1
  W  W6  1  0.49999999  0.00000000  0.50000002  1
  W  W7  1  0.00000000  0.49999999  -0.00000002  1
  O  O8  1  0.76435698  0.78536799  0.52549599  1
  O  O9  1  0.23564299  0.21463200  0.47450401  1
  O  O10  1  0.26435699  0.71463199  0.97450401  1
  O  O11  1  0.78394098  0.76378699  0.97086101  1
  O  O12  1  0.00194900  0.55369499  0.23997099  1
  O  O13  1  0.49805099  0.05369500  0.73997102  1
  O  O14  1  0.71605898  0.26378700  0.47086101  1
  O  O15  1  0.73564298  0.28536800  0.02549599  1
  O  O16  1  0.99805097  0.44630499  0.76002901  1
  O  O17  1  0.28394099  0.73621299  0.52913899  1
  O  O18  1  0.21605899  0.23621300  0.02913899  1
  O  O19  1  0.50194899  0.94630499  0.26002898  1
