# generated using pymatgen
data_Mg
_symmetry_space_group_name_H-M   'P 1'
_cell_length_a   6.45397997
_cell_length_b   6.47592735
_cell_length_c   10.30142879
_cell_angle_alpha   90.00000000
_cell_angle_beta   90.00000000
_cell_angle_gamma   119.88795471
_symmetry_Int_Tables_number   1
_chemical_formula_structural   Mg
_chemical_formula_sum   Mg16
_cell_volume   373.29047511
_cell_formula_units_Z   16
loop_
 _symmetry_equiv_pos_site_id
 _symmetry_equiv_pos_as_xyz
  1  'x, y, z'
loop_
 _atom_site_type_symbol
 _atom_site_label
 _atom_site_symmetry_multiplicity
 _atom_site_fract_x
 _atom_site_fract_y
 _atom_site_fract_z
 _atom_site_occupancy
  Mg  Mg0  1  0.16728301  0.33456601  0.50000001  1
  Mg  Mg1  1  0.16665201  0.33330401  1.00000002  1
  Mg  Mg2  1  0.66654901  0.33309801  1.00000002  1
  Mg  Mg3  1  0.66318602  0.83652001  0.50000001  1
  Mg  Mg4  1  0.66659002  0.83353701  1.00000002  1
  Mg  Mg5  1  0.17333402  0.83652001  0.50000001  1
  Mg  Mg6  1  0.16694702  0.83353701  1.00000002  1
  Mg  Mg7  1  0.83081601  0.16517900  0.75338402  1
  Mg  Mg8  1  0.83081601  0.16517900  0.24661600  1
  Mg  Mg9  1  0.33436301  0.16517900  0.75338402  1
  Mg  Mg10  1  0.33436301  0.16517900  0.24661600  1
  Mg  Mg11  1  0.33449202  0.66898401  0.75405702  1
  Mg  Mg12  1  0.33449202  0.66898401  0.24594300  1
  Mg  Mg13  1  0.83328002  0.66656001  0.74664401  1
  Mg  Mg14  1  0.83328002  0.66656001  0.25335601  1
  Mg  Mg15  1  0.66354701  0.32709401  0.50000001  1
