# generated using pymatgen
data_Ba5Bi3
_symmetry_space_group_name_H-M   'P 1'
_cell_length_a   8.99173546
_cell_length_b   8.99173546
_cell_length_c   10.14726639
_cell_angle_alpha   116.29941559
_cell_angle_beta   116.29941559
_cell_angle_gamma   90.00000000
_symmetry_Int_Tables_number   1
_chemical_formula_structural   Ba5Bi3
_chemical_formula_sum   'Ba10 Bi6'
_cell_volume   639.39708824
_cell_formula_units_Z   2
loop_
 _symmetry_equiv_pos_site_id
 _symmetry_equiv_pos_as_xyz
  1  'x, y, z'
loop_
 _atom_site_type_symbol
 _atom_site_label
 _atom_site_symmetry_multiplicity
 _atom_site_fract_x
 _atom_site_fract_y
 _atom_site_fract_z
 _atom_site_occupancy
  Ba  Ba0  1  0.50000002  0.50000000  0.00000007  1
  Ba  Ba1  1  0.00000000  0.00000000  0.00000000  1
  Ba  Ba2  1  0.97519203  0.81611999  0.29131211  1
  Ba  Ba3  1  0.31612003  0.47519200  0.29131205  1
  Ba  Ba4  1  0.81612000  0.31612000  0.29131206  1
  Ba  Ba5  1  0.47519206  0.97519199  0.29131210  1
  Ba  Ba6  1  0.02480801  0.18388000  0.70868800  1
  Ba  Ba7  1  0.68388002  0.52480800  0.70868806  1
  Ba  Ba8  1  0.18388004  0.68388000  0.70868805  1
  Ba  Ba9  1  0.52480799  0.02480800  0.70868801  1
  Bi  Bi10  1  0.75000003  0.74999999  0.50000009  1
  Bi  Bi11  1  0.25000001  0.25000000  0.50000002  1
  Bi  Bi12  1  0.62331305  0.87668699  0.00000011  1
  Bi  Bi13  1  0.37668700  0.12331300  0.00000003  1
  Bi  Bi14  1  0.87668701  0.37668700  0.00000008  1
  Bi  Bi15  1  0.12331304  0.62331300  0.00000006  1
