# generated using pymatgen
data_AlPHAu14
_symmetry_space_group_name_H-M   'P 1'
_cell_length_a   7.13851213
_cell_length_b   7.13851213
_cell_length_c   7.13851213
_cell_angle_alpha   60.81142807
_cell_angle_beta   60.81142807
_cell_angle_gamma   60.81142426
_symmetry_Int_Tables_number   1
_chemical_formula_structural   AlPHAu14
_chemical_formula_sum   'Al1 P1 H1 Au14'
_cell_volume   261.92928329
_cell_formula_units_Z   1
loop_
 _symmetry_equiv_pos_site_id
 _symmetry_equiv_pos_as_xyz
  1  'x, y, z'
loop_
 _atom_site_type_symbol
 _atom_site_label
 _atom_site_symmetry_multiplicity
 _atom_site_fract_x
 _atom_site_fract_y
 _atom_site_fract_z
 _atom_site_occupancy
  P  P0  1  0.28568299  0.28568300  0.28568300  1
  H  H1  1  0.71431697  0.71431700  0.71431701  1
  Au  Au2  1  0.84645598  0.36532700  0.67961600  1
  Au  Au3  1  0.36532697  0.67961600  0.84645601  1
  Au  Au4  1  0.67961597  0.84645600  0.36532701  1
  Au  Au5  1  0.15354398  0.63467300  0.32038401  1
  Au  Au6  1  0.63467298  0.32038400  0.15354400  1
  Au  Au7  1  0.32038399  0.15354400  0.63467300  1
  Au  Au8  1  0.77491199  0.05278200  0.55797900  1
  Au  Au9  1  0.05278198  0.55797900  0.77491201  1
  Au  Au10  1  0.55797897  0.77491200  0.05278201  1
  Au  Au11  1  0.22508797  0.94721800  0.44202101  1
  Au  Au12  1  0.94721797  0.44202100  0.22508800  1
  Au  Au13  1  0.44202099  0.22508800  0.94721800  1
  Au  Au14  1  0.07942700  0.07942700  0.07942700  1
  Au  Au15  1  0.92057296  0.92057300  0.92057301  1
  Al  Al16  1  0.49999998  0.50000000  0.50000000  1
