# generated using pymatgen
data_Ho
_symmetry_space_group_name_H-M   'P 1'
_cell_length_a   5.61392403
_cell_length_b   7.14616394
_cell_length_c   7.14616346
_cell_angle_alpha   120.00000000
_cell_angle_beta   90.00000000
_cell_angle_gamma   90.00000000
_symmetry_Int_Tables_number   1
_chemical_formula_structural   Ho
_chemical_formula_sum   Ho8
_cell_volume   248.28077024
_cell_formula_units_Z   8
loop_
 _symmetry_equiv_pos_site_id
 _symmetry_equiv_pos_as_xyz
  1  'x, y, z'
loop_
 _atom_site_type_symbol
 _atom_site_label
 _atom_site_symmetry_multiplicity
 _atom_site_fract_x
 _atom_site_fract_y
 _atom_site_fract_z
 _atom_site_occupancy
  Ho  Ho0  1  0.75000000  0.33333333  0.66666666  1
  Ho  Ho1  1  0.25000000  0.66666666  0.33333331  1
  Ho  Ho2  1  0.25000000  0.16435600  0.32871199  1
  Ho  Ho3  1  0.25000000  0.67128799  0.83564397  1
  Ho  Ho4  1  0.25000000  0.16435600  0.83564400  1
  Ho  Ho5  1  0.75000000  0.83564399  0.67128797  1
  Ho  Ho6  1  0.75000000  0.32871200  0.16435599  1
  Ho  Ho7  1  0.75000000  0.83564399  0.16435596  1
