# generated using pymatgen
data_Na2Zr2F11
_symmetry_space_group_name_H-M   'P 1'
_cell_length_a   5.95741987
_cell_length_b   5.95741987
_cell_length_c   7.96529436
_cell_angle_alpha   69.55584717
_cell_angle_beta   69.55584717
_cell_angle_gamma   73.16523743
_symmetry_Int_Tables_number   1
_chemical_formula_structural   Na2Zr2F11
_chemical_formula_sum   'Na2 Zr2 F11'
_cell_volume   243.64000520
_cell_formula_units_Z   1
loop_
 _symmetry_equiv_pos_site_id
 _symmetry_equiv_pos_as_xyz
  1  'x, y, z'
loop_
 _atom_site_type_symbol
 _atom_site_label
 _atom_site_symmetry_multiplicity
 _atom_site_fract_x
 _atom_site_fract_y
 _atom_site_fract_z
 _atom_site_occupancy
  Zr  Zr0  1  0.49256200  0.49256201  0.23723296  1
  Zr  Zr1  1  0.50743800  0.50743801  0.76276696  1
  Na  Na2  1  0.00000000  0.00000000  0.00000000  1
  Na  Na3  1  0.00000000  0.00000000  0.50000000  1
  F  F4  1  0.23235499  0.80171802  0.69198696  1
  F  F5  1  0.19828199  0.76764502  0.30801296  1
  F  F6  1  0.76764501  0.19828201  0.30801296  1
  F  F7  1  0.80171801  0.23235501  0.69198696  1
  F  F8  1  0.50000000  0.50000001  0.49999996  1
  F  F9  1  0.66300001  0.33700001  -0.00000005  1
  F  F10  1  0.33699999  0.66300002  -0.00000004  1
  F  F11  1  0.25507700  0.25507701  0.34752898  1
  F  F12  1  0.74492300  0.74492302  0.65247094  1
  F  F13  1  0.27727500  0.27727501  0.88718098  1
  F  F14  1  0.72272500  0.72272502  0.11281894  1
