# generated using pymatgen
data_Hg
_symmetry_space_group_name_H-M   'P 1'
_cell_length_a   5.55446291
_cell_length_b   6.93452787
_cell_length_c   6.93452787
_cell_angle_alpha   120.00000000
_cell_angle_beta   90.00000000
_cell_angle_gamma   90.00000000
_symmetry_Int_Tables_number   1
_chemical_formula_structural   Hg
_chemical_formula_sum   Hg8
_cell_volume   231.31643965
_cell_formula_units_Z   8
loop_
 _symmetry_equiv_pos_site_id
 _symmetry_equiv_pos_as_xyz
  1  'x, y, z'
loop_
 _atom_site_type_symbol
 _atom_site_label
 _atom_site_symmetry_multiplicity
 _atom_site_fract_x
 _atom_site_fract_y
 _atom_site_fract_z
 _atom_site_occupancy
  Hg  Hg0  1  0.75000001  0.83558100  0.16441997  1
  Hg  Hg1  1  0.75000001  0.32883900  0.16441998  1
  Hg  Hg2  1  0.75000001  0.83558100  0.67116195  1
  Hg  Hg3  1  0.25000000  0.16441900  0.83557997  1
  Hg  Hg4  1  0.25000000  0.67116100  0.83557995  1
  Hg  Hg5  1  0.25000000  0.16441900  0.32883798  1
  Hg  Hg6  1  0.25000000  0.66666667  0.33333330  1
  Hg  Hg7  1  0.75000001  0.33333333  0.66666663  1
