# generated using pymatgen
data_Li2PN2
_symmetry_space_group_name_H-M   'P 1'
_cell_length_a   3.34732985
_cell_length_b   3.34733105
_cell_length_c   5.82835007
_cell_angle_alpha   89.99993896
_cell_angle_beta   89.99993134
_cell_angle_gamma   60.00016403
_symmetry_Int_Tables_number   1
_chemical_formula_structural   Li2PN2
_chemical_formula_sum   'Li2 P1 N2'
_cell_volume   56.55540999
_cell_formula_units_Z   1
loop_
 _symmetry_equiv_pos_site_id
 _symmetry_equiv_pos_as_xyz
  1  'x, y, z'
loop_
 _atom_site_type_symbol
 _atom_site_label
 _atom_site_symmetry_multiplicity
 _atom_site_fract_x
 _atom_site_fract_y
 _atom_site_fract_z
 _atom_site_occupancy
  P  P0  1  0.00000000  0.00000000  0.00000000  1
  Li  Li1  1  0.66666668  0.66666665  0.65423399  1
  Li  Li2  1  0.33333334  0.33333333  0.34576600  1
  N  N3  1  0.66666668  0.66666665  0.23063100  1
  N  N4  1  0.33333334  0.33333333  0.76936899  1
