# generated using pymatgen
data_Cs2AuS2
_symmetry_space_group_name_H-M   'P 1'
_cell_length_a   6.25323009
_cell_length_b   7.39302206
_cell_length_c   8.47382450
_cell_angle_alpha   115.86339569
_cell_angle_beta   111.65231323
_cell_angle_gamma   90.00000000
_symmetry_Int_Tables_number   1
_chemical_formula_structural   Cs2AuS2
_chemical_formula_sum   'Cs4 Au2 S4'
_cell_volume   321.51077558
_cell_formula_units_Z   2
loop_
 _symmetry_equiv_pos_site_id
 _symmetry_equiv_pos_as_xyz
  1  'x, y, z'
loop_
 _atom_site_type_symbol
 _atom_site_label
 _atom_site_symmetry_multiplicity
 _atom_site_fract_x
 _atom_site_fract_y
 _atom_site_fract_z
 _atom_site_occupancy
  Cs  Cs0  1  0.85224898  0.52110899  0.70449796  1
  Cs  Cs1  1  0.14775099  0.47889099  0.29550198  1
  Cs  Cs2  1  0.64775098  0.81661099  0.29550197  1
  Cs  Cs3  1  0.35224899  0.18338900  0.70449796  1
  Au  Au4  1  0.74999999  0.00000000  0.00000000  1
  Au  Au5  1  0.25000000  0.00000000  0.00000000  1
  S  S6  1  0.58898099  0.25040800  0.17796199  1
  S  S7  1  0.41101899  0.74959199  0.82203795  1
  S  S8  1  0.08898099  0.92755398  0.17796197  1
  S  S9  1  0.91101899  0.07244600  0.82203796  1
