# generated using pymatgen
data_BaP2
_symmetry_space_group_name_H-M   'P 1'
_cell_length_a   4.26484299
_cell_length_b   4.26484299
_cell_length_c   14.16153526
_cell_angle_alpha   90.00000000
_cell_angle_beta   90.00000000
_cell_angle_gamma   90.00000000
_symmetry_Int_Tables_number   1
_chemical_formula_structural   BaP2
_chemical_formula_sum   'Ba4 P8'
_cell_volume   257.58254630
_cell_formula_units_Z   4
loop_
 _symmetry_equiv_pos_site_id
 _symmetry_equiv_pos_as_xyz
  1  'x, y, z'
loop_
 _atom_site_type_symbol
 _atom_site_label
 _atom_site_symmetry_multiplicity
 _atom_site_fract_x
 _atom_site_fract_y
 _atom_site_fract_z
 _atom_site_occupancy
  Ba  Ba0  1  0.50000000  0.50000000  -0.00000000  1
  Ba  Ba1  1  0.00000000  0.00000000  0.49999999  1
  Ba  Ba2  1  0.50000000  0.00000000  0.75075299  1
  Ba  Ba3  1  0.00000000  0.50000000  0.24924700  1
  P  P4  1  0.00000000  0.00000000  0.91652398  1
  P  P5  1  0.50000000  0.50000000  0.41547399  1
  P  P6  1  0.00000000  0.50000000  0.83526198  1
  P  P7  1  0.50000000  0.00000000  0.33377399  1
  P  P8  1  0.00000000  0.00000000  0.08347600  1
  P  P9  1  0.50000000  0.50000000  0.58452599  1
  P  P10  1  0.50000000  0.00000000  0.16473800  1
  P  P11  1  0.00000000  0.50000000  0.66622599  1
