# generated using pymatgen
data_Cs8P7F
_symmetry_space_group_name_H-M   'P 1'
_cell_length_a   6.10428095
_cell_length_b   6.61684608
_cell_length_c   11.43207359
_cell_angle_alpha   90.00000000
_cell_angle_beta   90.00000000
_cell_angle_gamma   90.00000000
_symmetry_Int_Tables_number   1
_chemical_formula_structural   Cs8P7F
_chemical_formula_sum   'Cs8 P7 F1'
_cell_volume   461.75388474
_cell_formula_units_Z   1
loop_
 _symmetry_equiv_pos_site_id
 _symmetry_equiv_pos_as_xyz
  1  'x, y, z'
loop_
 _atom_site_type_symbol
 _atom_site_label
 _atom_site_symmetry_multiplicity
 _atom_site_fract_x
 _atom_site_fract_y
 _atom_site_fract_z
 _atom_site_occupancy
  Cs  Cs0  1  0.39679200  0.38349000  0.91692903  1
  Cs  Cs1  1  0.89679201  0.11651000  0.08307100  1
  Cs  Cs2  1  0.60320801  0.88348999  0.58307102  1
  Cs  Cs3  1  0.10320800  0.61650999  0.41692901  1
  Cs  Cs4  1  0.66488601  0.64523299  0.21609301  1
  Cs  Cs5  1  0.16488600  0.85476699  0.78390703  1
  Cs  Cs6  1  0.33511400  0.14523300  0.28390701  1
  Cs  Cs7  1  0.83511401  0.35476700  0.71609303  1
  P  P8  1  0.16551000  0.68894599  0.10063900  1
  P  P9  1  0.66551001  0.81105399  0.89936103  1
  P  P10  1  0.83449001  0.18894600  0.39936101  1
  P  P11  1  0.33449000  0.31105400  0.60063902  1
  P  P12  1  0.90600301  0.58220099  0.97060403  1
  P  P13  1  0.40600300  0.91779899  0.02939600  1
  P  P14  1  0.09399700  0.08220100  0.52939602  1
  F  F15  1  0.59399700  0.41779899  0.47060402  1
