# generated using pymatgen
data_BaGe2
_symmetry_space_group_name_H-M   'P 1'
_cell_length_a   4.64189816
_cell_length_b   5.92119169
_cell_length_c   5.92119169
_cell_angle_alpha   77.73333740
_cell_angle_beta   66.92266083
_cell_angle_gamma   66.92266083
_symmetry_Int_Tables_number   1
_chemical_formula_structural   BaGe2
_chemical_formula_sum   'Ba2 Ge4'
_cell_volume   137.40929147
_cell_formula_units_Z   2
loop_
 _symmetry_equiv_pos_site_id
 _symmetry_equiv_pos_as_xyz
  1  'x, y, z'
loop_
 _atom_site_type_symbol
 _atom_site_label
 _atom_site_symmetry_multiplicity
 _atom_site_fract_x
 _atom_site_fract_y
 _atom_site_fract_z
 _atom_site_occupancy
  Ba  Ba0  1  0.70316696  0.79683296  0.79683304  1
  Ba  Ba1  1  0.63175197  0.36824798  0.36824802  1
  Ge  Ge2  1  0.33342598  0.97815896  0.35498906  1
  Ge  Ge3  1  0.33342598  0.35498898  0.97815900  1
  Ge  Ge4  1  0.00194899  0.78020796  0.21589405  1
  Ge  Ge5  1  0.00194900  0.21589399  0.78020799  1
