# generated using pymatgen
data_HoGe4
_symmetry_space_group_name_H-M   'P 1'
_cell_length_a   4.32123995
_cell_length_b   4.32124043
_cell_length_c   7.07227612
_cell_angle_alpha   90.00000000
_cell_angle_beta   90.00000000
_cell_angle_gamma   120.00000000
_symmetry_Int_Tables_number   1
_chemical_formula_structural   HoGe4
_chemical_formula_sum   'Ho1 Ge4'
_cell_volume   114.36855982
_cell_formula_units_Z   1
loop_
 _symmetry_equiv_pos_site_id
 _symmetry_equiv_pos_as_xyz
  1  'x, y, z'
loop_
 _atom_site_type_symbol
 _atom_site_label
 _atom_site_symmetry_multiplicity
 _atom_site_fract_x
 _atom_site_fract_y
 _atom_site_fract_z
 _atom_site_occupancy
  Ho  Ho0  1  0.00000000  0.00000000  0.00000000  1
  Ge  Ge1  1  0.66666669  0.33333333  0.36132599  1
  Ge  Ge2  1  0.33333337  0.66666667  0.63867399  1
  Ge  Ge3  1  0.33333337  0.66666667  0.23905500  1
  Ge  Ge4  1  0.66666669  0.33333333  0.76094499  1
