# generated using pymatgen
data_Mo3Se17
_symmetry_space_group_name_H-M   'P 1'
_cell_length_a   4.98798084
_cell_length_b   7.58663797
_cell_length_c   14.47831726
_cell_angle_alpha   90.00000000
_cell_angle_beta   90.00000000
_cell_angle_gamma   90.00000000
_symmetry_Int_Tables_number   1
_chemical_formula_structural   Mo3Se17
_chemical_formula_sum   'Mo3 Se17'
_cell_volume   547.88855233
_cell_formula_units_Z   1
loop_
 _symmetry_equiv_pos_site_id
 _symmetry_equiv_pos_as_xyz
  1  'x, y, z'
loop_
 _atom_site_type_symbol
 _atom_site_label
 _atom_site_symmetry_multiplicity
 _atom_site_fract_x
 _atom_site_fract_y
 _atom_site_fract_z
 _atom_site_occupancy
  Se  Se0  1  0.79172802  0.75000000  0.74999999  1
  Mo  Mo1  1  0.20827201  0.25000000  0.74999999  1
  Mo  Mo2  1  0.20827201  0.25000000  0.25000000  1
  Mo  Mo3  1  0.79172802  0.75000000  0.25000000  1
  Se  Se4  1  0.07366700  0.65500100  0.12635100  1
  Se  Se5  1  0.92633303  0.15500100  0.62635099  1
  Se  Se6  1  0.07366700  0.84499900  0.62635099  1
  Se  Se7  1  0.81730403  0.73455700  0.49999999  1
  Se  Se8  1  0.18269601  0.23455700  -0.00000000  1
  Se  Se9  1  0.81730403  0.76544300  -0.00000000  1
  Se  Se10  1  0.92633303  0.15500100  0.37364899  1
  Se  Se11  1  0.18269601  0.26544300  0.49999999  1
  Se  Se12  1  0.92633303  0.34499900  0.87364898  1
  Se  Se13  1  0.07366700  0.84499900  0.37364899  1
  Se  Se14  1  0.07366700  0.65500100  0.87364898  1
  Se  Se15  1  0.92633303  0.34499900  0.12635100  1
  Se  Se16  1  0.50000002  0.00000000  0.19150800  1
  Se  Se17  1  0.50000002  0.50000000  0.30849199  1
  Se  Se18  1  0.50000002  0.00000000  0.80849199  1
  Se  Se19  1  0.50000002  0.50000000  0.69150799  1
