# generated using pymatgen
data_Ho2Si2Pt9
_symmetry_space_group_name_H-M   'P 1'
_cell_length_a   5.34758615
_cell_length_b   5.34758568
_cell_length_c   8.66926670
_cell_angle_alpha   90.00000000
_cell_angle_beta   90.00000000
_cell_angle_gamma   120.00000000
_symmetry_Int_Tables_number   1
_chemical_formula_structural   Ho2Si2Pt9
_chemical_formula_sum   'Ho2 Si2 Pt9'
_cell_volume   214.69826614
_cell_formula_units_Z   1
loop_
 _symmetry_equiv_pos_site_id
 _symmetry_equiv_pos_as_xyz
  1  'x, y, z'
loop_
 _atom_site_type_symbol
 _atom_site_label
 _atom_site_symmetry_multiplicity
 _atom_site_fract_x
 _atom_site_fract_y
 _atom_site_fract_z
 _atom_site_occupancy
  Ho  Ho0  1  0.00000000  0.00000000  0.00000000  1
  Pt  Pt1  1  0.49999999  0.00000000  0.23284101  1
  Pt  Pt2  1  0.49999999  0.00000000  0.76715903  1
  Pt  Pt3  1  -0.00000002  0.50000000  0.23284101  1
  Si  Si4  1  -0.00000002  0.50000000  0.76715903  1
  Pt  Pt5  1  0.49999997  0.50000000  0.23284101  1
  Si  Si6  1  0.49999997  0.50000000  0.76715903  1
  Pt  Pt7  1  0.33333330  0.66666666  0.50000002  1
  Pt  Pt8  1  0.66666664  0.33333333  0.50000002  1
  Pt  Pt9  1  0.00000000  0.00000000  0.33384001  1
  Ho  Ho10  1  0.00000000  0.00000000  0.66616002  1
  Pt  Pt11  1  0.33333330  0.66666666  1.00000003  1
  Pt  Pt12  1  0.66666664  0.33333333  -0.00000000  1
