# generated using pymatgen
data_TlCuMo5S8
_symmetry_space_group_name_H-M   'P 1'
_cell_length_a   3.23650002
_cell_length_b   9.18630600
_cell_length_c   9.18630600
_cell_angle_alpha   120.00000000
_cell_angle_beta   90.00000000
_cell_angle_gamma   90.00000000
_symmetry_Int_Tables_number   1
_chemical_formula_structural   TlCuMo5S8
_chemical_formula_sum   'Tl1 Cu1 Mo5 S8'
_cell_volume   236.53099684
_cell_formula_units_Z   1
loop_
 _symmetry_equiv_pos_site_id
 _symmetry_equiv_pos_as_xyz
  1  'x, y, z'
loop_
 _atom_site_type_symbol
 _atom_site_label
 _atom_site_symmetry_multiplicity
 _atom_site_fract_x
 _atom_site_fract_y
 _atom_site_fract_z
 _atom_site_occupancy
  Mo  Mo0  1  0.73949199  0.70604999  0.15658198  1
  Mo  Mo1  1  0.73949199  0.45053200  0.29394998  1
  Mo  Mo2  1  0.73949199  0.84341799  0.54946796  1
  Cu  Cu3  1  0.24056600  0.95935299  0.17544197  1
  Mo  Mo4  1  0.24056600  0.21608900  0.04064699  1
  Mo  Mo5  1  0.24056600  0.82455799  0.78391095  1
  Tl  Tl6  1  0.63124300  0.33333333  0.66666664  1
  S  S7  1  0.74140799  0.38362800  0.01357899  1
  S  S8  1  0.74140799  0.62995099  0.61637096  1
  S  S9  1  0.74140799  0.98641999  0.37004797  1
  S  S10  1  0.23838400  0.28229700  0.32060998  1
  S  S11  1  0.23838400  0.03831300  0.71770297  1
  S  S12  1  0.23838400  0.67938999  0.96168695  1
  S  S13  1  0.74054599  0.00000000  -0.00000000  1
  S  S14  1  0.23966600  0.66666666  0.33333331  1
