# generated using pymatgen
data_Ho2MgGe2
_symmetry_space_group_name_H-M   'P 1'
_cell_length_a   3.89633012
_cell_length_b   7.61153889
_cell_length_c   7.61153889
_cell_angle_alpha   90.00000000
_cell_angle_beta   90.00000000
_cell_angle_gamma   90.00000000
_symmetry_Int_Tables_number   1
_chemical_formula_structural   Ho2MgGe2
_chemical_formula_sum   'Ho4 Mg2 Ge4'
_cell_volume   225.73592796
_cell_formula_units_Z   2
loop_
 _symmetry_equiv_pos_site_id
 _symmetry_equiv_pos_as_xyz
  1  'x, y, z'
loop_
 _atom_site_type_symbol
 _atom_site_label
 _atom_site_symmetry_multiplicity
 _atom_site_fract_x
 _atom_site_fract_y
 _atom_site_fract_z
 _atom_site_occupancy
  Ho  Ho0  1  0.49999998  0.17032200  0.67032201  1
  Ho  Ho1  1  0.49999998  0.82967801  0.32967800  1
  Ho  Ho2  1  0.49999998  0.32967800  0.17032200  1
  Ho  Ho3  1  0.49999998  0.67032201  0.82967801  1
  Mg  Mg4  1  0.00000000  0.00000000  0.00000000  1
  Mg  Mg5  1  0.00000000  0.50000001  0.50000001  1
  Ge  Ge6  1  0.00000000  0.63088401  0.13088400  1
  Ge  Ge7  1  0.00000000  0.36911601  0.86911601  1
  Ge  Ge8  1  0.00000000  0.86911601  0.63088401  1
  Ge  Ge9  1  0.00000000  0.13088400  0.36911601  1
