# generated using pymatgen
data_MgInF6
_symmetry_space_group_name_H-M   'P 1'
_cell_length_a   5.12911844
_cell_length_b   5.12911844
_cell_length_c   5.50901937
_cell_angle_alpha   62.25611496
_cell_angle_beta   62.25611496
_cell_angle_gamma   59.99999237
_symmetry_Int_Tables_number   1
_chemical_formula_structural   MgInF6
_chemical_formula_sum   'Mg1 In1 F6'
_cell_volume   105.83806324
_cell_formula_units_Z   1
loop_
 _symmetry_equiv_pos_site_id
 _symmetry_equiv_pos_as_xyz
  1  'x, y, z'
loop_
 _atom_site_type_symbol
 _atom_site_label
 _atom_site_symmetry_multiplicity
 _atom_site_fract_x
 _atom_site_fract_y
 _atom_site_fract_z
 _atom_site_occupancy
  Mg  Mg0  1  0.50000001  0.50000001  0.50000002  1
  In  In1  1  0.00000000  0.00000000  0.00000000  1
  F  F2  1  0.38564301  0.10264200  0.75341901  1
  F  F3  1  0.10264199  0.75829602  0.75341902  1
  F  F4  1  0.24170400  0.61435702  0.24658102  1
  F  F5  1  0.89735802  0.24170401  0.24658102  1
  F  F6  1  0.61435700  0.89735802  0.24658103  1
  F  F7  1  0.75829601  0.38564301  0.75341902  1
