# generated using pymatgen
data_CsBaGe4
_symmetry_space_group_name_H-M   'P 1'
_cell_length_a   3.83923411
_cell_length_b   5.44917393
_cell_length_c   6.66269636
_cell_angle_alpha   89.75566101
_cell_angle_beta   90.00000000
_cell_angle_gamma   90.00000000
_symmetry_Int_Tables_number   1
_chemical_formula_structural   CsBaGe4
_chemical_formula_sum   'Cs1 Ba1 Ge4'
_cell_volume   139.38670071
_cell_formula_units_Z   1
loop_
 _symmetry_equiv_pos_site_id
 _symmetry_equiv_pos_as_xyz
  1  'x, y, z'
loop_
 _atom_site_type_symbol
 _atom_site_label
 _atom_site_symmetry_multiplicity
 _atom_site_fract_x
 _atom_site_fract_y
 _atom_site_fract_z
 _atom_site_occupancy
  Ge  Ge0  1  0.00000000  0.00000000  0.00000000  1
  Ge  Ge1  1  0.49999999  0.00000000  0.50000002  1
  Cs  Cs2  1  0.00000000  0.76574101  0.32865700  1
  Ba  Ba3  1  0.49999999  0.75844601  0.84125302  1
  Ge  Ge4  1  0.49999999  0.24155400  0.15874700  1
  Ge  Ge5  1  0.00000000  0.23425900  0.67134302  1
