# generated using pymatgen
data_MgInF6
_symmetry_space_group_name_H-M   'P 1'
_cell_length_a   5.64122725
_cell_length_b   5.64122725
_cell_length_c   5.82567310
_cell_angle_alpha   61.04192734
_cell_angle_beta   61.04192734
_cell_angle_gamma   60.00000763
_symmetry_Int_Tables_number   1
_chemical_formula_structural   MgInF6
_chemical_formula_sum   'Mg1 In1 F6'
_cell_volume   133.11939215
_cell_formula_units_Z   1
loop_
 _symmetry_equiv_pos_site_id
 _symmetry_equiv_pos_as_xyz
  1  'x, y, z'
loop_
 _atom_site_type_symbol
 _atom_site_label
 _atom_site_symmetry_multiplicity
 _atom_site_fract_x
 _atom_site_fract_y
 _atom_site_fract_z
 _atom_site_occupancy
  Mg  Mg0  1  0.49999999  0.50000001  0.50000004  1
  In  In1  1  0.00000000  0.00000000  0.00000000  1
  F  F2  1  0.83749199  0.64223601  0.26076605  1
  F  F3  1  0.25950599  0.83749201  0.26076604  1
  F  F4  1  0.35776399  0.74049401  0.73923405  1
  F  F5  1  0.74049400  0.16250800  0.73923404  1
  F  F6  1  0.16250799  0.35776400  0.73923403  1
  F  F7  1  0.64223600  0.25950600  0.26076603  1
