# generated using pymatgen
data_Na3LiF6
_symmetry_space_group_name_H-M   'P 1'
_cell_length_a   5.23705626
_cell_length_b   5.23705626
_cell_length_c   5.23705673
_cell_angle_alpha   60.91955948
_cell_angle_beta   60.91955948
_cell_angle_gamma   60.91956711
_symmetry_Int_Tables_number   1
_chemical_formula_structural   Na3LiF6
_chemical_formula_sum   'Na3 Li1 F6'
_cell_volume   103.67050132
_cell_formula_units_Z   1
loop_
 _symmetry_equiv_pos_site_id
 _symmetry_equiv_pos_as_xyz
  1  'x, y, z'
loop_
 _atom_site_type_symbol
 _atom_site_label
 _atom_site_symmetry_multiplicity
 _atom_site_fract_x
 _atom_site_fract_y
 _atom_site_fract_z
 _atom_site_occupancy
  Na  Na0  1  0.75000005  0.75000001  0.74999992  1
  Na  Na1  1  0.25000002  0.25000000  0.24999997  1
  Na  Na2  1  0.00000000  0.00000000  0.00000000  1
  Li  Li3  1  0.50000003  0.50000000  0.49999995  1
  F  F4  1  0.82560105  0.67439901  0.24999994  1
  F  F5  1  0.67439903  0.25000000  0.82560095  1
  F  F6  1  0.75000002  0.17439900  0.32560096  1
  F  F7  1  0.25000004  0.82560101  0.67439894  1
  F  F8  1  0.32560104  0.75000001  0.17439895  1
  F  F9  1  0.17439902  0.32560100  0.74999996  1
