# generated using pymatgen
data_Cu(MoO3)2
_symmetry_space_group_name_H-M   'P 1'
_cell_length_a   4.87355900
_cell_length_b   5.80893421
_cell_length_c   5.80893373
_cell_angle_alpha   120.00000000
_cell_angle_beta   90.00000000
_cell_angle_gamma   90.00000000
_symmetry_Int_Tables_number   1
_chemical_formula_structural   Cu(MoO3)2
_chemical_formula_sum   'Cu1 Mo2 O6'
_cell_volume   142.41959285
_cell_formula_units_Z   1
loop_
 _symmetry_equiv_pos_site_id
 _symmetry_equiv_pos_as_xyz
  1  'x, y, z'
loop_
 _atom_site_type_symbol
 _atom_site_label
 _atom_site_symmetry_multiplicity
 _atom_site_fract_x
 _atom_site_fract_y
 _atom_site_fract_z
 _atom_site_occupancy
  Mo  Mo0  1  0.28796400  0.66666663  0.33333330  1
  Mo  Mo1  1  0.71203600  0.33333331  0.66666664  1
  Cu  Cu2  1  0.00000000  0.00000000  0.00000000  1
  O  O3  1  0.22199000  0.84553795  0.69107595  1
  O  O4  1  0.77801000  0.15446199  0.84553898  1
  O  O5  1  0.77801000  0.69107696  0.84553896  1
  O  O6  1  0.22199000  0.30892298  0.15446098  1
  O  O7  1  0.22199000  0.84553795  0.15446096  1
  O  O8  1  0.77801000  0.15446199  0.30892399  1
