# generated using pymatgen
data_EuIn3
_symmetry_space_group_name_H-M   'P 1'
_cell_length_a   4.80148888
_cell_length_b   7.89574909
_cell_length_c   8.38609505
_cell_angle_alpha   90.00000000
_cell_angle_beta   90.00000000
_cell_angle_gamma   90.00000000
_symmetry_Int_Tables_number   1
_chemical_formula_structural   EuIn3
_chemical_formula_sum   'Eu3 In9'
_cell_volume   317.92819650
_cell_formula_units_Z   3
loop_
 _symmetry_equiv_pos_site_id
 _symmetry_equiv_pos_as_xyz
  1  'x, y, z'
loop_
 _atom_site_type_symbol
 _atom_site_label
 _atom_site_symmetry_multiplicity
 _atom_site_fract_x
 _atom_site_fract_y
 _atom_site_fract_z
 _atom_site_occupancy
  In  In0  1  0.25000001  0.16328100  0.92265799  1
  In  In1  1  0.25000001  0.66328099  0.57734200  1
  In  In2  1  0.75000002  0.83671899  0.07734200  1
  In  In3  1  0.75000002  0.33671900  0.42265800  1
  Eu  Eu4  1  0.25000001  0.00361500  0.29014000  1
  Eu  Eu5  1  0.25000001  0.50361499  0.20986000  1
  In  In6  1  0.75000002  0.99638499  0.70986000  1
  Eu  Eu7  1  0.75000002  0.49638499  0.79014000  1
  In  In8  1  0.25000001  0.27491900  0.59282600  1
  In  In9  1  0.25000001  0.77491899  0.90717399  1
  In  In10  1  0.75000002  0.72508099  0.40717400  1
  In  In11  1  0.75000002  0.22508100  0.09282600  1
