# generated using pymatgen
data_NaV2O4
_symmetry_space_group_name_H-M   'P 1'
_cell_length_a   3.52450204
_cell_length_b   6.08159924
_cell_length_c   8.76603317
_cell_angle_alpha   103.30480194
_cell_angle_beta   90.00000000
_cell_angle_gamma   90.00000000
_symmetry_Int_Tables_number   1
_chemical_formula_structural   NaV2O4
_chemical_formula_sum   'Na2 V4 O8'
_cell_volume   182.85327361
_cell_formula_units_Z   2
loop_
 _symmetry_equiv_pos_site_id
 _symmetry_equiv_pos_as_xyz
  1  'x, y, z'
loop_
 _atom_site_type_symbol
 _atom_site_label
 _atom_site_symmetry_multiplicity
 _atom_site_fract_x
 _atom_site_fract_y
 _atom_site_fract_z
 _atom_site_occupancy
  Na  Na0  1  0.49999999  0.49999997  0.99999997  1
  Na  Na1  1  0.00000000  0.00000000  0.00000000  1
  V  V2  1  0.49999999  0.28689599  0.35689998  1
  V  V3  1  -0.00000000  0.78325896  0.35397897  1
  V  V4  1  0.49999999  0.71310396  0.64309996  1
  V  V5  1  0.00000000  0.21674099  0.64602098  1
  O  O6  1  0.49999999  0.21878399  0.13891899  1
  O  O7  1  0.99999999  0.70593596  0.13741197  1
  O  O8  1  0.49999999  0.78121596  0.86108096  1
  O  O9  1  0.00000000  0.29406399  0.86258798  1
  O  O10  1  0.49999999  0.36738598  0.60626598  1
  O  O11  1  0.99999999  0.86947596  0.60804696  1
  O  O12  1  0.49999999  0.63261397  0.39373397  1
  O  O13  1  0.00000000  0.13052399  0.39195299  1
