# generated using pymatgen
data_HfGaCo
_symmetry_space_group_name_H-M   'P 1'
_cell_length_a   4.99101400
_cell_length_b   4.99101400
_cell_length_c   8.26909828
_cell_angle_alpha   90.00000000
_cell_angle_beta   90.00000000
_cell_angle_gamma   120.00000000
_symmetry_Int_Tables_number   1
_chemical_formula_structural   HfGaCo
_chemical_formula_sum   'Hf4 Ga4 Co4'
_cell_volume   178.38829814
_cell_formula_units_Z   4
loop_
 _symmetry_equiv_pos_site_id
 _symmetry_equiv_pos_as_xyz
  1  'x, y, z'
loop_
 _atom_site_type_symbol
 _atom_site_label
 _atom_site_symmetry_multiplicity
 _atom_site_fract_x
 _atom_site_fract_y
 _atom_site_fract_z
 _atom_site_occupancy
  Hf  Hf0  1  0.66666667  0.33333334  0.56338898  1
  Hf  Hf1  1  0.33333334  0.66666668  0.43661099  1
  Hf  Hf2  1  0.33333334  0.66666668  0.06338900  1
  Hf  Hf3  1  0.66666667  0.33333334  0.93661097  1
  Ga  Ga4  1  0.17249500  0.34499001  0.74999997  1
  Co  Co5  1  0.17249501  0.82750502  0.74999997  1
  Co  Co6  1  0.65501001  0.82750502  0.74999997  1
  Co  Co7  1  0.82750501  0.65501001  0.24999999  1
  Ga  Ga8  1  0.82750500  0.17249500  0.24999999  1
  Co  Co9  1  0.34499000  0.17249500  0.24999999  1
  Ga  Ga10  1  0.00000000  0.00000000  0.49999998  1
  Ga  Ga11  1  0.00000000  0.00000000  0.00000000  1
