# generated using pymatgen
data_Hg5Au
_symmetry_space_group_name_H-M   'P 1'
_cell_length_a   3.63818693
_cell_length_b   5.44410372
_cell_length_c   7.46882772
_cell_angle_alpha   78.19837189
_cell_angle_beta   75.90336609
_cell_angle_gamma   70.47973633
_symmetry_Int_Tables_number   1
_chemical_formula_structural   Hg5Au
_chemical_formula_sum   'Hg5 Au1'
_cell_volume   133.99859891
_cell_formula_units_Z   1
loop_
 _symmetry_equiv_pos_site_id
 _symmetry_equiv_pos_as_xyz
  1  'x, y, z'
loop_
 _atom_site_type_symbol
 _atom_site_label
 _atom_site_symmetry_multiplicity
 _atom_site_fract_x
 _atom_site_fract_y
 _atom_site_fract_z
 _atom_site_occupancy
  Au  Au0  1  0.15120298  0.88731901  0.81027502  1
  Hg  Hg1  1  0.85076200  0.76281001  0.53566602  1
  Hg  Hg2  1  0.15281500  0.23565800  0.45871101  1
  Hg  Hg3  1  0.40277100  0.30142600  0.89303201  1
  Hg  Hg4  1  0.59402100  0.70004201  0.11191502  1
  Hg  Hg5  1  0.84842701  0.11274500  0.19040100  1
