# generated using pymatgen
data_Nd2Co17C
_symmetry_space_group_name_H-M   'P 1'
_cell_length_a   6.35959148
_cell_length_b   6.41385269
_cell_length_c   6.41385269
_cell_angle_alpha   83.64431763
_cell_angle_beta   83.83536530
_cell_angle_gamma   83.83536530
_symmetry_Int_Tables_number   1
_chemical_formula_structural   Nd2Co17C
_chemical_formula_sum   'Nd2 Co17 C1'
_cell_volume   257.29611476
_cell_formula_units_Z   1
loop_
 _symmetry_equiv_pos_site_id
 _symmetry_equiv_pos_as_xyz
  1  'x, y, z'
loop_
 _atom_site_type_symbol
 _atom_site_label
 _atom_site_symmetry_multiplicity
 _atom_site_fract_x
 _atom_site_fract_y
 _atom_site_fract_z
 _atom_site_occupancy
  Nd  Nd0  1  0.35800902  0.34254300  0.34254301  1
  Nd  Nd1  1  0.64199104  0.65745700  0.65745702  1
  Co  Co2  1  0.09726401  0.09582000  0.09582000  1
  Co  Co3  1  0.90273606  0.90418000  0.90418003  1
  Co  Co4  1  0.50000000  0.00000000  0.00000003  1
  Co  Co5  1  0.00000003  0.50000000  0.99999999  1
  Co  Co6  1  0.00000000  0.00000000  0.50000000  1
  Co  Co7  1  0.14436404  0.65352900  0.65352899  1
  Co  Co8  1  0.65209701  0.14562400  0.65862104  1
  Co  Co9  1  0.65209704  0.65862100  0.14562402  1
  Co  Co10  1  0.85563602  0.34647100  0.34647104  1
  Co  Co11  1  0.34790305  0.85437600  0.34137900  1
  Co  Co12  1  0.34790302  0.34137900  0.85437601  1
  Co  Co13  1  0.00000002  0.28236000  0.71764000  1
  Co  Co14  1  0.71730400  0.00016800  0.28203904  1
  Co  Co15  1  0.28269604  0.71796100  0.99983200  1
  Co  Co16  1  0.28269606  0.99983200  0.71796099  1
  Co  Co17  1  0.71730402  0.28203900  0.00016803  1
  Co  Co18  1  0.00000004  0.71764000  0.28235998  1
  C  C19  1  0.00000003  0.50000000  0.49999999  1
