# generated using pymatgen
data_ZnPN
_symmetry_space_group_name_H-M   'P 1'
_cell_length_a   3.26766253
_cell_length_b   3.26766253
_cell_length_c   3.26766253
_cell_angle_alpha   81.49668121
_cell_angle_beta   64.78179932
_cell_angle_gamma   115.21820068
_symmetry_Int_Tables_number   1
_chemical_formula_structural   ZnPN
_chemical_formula_sum   'Zn1 P1 N1'
_cell_volume   26.14217897
_cell_formula_units_Z   1
loop_
 _symmetry_equiv_pos_site_id
 _symmetry_equiv_pos_as_xyz
  1  'x, y, z'
loop_
 _atom_site_type_symbol
 _atom_site_label
 _atom_site_symmetry_multiplicity
 _atom_site_fract_x
 _atom_site_fract_y
 _atom_site_fract_z
 _atom_site_occupancy
  N  N0  1  0.00000000  0.00000000  0.00000000  1
  P  P1  1  0.50000010  0.75000007  0.74999993  1
  Zn  Zn2  1  0.50000005  0.25000002  0.24999997  1
