# generated using pymatgen
data_Ba3P13Pd
_symmetry_space_group_name_H-M   'P 1'
_cell_length_a   3.85598993
_cell_length_b   8.87928581
_cell_length_c   9.87058640
_cell_angle_alpha   106.11285400
_cell_angle_beta   90.00000000
_cell_angle_gamma   102.54075623
_symmetry_Int_Tables_number   1
_chemical_formula_structural   Ba3P13Pd
_chemical_formula_sum   'Ba3 P13 Pd1'
_cell_volume   316.27636712
_cell_formula_units_Z   1
loop_
 _symmetry_equiv_pos_site_id
 _symmetry_equiv_pos_as_xyz
  1  'x, y, z'
loop_
 _atom_site_type_symbol
 _atom_site_label
 _atom_site_symmetry_multiplicity
 _atom_site_fract_x
 _atom_site_fract_y
 _atom_site_fract_z
 _atom_site_occupancy
  Ba  Ba0  1  0.30689502  0.61379000  0.70507199  1
  Ba  Ba1  1  0.69310502  0.38621000  0.29492800  1
  Ba  Ba2  1  0.50000001  0.00000000  -0.00000000  1
  P  P3  1  0.48623003  0.97245999  0.35985199  1
  P  P4  1  0.51377001  0.02754000  0.64014800  1
  P  P5  1  0.30386102  0.60772200  0.08715600  1
  P  P6  1  0.09006101  0.18012200  0.53566800  1
  P  P7  1  0.90993903  0.81987800  0.46433199  1
  P  P8  1  0.09273101  0.18546200  0.79705999  1
  P  P9  1  0.90726903  0.81453800  0.20293999  1
  Pd  Pd10  1  0.69613902  0.39227800  0.91284399  1
  P  P11  1  0.65294202  0.30588400  0.65319099  1
  P  P12  1  0.16104101  0.32208200  0.02371400  1
  P  P13  1  0.83895903  0.67791800  0.97628599  1
  P  P14  1  0.34705802  0.69411600  0.34680899  1
  P  P15  1  0.95563804  0.91127599  0.70349099  1
  P  P16  1  0.04436200  0.08872400  0.29650900  1
