# generated using pymatgen
data_AgAuO2
_symmetry_space_group_name_H-M   'P 1'
_cell_length_a   3.11843562
_cell_length_b   3.11843562
_cell_length_c   6.58407116
_cell_angle_alpha   76.30125427
_cell_angle_beta   76.30125427
_cell_angle_gamma   60.00000763
_symmetry_Int_Tables_number   1
_chemical_formula_structural   AgAuO2
_chemical_formula_sum   'Ag1 Au1 O2'
_cell_volume   53.33620567
_cell_formula_units_Z   1
loop_
 _symmetry_equiv_pos_site_id
 _symmetry_equiv_pos_as_xyz
  1  'x, y, z'
loop_
 _atom_site_type_symbol
 _atom_site_label
 _atom_site_symmetry_multiplicity
 _atom_site_fract_x
 _atom_site_fract_y
 _atom_site_fract_z
 _atom_site_occupancy
  Ag  Ag0  1  0.00000000  0.00000000  0.00000000  1
  Au  Au1  1  0.49999999  0.50000000  0.50000001  1
  O  O2  1  0.88697499  0.88697500  0.33907504  1
  O  O3  1  0.11302500  0.11302500  0.66092499  1
