# generated using pymatgen
data_Tb2C3
_symmetry_space_group_name_H-M   'P 1'
_cell_length_a   7.05209160
_cell_length_b   7.05209160
_cell_length_c   7.05209160
_cell_angle_alpha   109.47122192
_cell_angle_beta   109.47122192
_cell_angle_gamma   109.47122192
_symmetry_Int_Tables_number   1
_chemical_formula_structural   Tb2C3
_chemical_formula_sum   'Tb8 C12'
_cell_volume   269.98020480
_cell_formula_units_Z   4
loop_
 _symmetry_equiv_pos_site_id
 _symmetry_equiv_pos_as_xyz
  1  'x, y, z'
loop_
 _atom_site_type_symbol
 _atom_site_label
 _atom_site_symmetry_multiplicity
 _atom_site_fract_x
 _atom_site_fract_y
 _atom_site_fract_z
 _atom_site_occupancy
  Tb  Tb0  1  0.39921303  0.39921302  0.89921304  1
  Tb  Tb1  1  0.00000003  0.50000002  0.10078703  1
  Tb  Tb2  1  0.60078707  1.00000004  1.00000007  1
  Tb  Tb3  1  0.50000004  0.60078703  0.50000005  1
  Tb  Tb4  1  0.10078706  1.00000004  1.00000006  1
  Tb  Tb5  1  0.50000001  0.10078700  0.50000002  1
  Tb  Tb6  1  0.00000003  0.50000002  0.60078703  1
  Tb  Tb7  1  0.89921307  0.89921304  0.39921307  1
  C  C8  1  0.95739603  0.20739601  0.75000004  1
  C  C9  1  0.79260401  0.04260400  0.75000002  1
  C  C10  1  0.45739605  0.75000003  0.20739605  1
  C  C11  1  0.75000005  0.70739603  0.95739606  1
  C  C12  1  0.04260402  0.25000001  0.29260402  1
  C  C13  1  0.25000005  0.79260404  0.54260405  1
  C  C14  1  0.54260403  0.29260401  0.25000003  1
  C  C15  1  0.75000004  0.54260402  0.79260405  1
  C  C16  1  0.70739604  0.45739602  0.25000004  1
  C  C17  1  0.29260405  0.75000003  0.04260405  1
  C  C18  1  0.20739602  0.25000001  0.45739602  1
  C  C19  1  0.25000006  0.95739604  0.70739606  1
