# generated using pymatgen
data_HoGa3
_symmetry_space_group_name_H-M   'P 1'
_cell_length_a   5.63518476
_cell_length_b   7.11984205
_cell_length_c   7.46478224
_cell_angle_alpha   90.00000000
_cell_angle_beta   90.00000000
_cell_angle_gamma   90.00000000
_symmetry_Int_Tables_number   1
_chemical_formula_structural   HoGa3
_chemical_formula_sum   'Ho4 Ga12'
_cell_volume   299.49919711
_cell_formula_units_Z   4
loop_
 _symmetry_equiv_pos_site_id
 _symmetry_equiv_pos_as_xyz
  1  'x, y, z'
loop_
 _atom_site_type_symbol
 _atom_site_label
 _atom_site_symmetry_multiplicity
 _atom_site_fract_x
 _atom_site_fract_y
 _atom_site_fract_z
 _atom_site_occupancy
  Ho  Ho0  1  0.14642301  0.74999999  0.52838498  1
  Ho  Ho1  1  0.85357704  0.25000000  0.47161498  1
  Ho  Ho2  1  0.64642303  0.25000000  0.97161497  1
  Ho  Ho3  1  0.35357701  0.74999999  0.02838500  1
  Ga  Ga4  1  0.85475004  0.74999999  0.87916197  1
  Ga  Ga5  1  0.14525001  0.25000000  0.12083800  1
  Ga  Ga6  1  0.35475001  0.25000000  0.62083798  1
  Ga  Ga7  1  0.64525003  0.74999999  0.37916199  1
  Ga  Ga8  1  0.59021002  0.55152600  0.68034898  1
  Ga  Ga9  1  0.40979002  0.44847400  0.31965099  1
  Ga  Ga10  1  0.09021000  0.44847400  0.81965097  1
  Ga  Ga11  1  0.40979002  0.05152600  0.31965099  1
  Ga  Ga12  1  0.90979004  0.55152600  0.18034899  1
  Ga  Ga13  1  0.59021002  0.94847399  0.68034898  1
  Ga  Ga14  1  0.90979004  0.94847399  0.18034899  1
  Ga  Ga15  1  0.09021000  0.05152600  0.81965097  1
