# generated using pymatgen
data_Nb8CoGe7
_symmetry_space_group_name_H-M   'P 1'
_cell_length_a   6.32666397
_cell_length_b   7.52804279
_cell_length_c   8.12422085
_cell_angle_alpha   90.00000000
_cell_angle_beta   90.00000000
_cell_angle_gamma   90.00000000
_symmetry_Int_Tables_number   1
_chemical_formula_structural   Nb8CoGe7
_chemical_formula_sum   'Nb8 Co1 Ge7'
_cell_volume   386.93549256
_cell_formula_units_Z   1
loop_
 _symmetry_equiv_pos_site_id
 _symmetry_equiv_pos_as_xyz
  1  'x, y, z'
loop_
 _atom_site_type_symbol
 _atom_site_label
 _atom_site_symmetry_multiplicity
 _atom_site_fract_x
 _atom_site_fract_y
 _atom_site_fract_z
 _atom_site_occupancy
  Nb  Nb0  1  0.50000000  0.50000001  0.70378901  1
  Nb  Nb1  1  0.00000000  0.50000001  0.20378900  1
  Nb  Nb2  1  0.00000000  0.50000001  0.79621101  1
  Nb  Nb3  1  0.50000000  0.50000001  0.29621101  1
  Ge  Ge4  1  0.14219800  0.61105602  0.50000001  1
  Co  Co5  1  0.64219800  0.38894401  -0.00000000  1
  Ge  Ge6  1  0.85780200  0.38894401  0.50000001  1
  Ge  Ge7  1  0.35780200  0.61105602  -0.00000000  1
  Nb  Nb8  1  0.75000000  0.18679401  0.25000000  1
  Nb  Nb9  1  0.24682400  0.27686801  -0.00000000  1
  Nb  Nb10  1  0.75317600  0.72313202  -0.00000000  1
  Nb  Nb11  1  0.25000000  0.81320602  0.25000000  1
  Ge  Ge12  1  0.74682400  0.72313202  0.50000001  1
  Ge  Ge13  1  0.25317600  0.27686801  0.50000001  1
  Ge  Ge14  1  0.25000000  0.81320602  0.75000001  1
  Ge  Ge15  1  0.75000000  0.18679401  0.75000001  1
