# generated using pymatgen
data_Ba(BiBr)4
_symmetry_space_group_name_H-M   'P 1'
_cell_length_a   7.14751911
_cell_length_b   9.68669987
_cell_length_c   9.68669987
_cell_angle_alpha   120.00000000
_cell_angle_beta   90.00000000
_cell_angle_gamma   90.00000000
_symmetry_Int_Tables_number   1
_chemical_formula_structural   Ba(BiBr)4
_chemical_formula_sum   'Ba2 Bi8 Br8'
_cell_volume   580.81476018
_cell_formula_units_Z   2
loop_
 _symmetry_equiv_pos_site_id
 _symmetry_equiv_pos_as_xyz
  1  'x, y, z'
loop_
 _atom_site_type_symbol
 _atom_site_label
 _atom_site_symmetry_multiplicity
 _atom_site_fract_x
 _atom_site_fract_y
 _atom_site_fract_z
 _atom_site_occupancy
  Ba  Ba0  1  0.25000000  0.23990700  0.99999998  1
  Ba  Ba1  1  0.25000000  0.76009300  0.76009298  1
  Bi  Bi2  1  0.25000000  0.00000000  0.23990700  1
  Bi  Bi3  1  0.74999999  0.76009300  0.99999998  1
  Bi  Bi4  1  0.74999999  0.23990700  0.23990699  1
  Bi  Bi5  1  0.74999999  0.00000000  0.76009299  1
  Bi  Bi6  1  -0.00000000  0.33333334  0.66666665  1
  Bi  Bi7  1  0.99999998  0.66666667  0.33333332  1
  Bi  Bi8  1  0.49999999  0.66666667  0.33333332  1
  Bi  Bi9  1  0.49999999  0.33333334  0.66666665  1
  Br  Br10  1  0.25000000  0.60121500  -0.00000001  1
  Br  Br11  1  0.25000000  0.39878500  0.39878499  1
  Br  Br12  1  0.25000000  0.00000000  0.60121499  1
  Br  Br13  1  0.74999999  0.39878500  -0.00000001  1
  Br  Br14  1  0.74999999  0.60121500  0.60121498  1
  Br  Br15  1  0.74999999  0.00000000  0.39878500  1
  Br  Br16  1  0.00000000  0.00000000  0.00000000  1
  Br  Br17  1  0.49999999  0.00000000  -0.00000000  1
