# generated using pymatgen
data_Na3MoO4
_symmetry_space_group_name_H-M   'P 1'
_cell_length_a   5.51568604
_cell_length_b   5.87887478
_cell_length_c   6.67728996
_cell_angle_alpha   90.00000000
_cell_angle_beta   90.00000000
_cell_angle_gamma   109.56722260
_symmetry_Int_Tables_number   1
_chemical_formula_structural   Na3MoO4
_chemical_formula_sum   'Na6 Mo2 O8'
_cell_volume   204.01390141
_cell_formula_units_Z   2
loop_
 _symmetry_equiv_pos_site_id
 _symmetry_equiv_pos_as_xyz
  1  'x, y, z'
loop_
 _atom_site_type_symbol
 _atom_site_label
 _atom_site_symmetry_multiplicity
 _atom_site_fract_x
 _atom_site_fract_y
 _atom_site_fract_z
 _atom_site_occupancy
  Na  Na0  1  0.75000000  0.00000000  0.38543900  1
  Na  Na1  1  0.25000001  0.49999999  0.39429000  1
  Na  Na2  1  0.75000001  0.49999999  0.12524100  1
  Na  Na3  1  0.25000001  0.49999999  0.87475900  1
  Na  Na4  1  0.25000000  0.00000000  0.61456100  1
  Na  Na5  1  0.75000001  0.49999999  0.60571000  1
  Mo  Mo6  1  0.75000000  0.00000000  0.86938400  1
  Mo  Mo7  1  0.25000000  0.00000000  0.13061600  1
  O  O8  1  0.95717100  0.22805400  0.66791800  1
  O  O9  1  0.54282902  0.77194599  0.66791800  1
  O  O10  1  0.04282902  0.77194599  0.33208200  1
  O  O11  1  0.45717100  0.22805400  0.33208200  1
  O  O12  1  0.49988900  0.19565200  0.90350301  1
  O  O13  1  0.00011102  0.80434799  0.90350301  1
  O  O14  1  0.99988900  0.19565200  0.09649700  1
  O  O15  1  0.50011102  0.80434799  0.09649700  1
