# generated using pymatgen
data_Mo3OF5
_symmetry_space_group_name_H-M   'P 1'
_cell_length_a   5.88107395
_cell_length_b   5.88577461
_cell_length_c   7.59184313
_cell_angle_alpha   73.48838806
_cell_angle_beta   72.89562225
_cell_angle_gamma   71.03543091
_symmetry_Int_Tables_number   1
_chemical_formula_structural   Mo3OF5
_chemical_formula_sum   'Mo6 O2 F10'
_cell_volume   232.30306026
_cell_formula_units_Z   2
loop_
 _symmetry_equiv_pos_site_id
 _symmetry_equiv_pos_as_xyz
  1  'x, y, z'
loop_
 _atom_site_type_symbol
 _atom_site_label
 _atom_site_symmetry_multiplicity
 _atom_site_fract_x
 _atom_site_fract_y
 _atom_site_fract_z
 _atom_site_occupancy
  Mo  Mo0  1  0.33310101  0.35501999  0.16158200  1
  Mo  Mo1  1  0.67844002  0.68407497  0.33155700  1
  Mo  Mo2  1  0.32393601  0.33463199  0.66580299  1
  Mo  Mo3  1  0.64409902  0.67027397  0.84106099  1
  Mo  Mo4  1  0.99420103  0.99173796  0.48667999  1
  Mo  Mo5  1  0.01978900  0.97564696  0.01330704  1
  F  F6  1  0.90362003  0.88898796  0.28940699  1
  O  O7  1  0.30198401  0.70052797  0.00104502  1
  F  F8  1  0.36357101  0.98503796  0.33177902  1
  F  F9  1  0.01224700  0.63684997  0.67240302  1
  F  F10  1  0.09339100  0.08497600  0.71125099  1
  O  O11  1  0.44972901  0.45350598  0.36433200  1
  F  F12  1  0.76093202  0.76122697  0.03587800  1
  F  F13  1  0.23442201  0.23261499  0.96529399  1
  F  F14  1  0.56516302  0.56919398  0.62908999  1
  F  F15  1  0.63439902  0.03264900  0.66293696  1
  F  F16  1  0.96760003  0.36167599  0.33860997  1
  F  F17  1  0.71937302  0.28136599  0.99798397  1
