# generated using pymatgen
data_Na2WO7
_symmetry_space_group_name_H-M   'P 1'
_cell_length_a   3.11754608
_cell_length_b   5.08242226
_cell_length_c   7.38982010
_cell_angle_alpha   90.00000000
_cell_angle_beta   90.00000000
_cell_angle_gamma   107.86039734
_symmetry_Int_Tables_number   1
_chemical_formula_structural   Na2WO7
_chemical_formula_sum   'Na2 W1 O7'
_cell_volume   111.44644330
_cell_formula_units_Z   1
loop_
 _symmetry_equiv_pos_site_id
 _symmetry_equiv_pos_as_xyz
  1  'x, y, z'
loop_
 _atom_site_type_symbol
 _atom_site_label
 _atom_site_symmetry_multiplicity
 _atom_site_fract_x
 _atom_site_fract_y
 _atom_site_fract_z
 _atom_site_occupancy
  O  O0  1  0.06590599  0.13181200  0.74999999  1
  O  O1  1  0.93409392  0.86818797  0.25000000  1
  O  O2  1  0.36557494  0.73114998  0.55099299  1
  O  O3  1  0.63442496  0.26884999  0.44900699  1
  O  O4  1  0.36557494  0.73114998  0.94900699  1
  O  O5  1  0.63442496  0.26884999  0.05099300  1
  Na  Na6  1  0.74838295  0.49676598  0.74999999  1
  Na  Na7  1  0.25161696  0.50323398  0.25000000  1
  W  W8  1  0.00000000  0.00000000  0.49999999  1
  O  O9  1  0.00000000  0.00000000  0.00000000  1
