# generated using pymatgen
data_NaLi3(CoO2)4
_symmetry_space_group_name_H-M   'P 1'
_cell_length_a   6.08993053
_cell_length_b   6.08993053
_cell_length_c   6.09519958
_cell_angle_alpha   60.02859116
_cell_angle_beta   60.02859116
_cell_angle_gamma   59.99999619
_symmetry_Int_Tables_number   1
_chemical_formula_structural   NaLi3(CoO2)4
_chemical_formula_sum   'Na1 Li3 Co4 O8'
_cell_volume   159.91350628
_cell_formula_units_Z   1
loop_
 _symmetry_equiv_pos_site_id
 _symmetry_equiv_pos_as_xyz
  1  'x, y, z'
loop_
 _atom_site_type_symbol
 _atom_site_label
 _atom_site_symmetry_multiplicity
 _atom_site_fract_x
 _atom_site_fract_y
 _atom_site_fract_z
 _atom_site_occupancy
  Na  Na0  1  0.00000000  0.00000000  0.50000001  1
  Li  Li1  1  0.00000001  0.49999999  0.49999999  1
  Li  Li2  1  0.49999999  0.00000000  0.49999999  1
  Li  Li3  1  0.50000000  0.49999999  0.49999997  1
  Co  Co4  1  0.00000000  0.00000000  0.00000000  1
  Co  Co5  1  0.00000001  0.49999999  -0.00000002  1
  Co  Co6  1  0.50000000  0.49999999  -0.00000004  1
  Co  Co7  1  0.49999999  0.00000000  -0.00000002  1
  O  O8  1  0.26636500  0.26636499  0.20090498  1
  O  O9  1  0.24925500  0.75028498  0.25017497  1
  O  O10  1  0.75028499  0.75028498  0.25017495  1
  O  O11  1  0.75028499  0.24925499  0.25017497  1
  O  O12  1  0.24971500  0.75074498  0.74982497  1
  O  O13  1  0.24971500  0.24971499  0.74982499  1
  O  O14  1  0.75074499  0.24971499  0.74982497  1
  O  O15  1  0.73363499  0.73363498  0.79909496  1
