# generated using pymatgen
data_MgInF6
_symmetry_space_group_name_H-M   'P 1'
_cell_length_a   5.18396139
_cell_length_b   5.18396139
_cell_length_c   5.61752224
_cell_angle_alpha   62.52188492
_cell_angle_beta   62.52188492
_cell_angle_gamma   60.00000763
_symmetry_Int_Tables_number   1
_chemical_formula_structural   MgInF6
_chemical_formula_sum   'Mg1 In1 F6'
_cell_volume   110.63596620
_cell_formula_units_Z   1
loop_
 _symmetry_equiv_pos_site_id
 _symmetry_equiv_pos_as_xyz
  1  'x, y, z'
loop_
 _atom_site_type_symbol
 _atom_site_label
 _atom_site_symmetry_multiplicity
 _atom_site_fract_x
 _atom_site_fract_y
 _atom_site_fract_z
 _atom_site_occupancy
  Mg  Mg0  1  0.50000002  0.50000000  0.49999997  1
  In  In1  1  0.00000000  0.00000000  0.00000000  1
  F  F2  1  0.75000002  0.10798300  0.74999997  1
  F  F3  1  0.10798301  0.39201700  0.74999998  1
  F  F4  1  0.60798302  0.25000000  0.24999998  1
  F  F5  1  0.89201703  0.60798301  0.24999996  1
  F  F6  1  0.25000003  0.89201701  0.24999996  1
  F  F7  1  0.39201703  0.75000001  0.74999996  1
