# generated using pymatgen
data_Mn3PbO5
_symmetry_space_group_name_H-M   'P 1'
_cell_length_a   3.05341411
_cell_length_b   5.36785316
_cell_length_c   12.74636745
_cell_angle_alpha   90.00000000
_cell_angle_beta   90.00000000
_cell_angle_gamma   106.52398682
_symmetry_Int_Tables_number   1
_chemical_formula_structural   Mn3PbO5
_chemical_formula_sum   'Mn6 Pb2 O10'
_cell_volume   200.28841768
_cell_formula_units_Z   2
loop_
 _symmetry_equiv_pos_site_id
 _symmetry_equiv_pos_as_xyz
  1  'x, y, z'
loop_
 _atom_site_type_symbol
 _atom_site_label
 _atom_site_symmetry_multiplicity
 _atom_site_fract_x
 _atom_site_fract_y
 _atom_site_fract_z
 _atom_site_occupancy
  Pb  Pb0  1  0.52127299  0.04254500  0.74999997  1
  Pb  Pb1  1  0.47872807  0.95745503  0.24999999  1
  Mn  Mn2  1  0.00000000  0.00000000  0.49999998  1
  Mn  Mn3  1  0.26797804  0.53595702  0.89058497  1
  Mn  Mn4  1  0.73202202  0.46404201  0.10941500  1
  Mn  Mn5  1  0.00000000  0.00000000  0.00000000  1
  Mn  Mn6  1  0.73202202  0.46404201  0.39058599  1
  Mn  Mn7  1  0.26797804  0.53595702  0.60941398  1
  O  O8  1  0.90061604  0.80123002  0.63718298  1
  O  O9  1  0.09938501  0.19877001  0.36281699  1
  O  O10  1  0.09938501  0.19877001  0.13718300  1
  O  O11  1  0.90061604  0.80123002  0.86281697  1
  O  O12  1  0.65119601  0.30238901  0.94918497  1
  O  O13  1  0.34880505  0.69760902  0.05081500  1
  O  O14  1  0.34880505  0.69760902  0.44918498  1
  O  O15  1  0.65119601  0.30238901  0.55081498  1
  O  O16  1  0.18885403  0.37770801  0.74999997  1
  O  O17  1  0.81114603  0.62229102  0.24999999  1
