# generated using pymatgen
data_CsNaN
_symmetry_space_group_name_H-M   'P 1'
_cell_length_a   4.22606421
_cell_length_b   4.42334843
_cell_length_c   4.42419767
_cell_angle_alpha   119.99307251
_cell_angle_beta   90.00000000
_cell_angle_gamma   90.00000000
_symmetry_Int_Tables_number   1
_chemical_formula_structural   CsNaN
_chemical_formula_sum   'Cs1 Na1 N1'
_cell_volume   71.62798068
_cell_formula_units_Z   1
loop_
 _symmetry_equiv_pos_site_id
 _symmetry_equiv_pos_as_xyz
  1  'x, y, z'
loop_
 _atom_site_type_symbol
 _atom_site_label
 _atom_site_symmetry_multiplicity
 _atom_site_fract_x
 _atom_site_fract_y
 _atom_site_fract_z
 _atom_site_occupancy
  Cs  Cs0  1  0.00000000  0.99998593  0.00000196  1
  N  N1  1  0.49999998  0.66659595  0.33328997  1
  Na  Na2  1  0.49999998  0.33333331  0.66666664  1
