# generated using pymatgen
data_Lu4Ge5Au3
_symmetry_space_group_name_H-M   'P 1'
_cell_length_a   4.12520599
_cell_length_b   7.08432579
_cell_length_c   8.17085361
_cell_angle_alpha   90.00000000
_cell_angle_beta   90.00000000
_cell_angle_gamma   90.00000000
_symmetry_Int_Tables_number   1
_chemical_formula_structural   Lu4Ge5Au3
_chemical_formula_sum   'Lu4 Ge5 Au3'
_cell_volume   238.78750354
_cell_formula_units_Z   1
loop_
 _symmetry_equiv_pos_site_id
 _symmetry_equiv_pos_as_xyz
  1  'x, y, z'
loop_
 _atom_site_type_symbol
 _atom_site_label
 _atom_site_symmetry_multiplicity
 _atom_site_fract_x
 _atom_site_fract_y
 _atom_site_fract_z
 _atom_site_occupancy
  Lu  Lu0  1  0.25000000  0.04652700  0.31048201  1
  Lu  Lu1  1  0.25000000  0.54652702  0.18951801  1
  Lu  Lu2  1  0.75000000  0.95347303  0.68951803  1
  Lu  Lu3  1  0.75000000  0.45347301  0.81048204  1
  Au  Au4  1  0.25000000  0.63444902  0.56468403  1
  Au  Au5  1  0.25000000  0.13444900  0.93531604  1
  Au  Au6  1  0.75000000  0.36555101  0.43531602  1
  Ge  Ge7  1  0.75000000  0.86555103  0.06468400  1
  Ge  Ge8  1  0.25000000  0.25077501  0.61980003  1
  Ge  Ge9  1  0.25000000  0.75077502  0.88020004  1
  Ge  Ge10  1  0.75000000  0.74922502  0.38020002  1
  Ge  Ge11  1  0.75000000  0.24922501  0.11980001  1
