# generated using pymatgen
data_Nd5Lu(RuO6)2
_symmetry_space_group_name_H-M   'P 1'
_cell_length_a   5.55198383
_cell_length_b   5.98614979
_cell_length_c   8.02507114
_cell_angle_alpha   90.00000000
_cell_angle_beta   90.99417877
_cell_angle_gamma   90.00000000
_symmetry_Int_Tables_number   1
_chemical_formula_structural   Nd5Lu(RuO6)2
_chemical_formula_sum   'Nd5 Lu1 Ru2 O12'
_cell_volume   266.67314424
_cell_formula_units_Z   1
loop_
 _symmetry_equiv_pos_site_id
 _symmetry_equiv_pos_as_xyz
  1  'x, y, z'
loop_
 _atom_site_type_symbol
 _atom_site_label
 _atom_site_symmetry_multiplicity
 _atom_site_fract_x
 _atom_site_fract_y
 _atom_site_fract_z
 _atom_site_occupancy
  Lu  Lu0  1  0.50000001  0.50000002  0.49999998  1
  Nd  Nd1  1  0.00000000  0.00000000  0.00000000  1
  Nd  Nd2  1  0.47830501  0.92582503  0.25382698  1
  Nd  Nd3  1  0.02169500  0.42582502  0.24617300  1
  Nd  Nd4  1  0.97830503  0.57417502  0.75382696  1
  Nd  Nd5  1  0.52169502  0.07417500  0.74617297  1
  Ru  Ru6  1  0.50000001  0.50000002  -0.00000002  1
  Ru  Ru7  1  0.00000000  1.00000004  0.50000000  1
  O  O8  1  0.83802202  0.28182701  0.56879496  1
  O  O9  1  0.66197802  0.78182703  0.93120497  1
  O  O10  1  0.16197800  0.71817303  0.43120499  1
  O  O11  1  0.33802201  0.21817301  0.06879499  1
  O  O12  1  0.12253900  0.94937003  0.73255899  1
  O  O13  1  0.37746101  0.44937002  0.76744098  1
  O  O14  1  0.87746103  0.05063000  0.26744097  1
  O  O15  1  0.62253902  0.55063002  0.23255898  1
  O  O16  1  0.20359301  0.67387202  0.05310499  1
  O  O17  1  0.29640701  0.17387201  0.44689499  1
  O  O18  1  0.79640702  0.32612801  0.94689496  1
  O  O19  1  0.70359302  0.82612803  0.55310497  1
