# generated using pymatgen
data_GePbO3
_symmetry_space_group_name_H-M   'P 1'
_cell_length_a   6.01210976
_cell_length_b   7.22685957
_cell_length_c   7.22685957
_cell_angle_alpha   89.75799561
_cell_angle_beta   78.20532990
_cell_angle_gamma   78.20532990
_symmetry_Int_Tables_number   1
_chemical_formula_structural   GePbO3
_chemical_formula_sum   'Ge4 Pb4 O12'
_cell_volume   300.64700020
_cell_formula_units_Z   4
loop_
 _symmetry_equiv_pos_site_id
 _symmetry_equiv_pos_as_xyz
  1  'x, y, z'
loop_
 _atom_site_type_symbol
 _atom_site_label
 _atom_site_symmetry_multiplicity
 _atom_site_fract_x
 _atom_site_fract_y
 _atom_site_fract_z
 _atom_site_occupancy
  Pb  Pb0  1  0.75000003  0.33445400  0.66554600  1
  Pb  Pb1  1  0.25000003  0.66554599  0.33445398  1
  Pb  Pb2  1  0.25000001  0.09671400  0.90328600  1
  Pb  Pb3  1  0.75000005  0.90328599  0.09671398  1
  Ge  Ge4  1  0.75683503  0.37311500  0.20006800  1
  Ge  Ge5  1  0.24316503  0.62688499  0.79993198  1
  Ge  Ge6  1  0.74316505  0.79993199  0.62688498  1
  Ge  Ge7  1  0.25683501  0.20006800  0.37311500  1
  O  O8  1  0.66069305  0.99831699  0.76993497  1
  O  O9  1  0.84309405  0.85577899  0.40784698  1
  O  O10  1  0.16069303  0.76993499  0.99831697  1
  O  O11  1  0.15690601  0.14422100  0.59215300  1
  O  O12  1  0.33930701  0.00168300  0.23006501  1
  O  O13  1  0.83930703  0.23006500  0.00168301  1
  O  O14  1  0.65690604  0.59215299  0.14422099  1
  O  O15  1  0.99107805  0.64006299  0.68242799  1
  O  O16  1  0.00892201  0.35993700  0.31757199  1
  O  O17  1  0.34309402  0.40784700  0.85577899  1
  O  O18  1  0.49107804  0.68242799  0.64006298  1
  O  O19  1  0.50892203  0.31757200  0.35993700  1
