# generated using pymatgen
data_Ba6LaYS10
_symmetry_space_group_name_H-M   'P 1'
_cell_length_a   6.32487392
_cell_length_b   9.57406044
_cell_length_c   9.57406044
_cell_angle_alpha   120.00000000
_cell_angle_beta   90.00000000
_cell_angle_gamma   90.00000000
_symmetry_Int_Tables_number   1
_chemical_formula_structural   Ba6LaYS10
_chemical_formula_sum   'Ba6 La1 Y1 S10'
_cell_volume   502.08221091
_cell_formula_units_Z   1
loop_
 _symmetry_equiv_pos_site_id
 _symmetry_equiv_pos_as_xyz
  1  'x, y, z'
loop_
 _atom_site_type_symbol
 _atom_site_label
 _atom_site_symmetry_multiplicity
 _atom_site_fract_x
 _atom_site_fract_y
 _atom_site_fract_z
 _atom_site_occupancy
  Ba  Ba0  1  0.25000000  0.38099099  0.38099103  1
  Ba  Ba1  1  0.75000001  0.61900899  0.61900905  1
  Ba  Ba2  1  0.25000000  0.00000000  0.61900902  1
  Ba  Ba3  1  0.75000001  0.00000000  0.38099101  1
  Ba  Ba4  1  0.25000000  0.61900899  0.00000003  1
  Ba  Ba5  1  0.75000001  0.38099099  0.00000002  1
  La  La6  1  0.50000001  0.00000000  -0.00000000  1
  Y  Y7  1  0.00000000  0.00000000  0.00000000  1
  S  S8  1  0.25000000  0.74419798  0.74419806  1
  S  S9  1  0.75000001  0.25580199  0.25580202  1
  S  S10  1  0.25000000  0.99999998  0.25580206  1
  S  S11  1  0.75000001  0.00000000  0.74419802  1
  S  S12  1  0.25000000  0.25580199  0.00000001  1
  S  S13  1  0.75000001  0.74419798  0.00000004  1
  S  S14  1  0.50000001  0.66666665  0.33333338  1
  S  S15  1  0.50000001  0.33333333  0.66666670  1
  S  S16  1  0.00000000  0.33333333  0.66666670  1
  S  S17  1  -0.00000000  0.66666665  0.33333338  1
