# generated using pymatgen
data_BiF3
_symmetry_space_group_name_H-M   'P 1'
_cell_length_a   4.61511087
_cell_length_b   4.61511087
_cell_length_c   6.37443018
_cell_angle_alpha   90.00000000
_cell_angle_beta   90.00000000
_cell_angle_gamma   107.99141693
_symmetry_Int_Tables_number   1
_chemical_formula_structural   BiF3
_chemical_formula_sum   'Bi2 F6'
_cell_volume   129.13177051
_cell_formula_units_Z   2
loop_
 _symmetry_equiv_pos_site_id
 _symmetry_equiv_pos_as_xyz
  1  'x, y, z'
loop_
 _atom_site_type_symbol
 _atom_site_label
 _atom_site_symmetry_multiplicity
 _atom_site_fract_x
 _atom_site_fract_y
 _atom_site_fract_z
 _atom_site_occupancy
  F  F0  1  0.65119003  0.04254400  0.24999999  1
  F  F1  1  0.04254405  0.65119004  0.24999999  1
  F  F2  1  0.50000006  0.50000003  -0.00000000  1
  F  F3  1  0.50000006  0.50000003  0.49999999  1
  F  F4  1  0.95745607  0.34881002  0.74999998  1
  F  F5  1  0.34881008  0.95745606  0.74999998  1
  Bi  Bi6  1  0.81086209  0.81086205  0.74999998  1
  Bi  Bi7  1  0.18913802  0.18913801  0.24999999  1
