# generated using pymatgen
data_Ga7Co6
_symmetry_space_group_name_H-M   'P 1'
_cell_length_a   5.04409695
_cell_length_b   5.04409742
_cell_length_c   8.05150509
_cell_angle_alpha   90.00000000
_cell_angle_beta   90.00000000
_cell_angle_gamma   119.99644470
_symmetry_Int_Tables_number   1
_chemical_formula_structural   Ga7Co6
_chemical_formula_sum   'Ga7 Co6'
_cell_volume   177.41492514
_cell_formula_units_Z   1
loop_
 _symmetry_equiv_pos_site_id
 _symmetry_equiv_pos_as_xyz
  1  'x, y, z'
loop_
 _atom_site_type_symbol
 _atom_site_label
 _atom_site_symmetry_multiplicity
 _atom_site_fract_x
 _atom_site_fract_y
 _atom_site_fract_z
 _atom_site_occupancy
  Ga  Ga0  1  0.00005900  0.00005900  0.99999999  1
  Co  Co1  1  0.49998398  0.49998400  0.74967699  1
  Co  Co2  1  0.50003095  0.99999800  0.74969099  1
  Co  Co3  1  0.99999799  0.50003100  0.74969099  1
  Co  Co4  1  0.49998398  0.49998400  0.25032300  1
  Co  Co5  1  0.50003095  0.99999800  0.25030900  1
  Co  Co6  1  0.99999799  0.50003100  0.25030900  1
  Ga  Ga7  1  0.66674199  0.33340867  0.99999999  1
  Ga  Ga8  1  0.33343797  0.66677133  0.99999999  1
  Ga  Ga9  1  0.66658099  0.33324767  0.49999999  1
  Ga  Ga10  1  0.33333330  0.66661533  0.49999999  1
  Ga  Ga11  1  0.00002700  0.00002700  0.65597699  1
  Ga  Ga12  1  0.00002700  0.00002700  0.34402300  1
