# generated using pymatgen
data_Tb5Ga11
_symmetry_space_group_name_H-M   'P 1'
_cell_length_a   7.71844387
_cell_length_b   8.75605869
_cell_length_c   7.71844387
_cell_angle_alpha   63.84833527
_cell_angle_beta   90.00000000
_cell_angle_gamma   116.15166473
_symmetry_Int_Tables_number   1
_chemical_formula_structural   Tb5Ga11
_chemical_formula_sum   'Tb5 Ga11'
_cell_volume   407.90560203
_cell_formula_units_Z   1
loop_
 _symmetry_equiv_pos_site_id
 _symmetry_equiv_pos_as_xyz
  1  'x, y, z'
loop_
 _atom_site_type_symbol
 _atom_site_label
 _atom_site_symmetry_multiplicity
 _atom_site_fract_x
 _atom_site_fract_y
 _atom_site_fract_z
 _atom_site_occupancy
  Tb  Tb0  1  0.00000000  0.00000000  0.00000000  1
  Tb  Tb1  1  0.50000001  0.00000000  0.50000001  1
  Ga  Ga2  1  0.79639202  0.27640302  0.01998899  1
  Ga  Ga3  1  0.20360803  0.72359705  0.98001099  1
  Ga  Ga4  1  0.48001002  0.27640102  0.70360900  1
  Ga  Ga5  1  0.29639202  0.27640202  0.20360799  1
  Ga  Ga6  1  0.01999003  0.72359805  0.48000998  1
  Ga  Ga7  1  0.51999004  0.72359905  0.29639098  1
  Ga  Ga8  1  0.70360804  0.72359805  0.79639199  1
  Ga  Ga9  1  0.98001003  0.27640202  0.51999000  1
  Tb  Tb10  1  0.25000002  0.50000004  0.74999999  1
  Tb  Tb11  1  0.75000003  0.50000004  0.24999999  1
  Tb  Tb12  1  0.13723904  0.99999907  0.63723997  1
  Ga  Ga13  1  0.86276101  0.00000100  0.36276001  1
  Ga  Ga14  1  0.63723901  0.00000000  0.86276101  1
  Ga  Ga15  1  0.36276101  0.00000000  0.13723900  1
