# generated using pymatgen
data_Ga4S3
_symmetry_space_group_name_H-M   'P 1'
_cell_length_a   7.27816153
_cell_length_b   7.27816153
_cell_length_c   7.36590624
_cell_angle_alpha   60.39327621
_cell_angle_beta   60.39327621
_cell_angle_gamma   60.00000381
_symmetry_Int_Tables_number   1
_chemical_formula_structural   Ga4S3
_chemical_formula_sum   'Ga8 S6'
_cell_volume   277.53053362
_cell_formula_units_Z   2
loop_
 _symmetry_equiv_pos_site_id
 _symmetry_equiv_pos_as_xyz
  1  'x, y, z'
loop_
 _atom_site_type_symbol
 _atom_site_label
 _atom_site_symmetry_multiplicity
 _atom_site_fract_x
 _atom_site_fract_y
 _atom_site_fract_z
 _atom_site_occupancy
  Ga  Ga0  1  0.37525602  0.37525601  0.87423202  1
  Ga  Ga1  1  0.99158604  0.52287201  0.49395602  1
  Ga  Ga2  1  0.99158605  0.99158602  0.49395601  1
  Ga  Ga3  1  0.52287204  0.99158602  0.49395601  1
  Ga  Ga4  1  0.99589105  0.99589102  0.01232700  1
  Ga  Ga5  1  0.62760903  0.62760901  0.11717300  1
  Ga  Ga6  1  0.75026802  0.21818800  0.28127601  1
  S  S7  1  0.75026804  0.75026801  0.28127601  1
  Ga  Ga8  1  0.21818802  0.75026801  0.28127601  1
  S  S9  1  0.76183004  0.76183001  0.71451002  1
  S  S10  1  0.25152303  0.76951701  0.72743702  1
  S  S11  1  0.25152301  0.25152300  0.72743702  1
  S  S12  1  0.76951702  0.25152300  0.72743702  1
  S  S13  1  0.24208101  0.24208100  0.27375701  1
