# generated using pymatgen
data_Tl2InHgTe5
_symmetry_space_group_name_H-M   'P 1'
_cell_length_a   6.32121897
_cell_length_b   6.65109777
_cell_length_c   6.65109825
_cell_angle_alpha   60.00000000
_cell_angle_beta   90.00000000
_cell_angle_gamma   90.00000000
_symmetry_Int_Tables_number   1
_chemical_formula_structural   Tl2InHgTe5
_chemical_formula_sum   'Tl2 In1 Hg1 Te5'
_cell_volume   242.16878445
_cell_formula_units_Z   1
loop_
 _symmetry_equiv_pos_site_id
 _symmetry_equiv_pos_as_xyz
  1  'x, y, z'
loop_
 _atom_site_type_symbol
 _atom_site_label
 _atom_site_symmetry_multiplicity
 _atom_site_fract_x
 _atom_site_fract_y
 _atom_site_fract_z
 _atom_site_occupancy
  Te  Te0  1  0.66050300  0.00000000  -0.00000000  1
  Hg  Hg1  1  0.78702400  0.66666669  0.66666665  1
  Te  Te2  1  0.78702400  0.33333335  0.33333332  1
  Tl  Tl3  1  0.26929600  0.00000000  0.39054799  1
  Tl  Tl4  1  0.26929600  0.39054802  0.60945198  1
  Te  Te5  1  0.26929600  0.60945203  -0.00000001  1
  In  In6  1  0.99975301  0.00000000  0.73722799  1
  Te  Te7  1  0.99975301  0.73722803  0.26277199  1
  Te  Te8  1  0.99975301  0.26277201  0.99999998  1
