# generated using pymatgen
data_EuB6
_symmetry_space_group_name_H-M   'P 1'
_cell_length_a   5.85174990
_cell_length_b   5.85174990
_cell_length_c   5.85174990
_cell_angle_alpha   60.00000000
_cell_angle_beta   60.00000000
_cell_angle_gamma   60.00000000
_symmetry_Int_Tables_number   1
_chemical_formula_structural   EuB6
_chemical_formula_sum   'Eu2 B12'
_cell_volume   141.69100172
_cell_formula_units_Z   2
loop_
 _symmetry_equiv_pos_site_id
 _symmetry_equiv_pos_as_xyz
  1  'x, y, z'
loop_
 _atom_site_type_symbol
 _atom_site_label
 _atom_site_symmetry_multiplicity
 _atom_site_fract_x
 _atom_site_fract_y
 _atom_site_fract_z
 _atom_site_occupancy
  Eu  Eu0  1  0.50000000  0.50000000  0.50000000  1
  Eu  Eu1  1  0.00000000  0.00000000  0.00000000  1
  B  B2  1  0.10008600  0.39991400  0.10008600  1
  B  B3  1  0.60008600  0.89991399  0.60008600  1
  B  B4  1  0.39991400  0.39991400  0.10008600  1
  B  B5  1  0.89991399  0.89991399  0.60008600  1
  B  B6  1  0.10008600  0.39991400  0.39991400  1
  B  B7  1  0.60008600  0.89991399  0.89991399  1
  B  B8  1  0.10008600  0.10008600  0.39991400  1
  B  B9  1  0.60008600  0.60008600  0.89991399  1
  B  B10  1  0.39991400  0.10008600  0.10008600  1
  B  B11  1  0.89991399  0.60008600  0.60008600  1
  B  B12  1  0.39991400  0.10008600  0.39991400  1
  B  B13  1  0.89991399  0.60008600  0.89991399  1
