# generated using pymatgen
data_Ga
_symmetry_space_group_name_H-M   'P 1'
_cell_length_a   4.76579905
_cell_length_b   4.76579905
_cell_length_c   11.10074139
_cell_angle_alpha   77.60433960
_cell_angle_beta   77.60433960
_cell_angle_gamma   59.99998474
_symmetry_Int_Tables_number   1
_chemical_formula_structural   Ga
_chemical_formula_sum   Ga11
_cell_volume   211.53643454
_cell_formula_units_Z   11
loop_
 _symmetry_equiv_pos_site_id
 _symmetry_equiv_pos_as_xyz
  1  'x, y, z'
loop_
 _atom_site_type_symbol
 _atom_site_label
 _atom_site_symmetry_multiplicity
 _atom_site_fract_x
 _atom_site_fract_y
 _atom_site_fract_z
 _atom_site_occupancy
  Ga  Ga0  1  0.91101297  0.91101300  0.26696101  1
  Ga  Ga1  1  0.08898700  0.08898700  0.73303901  1
  Ga  Ga2  1  0.82074597  0.82074600  0.53776201  1
  Ga  Ga3  1  0.36159299  0.36159300  0.91522101  1
  Ga  Ga4  1  0.63840698  0.63840700  0.08477900  1
  Ga  Ga5  1  0.27283499  0.27283500  0.18149500  1
  Ga  Ga6  1  0.72716498  0.72716500  0.81850501  1
  Ga  Ga7  1  0.17925399  0.17925400  0.46223801  1
  Ga  Ga8  1  0.54733998  0.54734000  0.35798001  1
  Ga  Ga9  1  0.45265999  0.45266000  0.64202001  1
  Ga  Ga10  1  0.00000000  0.00000000  0.00000000  1
