# generated using pymatgen
data_HoIn3Ga2
_symmetry_space_group_name_H-M   'P 1'
_cell_length_a   4.68005800
_cell_length_b   4.68005896
_cell_length_c   7.26008320
_cell_angle_alpha   90.00000000
_cell_angle_beta   90.00000000
_cell_angle_gamma   119.99999237
_symmetry_Int_Tables_number   1
_chemical_formula_structural   HoIn3Ga2
_chemical_formula_sum   'Ho1 In3 Ga2'
_cell_volume   137.71296292
_cell_formula_units_Z   1
loop_
 _symmetry_equiv_pos_site_id
 _symmetry_equiv_pos_as_xyz
  1  'x, y, z'
loop_
 _atom_site_type_symbol
 _atom_site_label
 _atom_site_symmetry_multiplicity
 _atom_site_fract_x
 _atom_site_fract_y
 _atom_site_fract_z
 _atom_site_occupancy
  Ho  Ho0  1  0.00000000  0.00000000  0.49999999  1
  In  In1  1  0.00000000  0.00000000  0.00000000  1
  Ga  Ga2  1  0.66666665  0.33333331  0.24999999  1
  Ga  Ga3  1  0.33333330  0.66666662  0.74999998  1
  In  In4  1  0.66666665  0.33333331  0.74999998  1
  In  In5  1  0.33333330  0.66666662  0.24999999  1
