# generated using pymatgen
data_Ho3Ga2
_symmetry_space_group_name_H-M   'P 1'
_cell_length_a   3.90947390
_cell_length_b   7.93269777
_cell_length_c   7.93269777
_cell_angle_alpha   90.00000000
_cell_angle_beta   90.00000000
_cell_angle_gamma   90.00000000
_symmetry_Int_Tables_number   1
_chemical_formula_structural   Ho3Ga2
_chemical_formula_sum   'Ho6 Ga4'
_cell_volume   246.01417686
_cell_formula_units_Z   2
loop_
 _symmetry_equiv_pos_site_id
 _symmetry_equiv_pos_as_xyz
  1  'x, y, z'
loop_
 _atom_site_type_symbol
 _atom_site_label
 _atom_site_symmetry_multiplicity
 _atom_site_fract_x
 _atom_site_fract_y
 _atom_site_fract_z
 _atom_site_occupancy
  Ho  Ho0  1  0.50000001  0.67316202  0.17316200  1
  Ho  Ho1  1  0.50000001  0.32683801  0.82683802  1
  Ho  Ho2  1  0.50000001  0.17316200  0.32683801  1
  Ho  Ho3  1  0.50000001  0.82683802  0.67316202  1
  Ho  Ho4  1  0.00000000  0.50000001  0.50000001  1
  Ho  Ho5  1  0.00000000  0.00000000  0.00000000  1
  Ga  Ga6  1  0.00000000  0.12624600  0.62624602  1
  Ga  Ga7  1  0.00000000  0.87375403  0.37375401  1
  Ga  Ga8  1  0.00000000  0.62624602  0.87375403  1
  Ga  Ga9  1  0.00000000  0.37375401  0.12624600  1
