# generated using pymatgen
data_Ba3Pt4F13
_symmetry_space_group_name_H-M   'P 1'
_cell_length_a   5.73240614
_cell_length_b   5.73758221
_cell_length_c   8.23335648
_cell_angle_alpha   90.03765106
_cell_angle_beta   89.98191071
_cell_angle_gamma   90.02071381
_symmetry_Int_Tables_number   1
_chemical_formula_structural   Ba3Pt4F13
_chemical_formula_sum   'Ba3 Pt4 F13'
_cell_volume   270.79625193
_cell_formula_units_Z   1
loop_
 _symmetry_equiv_pos_site_id
 _symmetry_equiv_pos_as_xyz
  1  'x, y, z'
loop_
 _atom_site_type_symbol
 _atom_site_label
 _atom_site_symmetry_multiplicity
 _atom_site_fract_x
 _atom_site_fract_y
 _atom_site_fract_z
 _atom_site_occupancy
  Ba  Ba0  1  0.49351301  0.50407502  0.75697598  1
  F  F1  1  0.99214601  0.99684304  0.75691295  1
  Ba  Ba2  1  0.50648701  0.49592502  0.24302397  1
  Ba  Ba3  1  0.00785400  0.00315700  0.24308700  1
  Pt  Pt4  1  0.00000001  0.50000002  0.50000000  1
  Pt  Pt5  1  0.50000000  0.00000000  0.49999998  1
  Pt  Pt6  1  0.00000001  0.50000002  -0.00000001  1
  Pt  Pt7  1  0.50000000  0.00000000  -0.00000002  1
  F  F8  1  0.72015501  0.26754801  0.98636597  1
  F  F9  1  0.19343300  0.19316701  0.51033999  1
  F  F10  1  0.30697401  0.69354403  0.48767198  1
  F  F11  1  0.76771701  0.77984003  0.00982196  1
  F  F12  1  0.27984501  0.73245203  0.01363398  1
  F  F13  1  0.80656701  0.80683303  0.48965996  1
  F  F14  1  0.69302601  0.30645601  0.51232797  1
  F  F15  1  0.23228300  0.22016001  0.99017799  1
  F  F16  1  0.00416201  0.52705702  0.75072700  1
  F  F17  1  0.49850301  0.97580204  0.75647097  1
  F  F18  1  0.99583801  0.47294302  0.24927295  1
  F  F19  1  0.50149700  0.02419800  0.24352898  1
