# generated using pymatgen
data_KBaCu4F14
_symmetry_space_group_name_H-M   'P 1'
_cell_length_a   5.42953587
_cell_length_b   5.46773911
_cell_length_c   7.68299294
_cell_angle_alpha   90.00000000
_cell_angle_beta   90.00000000
_cell_angle_gamma   90.00000000
_symmetry_Int_Tables_number   1
_chemical_formula_structural   KBaCu4F14
_chemical_formula_sum   'K1 Ba1 Cu4 F14'
_cell_volume   228.08720535
_cell_formula_units_Z   1
loop_
 _symmetry_equiv_pos_site_id
 _symmetry_equiv_pos_as_xyz
  1  'x, y, z'
loop_
 _atom_site_type_symbol
 _atom_site_label
 _atom_site_symmetry_multiplicity
 _atom_site_fract_x
 _atom_site_fract_y
 _atom_site_fract_z
 _atom_site_occupancy
  Ba  Ba0  1  0.01154900  0.24589100  0.50000000  1
  K  K1  1  0.51154901  0.75410899  0.50000000  1
  F  F2  1  0.99422702  0.24950000  -0.00000000  1
  F  F3  1  0.49422701  0.75049999  -0.00000000  1
  Cu  Cu4  1  0.50133201  0.25040900  0.75430901  1
  Cu  Cu5  1  0.00133200  0.74959099  0.24569100  1
  Cu  Cu6  1  0.50133201  0.25040900  0.24569100  1
  Cu  Cu7  1  0.00133200  0.74959099  0.75430901  1
  F  F8  1  0.22941701  0.48071899  0.78524601  1
  F  F9  1  0.72941702  0.51928099  0.21475400  1
  F  F10  1  0.76884402  0.02002600  0.26741400  1
  F  F11  1  0.26884401  0.97997398  0.73258601  1
  F  F12  1  0.76884402  0.02002600  0.73258601  1
  F  F13  1  0.26884401  0.97997398  0.26741400  1
  F  F14  1  0.22941701  0.48071899  0.21475400  1
  F  F15  1  0.72941702  0.51928099  0.78524601  1
  F  F16  1  0.49795001  0.18799100  -0.00000000  1
  F  F17  1  0.99795002  0.81200898  -0.00000000  1
  F  F18  1  0.49709001  0.29177899  0.50000000  1
  F  F19  1  0.99709002  0.70822099  0.50000000  1
