# generated using pymatgen
data_CuSe13
_symmetry_space_group_name_H-M   'P 1'
_cell_length_a   7.47500563
_cell_length_b   7.47500563
_cell_length_c   7.47500563
_cell_angle_alpha   60.00000000
_cell_angle_beta   60.00000000
_cell_angle_gamma   60.00000000
_symmetry_Int_Tables_number   1
_chemical_formula_structural   CuSe13
_chemical_formula_sum   'Cu1 Se13'
_cell_volume   295.33816615
_cell_formula_units_Z   1
loop_
 _symmetry_equiv_pos_site_id
 _symmetry_equiv_pos_as_xyz
  1  'x, y, z'
loop_
 _atom_site_type_symbol
 _atom_site_label
 _atom_site_symmetry_multiplicity
 _atom_site_fract_x
 _atom_site_fract_y
 _atom_site_fract_z
 _atom_site_occupancy
  Se  Se0  1  0.49999998  0.49999998  0.49999998  1
  Se  Se1  1  0.87891697  0.87891597  0.36325099  1
  Se  Se2  1  0.87891697  0.87891597  0.87891597  1
  Se  Se3  1  0.87891697  0.36325099  0.87891597  1
  Se  Se4  1  0.36325199  0.87891597  0.87891597  1
  Cu  Cu5  1  0.24999999  0.24999999  0.24999999  1
  Se  Se6  1  0.11657300  0.11657300  0.65028098  1
  Se  Se7  1  0.11657300  0.11657300  0.11657300  1
  Se  Se8  1  0.11657300  0.65028098  0.11657300  1
  Se  Se9  1  0.65028098  0.11657300  0.11657300  1
  Se  Se10  1  0.63365598  0.63365498  0.09903400  1
  Se  Se11  1  0.63365598  0.63365498  0.63365498  1
  Se  Se12  1  0.63365598  0.09903400  0.63365498  1
  Se  Se13  1  0.09903500  0.63365498  0.63365498  1
