# generated using pymatgen
data_Lu2Se3
_symmetry_space_group_name_H-M   'P 1'
_cell_length_a   3.88697004
_cell_length_b   10.51227474
_cell_length_c   10.69305038
_cell_angle_alpha   90.00000000
_cell_angle_beta   90.00000000
_cell_angle_gamma   90.00000000
_symmetry_Int_Tables_number   1
_chemical_formula_structural   Lu2Se3
_chemical_formula_sum   'Lu8 Se12'
_cell_volume   436.92763047
_cell_formula_units_Z   4
loop_
 _symmetry_equiv_pos_site_id
 _symmetry_equiv_pos_as_xyz
  1  'x, y, z'
loop_
 _atom_site_type_symbol
 _atom_site_label
 _atom_site_symmetry_multiplicity
 _atom_site_fract_x
 _atom_site_fract_y
 _atom_site_fract_z
 _atom_site_occupancy
  Lu  Lu0  1  0.25000000  0.18746600  0.49229498  1
  Lu  Lu1  1  0.25000000  0.31253401  0.99229496  1
  Lu  Lu2  1  0.74999999  0.81253402  0.50770498  1
  Lu  Lu3  1  0.74999999  0.68746602  0.00770500  1
  Lu  Lu4  1  0.74999999  0.49508301  0.69186298  1
  Lu  Lu5  1  0.74999999  0.00491700  0.19186299  1
  Lu  Lu6  1  0.25000000  0.50491701  0.30813699  1
  Lu  Lu7  1  0.25000000  0.99508302  0.80813697  1
  Se  Se8  1  0.25000000  0.62658002  0.54515998  1
  Se  Se9  1  0.25000000  0.87342002  0.04516000  1
  Se  Se10  1  0.74999999  0.37342001  0.45483998  1
  Se  Se11  1  0.74999999  0.12658000  0.95483997  1
  Se  Se12  1  0.74999999  0.05418000  0.61952298  1
  Se  Se13  1  0.74999999  0.44582001  0.11952300  1
  Se  Se14  1  0.25000000  0.94582002  0.38047699  1
  Se  Se15  1  0.25000000  0.55418001  0.88047697  1
  Se  Se16  1  0.25000000  0.30335801  0.72907097  1
  Se  Se17  1  0.25000000  0.19664200  0.22907099  1
  Se  Se18  1  0.74999999  0.69664202  0.27092899  1
  Se  Se19  1  0.74999999  0.80335802  0.77092897  1
