# generated using pymatgen
data_GaCo8Mo3
_symmetry_space_group_name_H-M   'P 1'
_cell_length_a   4.69587517
_cell_length_b   4.69587517
_cell_length_c   7.65718889
_cell_angle_alpha   90.00000000
_cell_angle_beta   90.00000000
_cell_angle_gamma   117.15986633
_symmetry_Int_Tables_number   1
_chemical_formula_structural   GaCo8Mo3
_chemical_formula_sum   'Ga1 Co8 Mo3'
_cell_volume   150.23245856
_cell_formula_units_Z   1
loop_
 _symmetry_equiv_pos_site_id
 _symmetry_equiv_pos_as_xyz
  1  'x, y, z'
loop_
 _atom_site_type_symbol
 _atom_site_label
 _atom_site_symmetry_multiplicity
 _atom_site_fract_x
 _atom_site_fract_y
 _atom_site_fract_z
 _atom_site_occupancy
  Co  Co0  1  0.17179504  0.82820505  -0.00000000  1
  Co  Co1  1  0.65245606  0.82627205  -0.00000000  1
  Co  Co2  1  0.17372802  0.34754402  -0.00000000  1
  Co  Co3  1  0.84917604  0.15082401  0.50000001  1
  Co  Co4  1  0.35501102  0.16654801  0.50000001  1
  Co  Co5  1  0.83345206  0.64498904  0.50000001  1
  Co  Co6  1  0.98939104  0.01060900  0.76209501  1
  Co  Co7  1  0.98939104  0.01060900  0.23790500  1
  Mo  Mo8  1  0.33013504  0.66986504  0.31099900  1
  Mo  Mo9  1  0.66267904  0.33732102  0.18183600  1
  Mo  Mo10  1  0.66267904  0.33732102  0.81816401  1
  Ga  Ga11  1  0.33013504  0.66986504  0.68900101  1
