# generated using pymatgen
data_La2Ta2Cl2O7
_symmetry_space_group_name_H-M   'P 1'
_cell_length_a   3.96474600
_cell_length_b   6.97424412
_cell_length_c   8.06276989
_cell_angle_alpha   112.91600037
_cell_angle_beta   104.23310852
_cell_angle_gamma   90.00000000
_symmetry_Int_Tables_number   1
_chemical_formula_structural   La2Ta2Cl2O7
_chemical_formula_sum   'La2 Ta2 Cl2 O7'
_cell_volume   197.89781356
_cell_formula_units_Z   1
loop_
 _symmetry_equiv_pos_site_id
 _symmetry_equiv_pos_as_xyz
  1  'x, y, z'
loop_
 _atom_site_type_symbol
 _atom_site_label
 _atom_site_symmetry_multiplicity
 _atom_site_fract_x
 _atom_site_fract_y
 _atom_site_fract_z
 _atom_site_occupancy
  La  La0  1  0.30827405  0.83507602  0.61654806  1
  La  La1  1  0.69172602  0.16492400  0.38345204  1
  Ta  Ta2  1  0.96566603  0.20156200  0.93133207  1
  Ta  Ta3  1  0.03433405  0.79843801  0.06866803  1
  Cl  Cl4  1  0.67861904  0.56589901  0.35723805  1
  Cl  Cl5  1  0.32138103  0.43410101  0.64276205  1
  O  O6  1  0.45544502  0.16514600  0.91089006  1
  O  O7  1  0.54455506  0.83485402  0.08911004  1
  O  O8  1  0.91974206  0.84760702  0.83948409  1
  O  O9  1  0.00000003  0.50000001  0.00000001  1
  O  O10  1  0.82640402  0.07017100  0.65280805  1
  O  O11  1  0.08025801  0.15239300  0.16051601  1
  O  O12  1  0.17359606  0.92982902  0.34719204  1
