# generated using pymatgen
data_Ba(GaPd3)2
_symmetry_space_group_name_H-M   'P 1'
_cell_length_a   5.21280241
_cell_length_b   5.21280241
_cell_length_c   5.21280241
_cell_angle_alpha   60.00000000
_cell_angle_beta   60.00000000
_cell_angle_gamma   60.00000000
_symmetry_Int_Tables_number   1
_chemical_formula_structural   Ba(GaPd3)2
_chemical_formula_sum   'Ba1 Ga2 Pd6'
_cell_volume   100.16103242
_cell_formula_units_Z   1
loop_
 _symmetry_equiv_pos_site_id
 _symmetry_equiv_pos_as_xyz
  1  'x, y, z'
loop_
 _atom_site_type_symbol
 _atom_site_label
 _atom_site_symmetry_multiplicity
 _atom_site_fract_x
 _atom_site_fract_y
 _atom_site_fract_z
 _atom_site_occupancy
  Ga  Ga0  1  0.25000000  0.25000000  0.25000000  1
  Ga  Ga1  1  0.75000001  0.75000001  0.75000001  1
  Pd  Pd2  1  0.77618401  0.77618401  0.22381600  1
  Pd  Pd3  1  0.22381600  0.77618401  0.77618401  1
  Pd  Pd4  1  0.22381600  0.77618401  0.22381600  1
  Pd  Pd5  1  0.22381600  0.22381600  0.77618401  1
  Pd  Pd6  1  0.77618401  0.22381600  0.22381600  1
  Pd  Pd7  1  0.77618401  0.22381600  0.77618401  1
  Ba  Ba8  1  0.00000000  0.00000000  0.00000000  1
