# generated using pymatgen
data_LuMnGe
_symmetry_space_group_name_H-M   'P 1'
_cell_length_a   3.79599404
_cell_length_b   3.79599404
_cell_length_c   6.88517904
_cell_angle_alpha   90.00000000
_cell_angle_beta   90.00000000
_cell_angle_gamma   90.00000000
_symmetry_Int_Tables_number   1
_chemical_formula_structural   LuMnGe
_chemical_formula_sum   'Lu2 Mn2 Ge2'
_cell_volume   99.21247473
_cell_formula_units_Z   2
loop_
 _symmetry_equiv_pos_site_id
 _symmetry_equiv_pos_as_xyz
  1  'x, y, z'
loop_
 _atom_site_type_symbol
 _atom_site_label
 _atom_site_symmetry_multiplicity
 _atom_site_fract_x
 _atom_site_fract_y
 _atom_site_fract_z
 _atom_site_occupancy
  Ge  Ge0  1  0.00000000  0.49999999  0.22894900  1
  Ge  Ge1  1  0.49999999  0.00000000  0.77105100  1
  Lu  Lu2  1  0.00000000  0.49999999  0.64330800  1
  Lu  Lu3  1  0.49999999  0.00000000  0.35669200  1
  Mn  Mn4  1  0.00000000  0.00000000  0.00000000  1
  Mn  Mn5  1  0.49999999  0.49999999  0.00000000  1
