# generated using pymatgen
data_LuNi4B
_symmetry_space_group_name_H-M   'P 1'
_cell_length_a   4.95187616
_cell_length_b   4.95187569
_cell_length_c   6.94921780
_cell_angle_alpha   90.00000000
_cell_angle_beta   90.00000000
_cell_angle_gamma   120.00000000
_symmetry_Int_Tables_number   1
_chemical_formula_structural   LuNi4B
_chemical_formula_sum   'Lu2 Ni8 B2'
_cell_volume   147.57271374
_cell_formula_units_Z   2
loop_
 _symmetry_equiv_pos_site_id
 _symmetry_equiv_pos_as_xyz
  1  'x, y, z'
loop_
 _atom_site_type_symbol
 _atom_site_label
 _atom_site_symmetry_multiplicity
 _atom_site_fract_x
 _atom_site_fract_y
 _atom_site_fract_z
 _atom_site_occupancy
  Lu  Lu0  1  0.00000000  0.00000000  0.50000001  1
  Lu  Lu1  1  0.00000000  0.00000000  0.00000000  1
  Ni  Ni2  1  -0.00000002  0.49999998  0.79171202  1
  Ni  Ni3  1  0.49999996  0.49999998  0.20828801  1
  Ni  Ni4  1  0.49999998  0.00000000  0.20828801  1
  Ni  Ni5  1  -0.00000002  0.49999998  0.20828801  1
  Ni  Ni6  1  0.66666663  0.33333332  0.50000001  1
  Ni  Ni7  1  0.33333329  0.66666664  0.50000001  1
  Ni  Ni8  1  0.49999996  0.49999998  0.79171202  1
  Ni  Ni9  1  0.49999998  0.00000000  0.79171202  1
  B  B10  1  0.66666663  0.33333332  -0.00000000  1
  B  B11  1  0.33333329  0.66666664  1.00000003  1
