# generated using pymatgen
data_BaPb2IF5
_symmetry_space_group_name_H-M   'P 1'
_cell_length_a   6.04260206
_cell_length_b   6.04260206
_cell_length_c   9.87400246
_cell_angle_alpha   90.00000000
_cell_angle_beta   90.00000000
_cell_angle_gamma   90.00000000
_symmetry_Int_Tables_number   1
_chemical_formula_structural   BaPb2IF5
_chemical_formula_sum   'Ba2 Pb4 I2 F10'
_cell_volume   360.52984352
_cell_formula_units_Z   2
loop_
 _symmetry_equiv_pos_site_id
 _symmetry_equiv_pos_as_xyz
  1  'x, y, z'
loop_
 _atom_site_type_symbol
 _atom_site_label
 _atom_site_symmetry_multiplicity
 _atom_site_fract_x
 _atom_site_fract_y
 _atom_site_fract_z
 _atom_site_occupancy
  Ba  Ba0  1  0.49999999  0.49999999  -0.00000000  1
  Ba  Ba1  1  0.00000000  0.00000000  0.00000000  1
  Pb  Pb2  1  0.00000000  0.49999999  0.32154399  1
  Pb  Pb3  1  0.49999999  0.00000000  0.67845597  1
  Pb  Pb4  1  0.49999999  0.00000000  0.27602199  1
  Pb  Pb5  1  0.00000000  0.49999999  0.72397797  1
  I  I6  1  0.49999999  0.49999999  0.49999998  1
  I  I7  1  0.00000000  0.00000000  0.49999998  1
  F  F8  1  0.00000000  0.49999999  0.95959196  1
  F  F9  1  0.26549800  0.23450200  0.81187296  1
  F  F10  1  0.23450200  0.26549800  0.18812699  1
  F  F11  1  0.49999999  0.00000000  0.04040800  1
  F  F12  1  0.73450199  0.76549799  0.81187296  1
  F  F13  1  0.23450200  0.73450199  0.18812699  1
  F  F14  1  0.26549800  0.76549799  0.81187296  1
  F  F15  1  0.73450199  0.23450200  0.81187296  1
  F  F16  1  0.76549799  0.26549800  0.18812699  1
  F  F17  1  0.76549799  0.73450199  0.18812699  1
