# generated using pymatgen
data_Ba(AgS2)2
_symmetry_space_group_name_H-M   'P 1'
_cell_length_a   3.68375587
_cell_length_b   6.27876186
_cell_length_c   7.89862776
_cell_angle_alpha   105.51412964
_cell_angle_beta   89.99999237
_cell_angle_gamma   90.00000000
_symmetry_Int_Tables_number   1
_chemical_formula_structural   Ba(AgS2)2
_chemical_formula_sum   'Ba1 Ag2 S4'
_cell_volume   176.03430128
_cell_formula_units_Z   1
loop_
 _symmetry_equiv_pos_site_id
 _symmetry_equiv_pos_as_xyz
  1  'x, y, z'
loop_
 _atom_site_type_symbol
 _atom_site_label
 _atom_site_symmetry_multiplicity
 _atom_site_fract_x
 _atom_site_fract_y
 _atom_site_fract_z
 _atom_site_occupancy
  Ba  Ba0  1  0.49999992  0.65878900  0.50429397  1
  Ag  Ag1  1  0.49999994  0.50108700  0.99576698  1
  Ag  Ag2  1  -0.00000000  0.00223400  0.00369400  1
  S  S3  1  -0.00000004  0.41307800  0.17281199  1
  S  S4  1  0.49999990  0.87724400  0.18557196  1
  S  S5  1  -0.00000005  0.59406100  0.82240899  1
  S  S6  1  0.49999997  0.12046700  0.81633198  1
