# generated using pymatgen
data_Ho2InCo2
_symmetry_space_group_name_H-M   'P 1'
_cell_length_a   4.24597406
_cell_length_b   5.32208300
_cell_length_c   5.32208300
_cell_angle_alpha   60.66477966
_cell_angle_beta   66.49047089
_cell_angle_gamma   66.49047089
_symmetry_Int_Tables_number   1
_chemical_formula_structural   Ho2InCo2
_chemical_formula_sum   'Ho2 In1 Co2'
_cell_volume   92.97447606
_cell_formula_units_Z   1
loop_
 _symmetry_equiv_pos_site_id
 _symmetry_equiv_pos_as_xyz
  1  'x, y, z'
loop_
 _atom_site_type_symbol
 _atom_site_label
 _atom_site_symmetry_multiplicity
 _atom_site_fract_x
 _atom_site_fract_y
 _atom_site_fract_z
 _atom_site_occupancy
  Ho  Ho0  1  0.20221198  0.29778800  0.29778800  1
  Ho  Ho1  1  0.79778797  0.70221199  0.70221197  1
  In  In2  1  0.00000000  0.00000000  0.00000000  1
  Co  Co3  1  0.49999999  0.26925400  0.73074597  1
  Co  Co4  1  0.49999996  0.73074599  0.26925400  1
