# generated using pymatgen
data_BMo2N2O
_symmetry_space_group_name_H-M   'P 1'
_cell_length_a   3.46601605
_cell_length_b   3.46601605
_cell_length_c   5.81490898
_cell_angle_alpha   107.33922577
_cell_angle_beta   107.33922577
_cell_angle_gamma   90.00000000
_symmetry_Int_Tables_number   1
_chemical_formula_structural   BMo2N2O
_chemical_formula_sum   'B1 Mo2 N2 O1'
_cell_volume   63.34823867
_cell_formula_units_Z   1
loop_
 _symmetry_equiv_pos_site_id
 _symmetry_equiv_pos_as_xyz
  1  'x, y, z'
loop_
 _atom_site_type_symbol
 _atom_site_label
 _atom_site_symmetry_multiplicity
 _atom_site_fract_x
 _atom_site_fract_y
 _atom_site_fract_z
 _atom_site_occupancy
  O  O0  1  0.00000000  0.00000000  0.00000000  1
  Mo  Mo1  1  0.75000001  0.25000000  0.50000004  1
  Mo  Mo2  1  0.25000003  0.75000000  0.50000004  1
  N  N3  1  0.35901801  0.35901800  0.71803603  1
  N  N4  1  0.64098203  0.64098200  0.28196405  1
  B  B5  1  0.50000002  0.50000000  1.00000004  1
