# generated using pymatgen
data_LiCoO2
_symmetry_space_group_name_H-M   'P 1'
_cell_length_a   4.99223518
_cell_length_b   5.30205202
_cell_length_c   7.52896929
_cell_angle_alpha   104.63758087
_cell_angle_beta   102.99192810
_cell_angle_gamma   104.49852753
_symmetry_Int_Tables_number   1
_chemical_formula_structural   LiCoO2
_chemical_formula_sum   'Li5 Co5 O10'
_cell_volume   177.62940541
_cell_formula_units_Z   5
loop_
 _symmetry_equiv_pos_site_id
 _symmetry_equiv_pos_as_xyz
  1  'x, y, z'
loop_
 _atom_site_type_symbol
 _atom_site_label
 _atom_site_symmetry_multiplicity
 _atom_site_fract_x
 _atom_site_fract_y
 _atom_site_fract_z
 _atom_site_occupancy
  Li  Li0  1  0.20646296  0.89610895  0.39732099  1
  Li  Li1  1  0.39577997  0.28669698  0.78947400  1
  Li  Li2  1  0.49999996  0.49999997  0.50000000  1
  Li  Li3  1  0.60421995  0.71330296  0.21052599  1
  Li  Li4  1  0.79353697  0.10389099  0.60267900  1
  Co  Co5  1  0.10259497  0.67263196  0.69204799  1
  Co  Co6  1  0.89740496  0.32736798  0.30795200  1
  Co  Co7  1  -0.00000002  0.49999997  -0.00000001  1
  Co  Co8  1  0.69564394  0.89061195  0.89972400  1
  Co  Co9  1  0.30435599  0.10938799  0.10027600  1
  O  O10  1  0.05817400  0.01991500  0.83592000  1
  O  O11  1  0.34436196  0.66893196  0.92912000  1
  O  O12  1  0.13154998  0.33691798  0.54878700  1
  O  O13  1  0.21013097  0.51907697  0.24684500  1
  O  O14  1  0.44235495  0.87885295  0.66447099  1
  O  O15  1  0.55764498  0.12114699  0.33552900  1
  O  O16  1  0.78986895  0.48092297  0.75315500  1
  O  O17  1  0.86844994  0.66308196  0.45121300  1
  O  O18  1  0.65563796  0.33106798  0.07088000  1
  O  O19  1  0.94182593  0.98008494  0.16407999  1
