# generated using pymatgen
data_Nd2CdGe2
_symmetry_space_group_name_H-M   'P 1'
_cell_length_a   5.71745205
_cell_length_b   5.84593725
_cell_length_c   8.22868729
_cell_angle_alpha   102.74801636
_cell_angle_beta   90.00000000
_cell_angle_gamma   119.27558136
_symmetry_Int_Tables_number   1
_chemical_formula_structural   Nd2CdGe2
_chemical_formula_sum   'Nd4 Cd2 Ge4'
_cell_volume   232.10308738
_cell_formula_units_Z   2
loop_
 _symmetry_equiv_pos_site_id
 _symmetry_equiv_pos_as_xyz
  1  'x, y, z'
loop_
 _atom_site_type_symbol
 _atom_site_label
 _atom_site_symmetry_multiplicity
 _atom_site_fract_x
 _atom_site_fract_y
 _atom_site_fract_z
 _atom_site_occupancy
  Nd  Nd0  1  0.49815000  0.70210598  0.35091397  1
  Nd  Nd1  1  0.79604400  0.29789399  0.14908599  1
  Nd  Nd2  1  0.50185000  0.29789399  0.64908598  1
  Nd  Nd3  1  0.20395600  0.70210598  0.85091396  1
  Cd  Cd4  1  0.15168500  0.00000000  0.25000000  1
  Cd  Cd5  1  0.84831499  0.00000000  0.74999999  1
  Ge  Ge6  1  0.72400800  0.72680898  0.99630196  1
  Ge  Ge7  1  0.99719899  0.27319099  0.50369798  1
  Ge  Ge8  1  0.27599200  0.27319099  0.00369799  1
  Ge  Ge9  1  0.00280101  0.72680898  0.49630197  1
