# generated using pymatgen
data_Ga7Os
_symmetry_space_group_name_H-M   'P 1'
_cell_length_a   5.01332283
_cell_length_b   7.31110811
_cell_length_c   7.31110811
_cell_angle_alpha   83.24923706
_cell_angle_beta   69.94898987
_cell_angle_gamma   69.94899750
_symmetry_Int_Tables_number   1
_chemical_formula_structural   Ga7Os
_chemical_formula_sum   'Ga14 Os2'
_cell_volume   236.47317888
_cell_formula_units_Z   2
loop_
 _symmetry_equiv_pos_site_id
 _symmetry_equiv_pos_as_xyz
  1  'x, y, z'
loop_
 _atom_site_type_symbol
 _atom_site_label
 _atom_site_symmetry_multiplicity
 _atom_site_fract_x
 _atom_site_fract_y
 _atom_site_fract_z
 _atom_site_occupancy
  Ga  Ga0  1  0.16865803  0.49999999  0.16268301  1
  Ga  Ga1  1  0.83134204  0.49999999  0.83731704  1
  Os  Os2  1  0.33134105  0.83731698  0.50000002  1
  Os  Os3  1  0.66865902  0.16268300  0.50000003  1
  Ga  Ga4  1  0.25000001  0.00000000  0.00000000  1
  Ga  Ga5  1  0.75000002  0.00000000  1.00000004  1
  Ga  Ga6  1  0.72456706  0.84781798  0.69742203  1
  Ga  Ga7  1  0.26980701  0.15218200  0.30257801  1
  Ga  Ga8  1  0.77543303  0.30257799  0.15218202  1
  Ga  Ga9  1  0.23019304  0.69742198  0.84781803  1
  Ga  Ga10  1  0.57238505  0.69742198  0.15218202  1
  Ga  Ga11  1  0.42198902  0.30257799  0.84781803  1
  Ga  Ga12  1  0.07801101  0.15218200  0.69742202  1
  Ga  Ga13  1  0.92761506  0.84781798  0.30257803  1
  Ga  Ga14  1  0.75000004  0.49999999  0.50000003  1
  Ga  Ga15  1  0.25000003  0.49999999  0.50000002  1
