# generated using pymatgen
data_Th(GePd)2
_symmetry_space_group_name_H-M   'P 1'
_cell_length_a   4.15492392
_cell_length_b   4.15492392
_cell_length_c   6.09064102
_cell_angle_alpha   109.94335175
_cell_angle_beta   109.94335175
_cell_angle_gamma   90.00000000
_symmetry_Int_Tables_number   1
_chemical_formula_structural   Th(GePd)2
_chemical_formula_sum   'Th1 Ge2 Pd2'
_cell_volume   92.10341066
_cell_formula_units_Z   1
loop_
 _symmetry_equiv_pos_site_id
 _symmetry_equiv_pos_as_xyz
  1  'x, y, z'
loop_
 _atom_site_type_symbol
 _atom_site_label
 _atom_site_symmetry_multiplicity
 _atom_site_fract_x
 _atom_site_fract_y
 _atom_site_fract_z
 _atom_site_occupancy
  Th  Th0  1  0.00000000  0.00000000  0.00000000  1
  Ge  Ge1  1  0.61565204  0.61565202  0.23130403  1
  Ge  Ge2  1  0.38434802  0.38434801  0.76869600  1
  Pd  Pd3  1  0.75000003  0.25000001  0.50000002  1
  Pd  Pd4  1  0.25000003  0.75000003  0.50000002  1
