# generated using pymatgen
data_AgTe
_symmetry_space_group_name_H-M   'P 1'
_cell_length_a   6.54122591
_cell_length_b   6.54122591
_cell_length_c   7.87941551
_cell_angle_alpha   114.52455902
_cell_angle_beta   114.52455902
_cell_angle_gamma   90.00000000
_symmetry_Int_Tables_number   1
_chemical_formula_structural   AgTe
_chemical_formula_sum   'Ag4 Te4'
_cell_volume   272.94140755
_cell_formula_units_Z   4
loop_
 _symmetry_equiv_pos_site_id
 _symmetry_equiv_pos_as_xyz
  1  'x, y, z'
loop_
 _atom_site_type_symbol
 _atom_site_label
 _atom_site_symmetry_multiplicity
 _atom_site_fract_x
 _atom_site_fract_y
 _atom_site_fract_z
 _atom_site_occupancy
  Te  Te0  1  0.25000007  0.75000004  0.50000009  1
  Te  Te1  1  0.50000006  0.50000003  1.00000010  1
  Te  Te2  1  0.75000005  0.25000001  0.50000008  1
  Te  Te3  1  0.00000000  0.00000000  0.00000000  1
  Ag  Ag4  1  0.87500007  0.38260902  0.25000009  1
  Ag  Ag5  1  0.13260901  0.12500001  0.75000004  1
  Ag  Ag6  1  0.61739107  0.62500004  0.75000011  1
  Ag  Ag7  1  0.37500008  0.86739105  0.25000010  1
