# generated using pymatgen
data_MgGa19
_symmetry_space_group_name_H-M   'P 1'
_cell_length_a   6.06908226
_cell_length_b   6.06908226
_cell_length_c   12.51443291
_cell_angle_alpha   75.96684265
_cell_angle_beta   75.96684265
_cell_angle_gamma   59.99999619
_symmetry_Int_Tables_number   1
_chemical_formula_structural   MgGa19
_chemical_formula_sum   'Mg1 Ga19'
_cell_volume   383.23012535
_cell_formula_units_Z   1
loop_
 _symmetry_equiv_pos_site_id
 _symmetry_equiv_pos_as_xyz
  1  'x, y, z'
loop_
 _atom_site_type_symbol
 _atom_site_label
 _atom_site_symmetry_multiplicity
 _atom_site_fract_x
 _atom_site_fract_y
 _atom_site_fract_z
 _atom_site_occupancy
  Mg  Mg0  1  0.86915597  0.86915601  0.39253203  1
  Ga  Ga1  1  0.13084400  0.13084400  0.60746799  1
  Ga  Ga2  1  0.60015598  0.60015600  0.19953202  1
  Ga  Ga3  1  0.39984399  0.39984400  0.80046800  1
  Ga  Ga4  1  0.00000000  0.00000000  0.00000000  1
  Ga  Ga5  1  0.49999998  0.50000000  0.00000002  1
  Ga  Ga6  1  0.50000000  0.00000000  0.00000001  1
  Ga  Ga7  1  -0.00000001  0.50000000  0.00000001  1
  Ga  Ga8  1  0.87168799  0.36358800  0.40113602  1
  Ga  Ga9  1  0.36358799  0.36358800  0.40113600  1
  Ga  Ga10  1  0.36358798  0.87168801  0.40113602  1
  Ga  Ga11  1  0.12831198  0.63641200  0.59886400  1
  Ga  Ga12  1  0.63641198  0.63641200  0.59886401  1
  Ga  Ga13  1  0.63641199  0.12831200  0.59886400  1
  Ga  Ga14  1  0.57215799  0.11703500  0.19377201  1
  Ga  Ga15  1  0.11703500  0.11703500  0.19377200  1
  Ga  Ga16  1  0.11703498  0.57215800  0.19377201  1
  Ga  Ga17  1  0.42784198  0.88296501  0.80622801  1
  Ga  Ga18  1  0.88296497  0.88296501  0.80622802  1
  Ga  Ga19  1  0.88296498  0.42784200  0.80622801  1
