# generated using pymatgen
data_In11GaPt2
_symmetry_space_group_name_H-M   'P 1'
_cell_length_a   6.54930401
_cell_length_b   7.23126984
_cell_length_c   8.54227734
_cell_angle_alpha   96.23143005
_cell_angle_beta   112.54112244
_cell_angle_gamma   90.00000000
_symmetry_Int_Tables_number   1
_chemical_formula_structural   In11GaPt2
_chemical_formula_sum   'In11 Ga1 Pt2'
_cell_volume   371.06451672
_cell_formula_units_Z   1
loop_
 _symmetry_equiv_pos_site_id
 _symmetry_equiv_pos_as_xyz
  1  'x, y, z'
loop_
 _atom_site_type_symbol
 _atom_site_label
 _atom_site_symmetry_multiplicity
 _atom_site_fract_x
 _atom_site_fract_y
 _atom_site_fract_z
 _atom_site_occupancy
  In  In0  1  0.78834998  0.08154200  0.81825300  1
  In  In1  1  0.97009599  0.41845800  0.18174699  1
  In  In2  1  0.21165001  0.91845799  0.18174705  1
  In  In3  1  0.02990401  0.58154200  0.81825306  1
  In  In4  1  0.21129700  0.18105400  0.55743202  1
  In  In5  1  0.65386399  0.31894600  0.44256801  1
  In  In6  1  0.78870300  0.81894599  0.44256803  1
  In  In7  1  0.34613600  0.68105400  0.55743204  1
  In  In8  1  0.42724099  0.25000000  -0.00000001  1
  In  In9  1  0.57275900  0.74999999  0.00000001  1
  Pt  Pt10  1  0.60912599  0.42676100  0.78132603  1
  In  In11  1  0.82779898  0.07323900  0.21867398  1
  Pt  Pt12  1  0.39087400  0.57323900  0.21867402  1
  Ga  Ga13  1  0.17220101  0.92676099  0.78132607  1
