# generated using pymatgen
data_BaH2
_symmetry_space_group_name_H-M   'P 1'
_cell_length_a   3.94514489
_cell_length_b   5.72302294
_cell_length_c   7.57366085
_cell_angle_alpha   90.00000000
_cell_angle_beta   90.00000000
_cell_angle_gamma   90.00000000
_symmetry_Int_Tables_number   1
_chemical_formula_structural   BaH2
_chemical_formula_sum   'Ba4 H8'
_cell_volume   170.99928639
_cell_formula_units_Z   4
loop_
 _symmetry_equiv_pos_site_id
 _symmetry_equiv_pos_as_xyz
  1  'x, y, z'
loop_
 _atom_site_type_symbol
 _atom_site_label
 _atom_site_symmetry_multiplicity
 _atom_site_fract_x
 _atom_site_fract_y
 _atom_site_fract_z
 _atom_site_occupancy
  Ba  Ba0  1  0.75000002  0.18085100  0.35052301  1
  Ba  Ba1  1  0.75000002  0.31914900  0.85052302  1
  Ba  Ba2  1  0.25000001  0.68085101  0.14947700  1
  Ba  Ba3  1  0.25000001  0.81914901  0.64947701  1
  H  H4  1  0.25000001  0.10251200  0.02237700  1
  H  H5  1  0.25000001  0.39748800  0.52237701  1
  H  H6  1  0.75000002  0.60251201  0.47762301  1
  H  H7  1  0.75000002  0.89748801  0.97762302  1
  H  H8  1  0.25000001  0.23985600  0.11191000  1
  H  H9  1  0.25000001  0.26014400  0.61191001  1
  H  H10  1  0.75000002  0.73985601  0.38809001  1
  H  H11  1  0.75000002  0.76014401  0.88809002  1
