# generated using pymatgen
data_VAgO3F
_symmetry_space_group_name_H-M   'P 1'
_cell_length_a   4.07900190
_cell_length_b   6.64613962
_cell_length_c   6.67634010
_cell_angle_alpha   106.20807648
_cell_angle_beta   107.78715515
_cell_angle_gamma   90.00000000
_symmetry_Int_Tables_number   1
_chemical_formula_structural   VAgO3F
_chemical_formula_sum   'V2 Ag2 O6 F2'
_cell_volume   164.77018809
_cell_formula_units_Z   2
loop_
 _symmetry_equiv_pos_site_id
 _symmetry_equiv_pos_as_xyz
  1  'x, y, z'
loop_
 _atom_site_type_symbol
 _atom_site_label
 _atom_site_symmetry_multiplicity
 _atom_site_fract_x
 _atom_site_fract_y
 _atom_site_fract_z
 _atom_site_occupancy
  Ag  Ag0  1  0.08738796  0.70417196  0.17477594  1
  Ag  Ag1  1  0.91261199  0.29582798  0.82522396  1
  V  V2  1  0.20389998  0.29802598  0.40779997  1
  V  V3  1  0.79609996  0.70197396  0.59219993  1
  O  O4  1  0.07181198  0.38333198  0.14362397  1
  O  O5  1  0.13802200  0.00978700  0.27604400  1
  F  F6  1  0.72374698  0.35794298  0.44749396  1
  O  O7  1  0.64709496  0.70419696  0.29418993  1
  O  O8  1  0.35290499  0.29580298  0.70580997  1
  F  F9  1  0.27625296  0.64205697  0.55250595  1
  O  O10  1  0.86197795  0.99021295  0.72395590  1
  O  O11  1  0.92818797  0.61666797  0.85637593  1
