# generated using pymatgen
data_CsNbCl3
_symmetry_space_group_name_H-M   'P 1'
_cell_length_a   6.06651306
_cell_length_b   7.12279177
_cell_length_c   7.12279224
_cell_angle_alpha   60.00000000
_cell_angle_beta   90.00000000
_cell_angle_gamma   90.00000000
_symmetry_Int_Tables_number   1
_chemical_formula_structural   CsNbCl3
_chemical_formula_sum   'Cs2 Nb2 Cl6'
_cell_volume   266.54484881
_cell_formula_units_Z   2
loop_
 _symmetry_equiv_pos_site_id
 _symmetry_equiv_pos_as_xyz
  1  'x, y, z'
loop_
 _atom_site_type_symbol
 _atom_site_label
 _atom_site_symmetry_multiplicity
 _atom_site_fract_x
 _atom_site_fract_y
 _atom_site_fract_z
 _atom_site_occupancy
  Cl  Cl0  1  0.25000000  0.33333335  0.33333332  1
  Cl  Cl1  1  0.74999999  0.66666669  0.66666665  1
  Nb  Nb2  1  0.49999999  0.00000000  0.00000000  1
  Nb  Nb3  1  0.00000000  0.00000000  0.00000000  1
  Cl  Cl4  1  0.74999999  0.16850601  0.66298799  1
  Cs  Cs5  1  0.74999999  0.66298703  0.16850699  1
  Cl  Cl6  1  0.74999999  0.16850601  0.16850700  1
  Cl  Cl7  1  0.25000000  0.83149403  0.33701198  1
  Cs  Cs8  1  0.25000000  0.33701301  0.83149299  1
  Cl  Cl9  1  0.25000000  0.83149403  0.83149298  1
