# generated using pymatgen
data_Ba2O3
_symmetry_space_group_name_H-M   'P 1'
_cell_length_a   6.73833513
_cell_length_b   7.12656212
_cell_length_c   9.79036331
_cell_angle_alpha   90.00000000
_cell_angle_beta   90.00000000
_cell_angle_gamma   90.00000000
_symmetry_Int_Tables_number   1
_chemical_formula_structural   Ba2O3
_chemical_formula_sum   'Ba8 O12'
_cell_volume   470.14464121
_cell_formula_units_Z   4
loop_
 _symmetry_equiv_pos_site_id
 _symmetry_equiv_pos_as_xyz
  1  'x, y, z'
loop_
 _atom_site_type_symbol
 _atom_site_label
 _atom_site_symmetry_multiplicity
 _atom_site_fract_x
 _atom_site_fract_y
 _atom_site_fract_z
 _atom_site_occupancy
  Ba  Ba0  1  0.47338099  0.58636899  0.24999999  1
  Ba  Ba1  1  0.02661900  0.08636900  0.24999999  1
  Ba  Ba2  1  0.52661899  0.41363099  0.74999998  1
  Ba  Ba3  1  0.97338098  0.91363098  0.74999998  1
  Ba  Ba4  1  0.00000000  0.49999999  -0.00000000  1
  Ba  Ba5  1  0.49999999  0.00000000  0.49999998  1
  Ba  Ba6  1  0.00000000  0.49999999  0.49999998  1
  Ba  Ba7  1  0.49999999  0.00000000  -0.00000000  1
  O  O8  1  0.89442698  0.47449199  0.24999999  1
  O  O9  1  0.60557299  0.97449198  0.24999999  1
  O  O10  1  0.10557300  0.52550799  0.74999998  1
  O  O11  1  0.39442699  0.02550800  0.74999998  1
  O  O12  1  0.68656399  0.69161499  0.94449897  1
  O  O13  1  0.81343598  0.19161500  0.55550098  1
  O  O14  1  0.31343599  0.30838499  0.44449899  1
  O  O15  1  0.18656400  0.80838499  0.05550100  1
  O  O16  1  0.31343599  0.30838499  0.05550100  1
  O  O17  1  0.18656400  0.80838499  0.44449899  1
  O  O18  1  0.68656399  0.69161499  0.55550098  1
  O  O19  1  0.81343598  0.19161500  0.94449897  1
