# generated using pymatgen
data_Cs3(AuCl4)2
_symmetry_space_group_name_H-M   'P 1'
_cell_length_a   6.85821772
_cell_length_b   6.85821772
_cell_length_c   10.28368473
_cell_angle_alpha   73.76418304
_cell_angle_beta   73.76418304
_cell_angle_gamma   61.88704681
_symmetry_Int_Tables_number   1
_chemical_formula_structural   Cs3(AuCl4)2
_chemical_formula_sum   'Cs3 Au2 Cl8'
_cell_volume   403.32352906
_cell_formula_units_Z   1
loop_
 _symmetry_equiv_pos_site_id
 _symmetry_equiv_pos_as_xyz
  1  'x, y, z'
loop_
 _atom_site_type_symbol
 _atom_site_label
 _atom_site_symmetry_multiplicity
 _atom_site_fract_x
 _atom_site_fract_y
 _atom_site_fract_z
 _atom_site_occupancy
  Cs  Cs0  1  0.39097500  0.39097501  0.83691900  1
  Cs  Cs1  1  0.60902501  0.60902501  0.16308102  1
  Au  Au2  1  0.86758601  0.86758601  0.39451703  1
  Au  Au3  1  0.13241400  0.13241400  0.60548300  1
  Cl  Cl4  1  0.00000000  0.00000000  0.00000000  1
  Cs  Cs5  1  0.07918100  0.07918100  0.31221900  1
  Cl  Cl6  1  0.64085701  0.10590800  0.13276601  1
  Cl  Cl7  1  0.65731401  0.65731401  0.49586102  1
  Cl  Cl8  1  0.89409201  0.35914301  0.86723401  1
  Cl  Cl9  1  0.34268600  0.34268600  0.50413901  1
  Cl  Cl10  1  0.10590800  0.64085701  0.13276601  1
  Cl  Cl11  1  0.35914300  0.89409201  0.86723401  1
  Cl  Cl12  1  0.92081901  0.92081901  0.68778103  1
