# generated using pymatgen
data_BaBH2
_symmetry_space_group_name_H-M   'P 1'
_cell_length_a   3.52274871
_cell_length_b   3.52274871
_cell_length_c   5.04911089
_cell_angle_alpha   69.58309174
_cell_angle_beta   69.58309174
_cell_angle_gamma   59.99998856
_symmetry_Int_Tables_number   1
_chemical_formula_structural   BaBH2
_chemical_formula_sum   'Ba1 B1 H2'
_cell_volume   49.66647342
_cell_formula_units_Z   1
loop_
 _symmetry_equiv_pos_site_id
 _symmetry_equiv_pos_as_xyz
  1  'x, y, z'
loop_
 _atom_site_type_symbol
 _atom_site_label
 _atom_site_symmetry_multiplicity
 _atom_site_fract_x
 _atom_site_fract_y
 _atom_site_fract_z
 _atom_site_occupancy
  Ba  Ba0  1  0.00000000  0.00000000  0.00000000  1
  B  B1  1  0.50000001  0.49999999  0.50000002  1
  H  H2  1  0.58282601  0.58282599  0.25152201  1
  H  H3  1  0.41717401  0.41717399  0.74847803  1
