# generated using pymatgen
data_NaCuF3
_symmetry_space_group_name_H-M   'P 1'
_cell_length_a   5.35205412
_cell_length_b   5.35388708
_cell_length_c   7.64016485
_cell_angle_alpha   90.00000000
_cell_angle_beta   90.00000000
_cell_angle_gamma   90.00000000
_symmetry_Int_Tables_number   1
_chemical_formula_structural   NaCuF3
_chemical_formula_sum   'Na4 Cu4 F12'
_cell_volume   218.92352534
_cell_formula_units_Z   4
loop_
 _symmetry_equiv_pos_site_id
 _symmetry_equiv_pos_as_xyz
  1  'x, y, z'
loop_
 _atom_site_type_symbol
 _atom_site_label
 _atom_site_symmetry_multiplicity
 _atom_site_fract_x
 _atom_site_fract_y
 _atom_site_fract_z
 _atom_site_occupancy
  Na  Na0  1  0.01656900  0.99443998  0.75000001  1
  Na  Na1  1  0.51656899  0.50555999  0.75000001  1
  Na  Na2  1  0.48343099  0.49443999  0.25000000  1
  Na  Na3  1  0.98343098  0.00556000  0.25000000  1
  Cu  Cu4  1  0.49999999  0.00000000  -0.00000000  1
  Cu  Cu5  1  0.49999999  0.00000000  0.50000001  1
  Cu  Cu6  1  0.00000000  0.49999999  -0.00000000  1
  Cu  Cu7  1  0.00000000  0.49999999  0.50000001  1
  F  F8  1  0.50397299  0.95204399  0.25000000  1
  F  F9  1  0.77452298  0.77378099  0.52452401  1
  F  F10  1  0.77452298  0.77378099  0.97547602  1
  F  F11  1  0.27452299  0.72621899  0.97547602  1
  F  F12  1  0.27452299  0.72621899  0.52452401  1
  F  F13  1  0.00397300  0.54795599  0.25000000  1
  F  F14  1  0.99602698  0.45204399  0.75000001  1
  F  F15  1  0.72547698  0.27378100  0.02452400  1
  F  F16  1  0.72547698  0.27378100  0.47547601  1
  F  F17  1  0.22547699  0.22621900  0.02452400  1
  F  F18  1  0.22547699  0.22621900  0.47547601  1
  F  F19  1  0.49602699  0.04795600  0.75000001  1
