# generated using pymatgen
data_H7Br2NO5F
_symmetry_space_group_name_H-M   'P 1'
_cell_length_a   4.68170738
_cell_length_b   4.68170738
_cell_length_c   8.67051125
_cell_angle_alpha   90.00000000
_cell_angle_beta   90.00000000
_cell_angle_gamma   98.01214600
_symmetry_Int_Tables_number   1
_chemical_formula_structural   H7Br2NO5F
_chemical_formula_sum   'H7 Br2 N1 O5 F1'
_cell_volume   188.18849279
_cell_formula_units_Z   1
loop_
 _symmetry_equiv_pos_site_id
 _symmetry_equiv_pos_as_xyz
  1  'x, y, z'
loop_
 _atom_site_type_symbol
 _atom_site_label
 _atom_site_symmetry_multiplicity
 _atom_site_fract_x
 _atom_site_fract_y
 _atom_site_fract_z
 _atom_site_occupancy
  N  N0  1  0.14623001  0.14623000  0.47942299  1
  O  O1  1  0.85377005  0.85377002  0.97942297  1
  H  H2  1  0.79534604  0.79534602  0.45487299  1
  Br  Br3  1  0.20465401  0.20465401  0.95487297  1
  H  H4  1  0.75331705  0.98853203  0.61050198  1
  H  H5  1  0.98853205  0.75331702  0.61050198  1
  H  H6  1  0.24668301  0.01146800  0.11050200  1
  H  H7  1  0.01146801  0.24668301  0.11050200  1
  O  O8  1  0.31775701  0.03000600  0.40703699  1
  O  O9  1  0.03000601  0.31775701  0.40703699  1
  H  H10  1  0.68224304  0.96999403  0.90703697  1
  H  H11  1  0.96999404  0.68224302  0.90703697  1
  O  O12  1  0.90406705  0.90406703  0.54486198  1
  O  O13  1  0.09593301  0.09593300  0.04486200  1
  F  F14  1  0.33928902  0.33928901  0.65102398  1
  Br  Br15  1  0.66071104  0.66071102  0.15102400  1
