# generated using pymatgen
data_Ga5Co3
_symmetry_space_group_name_H-M   'P 1'
_cell_length_a   4.88496399
_cell_length_b   7.01870823
_cell_length_c   7.01870775
_cell_angle_alpha   120.00000000
_cell_angle_beta   90.00000000
_cell_angle_gamma   90.00000000
_symmetry_Int_Tables_number   1
_chemical_formula_structural   Ga5Co3
_chemical_formula_sum   'Ga10 Co6'
_cell_volume   208.40414221
_cell_formula_units_Z   2
loop_
 _symmetry_equiv_pos_site_id
 _symmetry_equiv_pos_as_xyz
  1  'x, y, z'
loop_
 _atom_site_type_symbol
 _atom_site_label
 _atom_site_symmetry_multiplicity
 _atom_site_fract_x
 _atom_site_fract_y
 _atom_site_fract_z
 _atom_site_occupancy
  Ga  Ga0  1  0.00000000  0.00000000  0.75652899  1
  Ga  Ga1  1  0.00000000  0.75652896  -0.00000003  1
  Ga  Ga2  1  0.00000000  0.24347099  0.24347099  1
  Co  Co3  1  0.50000000  0.00000000  0.24310000  1
  Ga  Ga4  1  0.50000000  0.24309999  -0.00000001  1
  Ga  Ga5  1  0.50000000  0.75689996  0.75689996  1
  Ga  Ga6  1  0.74424400  0.66666663  0.33333330  1
  Co  Co7  1  0.74424400  0.33333332  0.66666664  1
  Co  Co8  1  0.25575600  0.33333332  0.66666664  1
  Co  Co9  1  0.25575600  0.66666663  0.33333330  1
  Ga  Ga10  1  0.50000000  0.00000000  0.60496699  1
  Co  Co11  1  0.50000000  0.60496697  -0.00000002  1
  Co  Co12  1  0.50000000  0.39503298  0.39503298  1
  Ga  Ga13  1  0.00000000  0.99999995  0.39823096  1
  Ga  Ga14  1  1.00000000  0.39823098  -0.00000001  1
  Ga  Ga15  1  0.00000000  0.60176897  0.60176897  1
