# generated using pymatgen
data_LiMn5F12
_symmetry_space_group_name_H-M   'P 1'
_cell_length_a   4.72889090
_cell_length_b   4.72889090
_cell_length_c   9.38538265
_cell_angle_alpha   90.00000000
_cell_angle_beta   90.00000000
_cell_angle_gamma   90.00000000
_symmetry_Int_Tables_number   1
_chemical_formula_structural   LiMn5F12
_chemical_formula_sum   'Li1 Mn5 F12'
_cell_volume   209.87976648
_cell_formula_units_Z   1
loop_
 _symmetry_equiv_pos_site_id
 _symmetry_equiv_pos_as_xyz
  1  'x, y, z'
loop_
 _atom_site_type_symbol
 _atom_site_label
 _atom_site_symmetry_multiplicity
 _atom_site_fract_x
 _atom_site_fract_y
 _atom_site_fract_z
 _atom_site_occupancy
  Mn  Mn0  1  0.00000000  0.00000000  0.00000000  1
  Li  Li1  1  0.50000001  0.50000001  0.50000002  1
  Mn  Mn2  1  0.50000001  0.50000001  0.83233803  1
  Mn  Mn3  1  0.00000000  0.00000000  0.33233801  1
  Mn  Mn4  1  0.50000001  0.50000001  0.16766201  1
  Mn  Mn5  1  0.00000000  0.00000000  0.66766202  1
  F  F6  1  0.69759902  0.69759902  0.67142902  1
  F  F7  1  0.30240101  0.30240101  0.67142902  1
  F  F8  1  0.69759902  0.69759902  0.32857101  1
  F  F9  1  0.19759900  0.80240102  0.17142901  1
  F  F10  1  0.80240102  0.19759900  0.17142901  1
  F  F11  1  0.80240102  0.19759900  0.82857103  1
  F  F12  1  0.31018001  0.31018001  -0.00000000  1
  F  F13  1  0.18982000  0.81018002  0.50000002  1
  F  F14  1  0.81018002  0.18982000  0.50000002  1
  F  F15  1  0.68982002  0.68982002  -0.00000000  1
  F  F16  1  0.30240101  0.30240101  0.32857101  1
  F  F17  1  0.19759900  0.80240102  0.82857103  1
