# generated using pymatgen
data_Na4H6O7
_symmetry_space_group_name_H-M   'P 1'
_cell_length_a   5.58858252
_cell_length_b   5.58858252
_cell_length_c   5.58858252
_cell_angle_alpha   100.00373840
_cell_angle_beta   100.00373840
_cell_angle_gamma   100.00373840
_symmetry_Int_Tables_number   1
_chemical_formula_structural   Na4H6O7
_chemical_formula_sum   'Na4 H6 O7'
_cell_volume   165.49389162
_cell_formula_units_Z   1
loop_
 _symmetry_equiv_pos_site_id
 _symmetry_equiv_pos_as_xyz
  1  'x, y, z'
loop_
 _atom_site_type_symbol
 _atom_site_label
 _atom_site_symmetry_multiplicity
 _atom_site_fract_x
 _atom_site_fract_y
 _atom_site_fract_z
 _atom_site_occupancy
  Na  Na0  1  0.37568500  0.57142302  0.82264799  1
  Na  Na1  1  0.57142300  0.82264803  0.37568501  1
  Na  Na2  1  0.82264803  0.37568501  0.57142300  1
  Na  Na3  1  0.00261600  0.00261600  0.00261600  1
  H  H4  1  0.11637499  0.48886202  0.24910800  1
  H  H5  1  0.48886201  0.24910801  0.11637501  1
  H  H6  1  0.24910801  0.11637500  0.48886199  1
  H  H7  1  0.07653898  0.74388403  0.39224700  1
  H  H8  1  0.74388402  0.39224701  0.07653901  1
  H  H9  1  0.39224701  0.07653900  0.74388398  1
  O  O10  1  0.78172701  0.78172703  0.78172700  1
  O  O11  1  0.00021399  0.30629101  0.95622397  1
  O  O12  1  0.30629099  0.95622404  0.00021402  1
  O  O13  1  0.95622404  0.00021400  0.30629101  1
  O  O14  1  0.16048799  0.60295802  0.41779100  1
  O  O15  1  0.60295801  0.41779102  0.16048801  1
  O  O16  1  0.41779101  0.16048801  0.60295799  1
