# generated using pymatgen
data_Mg(GeO3)2
_symmetry_space_group_name_H-M   'P 1'
_cell_length_a   5.93431234
_cell_length_b   6.83138227
_cell_length_c   6.93536901
_cell_angle_alpha   84.41029358
_cell_angle_beta   74.69344330
_cell_angle_gamma   75.26371002
_symmetry_Int_Tables_number   1
_chemical_formula_structural   Mg(GeO3)2
_chemical_formula_sum   'Mg2 Ge4 O12'
_cell_volume   262.12530574
_cell_formula_units_Z   2
loop_
 _symmetry_equiv_pos_site_id
 _symmetry_equiv_pos_as_xyz
  1  'x, y, z'
loop_
 _atom_site_type_symbol
 _atom_site_label
 _atom_site_symmetry_multiplicity
 _atom_site_fract_x
 _atom_site_fract_y
 _atom_site_fract_z
 _atom_site_occupancy
  Ge  Ge0  1  0.74213902  0.20879500  0.38517500  1
  Ge  Ge1  1  0.24345600  0.38659001  0.20911098  1
  Ge  Ge2  1  0.75663901  0.61349001  0.79081098  1
  Ge  Ge3  1  0.25787499  0.79109602  0.61484997  1
  Mg  Mg4  1  0.24647699  0.91365702  0.08989795  1
  Mg  Mg5  1  0.75368502  0.08646100  0.90994502  1
  O  O6  1  0.64665000  0.80713002  0.95664397  1
  O  O7  1  0.14112998  0.96009502  0.80416396  1
  O  O8  1  0.85846403  0.03958800  0.19611001  1
  O  O9  1  0.35376601  0.19271700  0.04343099  1
  O  O10  1  0.77081902  0.38416401  0.90781100  1
  O  O11  1  0.72177402  0.09380900  0.61135501  1
  O  O12  1  0.27797799  0.90650502  0.38888696  1
  O  O13  1  0.22879599  0.61590401  0.09211997  1
  O  O14  1  0.55352800  0.64856001  0.63272298  1
  O  O15  1  0.05199999  0.62869301  0.64891198  1
  O  O16  1  0.94822002  0.37100401  0.35090999  1
  O  O17  1  0.44660501  0.35174101  0.36714299  1
