# generated using pymatgen
data_Ba2SrLa3(WO6)2
_symmetry_space_group_name_H-M   'P 1'
_cell_length_a   5.91197586
_cell_length_b   6.13200808
_cell_length_c   8.47918987
_cell_angle_alpha   90.00000000
_cell_angle_beta   90.02595520
_cell_angle_gamma   90.00000000
_symmetry_Int_Tables_number   1
_chemical_formula_structural   Ba2SrLa3(WO6)2
_chemical_formula_sum   'Ba2 Sr1 La3 W2 O12'
_cell_volume   307.38996545
_cell_formula_units_Z   1
loop_
 _symmetry_equiv_pos_site_id
 _symmetry_equiv_pos_as_xyz
  1  'x, y, z'
loop_
 _atom_site_type_symbol
 _atom_site_label
 _atom_site_symmetry_multiplicity
 _atom_site_fract_x
 _atom_site_fract_y
 _atom_site_fract_z
 _atom_site_occupancy
  La  La0  1  0.00000000  0.49999999  0.50000000  1
  Ba  Ba1  1  0.98612402  0.95191199  0.74603201  1
  La  La2  1  0.51387601  0.45191199  0.75396800  1
  La  La3  1  0.50000001  0.99999999  0.00000000  1
  Sr  Sr4  1  0.48612401  0.54808799  0.24603200  1
  Ba  Ba5  1  0.01387600  0.04808800  0.25396800  1
  W  W6  1  0.00000000  0.49999999  -0.00000000  1
  W  W7  1  0.50000001  0.00000000  0.50000000  1
  O  O8  1  0.89953502  0.45159899  0.21787701  1
  O  O9  1  0.83071402  0.23782000  0.93536801  1
  O  O10  1  0.76846602  0.17704500  0.54276101  1
  O  O11  1  0.73153402  0.67704499  0.95723901  1
  O  O12  1  0.66928602  0.73781999  0.56463201  1
  O  O13  1  0.60046501  0.95159899  0.28212301  1
  O  O14  1  0.39953501  0.04840100  0.71787700  1
  O  O15  1  0.33071401  0.26218000  0.43536800  1
  O  O16  1  0.26846601  0.32295500  0.04276100  1
  O  O17  1  0.23153401  0.82295499  0.45723900  1
  O  O18  1  0.16928600  0.76217999  0.06463200  1
  O  O19  1  0.10046500  0.54840099  0.78212300  1
