# generated using pymatgen
data_BiI2
_symmetry_space_group_name_H-M   'P 1'
_cell_length_a   4.20897198
_cell_length_b   4.20897245
_cell_length_c   12.24278545
_cell_angle_alpha   90.00000000
_cell_angle_beta   90.00000000
_cell_angle_gamma   120.00000000
_symmetry_Int_Tables_number   1
_chemical_formula_structural   BiI2
_chemical_formula_sum   'Bi2 I4'
_cell_volume   187.82914791
_cell_formula_units_Z   2
loop_
 _symmetry_equiv_pos_site_id
 _symmetry_equiv_pos_as_xyz
  1  'x, y, z'
loop_
 _atom_site_type_symbol
 _atom_site_label
 _atom_site_symmetry_multiplicity
 _atom_site_fract_x
 _atom_site_fract_y
 _atom_site_fract_z
 _atom_site_occupancy
  Bi  Bi0  1  0.00000000  0.00000000  0.16517599  1
  Bi  Bi1  1  0.00000000  0.00000000  0.83482397  1
  I  I2  1  0.66666668  0.33333333  0.02827700  1
  I  I3  1  0.33333336  0.66666665  0.97172296  1
  I  I4  1  0.33333336  0.66666665  0.32909799  1
  I  I5  1  0.66666668  0.33333333  0.67090198  1
