# generated using pymatgen
data_HgBr2
_symmetry_space_group_name_H-M   'P 1'
_cell_length_a   4.22772980
_cell_length_b   8.48764420
_cell_length_c   8.61260223
_cell_angle_alpha   89.79807281
_cell_angle_beta   90.00000000
_cell_angle_gamma   90.00000000
_symmetry_Int_Tables_number   1
_chemical_formula_structural   HgBr2
_chemical_formula_sum   'Hg4 Br8'
_cell_volume   309.04810250
_cell_formula_units_Z   4
loop_
 _symmetry_equiv_pos_site_id
 _symmetry_equiv_pos_as_xyz
  1  'x, y, z'
loop_
 _atom_site_type_symbol
 _atom_site_label
 _atom_site_symmetry_multiplicity
 _atom_site_fract_x
 _atom_site_fract_y
 _atom_site_fract_z
 _atom_site_occupancy
  Hg  Hg0  1  0.27809201  0.62667499  0.72546700  1
  Hg  Hg1  1  0.72190803  0.37332499  0.27453300  1
  Hg  Hg2  1  0.77809204  0.87332498  0.27453298  1
  Hg  Hg3  1  0.22190801  0.12667500  0.72546702  1
  Br  Br4  1  0.31663502  0.88152098  0.00200997  1
  Br  Br5  1  0.75692504  0.87475398  0.63225799  1
  Br  Br6  1  0.18336501  0.38152099  0.00200999  1
  Br  Br7  1  0.81663504  0.61847899  0.99799001  1
  Br  Br8  1  0.25692501  0.62524599  0.36774199  1
  Br  Br9  1  0.68336503  0.11847900  0.99799003  1
  Br  Br10  1  0.74307504  0.37475399  0.63225801  1
  Br  Br11  1  0.24307501  0.12524600  0.36774201  1
