# generated using pymatgen
data_Tb3Hg3Se14
_symmetry_space_group_name_H-M   'P 1'
_cell_length_a   6.54456902
_cell_length_b   10.24738884
_cell_length_c   10.24738884
_cell_angle_alpha   119.85726929
_cell_angle_beta   90.00000000
_cell_angle_gamma   90.00000000
_symmetry_Int_Tables_number   1
_chemical_formula_structural   Tb3Hg3Se14
_chemical_formula_sum   'Tb3 Hg3 Se14'
_cell_volume   596.02015241
_cell_formula_units_Z   1
loop_
 _symmetry_equiv_pos_site_id
 _symmetry_equiv_pos_as_xyz
  1  'x, y, z'
loop_
 _atom_site_type_symbol
 _atom_site_label
 _atom_site_symmetry_multiplicity
 _atom_site_fract_x
 _atom_site_fract_y
 _atom_site_fract_z
 _atom_site_occupancy
  Se  Se0  1  0.45787500  0.33333332  0.66666664  1
  Se  Se1  1  0.95787500  0.66666664  0.33333332  1
  Se  Se2  1  0.24847100  0.12715800  0.87284197  1
  Se  Se3  1  0.24791500  0.74618598  0.87313197  1
  Se  Se4  1  0.24791500  0.12686800  0.25381399  1
  Se  Se5  1  0.74847100  0.87284197  0.12715800  1
  Se  Se6  1  0.74791500  0.25381399  0.12686800  1
  Se  Se7  1  0.74791500  0.87313197  0.74618598  1
  Se  Se8  1  0.44152600  0.53775298  0.46224699  1
  Se  Se9  1  0.44120900  0.92440997  0.46229099  1
  Se  Se10  1  0.44120900  0.53770898  0.07559000  1
  Se  Se11  1  0.94152600  0.46224698  0.53775298  1
  Se  Se12  1  0.94120900  0.07559000  0.53770898  1
  Se  Se13  1  0.94120900  0.46229098  0.92440997  1
  Hg  Hg14  1  0.18911300  0.81084397  0.18915599  1
  Hg  Hg15  1  0.18888300  0.37830099  0.18936299  1
  Hg  Hg16  1  0.18888300  0.81063697  0.62169898  1
  Tb  Tb17  1  0.68911300  0.18915599  0.81084397  1
  Tb  Tb18  1  0.68888300  0.62169898  0.81063697  1
  Tb  Tb19  1  0.68888300  0.18936299  0.37830099  1
