# generated using pymatgen
data_NiBi8OF4
_symmetry_space_group_name_H-M   'P 1'
_cell_length_a   7.60304260
_cell_length_b   7.60304260
_cell_length_c   7.60304260
_cell_angle_alpha   60.00000000
_cell_angle_beta   60.00000000
_cell_angle_gamma   60.00000000
_symmetry_Int_Tables_number   1
_chemical_formula_structural   NiBi8OF4
_chemical_formula_sum   'Ni1 Bi8 O1 F4'
_cell_volume   310.77585802
_cell_formula_units_Z   1
loop_
 _symmetry_equiv_pos_site_id
 _symmetry_equiv_pos_as_xyz
  1  'x, y, z'
loop_
 _atom_site_type_symbol
 _atom_site_label
 _atom_site_symmetry_multiplicity
 _atom_site_fract_x
 _atom_site_fract_y
 _atom_site_fract_z
 _atom_site_occupancy
  Bi  Bi0  1  0.25000000  0.25000000  0.25000000  1
  O  O1  1  0.50000000  0.50000000  0.50000000  1
  Bi  Bi2  1  0.87500000  0.87500000  0.37500000  1
  Bi  Bi3  1  0.37500000  0.87500000  0.87500000  1
  Bi  Bi4  1  0.87500000  0.87500000  0.87500000  1
  Bi  Bi5  1  0.87500000  0.37500000  0.87500000  1
  Bi  Bi6  1  0.11183600  0.62938800  0.62938800  1
  F  F7  1  0.12061300  0.12061200  0.63816300  1
  F  F8  1  0.12061300  0.63816300  0.12061200  1
  F  F9  1  0.12061300  0.12061200  0.12061200  1
  Bi  Bi10  1  0.62938700  0.11183700  0.62938800  1
  Ni  Ni11  1  0.62938700  0.62938800  0.62938800  1
  F  F12  1  0.63816400  0.12061200  0.12061200  1
  Bi  Bi13  1  0.62938700  0.62938800  0.11183700  1
