# generated using pymatgen
data_Ho3Ga7CoRu
_symmetry_space_group_name_H-M   'P 1'
_cell_length_a   5.19444466
_cell_length_b   5.19444513
_cell_length_c   8.40955830
_cell_angle_alpha   90.00000000
_cell_angle_beta   90.00000000
_cell_angle_gamma   120.00000000
_symmetry_Int_Tables_number   1
_chemical_formula_structural   Ho3Ga7CoRu
_chemical_formula_sum   'Ho3 Ga7 Co1 Ru1'
_cell_volume   196.50884545
_cell_formula_units_Z   1
loop_
 _symmetry_equiv_pos_site_id
 _symmetry_equiv_pos_as_xyz
  1  'x, y, z'
loop_
 _atom_site_type_symbol
 _atom_site_label
 _atom_site_symmetry_multiplicity
 _atom_site_fract_x
 _atom_site_fract_y
 _atom_site_fract_z
 _atom_site_occupancy
  Ho  Ho0  1  0.66666667  0.33333333  0.56313198  1
  Ho  Ho1  1  0.33333337  0.66666667  0.43686798  1
  Ho  Ho2  1  0.33333337  0.66666667  0.06313200  1
  Ga  Ga3  1  0.66666667  0.33333333  0.93686797  1
  Ru  Ru4  1  0.00000000  0.00000000  0.49999998  1
  Co  Co5  1  0.00000000  0.00000000  0.00000000  1
  Ga  Ga6  1  0.16474602  0.32949200  0.74999997  1
  Ga  Ga7  1  0.16474605  0.83525400  0.74999997  1
  Ga  Ga8  1  0.67050804  0.83525400  0.74999997  1
  Ga  Ga9  1  0.83525402  0.67050800  0.24999999  1
  Ga  Ga10  1  0.83525398  0.16474600  0.24999999  1
  Ga  Ga11  1  0.32949200  0.16474600  0.24999999  1
