# generated using pymatgen
data_CsIn2Br7
_symmetry_space_group_name_H-M   'P 1'
_cell_length_a   8.49522114
_cell_length_b   9.29600334
_cell_length_c   12.54621601
_cell_angle_alpha   90.00000000
_cell_angle_beta   90.00000000
_cell_angle_gamma   90.00000000
_symmetry_Int_Tables_number   1
_chemical_formula_structural   CsIn2Br7
_chemical_formula_sum   'Cs2 In4 Br14'
_cell_volume   990.79480362
_cell_formula_units_Z   2
loop_
 _symmetry_equiv_pos_site_id
 _symmetry_equiv_pos_as_xyz
  1  'x, y, z'
loop_
 _atom_site_type_symbol
 _atom_site_label
 _atom_site_symmetry_multiplicity
 _atom_site_fract_x
 _atom_site_fract_y
 _atom_site_fract_z
 _atom_site_occupancy
  Cs  Cs0  1  0.21355600  0.49638998  0.63906900  1
  Br  Br1  1  0.78644399  0.50360998  0.13906900  1
  Br  Br2  1  0.71355599  0.00361000  0.13906900  1
  Cs  Cs3  1  0.28644400  0.99638996  0.63906900  1
  In  In4  1  0.31103299  0.75383997  0.99554000  1
  In  In5  1  0.68896699  0.24615999  0.49554000  1
  In  In6  1  0.81103299  0.74615997  0.49554000  1
  In  In7  1  0.18896700  0.25383999  0.99554000  1
  Br  Br8  1  0.23225300  0.50680498  0.13430800  1
  Br  Br9  1  0.76774699  0.49319498  0.63430800  1
  Br  Br10  1  0.73225299  0.99319496  0.63430800  1
  Br  Br11  1  0.26774700  0.00680500  0.13430800  1
  Br  Br12  1  0.09784200  0.76033797  0.82572500  1
  Br  Br13  1  0.90215799  0.23966199  0.32572500  1
  Br  Br14  1  0.59784199  0.73966197  0.32572500  1
  Br  Br15  1  0.40215799  0.26033799  0.82572500  1
  Br  Br16  1  0.63060299  0.73781597  0.94535800  1
  Br  Br17  1  0.36939699  0.26218399  0.44535800  1
  Br  Br18  1  0.13060300  0.76218397  0.44535800  1
  Br  Br19  1  0.86939699  0.23781599  0.94535800  1
