# generated using pymatgen
data_Ho4Ga13
_symmetry_space_group_name_H-M   'P 1'
_cell_length_a   7.49715090
_cell_length_b   7.49715090
_cell_length_c   7.49715090
_cell_angle_alpha   109.47122192
_cell_angle_beta   109.47122192
_cell_angle_gamma   109.47122192
_symmetry_Int_Tables_number   1
_chemical_formula_structural   Ho4Ga13
_chemical_formula_sum   'Ho4 Ga13'
_cell_volume   324.38954230
_cell_formula_units_Z   1
loop_
 _symmetry_equiv_pos_site_id
 _symmetry_equiv_pos_as_xyz
  1  'x, y, z'
loop_
 _atom_site_type_symbol
 _atom_site_label
 _atom_site_symmetry_multiplicity
 _atom_site_fract_x
 _atom_site_fract_y
 _atom_site_fract_z
 _atom_site_occupancy
  Ho  Ho0  1  0.50000003  0.50000001  0.50000003  1
  Ho  Ho1  1  0.00000003  0.50000001  0.00000003  1
  Ho  Ho2  1  0.00000000  0.00000000  0.49999999  1
  Ho  Ho3  1  0.49999999  0.00000000  0.00000001  1
  Ga  Ga4  1  0.50000004  0.75000001  0.25000005  1
  Ga  Ga5  1  0.75000001  0.25000000  0.50000002  1
  Ga  Ga6  1  0.25000003  0.50000001  0.75000002  1
  Ga  Ga7  1  0.25000004  0.75000001  0.50000004  1
  Ga  Ga8  1  0.50000001  0.25000000  0.75000001  1
  Ga  Ga9  1  0.75000002  0.50000001  0.25000004  1
  Ga  Ga10  1  0.00000004  0.70291201  0.70291202  1
  Ga  Ga11  1  0.70291204  0.70291201  0.00000006  1
  Ga  Ga12  1  0.70291205  1.00000002  0.70291206  1
  Ga  Ga13  1  0.00000002  0.29708801  0.29708801  1
  Ga  Ga14  1  0.29708802  0.29708801  0.00000002  1
  Ga  Ga15  1  0.29708806  1.00000002  0.29708806  1
  Ga  Ga16  1  0.00000000  0.00000000  0.00000000  1
