# generated using pymatgen
data_Nd3(CoGe)4
_symmetry_space_group_name_H-M   'P 1'
_cell_length_a   6.45569134
_cell_length_b   6.45569134
_cell_length_c   6.45569134
_cell_angle_alpha   109.47122192
_cell_angle_beta   109.47122192
_cell_angle_gamma   109.47122192
_symmetry_Int_Tables_number   1
_chemical_formula_structural   Nd3(CoGe)4
_chemical_formula_sum   'Nd3 Co4 Ge4'
_cell_volume   207.11252392
_cell_formula_units_Z   1
loop_
 _symmetry_equiv_pos_site_id
 _symmetry_equiv_pos_as_xyz
  1  'x, y, z'
loop_
 _atom_site_type_symbol
 _atom_site_label
 _atom_site_symmetry_multiplicity
 _atom_site_fract_x
 _atom_site_fract_y
 _atom_site_fract_z
 _atom_site_occupancy
  Nd  Nd0  1  0.50000002  0.50000000  0.00000004  1
  Nd  Nd1  1  0.49999999  0.00000000  0.49999999  1
  Nd  Nd2  1  0.00000003  0.50000000  0.50000001  1
  Ge  Ge3  1  0.39555101  0.39555100  0.39555102  1
  Ge  Ge4  1  0.60444898  0.00000000  0.00000001  1
  Ge  Ge5  1  1.00000001  0.60444900  1.00000002  1
  Ge  Ge6  1  0.00000000  0.00000000  0.60444898  1
  Co  Co7  1  0.75980903  0.75980900  0.75980903  1
  Co  Co8  1  0.24019099  0.00000000  0.00000001  1
  Co  Co9  1  0.00000000  0.00000000  0.24019099  1
  Co  Co10  1  0.00000002  0.24019100  0.00000001  1
