# generated using pymatgen
data_Ho(HO)3
_symmetry_space_group_name_H-M   'P 1'
_cell_length_a   3.51804304
_cell_length_b   6.38167000
_cell_length_c   6.38166952
_cell_angle_alpha   120.00000000
_cell_angle_beta   90.00000000
_cell_angle_gamma   90.00000000
_symmetry_Int_Tables_number   1
_chemical_formula_structural   Ho(HO)3
_chemical_formula_sum   'Ho2 H6 O6'
_cell_volume   124.07961381
_cell_formula_units_Z   2
loop_
 _symmetry_equiv_pos_site_id
 _symmetry_equiv_pos_as_xyz
  1  'x, y, z'
loop_
 _atom_site_type_symbol
 _atom_site_label
 _atom_site_symmetry_multiplicity
 _atom_site_fract_x
 _atom_site_fract_y
 _atom_site_fract_z
 _atom_site_occupancy
  Ho  Ho0  1  0.68730799  0.33333333  0.66666668  1
  Ho  Ho1  1  0.18730800  0.66666666  0.33333332  1
  H  H2  1  0.64924299  0.85807699  0.71922699  1
  H  H3  1  0.64924299  0.28077300  0.13885000  1
  H  H4  1  0.64924299  0.86114999  0.14192298  1
  H  H5  1  0.14924300  0.14192300  0.28077300  1
  H  H6  1  0.14924300  0.71922699  0.86115000  1
  H  H7  1  0.14924300  0.13885000  0.85807702  1
  O  O8  1  0.69186399  0.91364199  0.60424099  1
  O  O9  1  0.69186399  0.39575899  0.30940100  1
  O  O10  1  0.69186399  0.69059899  0.08635798  1
  O  O11  1  0.19186400  0.08635800  0.39575901  1
  O  O12  1  0.19186400  0.60424099  0.69059900  1
  O  O13  1  0.19186400  0.30940100  0.91364202  1
