# generated using pymatgen
data_BaMo2S15
_symmetry_space_group_name_H-M   'P 1'
_cell_length_a   6.76425600
_cell_length_b   6.94914818
_cell_length_c   12.83111000
_cell_angle_alpha   81.44245148
_cell_angle_beta   74.71692657
_cell_angle_gamma   60.87630081
_symmetry_Int_Tables_number   1
_chemical_formula_structural   BaMo2S15
_chemical_formula_sum   'Ba1 Mo2 S15'
_cell_volume   508.09914219
_cell_formula_units_Z   1
loop_
 _symmetry_equiv_pos_site_id
 _symmetry_equiv_pos_as_xyz
  1  'x, y, z'
loop_
 _atom_site_type_symbol
 _atom_site_label
 _atom_site_symmetry_multiplicity
 _atom_site_fract_x
 _atom_site_fract_y
 _atom_site_fract_z
 _atom_site_occupancy
  Ba  Ba0  1  0.25567002  0.69376197  0.94280297  1
  S  S1  1  0.89223502  0.80623797  0.55719700  1
  S  S2  1  0.74433000  0.30623799  0.05719701  1
  S  S3  1  0.10776501  0.19376199  0.44280299  1
  S  S4  1  0.87557102  0.74999997  0.25000000  1
  Mo  Mo5  1  0.12442901  0.24999999  0.74999998  1
  S  S6  1  0.32903803  0.96385496  0.15275600  1
  S  S7  1  0.44564902  0.53614498  0.34724399  1
  Mo  Mo8  1  0.67096200  0.03614500  0.84724398  1
  S  S9  1  0.55435101  0.46385498  0.65275599  1
  S  S10  1  0.93773100  0.09720300  0.25210701  1
  S  S11  1  0.28704101  0.40279699  0.24789300  1
  S  S12  1  0.06226903  0.90279697  0.74789297  1
  S  S13  1  0.71295902  0.59720298  0.75210699  1
  S  S14  1  0.56869402  0.74206797  0.42265099  1
  S  S15  1  0.73341302  0.75793197  0.07734901  1
  S  S16  1  0.43130601  0.25793199  0.57734899  1
  S  S17  1  0.26658701  0.24206799  0.92265097  1
