# generated using pymatgen
data_CoSiMo
_symmetry_space_group_name_H-M   'P 1'
_cell_length_a   4.75542021
_cell_length_b   4.75541973
_cell_length_c   7.55486822
_cell_angle_alpha   90.00000000
_cell_angle_beta   90.00000000
_cell_angle_gamma   120.00000000
_symmetry_Int_Tables_number   1
_chemical_formula_structural   CoSiMo
_chemical_formula_sum   'Co4 Si4 Mo4'
_cell_volume   147.95691911
_cell_formula_units_Z   4
loop_
 _symmetry_equiv_pos_site_id
 _symmetry_equiv_pos_as_xyz
  1  'x, y, z'
loop_
 _atom_site_type_symbol
 _atom_site_label
 _atom_site_symmetry_multiplicity
 _atom_site_fract_x
 _atom_site_fract_y
 _atom_site_fract_z
 _atom_site_occupancy
  Si  Si0  1  0.00000000  0.00000000  0.00000000  1
  Si  Si1  1  0.00000000  0.00000000  0.49999999  1
  Co  Co2  1  0.16938297  0.33876598  0.24999999  1
  Co  Co3  1  0.16938294  0.83061594  0.24999999  1
  Si  Si4  1  0.66123292  0.83061594  0.24999999  1
  Co  Co5  1  0.83061692  0.66123395  0.74999998  1
  Si  Si6  1  0.83061695  0.16938399  0.74999998  1
  Co  Co7  1  0.33876697  0.16938399  0.74999998  1
  Mo  Mo8  1  0.66666662  0.33333331  0.06298500  1
  Mo  Mo9  1  0.33333328  0.66666662  0.93701497  1
  Mo  Mo10  1  0.33333328  0.66666662  0.56298498  1
  Mo  Mo11  1  0.66666662  0.33333331  0.43701499  1
