# generated using pymatgen
data_Cd4Te5
_symmetry_space_group_name_H-M   'P 1'
_cell_length_a   4.02194881
_cell_length_b   4.02194881
_cell_length_c   16.79685593
_cell_angle_alpha   83.12385559
_cell_angle_beta   83.12385559
_cell_angle_gamma   59.99998474
_symmetry_Int_Tables_number   1
_chemical_formula_structural   Cd4Te5
_chemical_formula_sum   'Cd4 Te5'
_cell_volume   233.04588382
_cell_formula_units_Z   1
loop_
 _symmetry_equiv_pos_site_id
 _symmetry_equiv_pos_as_xyz
  1  'x, y, z'
loop_
 _atom_site_type_symbol
 _atom_site_label
 _atom_site_symmetry_multiplicity
 _atom_site_fract_x
 _atom_site_fract_y
 _atom_site_fract_z
 _atom_site_occupancy
  Te  Te0  1  0.09782100  0.09782100  0.70653702  1
  Cd  Cd1  1  0.50000000  0.50000001  0.50000001  1
  Cd  Cd2  1  0.90217901  0.90217902  0.29346300  1
  Te  Te3  1  0.69862901  0.69862902  0.90411302  1
  Cd  Cd4  1  0.30137100  0.30137101  0.09588700  1
  Te  Te5  1  0.60167301  0.60167302  0.19498100  1
  Te  Te6  1  0.20075100  0.20075101  0.39774701  1
  Te  Te7  1  0.79924901  0.79924902  0.60225301  1
  Cd  Cd8  1  0.39832700  0.39832701  0.80501902  1
