# generated using pymatgen
data_P
_symmetry_space_group_name_H-M   'P 1'
_cell_length_a   3.24492002
_cell_length_b   3.24492002
_cell_length_c   11.62628746
_cell_angle_alpha   98.02186584
_cell_angle_beta   98.02186584
_cell_angle_gamma   90.00000000
_symmetry_Int_Tables_number   1
_chemical_formula_structural   P
_chemical_formula_sum   P10
_cell_volume   120.01133698
_cell_formula_units_Z   10
loop_
 _symmetry_equiv_pos_site_id
 _symmetry_equiv_pos_as_xyz
  1  'x, y, z'
loop_
 _atom_site_type_symbol
 _atom_site_label
 _atom_site_symmetry_multiplicity
 _atom_site_fract_x
 _atom_site_fract_y
 _atom_site_fract_z
 _atom_site_occupancy
  P  P0  1  0.39695700  0.39695700  0.79391401  1
  P  P1  1  0.79837000  0.79837000  0.59674001  1
  P  P2  1  0.20163000  0.20163000  0.40326001  1
  P  P3  1  0.60304300  0.60304300  0.20608601  1
  P  P4  1  0.00000000  0.00000000  0.00000000  1
  P  P5  1  0.10534100  0.10534100  0.21068200  1
  P  P6  1  0.50000000  0.50000000  0.00000000  1
  P  P7  1  0.89465900  0.89465900  0.78931801  1
  P  P8  1  0.29923200  0.29923200  0.59846401  1
  P  P9  1  0.70076800  0.70076800  0.40153601  1
