# generated using pymatgen
data_UGa15P2
_symmetry_space_group_name_H-M   'P 1'
_cell_length_a   5.68805504
_cell_length_b   8.15875816
_cell_length_c   8.15875721
_cell_angle_alpha   120.00000000
_cell_angle_beta   90.00000000
_cell_angle_gamma   90.00000000
_symmetry_Int_Tables_number   1
_chemical_formula_structural   UGa15P2
_chemical_formula_sum   'U1 Ga15 P2'
_cell_volume   327.90081149
_cell_formula_units_Z   1
loop_
 _symmetry_equiv_pos_site_id
 _symmetry_equiv_pos_as_xyz
  1  'x, y, z'
loop_
 _atom_site_type_symbol
 _atom_site_label
 _atom_site_symmetry_multiplicity
 _atom_site_fract_x
 _atom_site_fract_y
 _atom_site_fract_z
 _atom_site_occupancy
  U  U0  1  0.74999999  0.77591797  0.77591798  1
  Ga  Ga1  1  0.25000000  0.22408199  0.22408199  1
  Ga  Ga2  1  0.74999999  0.99999996  0.22408196  1
  Ga  Ga3  1  0.25000000  0.99999996  0.77591797  1
  Ga  Ga4  1  0.74999999  0.22408199  -0.00000001  1
  Ga  Ga5  1  0.25000000  0.77591797  -0.00000004  1
  Ga  Ga6  1  0.99999999  0.66666664  0.33333331  1
  Ga  Ga7  1  -0.00000000  0.33333332  0.66666667  1
  Ga  Ga8  1  0.50000000  0.33333332  0.66666667  1
  Ga  Ga9  1  0.50000000  0.66666664  0.33333331  1
  Ga  Ga10  1  0.74999999  0.40262898  0.40262899  1
  Ga  Ga11  1  0.25000000  0.59737097  0.59737098  1
  Ga  Ga12  1  0.74999999  0.99999996  0.59737097  1
  Ga  Ga13  1  0.25000000  0.99999996  0.40262896  1
  Ga  Ga14  1  0.74999999  0.59737097  -0.00000003  1
  Ga  Ga15  1  0.25000000  0.40262898  1.00000000  1
  P  P16  1  0.00000000  0.00000000  0.00000000  1
  P  P17  1  0.50000000  0.00000000  -0.00000000  1
