# generated using pymatgen
data_NaMoO3
_symmetry_space_group_name_H-M   'P 1'
_cell_length_a   5.51382113
_cell_length_b   5.51382113
_cell_length_c   5.60510015
_cell_angle_alpha   60.53725815
_cell_angle_beta   60.53725815
_cell_angle_gamma   59.99998474
_symmetry_Int_Tables_number   1
_chemical_formula_structural   NaMoO3
_chemical_formula_sum   'Na2 Mo2 O6'
_cell_volume   121.46554549
_cell_formula_units_Z   2
loop_
 _symmetry_equiv_pos_site_id
 _symmetry_equiv_pos_as_xyz
  1  'x, y, z'
loop_
 _atom_site_type_symbol
 _atom_site_label
 _atom_site_symmetry_multiplicity
 _atom_site_fract_x
 _atom_site_fract_y
 _atom_site_fract_z
 _atom_site_occupancy
  Na  Na0  1  0.72774499  0.72774501  0.81676503  1
  Mo  Mo1  1  0.98239999  0.98240002  0.05280004  1
  Mo  Mo2  1  0.48726299  0.48726301  0.53821102  1
  Na  Na3  1  0.21297800  0.21297800  0.36106601  1
  O  O4  1  0.81476400  0.25160600  0.24633902  1
  O  O5  1  0.68729099  0.81476402  0.24633903  1
  O  O6  1  0.25160599  0.68729101  0.24633902  1
  O  O7  1  0.76637400  0.31067401  0.72984802  1
  O  O8  1  0.31067400  0.19310400  0.72984801  1
  O  O9  1  0.19310398  0.76637401  0.72984802  1
