# generated using pymatgen
data_Cs4GaAu5Se3
_symmetry_space_group_name_H-M   'P 1'
_cell_length_a   7.02492619
_cell_length_b   7.02492619
_cell_length_c   10.86849213
_cell_angle_alpha   71.14473724
_cell_angle_beta   71.14473724
_cell_angle_gamma   60.00000000
_symmetry_Int_Tables_number   1
_chemical_formula_structural   Cs4GaAu5Se3
_chemical_formula_sum   'Cs4 Ga1 Au5 Se3'
_cell_volume   430.94281925
_cell_formula_units_Z   1
loop_
 _symmetry_equiv_pos_site_id
 _symmetry_equiv_pos_as_xyz
  1  'x, y, z'
loop_
 _atom_site_type_symbol
 _atom_site_label
 _atom_site_symmetry_multiplicity
 _atom_site_fract_x
 _atom_site_fract_y
 _atom_site_fract_z
 _atom_site_occupancy
  Cs  Cs0  1  0.81318104  0.81318099  0.56045693  1
  Cs  Cs1  1  0.68501804  0.68501799  0.94494594  1
  Cs  Cs2  1  0.31498202  0.31498200  0.05505397  1
  Cs  Cs3  1  0.18681901  0.18681900  0.43954298  1
  Ga  Ga4  1  0.44949702  0.44949699  0.65150896  1
  Au  Au5  1  0.55050303  0.55050299  0.34849095  1
  Se  Se6  1  0.78791004  0.78790999  0.23018593  1
  Au  Au7  1  0.80600602  0.21209000  0.76981396  1
  Se  Se8  1  0.19399404  0.78790999  0.23018596  1
  Au  Au9  1  0.21209004  0.80600599  0.76981395  1
  Se  Se10  1  0.78791001  0.19399400  0.23018596  1
  Au  Au11  1  0.00000000  0.00000000  0.00000000  1
  Au  Au12  1  0.21209001  0.21209000  0.76981398  1
