# generated using pymatgen
data_Tb5Cr3O12
_symmetry_space_group_name_H-M   'P 1'
_cell_length_a   5.27717829
_cell_length_b   5.70734024
_cell_length_c   7.53543711
_cell_angle_alpha   90.06301880
_cell_angle_beta   90.33811188
_cell_angle_gamma   90.64618683
_symmetry_Int_Tables_number   1
_chemical_formula_structural   Tb5Cr3O12
_chemical_formula_sum   'Tb5 Cr3 O12'
_cell_volume   226.93866818
_cell_formula_units_Z   1
loop_
 _symmetry_equiv_pos_site_id
 _symmetry_equiv_pos_as_xyz
  1  'x, y, z'
loop_
 _atom_site_type_symbol
 _atom_site_label
 _atom_site_symmetry_multiplicity
 _atom_site_fract_x
 _atom_site_fract_y
 _atom_site_fract_z
 _atom_site_occupancy
  Tb  Tb0  1  0.01730100  0.92073800  0.74659696  1
  Tb  Tb1  1  0.47555902  0.42198200  0.74741298  1
  Tb  Tb2  1  0.52444102  0.57801800  0.25258698  1
  Tb  Tb3  1  0.98269904  0.07926200  0.25340300  1
  Tb  Tb4  1  0.50000102  0.00000000  0.00000000  1
  Cr  Cr5  1  0.50000002  0.00000000  0.50000000  1
  Cr  Cr6  1  0.00000000  0.50000000  -0.00000002  1
  Cr  Cr7  1  0.00000000  0.50000000  0.49999998  1
  O  O8  1  0.79947604  0.81562300  0.05109997  1
  O  O9  1  0.30996202  0.68873400  0.55721697  1
  O  O10  1  0.69003803  0.31126600  0.44278299  1
  O  O11  1  0.20052401  0.18437700  0.94889999  1
  O  O12  1  0.29712502  0.68645500  0.94721297  1
  O  O13  1  0.81454504  0.80957800  0.44154597  1
  O  O14  1  0.18545501  0.19042200  0.55845399  1
  O  O15  1  0.70287503  0.31354500  0.05278699  1
  O  O16  1  0.60679403  0.03520700  0.74410100  1
  O  O17  1  0.11964201  0.46084100  0.25303598  1
  O  O18  1  0.39320602  0.96479300  0.25589896  1
  O  O19  1  0.88035704  0.53915900  0.74696398  1
