# generated using pymatgen
data_La4Sb5Pd2
_symmetry_space_group_name_H-M   'P 1'
_cell_length_a   4.64282179
_cell_length_b   7.53410006
_cell_length_c   9.07411194
_cell_angle_alpha   83.87054443
_cell_angle_beta   75.17735291
_cell_angle_gamma   72.05400085
_symmetry_Int_Tables_number   1
_chemical_formula_structural   La4Sb5Pd2
_chemical_formula_sum   'La4 Sb5 Pd2'
_cell_volume   291.78150096
_cell_formula_units_Z   1
loop_
 _symmetry_equiv_pos_site_id
 _symmetry_equiv_pos_as_xyz
  1  'x, y, z'
loop_
 _atom_site_type_symbol
 _atom_site_label
 _atom_site_symmetry_multiplicity
 _atom_site_fract_x
 _atom_site_fract_y
 _atom_site_fract_z
 _atom_site_occupancy
  La  La0  1  0.93745008  0.40280700  0.72229299  1
  La  La1  1  0.06255006  0.59719300  0.27770698  1
  La  La2  1  0.33150002  0.05278900  0.28421100  1
  La  La3  1  0.66850012  0.94721099  0.71578897  1
  Pd  Pd4  1  0.77283506  0.31367000  0.14065999  1
  Pd  Pd5  1  0.22716508  0.68633000  0.85933998  1
  Sb  Sb6  1  0.65361609  0.67063600  0.02213198  1
  Sb  Sb7  1  0.34638405  0.32936400  0.97786799  1
  Sb  Sb8  1  0.62667106  0.30462600  0.44203199  1
  Sb  Sb9  1  0.37332908  0.69537400  0.55796798  1
  Sb  Sb10  1  0.00000000  0.00000000  0.00000000  1
