# generated using pymatgen
data_Te
_symmetry_space_group_name_H-M   'P 1'
_cell_length_a   7.41247177
_cell_length_b   9.23073101
_cell_length_c   9.23417759
_cell_angle_alpha   108.49766541
_cell_angle_beta   97.20642090
_cell_angle_gamma   105.89479065
_symmetry_Int_Tables_number   1
_chemical_formula_structural   Te
_chemical_formula_sum   Te17
_cell_volume   560.44070179
_cell_formula_units_Z   17
loop_
 _symmetry_equiv_pos_site_id
 _symmetry_equiv_pos_as_xyz
  1  'x, y, z'
loop_
 _atom_site_type_symbol
 _atom_site_label
 _atom_site_symmetry_multiplicity
 _atom_site_fract_x
 _atom_site_fract_y
 _atom_site_fract_z
 _atom_site_occupancy
  Te  Te0  1  0.97678606  0.30250199  0.09729400  1
  Te  Te1  1  0.02321406  0.69749798  0.90270599  1
  Te  Te2  1  0.63103909  0.85740698  0.81688899  1
  Te  Te3  1  0.36896102  0.14259300  0.18311100  1
  Te  Te4  1  0.12455501  0.04381300  0.75148299  1
  Te  Te5  1  0.87544511  0.95618698  0.24851700  1
  Te  Te6  1  0.00000000  0.00000000  0.00000000  1
  Te  Te7  1  0.55054703  0.17786700  0.91513199  1
  Te  Te8  1  0.44945308  0.82213298  0.08486800  1
  Te  Te9  1  0.74314110  0.91494898  0.54015599  1
  Te  Te10  1  0.25685902  0.08505100  0.45984399  1
  Te  Te11  1  0.08825003  0.37046199  0.82713699  1
  Te  Te12  1  0.91175008  0.62953798  0.17286300  1
  Te  Te13  1  0.20301607  0.73542198  0.64439499  1
  Te  Te14  1  0.79698405  0.26457799  0.35560499  1
  Te  Te15  1  0.63582507  0.53627599  0.72289399  1
  Te  Te16  1  0.36417505  0.46372399  0.27710600  1
