# generated using pymatgen
data_In2GaSe4
_symmetry_space_group_name_H-M   'P 1'
_cell_length_a   7.77414989
_cell_length_b   7.77414989
_cell_length_c   7.77414989
_cell_angle_alpha   60.00000000
_cell_angle_beta   60.00000000
_cell_angle_gamma   60.00000000
_symmetry_Int_Tables_number   1
_chemical_formula_structural   In2GaSe4
_chemical_formula_sum   'In4 Ga2 Se8'
_cell_volume   332.23373792
_cell_formula_units_Z   2
loop_
 _symmetry_equiv_pos_site_id
 _symmetry_equiv_pos_as_xyz
  1  'x, y, z'
loop_
 _atom_site_type_symbol
 _atom_site_label
 _atom_site_symmetry_multiplicity
 _atom_site_fract_x
 _atom_site_fract_y
 _atom_site_fract_z
 _atom_site_occupancy
  In  In0  1  0.87499998  0.87499998  0.87499998  1
  In  In1  1  0.37499999  0.87499998  0.87499998  1
  In  In2  1  0.87499998  0.87499998  0.37499999  1
  In  In3  1  0.87499998  0.37499999  0.87499998  1
  Ga  Ga4  1  0.25000000  0.25000000  0.25000000  1
  Ga  Ga5  1  0.49999999  0.49999999  0.49999999  1
  Se  Se6  1  0.63095899  0.10712100  0.63095999  1
  Se  Se7  1  0.11904100  0.11904000  0.11904000  1
  Se  Se8  1  0.11904100  0.64287899  0.11904000  1
  Se  Se9  1  0.10712000  0.63095999  0.63095999  1
  Se  Se10  1  0.63095899  0.63095999  0.63095999  1
  Se  Se11  1  0.11904100  0.11904000  0.64287899  1
  Se  Se12  1  0.64287999  0.11904000  0.11904000  1
  Se  Se13  1  0.63095899  0.63095999  0.10712100  1
