# generated using pymatgen
data_BaMg6O12
_symmetry_space_group_name_H-M   'P 1'
_cell_length_a   6.11471701
_cell_length_b   6.11471701
_cell_length_c   6.11471701
_cell_angle_alpha   104.60375977
_cell_angle_beta   104.60375977
_cell_angle_gamma   104.60376740
_symmetry_Int_Tables_number   1
_chemical_formula_structural   BaMg6O12
_chemical_formula_sum   'Ba1 Mg6 O12'
_cell_volume   201.55981618
_cell_formula_units_Z   1
loop_
 _symmetry_equiv_pos_site_id
 _symmetry_equiv_pos_as_xyz
  1  'x, y, z'
loop_
 _atom_site_type_symbol
 _atom_site_label
 _atom_site_symmetry_multiplicity
 _atom_site_fract_x
 _atom_site_fract_y
 _atom_site_fract_z
 _atom_site_occupancy
  Ba  Ba0  1  0.00000000  0.00000000  0.00000000  1
  O  O1  1  0.50000012  0.86766708  0.13233311  1
  O  O2  1  0.53485211  0.81228507  0.53485210  1
  O  O3  1  0.13233306  0.50000004  0.86766704  1
  O  O4  1  0.81228510  0.53485205  0.53485209  1
  O  O5  1  0.18771506  0.46514804  0.46514804  1
  O  O6  1  0.46514804  0.18771502  0.46514803  1
  O  O7  1  0.46514807  0.46514804  0.18771507  1
  O  O8  1  0.86766710  0.50000004  0.13233309  1
  O  O9  1  0.50000004  0.13233301  0.86766702  1
  O  O10  1  0.13233310  0.86766708  0.50000008  1
  O  O11  1  0.53485208  0.53485205  0.81228506  1
  O  O12  1  0.86766706  0.13233301  0.50000005  1
  Mg  Mg13  1  0.23170904  0.23170902  0.64963002  1
  Mg  Mg14  1  0.35037010  0.76829107  0.76829108  1
  Mg  Mg15  1  0.76829112  0.76829107  0.35037011  1
  Mg  Mg16  1  0.76829108  0.35037003  0.76829106  1
  Mg  Mg17  1  0.23170908  0.64963006  0.23170907  1
  Mg  Mg18  1  0.64963006  0.23170902  0.23170905  1
