# generated using pymatgen
data_La2Cu2O5
_symmetry_space_group_name_H-M   'P 1'
_cell_length_a   3.79030609
_cell_length_b   5.72467613
_cell_length_c   10.15231323
_cell_angle_alpha   90.00000000
_cell_angle_beta   90.00000000
_cell_angle_gamma   90.00000000
_symmetry_Int_Tables_number   1
_chemical_formula_structural   La2Cu2O5
_chemical_formula_sum   'La4 Cu4 O10'
_cell_volume   220.28768252
_cell_formula_units_Z   2
loop_
 _symmetry_equiv_pos_site_id
 _symmetry_equiv_pos_as_xyz
  1  'x, y, z'
loop_
 _atom_site_type_symbol
 _atom_site_label
 _atom_site_symmetry_multiplicity
 _atom_site_fract_x
 _atom_site_fract_y
 _atom_site_fract_z
 _atom_site_occupancy
  La  La0  1  0.49999999  0.15010100  0.85110798  1
  La  La1  1  0.49999999  0.84989898  0.14889200  1
  La  La2  1  0.49999999  0.65010098  0.64889199  1
  La  La3  1  0.49999999  0.34989899  0.35110799  1
  Cu  Cu4  1  0.00000000  0.18854300  0.59484599  1
  Cu  Cu5  1  0.00000000  0.81145698  0.40515399  1
  Cu  Cu6  1  0.00000000  0.68854298  0.90515398  1
  Cu  Cu7  1  0.00000000  0.31145699  0.09484600  1
  O  O8  1  0.00000000  0.49999999  0.49999999  1
  O  O9  1  0.00000000  0.00000000  0.00000000  1
  O  O10  1  0.00000000  0.91012698  0.70721198  1
  O  O11  1  0.00000000  0.08987300  0.29278799  1
  O  O12  1  0.00000000  0.41012699  0.79278798  1
  O  O13  1  0.00000000  0.58987299  0.20721200  1
  O  O14  1  0.49999999  0.22612599  0.60140299  1
  O  O15  1  0.49999999  0.77387398  0.39859699  1
  O  O16  1  0.49999999  0.27387399  0.10140300  1
  O  O17  1  0.49999999  0.72612598  0.89859698  1
