# generated using pymatgen
data_MgSi3O5
_symmetry_space_group_name_H-M   'P 1'
_cell_length_a   5.41962528
_cell_length_b   5.41962528
_cell_length_c   7.75987482
_cell_angle_alpha   106.36164856
_cell_angle_beta   106.36164856
_cell_angle_gamma   98.59556580
_symmetry_Int_Tables_number   1
_chemical_formula_structural   MgSi3O5
_chemical_formula_sum   'Mg2 Si6 O10'
_cell_volume   203.25457854
_cell_formula_units_Z   2
loop_
 _symmetry_equiv_pos_site_id
 _symmetry_equiv_pos_as_xyz
  1  'x, y, z'
loop_
 _atom_site_type_symbol
 _atom_site_label
 _atom_site_symmetry_multiplicity
 _atom_site_fract_x
 _atom_site_fract_y
 _atom_site_fract_z
 _atom_site_occupancy
  Mg  Mg0  1  0.49999999  0.00000000  0.00000002  1
  Mg  Mg1  1  0.00000006  0.50000001  0.50000002  1
  Si  Si2  1  0.03210502  0.13534100  0.20409301  1
  Si  Si3  1  0.86465911  0.96789502  0.29590711  1
  Si  Si4  1  0.96789509  0.86465901  0.79590709  1
  Si  Si5  1  0.13534100  0.03210500  0.70409299  1
  Si  Si6  1  0.58731904  0.41268101  0.75000004  1
  Si  Si7  1  0.41268107  0.58731901  0.25000006  1
  O  O8  1  0.71654503  0.31048600  0.57912504  1
  O  O9  1  0.68951402  0.28345500  0.92087503  1
  O  O10  1  0.28345508  0.68951401  0.42087505  1
  O  O11  1  0.31048608  0.71654501  0.07912507  1
  O  O12  1  0.68718008  0.74687901  0.84504106  1
  O  O13  1  0.25312104  0.31282000  0.65495902  1
  O  O14  1  0.31282003  0.25312100  0.15495903  1
  O  O15  1  0.74687907  0.68718001  0.34504108  1
  O  O16  1  0.12327311  0.87672701  0.75000005  1
  O  O17  1  0.87672700  0.12327300  0.25000004  1
