# generated using pymatgen
data_GaTe2
_symmetry_space_group_name_H-M   'P 1'
_cell_length_a   3.99820948
_cell_length_b   4.16261292
_cell_length_c   4.16261292
_cell_angle_alpha   71.60312653
_cell_angle_beta   61.29811478
_cell_angle_gamma   61.29811478
_symmetry_Int_Tables_number   1
_chemical_formula_structural   GaTe2
_chemical_formula_sum   'Ga1 Te2'
_cell_volume   52.97389128
_cell_formula_units_Z   1
loop_
 _symmetry_equiv_pos_site_id
 _symmetry_equiv_pos_as_xyz
  1  'x, y, z'
loop_
 _atom_site_type_symbol
 _atom_site_label
 _atom_site_symmetry_multiplicity
 _atom_site_fract_x
 _atom_site_fract_y
 _atom_site_fract_z
 _atom_site_occupancy
  Ga  Ga0  1  0.45960901  0.54039100  0.54039099  1
  Te  Te1  1  0.95919599  0.17402000  0.90758801  1
  Te  Te2  1  0.95919601  0.90758800  0.17401998  1
