# generated using pymatgen
data_MgSiIr
_symmetry_space_group_name_H-M   'P 1'
_cell_length_a   3.74312210
_cell_length_b   6.32793617
_cell_length_c   7.16439915
_cell_angle_alpha   90.00000000
_cell_angle_beta   90.00000000
_cell_angle_gamma   90.00000000
_symmetry_Int_Tables_number   1
_chemical_formula_structural   MgSiIr
_chemical_formula_sum   'Mg4 Si4 Ir4'
_cell_volume   169.69766146
_cell_formula_units_Z   4
loop_
 _symmetry_equiv_pos_site_id
 _symmetry_equiv_pos_as_xyz
  1  'x, y, z'
loop_
 _atom_site_type_symbol
 _atom_site_label
 _atom_site_symmetry_multiplicity
 _atom_site_fract_x
 _atom_site_fract_y
 _atom_site_fract_z
 _atom_site_occupancy
  Mg  Mg0  1  0.24999999  0.02041900  0.18103600  1
  Mg  Mg1  1  0.24999999  0.52041899  0.31896399  1
  Mg  Mg2  1  0.74999998  0.97958097  0.81896398  1
  Mg  Mg3  1  0.74999998  0.47958099  0.68103599  1
  Ir  Ir4  1  0.24999999  0.14233000  0.56380699  1
  Ir  Ir5  1  0.24999999  0.64232998  0.93619298  1
  Ir  Ir6  1  0.74999998  0.85766998  0.43619299  1
  Ir  Ir7  1  0.74999998  0.35766999  0.06380700  1
  Si  Si8  1  0.24999999  0.77170998  0.61942199  1
  Si  Si9  1  0.24999999  0.27170999  0.88057798  1
  Si  Si10  1  0.74999998  0.22828999  0.38057799  1
  Si  Si11  1  0.74999998  0.72828998  0.11942200  1
