# generated using pymatgen
data_LiGa5F12
_symmetry_space_group_name_H-M   'P 1'
_cell_length_a   4.55332899
_cell_length_b   4.55332899
_cell_length_c   8.85673237
_cell_angle_alpha   90.00000000
_cell_angle_beta   90.00000000
_cell_angle_gamma   90.00000000
_symmetry_Int_Tables_number   1
_chemical_formula_structural   LiGa5F12
_chemical_formula_sum   'Li1 Ga5 F12'
_cell_volume   183.62490424
_cell_formula_units_Z   1
loop_
 _symmetry_equiv_pos_site_id
 _symmetry_equiv_pos_as_xyz
  1  'x, y, z'
loop_
 _atom_site_type_symbol
 _atom_site_label
 _atom_site_symmetry_multiplicity
 _atom_site_fract_x
 _atom_site_fract_y
 _atom_site_fract_z
 _atom_site_occupancy
  Ga  Ga0  1  0.00000000  0.00000000  0.00000000  1
  Ga  Ga1  1  0.50000000  0.50000000  0.49999998  1
  Li  Li2  1  0.00000000  0.00000000  0.33395499  1
  Ga  Ga3  1  0.00000000  0.00000000  0.66604497  1
  Ga  Ga4  1  0.50000000  0.50000000  0.16604499  1
  Ga  Ga5  1  0.50000000  0.50000000  0.83395497  1
  F  F6  1  0.19462800  0.80537200  0.16043999  1
  F  F7  1  0.19977900  0.80022100  0.49999998  1
  F  F8  1  0.19462800  0.80537200  0.83955997  1
  F  F9  1  0.30022100  0.30022100  -0.00000000  1
  F  F10  1  0.30537200  0.30537200  0.33955999  1
  F  F11  1  0.30537200  0.30537200  0.66043997  1
  F  F12  1  0.69977900  0.69977900  0.00000000  1
  F  F13  1  0.69462800  0.69462800  0.33955999  1
  F  F14  1  0.69462800  0.69462800  0.66043997  1
  F  F15  1  0.80537200  0.19462800  0.16043999  1
  F  F16  1  0.80022100  0.19977900  0.49999998  1
  F  F17  1  0.80537200  0.19462800  0.83955997  1
