# generated using pymatgen
data_LiBPN
_symmetry_space_group_name_H-M   'P 1'
_cell_length_a   3.36717296
_cell_length_b   3.36717296
_cell_length_c   7.16759586
_cell_angle_alpha   90.00000000
_cell_angle_beta   90.00000000
_cell_angle_gamma   90.00000000
_symmetry_Int_Tables_number   1
_chemical_formula_structural   LiBPN
_chemical_formula_sum   'Li2 B2 P2 N2'
_cell_volume   81.26515341
_cell_formula_units_Z   2
loop_
 _symmetry_equiv_pos_site_id
 _symmetry_equiv_pos_as_xyz
  1  'x, y, z'
loop_
 _atom_site_type_symbol
 _atom_site_label
 _atom_site_symmetry_multiplicity
 _atom_site_fract_x
 _atom_site_fract_y
 _atom_site_fract_z
 _atom_site_occupancy
  Li  Li0  1  0.50000001  0.00000000  0.65440101  1
  Li  Li1  1  0.00000000  0.50000001  0.34559901  1
  P  P2  1  0.50000001  0.50000001  -0.00000000  1
  P  P3  1  0.00000000  0.00000000  0.00000000  1
  B  B4  1  0.00000000  0.50000001  0.84966502  1
  N  N5  1  0.50000001  0.00000000  0.34701301  1
  B  B6  1  0.50000001  0.00000000  0.15033500  1
  N  N7  1  0.00000000  0.50000001  0.65298701  1
