# generated using pymatgen
data_MoWI3Cl5
_symmetry_space_group_name_H-M   'P 1'
_cell_length_a   9.95681381
_cell_length_b   11.05154133
_cell_length_c   9.95681381
_cell_angle_alpha   116.77395630
_cell_angle_beta   90.00000000
_cell_angle_gamma   116.77395630
_symmetry_Int_Tables_number   1
_chemical_formula_structural   MoWI3Cl5
_chemical_formula_sum   'Mo1 W1 I3 Cl5'
_cell_volume   844.52363705
_cell_formula_units_Z   1
loop_
 _symmetry_equiv_pos_site_id
 _symmetry_equiv_pos_as_xyz
  1  'x, y, z'
loop_
 _atom_site_type_symbol
 _atom_site_label
 _atom_site_symmetry_multiplicity
 _atom_site_fract_x
 _atom_site_fract_y
 _atom_site_fract_z
 _atom_site_occupancy
  Mo  Mo0  1  0.00000000  0.00000000  0.00000000  1
  W  W1  1  0.25000005  0.50000005  0.75000006  1
  Cl  Cl2  1  0.48463405  0.50736405  0.75368206  1
  Cl  Cl3  1  0.02273005  0.50736405  0.75368206  1
  Cl  Cl4  1  0.00368200  0.00736400  0.23463401  1
  I  I5  1  0.22727009  0.99263610  0.99631811  1
  I  I6  1  0.76536610  0.99263610  0.99631811  1
  I  I7  1  0.00368200  0.00736400  0.77273002  1
  Cl  Cl8  1  0.24631805  0.49263605  0.51536605  1
  Cl  Cl9  1  0.24631805  0.49263605  0.97727006  1
