# generated using pymatgen
data_CsCu4F7
_symmetry_space_group_name_H-M   'P 1'
_cell_length_a   5.34714603
_cell_length_b   5.34714556
_cell_length_c   9.23110962
_cell_angle_alpha   90.00000000
_cell_angle_beta   90.00000000
_cell_angle_gamma   120.00000000
_symmetry_Int_Tables_number   1
_chemical_formula_structural   CsCu4F7
_chemical_formula_sum   'Cs1 Cu4 F7'
_cell_volume   228.57492792
_cell_formula_units_Z   1
loop_
 _symmetry_equiv_pos_site_id
 _symmetry_equiv_pos_as_xyz
  1  'x, y, z'
loop_
 _atom_site_type_symbol
 _atom_site_label
 _atom_site_symmetry_multiplicity
 _atom_site_fract_x
 _atom_site_fract_y
 _atom_site_fract_z
 _atom_site_occupancy
  Cs  Cs0  1  0.00000000  0.00000000  0.50000002  1
  Cu  Cu1  1  0.66666665  0.33333334  0.20779501  1
  Cu  Cu2  1  0.33333331  0.66666668  0.20779501  1
  Cu  Cu3  1  0.33333331  0.66666668  0.79220503  1
  Cu  Cu4  1  0.66666665  0.33333334  0.79220503  1
  F  F5  1  0.00000000  0.00000000  0.00000000  1
  F  F6  1  0.50000000  0.00000000  0.68412503  1
  F  F7  1  0.99999998  0.50000001  0.31587501  1
  F  F8  1  0.50000000  0.00000000  0.31587501  1
  F  F9  1  0.49999998  0.50000001  0.31587501  1
  F  F10  1  0.99999998  0.50000001  0.68412503  1
  F  F11  1  0.49999998  0.50000001  0.68412503  1
