# generated using pymatgen
data_Ga9O10
_symmetry_space_group_name_H-M   'P 1'
_cell_length_a   6.27032709
_cell_length_b   6.27032709
_cell_length_c   6.27032709
_cell_angle_alpha   109.47122192
_cell_angle_beta   109.47122192
_cell_angle_gamma   109.47122192
_symmetry_Int_Tables_number   1
_chemical_formula_structural   Ga9O10
_chemical_formula_sum   'Ga9 O10'
_cell_volume   189.77922886
_cell_formula_units_Z   1
loop_
 _symmetry_equiv_pos_site_id
 _symmetry_equiv_pos_as_xyz
  1  'x, y, z'
loop_
 _atom_site_type_symbol
 _atom_site_label
 _atom_site_symmetry_multiplicity
 _atom_site_fract_x
 _atom_site_fract_y
 _atom_site_fract_z
 _atom_site_occupancy
  Ga  Ga0  1  0.00000003  0.50000001  0.50000002  1
  Ga  Ga1  1  0.50000003  0.50000001  1.00000003  1
  Ga  Ga2  1  0.50000006  1.00000003  0.50000006  1
  Ga  Ga3  1  0.50000003  0.50000001  0.50000003  1
  Ga  Ga4  1  0.00000003  0.50000001  0.00000003  1
  Ga  Ga5  1  0.50000006  1.00000003  1.00000006  1
  Ga  Ga6  1  0.00000000  0.00000000  0.50000000  1
  Ga  Ga7  1  0.87040304  0.68660802  0.18379606  1
  O  O8  1  0.12959702  0.31339201  0.81620401  1
  O  O9  1  0.49718802  0.31339301  0.18379503  1
  O  O10  1  0.81620503  0.50281202  0.68660804  1
  O  O11  1  0.68660705  0.81620402  0.50281206  1
  Ga  Ga12  1  0.68660701  0.18379501  0.87040202  1
  O  O13  1  0.81620501  0.12959800  0.31339302  1
  O  O14  1  0.31339301  0.18379601  0.49718801  1
  O  O15  1  0.50281204  0.68660702  0.81620504  1
  O  O16  1  0.18379503  0.49718801  0.31339203  1
  O  O17  1  0.31339305  0.81620502  0.12959805  1
  O  O18  1  0.18379506  0.87040203  0.68660705  1
