# generated using pymatgen
data_Bi2Te
_symmetry_space_group_name_H-M   'P 1'
_cell_length_a   3.51568007
_cell_length_b   3.51567984
_cell_length_c   16.03381538
_cell_angle_alpha   90.00000000
_cell_angle_beta   90.00000000
_cell_angle_gamma   120.00000000
_symmetry_Int_Tables_number   1
_chemical_formula_structural   Bi2Te
_chemical_formula_sum   'Bi4 Te2'
_cell_volume   171.62722328
_cell_formula_units_Z   2
loop_
 _symmetry_equiv_pos_site_id
 _symmetry_equiv_pos_as_xyz
  1  'x, y, z'
loop_
 _atom_site_type_symbol
 _atom_site_label
 _atom_site_symmetry_multiplicity
 _atom_site_fract_x
 _atom_site_fract_y
 _atom_site_fract_z
 _atom_site_occupancy
  Te  Te0  1  0.00000000  0.00000000  0.65930498  1
  Te  Te1  1  0.00000000  0.00000000  0.34069499  1
  Bi  Bi2  1  0.66666664  0.33333333  0.18515100  1
  Bi  Bi3  1  0.00000000  0.00000000  0.00000000  1
  Bi  Bi4  1  0.66666664  0.33333333  0.81484898  1
  Bi  Bi5  1  0.66666664  0.33333333  0.49999999  1
