# generated using pymatgen
data_HoGeAu
_symmetry_space_group_name_H-M   'P 1'
_cell_length_a   4.53272390
_cell_length_b   5.61351538
_cell_length_c   5.85522890
_cell_angle_alpha   80.09919739
_cell_angle_beta   67.22792053
_cell_angle_gamma   66.18824005
_symmetry_Int_Tables_number   1
_chemical_formula_structural   HoGeAu
_chemical_formula_sum   'Ho2 Ge2 Au2'
_cell_volume   125.65537960
_cell_formula_units_Z   2
loop_
 _symmetry_equiv_pos_site_id
 _symmetry_equiv_pos_as_xyz
  1  'x, y, z'
loop_
 _atom_site_type_symbol
 _atom_site_label
 _atom_site_symmetry_multiplicity
 _atom_site_fract_x
 _atom_site_fract_y
 _atom_site_fract_z
 _atom_site_occupancy
  Ho  Ho0  1  0.45047706  0.79450999  0.30453596  1
  Ho  Ho1  1  0.54952302  0.20549000  0.69546400  1
  Au  Au2  1  0.16883205  0.76968599  0.89264995  1
  Ge  Ge3  1  0.83116802  0.23031400  0.10735001  1
  Ge  Ge4  1  0.83419605  0.60650999  0.72509798  1
  Au  Au5  1  0.16580403  0.39348999  0.27490198  1
