# generated using pymatgen
data_Li3V4F13
_symmetry_space_group_name_H-M   'P 1'
_cell_length_a   5.25072050
_cell_length_b   5.64047146
_cell_length_c   7.68399620
_cell_angle_alpha   95.23336029
_cell_angle_beta   89.97469330
_cell_angle_gamma   90.00572968
_symmetry_Int_Tables_number   1
_chemical_formula_structural   Li3V4F13
_chemical_formula_sum   'Li3 V4 F13'
_cell_volume   226.62470269
_cell_formula_units_Z   1
loop_
 _symmetry_equiv_pos_site_id
 _symmetry_equiv_pos_as_xyz
  1  'x, y, z'
loop_
 _atom_site_type_symbol
 _atom_site_label
 _atom_site_symmetry_multiplicity
 _atom_site_fract_x
 _atom_site_fract_y
 _atom_site_fract_z
 _atom_site_occupancy
  Li  Li0  1  0.49943493  0.93383802  0.78522695  1
  Li  Li1  1  0.00006597  0.43033101  0.78661796  1
  Li  Li2  1  0.49921793  0.93226002  0.28255496  1
  F  F3  1  0.00378794  0.99258602  0.99257094  1
  V  V4  1  0.49753996  0.51241501  0.50353297  1
  V  V5  1  0.99739898  0.00598200  0.49989998  1
  V  V6  1  0.50318696  0.49899901  0.99445295  1
  V  V7  1  0.00063397  0.41605401  0.28719398  1
  F  F8  1  0.30683698  0.22326300  0.41808098  1
  F  F9  1  0.12395099  0.03705700  0.73866798  1
  F  F10  1  0.31920894  0.84569002  0.04359197  1
  F  F11  1  0.19341295  0.71882902  0.41599597  1
  F  F12  1  0.80263394  0.71838402  0.91786895  1
  F  F13  1  0.37253896  0.53744401  0.74011496  1
  F  F14  1  0.62999095  0.53732701  0.23707197  1
  F  F15  1  0.17785497  0.34879301  0.04781899  1
  F  F16  1  0.82268596  0.34737901  0.54121797  1
  F  F17  1  0.69259697  0.22186300  0.91758996  1
  F  F18  1  0.87565498  0.04009800  0.23470498  1
  F  F19  1  0.68136693  0.84220602  0.54482595  1
