# generated using pymatgen
data_GaP
_symmetry_space_group_name_H-M   'P 1'
_cell_length_a   3.89215207
_cell_length_b   3.89215207
_cell_length_c   14.02683258
_cell_angle_alpha   97.97491455
_cell_angle_beta   97.97491455
_cell_angle_gamma   90.00000000
_symmetry_Int_Tables_number   1
_chemical_formula_structural   GaP
_chemical_formula_sum   'Ga5 P5'
_cell_volume   208.36005603
_cell_formula_units_Z   5
loop_
 _symmetry_equiv_pos_site_id
 _symmetry_equiv_pos_as_xyz
  1  'x, y, z'
loop_
 _atom_site_type_symbol
 _atom_site_label
 _atom_site_symmetry_multiplicity
 _atom_site_fract_x
 _atom_site_fract_y
 _atom_site_fract_z
 _atom_site_occupancy
  P  P0  1  0.30347899  0.30347899  0.60695800  1
  P  P1  1  0.69652099  0.69652099  0.39304200  1
  P  P2  1  0.09919100  0.09919100  0.19838200  1
  P  P3  1  0.49999999  0.49999999  0.99999999  1
  P  P4  1  0.90080899  0.90080898  0.80161800  1
  Ga  Ga5  1  0.25000000  0.74999999  0.50000000  1
  Ga  Ga6  1  0.64807999  0.14808000  0.29616000  1
  Ga  Ga7  1  0.04974700  0.54974699  0.09949400  1
  Ga  Ga8  1  0.45025299  0.95025298  0.90050599  1
  Ga  Ga9  1  0.85191999  0.35191999  0.70384000  1
