# generated using pymatgen
data_Ba3Ge2Se5
_symmetry_space_group_name_H-M   'P 1'
_cell_length_a   3.74679089
_cell_length_b   6.21106386
_cell_length_c   11.59350586
_cell_angle_alpha   90.00000000
_cell_angle_beta   90.00000000
_cell_angle_gamma   90.00000000
_symmetry_Int_Tables_number   1
_chemical_formula_structural   Ba3Ge2Se5
_chemical_formula_sum   'Ba3 Ge2 Se5'
_cell_volume   269.79893788
_cell_formula_units_Z   1
loop_
 _symmetry_equiv_pos_site_id
 _symmetry_equiv_pos_as_xyz
  1  'x, y, z'
loop_
 _atom_site_type_symbol
 _atom_site_label
 _atom_site_symmetry_multiplicity
 _atom_site_fract_x
 _atom_site_fract_y
 _atom_site_fract_z
 _atom_site_occupancy
  Ba  Ba0  1  0.00000000  0.61052401  0.15320800  1
  Se  Se1  1  0.00000000  0.38947601  0.84679201  1
  Ba  Ba2  1  0.00000000  0.11052400  0.34679200  1
  Se  Se3  1  0.00000000  0.88947602  0.65320801  1
  Ge  Ge4  1  0.00000000  0.00000000  0.00000000  1
  Ge  Ge5  1  0.00000000  0.50000001  0.50000001  1
  Se  Se6  1  0.50000002  0.67577302  0.38951600  1
  Se  Se7  1  0.50000002  0.32422701  0.61048401  1
  Se  Se8  1  0.50000002  0.17577300  0.11048400  1
  Ba  Ba9  1  0.50000002  0.82422702  0.88951601  1
