# generated using pymatgen
data_Au
_symmetry_space_group_name_H-M   'P 1'
_cell_length_a   3.79449701
_cell_length_b   3.83901811
_cell_length_c   7.72109556
_cell_angle_alpha   75.60497284
_cell_angle_beta   90.00000000
_cell_angle_gamma   90.00000000
_symmetry_Int_Tables_number   1
_chemical_formula_structural   Au
_chemical_formula_sum   Au6
_cell_volume   108.94314143
_cell_formula_units_Z   6
loop_
 _symmetry_equiv_pos_site_id
 _symmetry_equiv_pos_as_xyz
  1  'x, y, z'
loop_
 _atom_site_type_symbol
 _atom_site_label
 _atom_site_symmetry_multiplicity
 _atom_site_fract_x
 _atom_site_fract_y
 _atom_site_fract_z
 _atom_site_occupancy
  Au  Au0  1  0.75000000  0.10414600  0.79170801  1
  Au  Au1  1  0.25000000  0.89585399  0.20829198  1
  Au  Au2  1  0.75000000  0.43903999  0.12191999  1
  Au  Au3  1  0.25000000  0.56095999  0.87808000  1
  Au  Au4  1  0.25000000  0.25017400  0.49965200  1
  Au  Au5  1  0.75000000  0.74982599  0.50034799  1
