# generated using pymatgen
data_GaCo3
_symmetry_space_group_name_H-M   'P 1'
_cell_length_a   4.11054277
_cell_length_b   5.08568001
_cell_length_c   5.08568001
_cell_angle_alpha   120.00000000
_cell_angle_beta   90.00000000
_cell_angle_gamma   90.00000000
_symmetry_Int_Tables_number   1
_chemical_formula_structural   GaCo3
_chemical_formula_sum   'Ga2 Co6'
_cell_volume   92.07206107
_cell_formula_units_Z   2
loop_
 _symmetry_equiv_pos_site_id
 _symmetry_equiv_pos_as_xyz
  1  'x, y, z'
loop_
 _atom_site_type_symbol
 _atom_site_label
 _atom_site_symmetry_multiplicity
 _atom_site_fract_x
 _atom_site_fract_y
 _atom_site_fract_z
 _atom_site_occupancy
  Co  Co0  1  0.25000001  0.66666666  0.33333332  1
  Co  Co1  1  0.75000004  0.33333333  0.66666665  1
  Co  Co2  1  0.75000004  0.83430399  0.16569499  1
  Co  Co3  1  0.75000004  0.33139100  0.16569499  1
  Ga  Ga4  1  0.75000004  0.83430399  0.66860798  1
  Co  Co5  1  0.25000001  0.16569600  0.83430499  1
  Co  Co6  1  0.25000001  0.66860900  0.83430498  1
  Ga  Ga7  1  0.25000001  0.16569600  0.33139199  1
