# generated using pymatgen
data_BaPr6O8
_symmetry_space_group_name_H-M   'P 1'
_cell_length_a   3.25861001
_cell_length_b   9.11311436
_cell_length_c   9.11311436
_cell_angle_alpha   120.00000000
_cell_angle_beta   90.00000000
_cell_angle_gamma   90.00000000
_symmetry_Int_Tables_number   1
_chemical_formula_structural   BaPr6O8
_chemical_formula_sum   'Ba1 Pr6 O8'
_cell_volume   234.36710701
_cell_formula_units_Z   1
loop_
 _symmetry_equiv_pos_site_id
 _symmetry_equiv_pos_as_xyz
  1  'x, y, z'
loop_
 _atom_site_type_symbol
 _atom_site_label
 _atom_site_symmetry_multiplicity
 _atom_site_fract_x
 _atom_site_fract_y
 _atom_site_fract_z
 _atom_site_occupancy
  Ba  Ba0  1  0.50000000  0.00000000  -0.00000000  1
  Pr  Pr1  1  0.25068600  0.88529099  0.37605506  1
  Pr  Pr2  1  0.25068600  0.49076399  0.11470903  1
  Pr  Pr3  1  0.25068600  0.62394499  0.50923605  1
  Pr  Pr4  1  0.74931400  0.11470900  0.62394503  1
  Pr  Pr5  1  0.74931400  0.50923599  0.88529106  1
  Pr  Pr6  1  0.74931400  0.37605499  0.49076404  1
  O  O7  1  0.24973000  0.33333333  0.66666671  1
  O  O8  1  0.75027000  0.66666666  0.33333338  1
  O  O9  1  0.24838800  0.70837699  0.05013504  1
  O  O10  1  0.24838800  0.34175800  0.29162303  1
  O  O11  1  0.24838800  0.94986499  0.65824207  1
  O  O12  1  0.75161200  0.29162300  0.94986505  1
  O  O13  1  0.75161200  0.65824199  0.70837706  1
  O  O14  1  0.75161200  0.05013500  0.34175801  1
