# generated using pymatgen
data_In2Au
_symmetry_space_group_name_H-M   'P 1'
_cell_length_a   4.70036411
_cell_length_b   4.70036411
_cell_length_c   7.43229198
_cell_angle_alpha   90.00000000
_cell_angle_beta   90.00000000
_cell_angle_gamma   120.00000000
_symmetry_Int_Tables_number   1
_chemical_formula_structural   In2Au
_chemical_formula_sum   'In4 Au2'
_cell_volume   142.20550150
_cell_formula_units_Z   2
loop_
 _symmetry_equiv_pos_site_id
 _symmetry_equiv_pos_as_xyz
  1  'x, y, z'
loop_
 _atom_site_type_symbol
 _atom_site_label
 _atom_site_symmetry_multiplicity
 _atom_site_fract_x
 _atom_site_fract_y
 _atom_site_fract_z
 _atom_site_occupancy
  In  In0  1  0.00000000  0.00000000  0.24985400  1
  In  In1  1  0.00000000  0.00000000  0.74985400  1
  In  In2  1  0.66666667  0.33333336  0.52351700  1
  In  In3  1  0.33333336  0.66666671  0.02351700  1
  Au  Au4  1  0.66666667  0.33333336  0.92052900  1
  Au  Au5  1  0.33333336  0.66666671  0.42052900  1
