# generated using pymatgen
data_LuCo5BP2
_symmetry_space_group_name_H-M   'P 1'
_cell_length_a   5.38017178
_cell_length_b   5.38017178
_cell_length_c   7.47309923
_cell_angle_alpha   90.00000000
_cell_angle_beta   90.00000000
_cell_angle_gamma   90.00000000
_symmetry_Int_Tables_number   1
_chemical_formula_structural   LuCo5BP2
_chemical_formula_sum   'Lu2 Co10 B2 P4'
_cell_volume   216.31818621
_cell_formula_units_Z   2
loop_
 _symmetry_equiv_pos_site_id
 _symmetry_equiv_pos_as_xyz
  1  'x, y, z'
loop_
 _atom_site_type_symbol
 _atom_site_label
 _atom_site_symmetry_multiplicity
 _atom_site_fract_x
 _atom_site_fract_y
 _atom_site_fract_z
 _atom_site_occupancy
  Lu  Lu0  1  0.50000002  0.00000000  0.24784299  1
  Lu  Lu1  1  0.00000000  0.50000002  0.74784298  1
  B  B2  1  0.32873901  0.50000002  0.40386499  1
  P  P3  1  0.67126103  0.50000002  0.40386499  1
  P  P4  1  0.50000002  0.32873901  0.90386497  1
  B  B5  1  0.50000002  0.67126103  0.90386497  1
  P  P6  1  0.17026101  0.00000000  0.59805398  1
  P  P7  1  0.82973903  0.00000000  0.59805398  1
  Co  Co8  1  0.00000000  0.17026101  0.09805400  1
  Co  Co9  1  0.00000000  0.82973903  0.09805400  1
  Co  Co10  1  0.75201403  0.50000002  0.10526200  1
  Co  Co11  1  0.24798601  0.50000002  0.10526200  1
  Co  Co12  1  0.50000002  0.75201403  0.60526198  1
  Co  Co13  1  0.50000002  0.24798601  0.60526198  1
  Co  Co14  1  0.74943603  0.00000000  0.89389597  1
  Co  Co15  1  0.25056401  0.00000000  0.89389597  1
  Co  Co16  1  0.00000000  0.74943603  0.39389599  1
  Co  Co17  1  0.00000000  0.25056401  0.39389599  1
