# generated using pymatgen
data_Eu4In7Ga
_symmetry_space_group_name_H-M   'P 1'
_cell_length_a   6.02060223
_cell_length_b   6.02060270
_cell_length_c   9.76755619
_cell_angle_alpha   90.00000000
_cell_angle_beta   90.00000000
_cell_angle_gamma   120.00000000
_symmetry_Int_Tables_number   1
_chemical_formula_structural   Eu4In7Ga
_chemical_formula_sum   'Eu4 In7 Ga1'
_cell_volume   306.61715814
_cell_formula_units_Z   1
loop_
 _symmetry_equiv_pos_site_id
 _symmetry_equiv_pos_as_xyz
  1  'x, y, z'
loop_
 _atom_site_type_symbol
 _atom_site_label
 _atom_site_symmetry_multiplicity
 _atom_site_fract_x
 _atom_site_fract_y
 _atom_site_fract_z
 _atom_site_occupancy
  Eu  Eu0  1  0.66666667  0.33333334  0.56363999  1
  Eu  Eu1  1  0.33333337  0.66666668  0.06364000  1
  Eu  Eu2  1  0.33333337  0.66666668  0.43635999  1
  Eu  Eu3  1  0.66666667  0.33333334  0.93635998  1
  Ga  Ga4  1  0.82908698  0.17091300  0.25000000  1
  In  In5  1  0.17091302  0.34182601  0.74999999  1
  In  In6  1  0.65817403  0.82908702  0.74999999  1
  In  In7  1  0.34182600  0.17091300  0.25000000  1
  In  In8  1  0.00000000  0.00000000  0.00000000  1
  In  In9  1  0.00000000  0.00000000  0.49999999  1
  In  In10  1  0.17091305  0.82908702  0.74999999  1
  In  In11  1  0.82908702  0.65817401  0.25000000  1
