# generated using pymatgen
data_LaGe3
_symmetry_space_group_name_H-M   'P 1'
_cell_length_a   4.39915419
_cell_length_b   4.39915419
_cell_length_c   10.65110302
_cell_angle_alpha   101.91800690
_cell_angle_beta   101.91800690
_cell_angle_gamma   90.00000000
_symmetry_Int_Tables_number   1
_chemical_formula_structural   LaGe3
_chemical_formula_sum   'La2 Ge6'
_cell_volume   197.13951227
_cell_formula_units_Z   2
loop_
 _symmetry_equiv_pos_site_id
 _symmetry_equiv_pos_as_xyz
  1  'x, y, z'
loop_
 _atom_site_type_symbol
 _atom_site_label
 _atom_site_symmetry_multiplicity
 _atom_site_fract_x
 _atom_site_fract_y
 _atom_site_fract_z
 _atom_site_occupancy
  La  La0  1  0.87913898  0.87913897  0.75827801  1
  La  La1  1  0.12086100  0.12086100  0.24172200  1
  Ge  Ge2  1  0.25000000  0.74999997  0.50000000  1
  Ge  Ge3  1  0.74999998  0.24999999  0.50000000  1
  Ge  Ge4  1  0.67426099  0.67426098  0.34852201  1
  Ge  Ge5  1  0.32573899  0.32573899  0.65147799  1
  Ge  Ge6  1  0.00000001  0.49999998  0.00000001  1
  Ge  Ge7  1  0.50000000  0.99999997  1.00000000  1
