# generated using pymatgen
data_Ba4MoS8
_symmetry_space_group_name_H-M   'P 1'
_cell_length_a   4.35541010
_cell_length_b   4.39724493
_cell_length_c   16.66052246
_cell_angle_alpha   90.00000000
_cell_angle_beta   90.00000000
_cell_angle_gamma   90.00000000
_symmetry_Int_Tables_number   1
_chemical_formula_structural   Ba4MoS8
_chemical_formula_sum   'Ba4 Mo1 S8'
_cell_volume   319.07907699
_cell_formula_units_Z   1
loop_
 _symmetry_equiv_pos_site_id
 _symmetry_equiv_pos_as_xyz
  1  'x, y, z'
loop_
 _atom_site_type_symbol
 _atom_site_label
 _atom_site_symmetry_multiplicity
 _atom_site_fract_x
 _atom_site_fract_y
 _atom_site_fract_z
 _atom_site_occupancy
  Ba  Ba0  1  0.24999999  0.00000000  0.10088500  1
  Ba  Ba1  1  0.24999999  0.50000001  0.60225102  1
  Ba  Ba2  1  0.74999998  0.50000001  0.39736701  1
  Ba  Ba3  1  0.74999998  0.00000000  0.89973003  1
  Mo  Mo4  1  0.24999999  0.00000000  0.30992501  1
  S  S5  1  0.24999999  0.50000001  0.23687301  1
  S  S6  1  0.24999999  0.00000000  0.74576502  1
  S  S7  1  0.74999998  0.00000000  0.24074101  1
  S  S8  1  0.74999998  0.50000001  0.75475402  1
  S  S9  1  0.24999999  0.00000000  0.45513101  1
  S  S10  1  0.24999999  0.50000001  0.93739203  1
  S  S11  1  0.74999998  0.50000001  0.06366200  1
  S  S12  1  0.74999998  0.00000000  0.57252402  1
