# generated using pymatgen
data_Te6Mo5
_symmetry_space_group_name_H-M   'P 1'
_cell_length_a   4.25953627
_cell_length_b   4.25953627
_cell_length_c   21.78283501
_cell_angle_alpha   84.38906860
_cell_angle_beta   84.38906860
_cell_angle_gamma   59.99999237
_symmetry_Int_Tables_number   1
_chemical_formula_structural   Te6Mo5
_chemical_formula_sum   'Te6 Mo5'
_cell_volume   340.08234558
_cell_formula_units_Z   1
loop_
 _symmetry_equiv_pos_site_id
 _symmetry_equiv_pos_as_xyz
  1  'x, y, z'
loop_
 _atom_site_type_symbol
 _atom_site_label
 _atom_site_symmetry_multiplicity
 _atom_site_fract_x
 _atom_site_fract_y
 _atom_site_fract_z
 _atom_site_occupancy
  Te  Te0  1  0.54127200  0.54127202  0.37618400  1
  Te  Te1  1  0.26594400  0.26594401  0.20216800  1
  Mo  Mo2  1  0.35739600  0.35739602  0.92781202  1
  Te  Te3  1  0.08445600  0.08445600  0.74663202  1
  Te  Te4  1  0.81392200  0.81392204  0.55823400  1
  Te  Te5  1  0.44945700  0.44945702  0.65162901  1
  Mo  Mo6  1  0.72438800  0.72438803  0.82683601  1
  Mo  Mo7  1  0.89652400  0.89652404  0.31042800  1
  Mo  Mo8  1  0.00231300  0.00231300  0.99306102  1
  Te  Te9  1  0.17428500  0.17428501  0.47714501  1
  Mo  Mo10  1  0.62104400  0.62104403  0.13686799  1
