# generated using pymatgen
data_Nd3Au11
_symmetry_space_group_name_H-M   'P 1'
_cell_length_a   5.54315805
_cell_length_b   7.03929281
_cell_length_c   10.12240505
_cell_angle_alpha   89.05596161
_cell_angle_beta   74.22795868
_cell_angle_gamma   85.24720001
_symmetry_Int_Tables_number   1
_chemical_formula_structural   Nd3Au11
_chemical_formula_sum   'Nd3 Au11'
_cell_volume   378.79029838
_cell_formula_units_Z   1
loop_
 _symmetry_equiv_pos_site_id
 _symmetry_equiv_pos_as_xyz
  1  'x, y, z'
loop_
 _atom_site_type_symbol
 _atom_site_label
 _atom_site_symmetry_multiplicity
 _atom_site_fract_x
 _atom_site_fract_y
 _atom_site_fract_z
 _atom_site_occupancy
  Au  Au0  1  0.67321099  0.25145000  0.64420598  1
  Au  Au1  1  0.32678899  0.74855001  0.35579398  1
  Au  Au2  1  0.91871498  0.25084300  0.15794901  1
  Au  Au3  1  0.08128500  0.74915701  0.84205095  1
  Nd  Nd4  1  0.78925499  0.10987900  0.91975098  1
  Au  Au5  1  0.80452198  0.99636302  0.39197298  1
  Au  Au6  1  0.62668999  0.74417101  0.74088297  1
  Nd  Nd7  1  0.80056998  0.50989901  0.39247799  1
  Au  Au8  1  0.71009999  0.61057801  0.07968800  1
  Au  Au9  1  0.28989999  0.38942201  0.92031196  1
  Au  Au10  1  0.19943000  0.49010101  0.60752197  1
  Au  Au11  1  0.37330999  0.25582900  0.25911699  1
  Nd  Nd12  1  0.19547800  0.00363700  0.60802698  1
  Au  Au13  1  0.21074500  0.89012101  0.08024899  1
