# generated using pymatgen
data_Au
_symmetry_space_group_name_H-M   'P 1'
_cell_length_a   4.14659214
_cell_length_b   5.13486481
_cell_length_c   9.39148235
_cell_angle_alpha   90.50949097
_cell_angle_beta   90.00000000
_cell_angle_gamma   113.81397247
_symmetry_Int_Tables_number   1
_chemical_formula_structural   Au
_chemical_formula_sum   Au10
_cell_volume   182.93179197
_cell_formula_units_Z   10
loop_
 _symmetry_equiv_pos_site_id
 _symmetry_equiv_pos_as_xyz
  1  'x, y, z'
loop_
 _atom_site_type_symbol
 _atom_site_label
 _atom_site_symmetry_multiplicity
 _atom_site_fract_x
 _atom_site_fract_y
 _atom_site_fract_z
 _atom_site_occupancy
  Au  Au0  1  0.49999998  0.00000000  0.50000002  1
  Au  Au1  1  0.00000000  0.00000000  0.00000000  1
  Au  Au2  1  0.29799204  0.59598403  0.90076801  1
  Au  Au3  1  0.79962902  0.59925803  0.40412399  1
  Au  Au4  1  0.20037102  0.40074202  0.59587601  1
  Au  Au5  1  0.70200801  0.40401602  0.09923199  1
  Au  Au6  1  0.59922900  0.19845801  0.79674802  1
  Au  Au7  1  0.09446301  0.18892601  0.30151900  1
  Au  Au8  1  0.90553703  0.81107405  0.69848100  1
  Au  Au9  1  0.40077105  0.80154205  0.20325198  1
