# generated using pymatgen
data_Co3Mo
_symmetry_space_group_name_H-M   'P 1'
_cell_length_a   3.64784408
_cell_length_b   3.68160510
_cell_length_c   7.23053122
_cell_angle_alpha   90.00000000
_cell_angle_beta   90.00000000
_cell_angle_gamma   90.00000000
_symmetry_Int_Tables_number   1
_chemical_formula_structural   Co3Mo
_chemical_formula_sum   'Co6 Mo2'
_cell_volume   97.10546560
_cell_formula_units_Z   2
loop_
 _symmetry_equiv_pos_site_id
 _symmetry_equiv_pos_as_xyz
  1  'x, y, z'
loop_
 _atom_site_type_symbol
 _atom_site_label
 _atom_site_symmetry_multiplicity
 _atom_site_fract_x
 _atom_site_fract_y
 _atom_site_fract_z
 _atom_site_occupancy
  Co  Co0  1  0.49999999  0.49999999  0.25385599  1
  Co  Co1  1  0.49999999  0.49999999  0.74614398  1
  Co  Co2  1  0.00000000  0.49999999  0.49999999  1
  Co  Co3  1  0.00000000  0.49999999  -0.00000000  1
  Co  Co4  1  0.49999999  0.00000000  0.49999999  1
  Co  Co5  1  0.49999999  0.00000000  0.00000000  1
  Mo  Mo6  1  0.00000000  0.00000000  0.24957899  1
  Mo  Mo7  1  0.00000000  0.00000000  0.75042098  1
