# generated using pymatgen
data_Mg2As2O7
_symmetry_space_group_name_H-M   'P 1'
_cell_length_a   4.90623140
_cell_length_b   5.34830379
_cell_length_c   5.46262693
_cell_angle_alpha   107.04164124
_cell_angle_beta   95.91419220
_cell_angle_gamma   97.26359558
_symmetry_Int_Tables_number   1
_chemical_formula_structural   Mg2As2O7
_chemical_formula_sum   'Mg2 As2 O7'
_cell_volume   134.45461533
_cell_formula_units_Z   1
loop_
 _symmetry_equiv_pos_site_id
 _symmetry_equiv_pos_as_xyz
  1  'x, y, z'
loop_
 _atom_site_type_symbol
 _atom_site_label
 _atom_site_symmetry_multiplicity
 _atom_site_fract_x
 _atom_site_fract_y
 _atom_site_fract_z
 _atom_site_occupancy
  Mg  Mg0  1  0.50563799  0.68735202  0.30845500  1
  Mg  Mg1  1  0.49453600  0.31487401  0.69496101  1
  As  As2  1  0.10446798  0.75333302  0.75445604  1
  As  As3  1  0.89538900  0.24312601  0.24154397  1
  O  O4  1  0.29496198  0.93734403  0.59830303  1
  O  O5  1  0.77413899  0.58546902  0.59415300  1
  O  O6  1  0.22185599  0.41643801  0.40792202  1
  O  O7  1  0.00228900  0.00071000  0.99849104  1
  O  O8  1  0.29503999  0.59187802  0.92687604  1
  O  O9  1  0.70432299  0.40753601  0.07367598  1
  O  O10  1  0.70735900  0.06193900  0.40116198  1
