# generated using pymatgen
data_Li(GeO2)5
_symmetry_space_group_name_H-M   'P 1'
_cell_length_a   4.91838312
_cell_length_b   6.66016388
_cell_length_c   6.93260479
_cell_angle_alpha   90.00000000
_cell_angle_beta   91.82925415
_cell_angle_gamma   90.00000000
_symmetry_Int_Tables_number   1
_chemical_formula_structural   Li(GeO2)5
_chemical_formula_sum   'Li1 Ge5 O10'
_cell_volume   226.97725404
_cell_formula_units_Z   1
loop_
 _symmetry_equiv_pos_site_id
 _symmetry_equiv_pos_as_xyz
  1  'x, y, z'
loop_
 _atom_site_type_symbol
 _atom_site_label
 _atom_site_symmetry_multiplicity
 _atom_site_fract_x
 _atom_site_fract_y
 _atom_site_fract_z
 _atom_site_occupancy
  Li  Li0  1  0.64125298  0.75000001  0.73324003  1
  Ge  Ge1  1  0.35874699  0.25000000  0.26676001  1
  Ge  Ge2  1  0.00000000  0.00000000  0.00000000  1
  Ge  Ge3  1  0.00000000  0.50000001  -0.00000000  1
  Ge  Ge4  1  0.49183499  0.25000000  0.76029403  1
  Ge  Ge5  1  0.50816499  0.75000001  0.23970602  1
  O  O6  1  0.16760400  0.75000001  0.75543702  1
  O  O7  1  0.83239598  0.25000000  0.24456303  1
  O  O8  1  0.70079698  0.45797001  0.80010703  1
  O  O9  1  0.29920299  0.95797002  0.19989301  1
  O  O10  1  0.23756599  0.25000000  0.93666702  1
  O  O11  1  0.70079698  0.04203000  0.80010703  1
  O  O12  1  0.67795198  0.75000001  0.45352603  1
  O  O13  1  0.32204799  0.25000000  0.54647402  1
  O  O14  1  0.29920299  0.54203001  0.19989301  1
  O  O15  1  0.76243398  0.75000001  0.06333302  1
