# generated using pymatgen
data_V4O5F3
_symmetry_space_group_name_H-M   'P 1'
_cell_length_a   3.81308293
_cell_length_b   6.29463768
_cell_length_c   6.68002081
_cell_angle_alpha   104.99534607
_cell_angle_beta   90.00000000
_cell_angle_gamma   107.63087463
_symmetry_Int_Tables_number   1
_chemical_formula_structural   V4O5F3
_chemical_formula_sum   'V4 O5 F3'
_cell_volume   147.06322807
_cell_formula_units_Z   1
loop_
 _symmetry_equiv_pos_site_id
 _symmetry_equiv_pos_as_xyz
  1  'x, y, z'
loop_
 _atom_site_type_symbol
 _atom_site_label
 _atom_site_symmetry_multiplicity
 _atom_site_fract_x
 _atom_site_fract_y
 _atom_site_fract_z
 _atom_site_occupancy
  V  V0  1  0.80881197  0.61762397  0.24638797  1
  V  V1  1  0.19118798  0.38237598  0.75361198  1
  V  V2  1  0.09866199  0.19732499  0.18268099  1
  V  V3  1  0.90133796  0.80267496  0.81731896  1
  F  F4  1  0.26418497  0.52836998  0.17063298  1
  O  O5  1  0.73581498  0.47162998  0.82936697  1
  F  F6  1  0.63417799  0.26835599  0.19619099  1
  O  O7  1  0.36582195  0.73164397  0.80380896  1
  F  F8  1  0.93782295  0.87564496  0.12157796  1
  O  O9  1  0.06217699  0.12435499  0.87842199  1
  O  O10  1  0.12834998  0.25670099  0.47503599  1
  O  O11  1  0.87164996  0.74329897  0.52496396  1
