# generated using pymatgen
data_GaCo
_symmetry_space_group_name_H-M   'P 1'
_cell_length_a   4.19275618
_cell_length_b   4.19275475
_cell_length_c   7.37797689
_cell_angle_alpha   90.00000000
_cell_angle_beta   90.00000000
_cell_angle_gamma   120.00000763
_symmetry_Int_Tables_number   1
_chemical_formula_structural   GaCo
_chemical_formula_sum   'Ga4 Co4'
_cell_volume   112.32255030
_cell_formula_units_Z   4
loop_
 _symmetry_equiv_pos_site_id
 _symmetry_equiv_pos_as_xyz
  1  'x, y, z'
loop_
 _atom_site_type_symbol
 _atom_site_label
 _atom_site_symmetry_multiplicity
 _atom_site_fract_x
 _atom_site_fract_y
 _atom_site_fract_z
 _atom_site_occupancy
  Co  Co0  1  0.33333331  0.66666669  0.25000000  1
  Co  Co1  1  0.66666663  0.33333335  0.75000001  1
  Ga  Ga2  1  0.66666663  0.33333335  0.07860500  1
  Ga  Ga3  1  0.33333331  0.66666669  0.57860501  1
  Ga  Ga4  1  0.00000000  0.00000000  0.75000001  1
  Ga  Ga5  1  0.00000000  0.00000000  0.25000000  1
  Co  Co6  1  0.66666663  0.33333335  0.42139501  1
  Co  Co7  1  0.33333331  0.66666669  0.92139501  1
