# generated using pymatgen
data_NdAu2
_symmetry_space_group_name_H-M   'P 1'
_cell_length_a   4.58527994
_cell_length_b   4.58527994
_cell_length_c   7.74552393
_cell_angle_alpha   90.00000000
_cell_angle_beta   90.00000000
_cell_angle_gamma   120.00000000
_symmetry_Int_Tables_number   1
_chemical_formula_structural   NdAu2
_chemical_formula_sum   'Nd2 Au4'
_cell_volume   141.03053150
_cell_formula_units_Z   2
loop_
 _symmetry_equiv_pos_site_id
 _symmetry_equiv_pos_as_xyz
  1  'x, y, z'
loop_
 _atom_site_type_symbol
 _atom_site_label
 _atom_site_symmetry_multiplicity
 _atom_site_fract_x
 _atom_site_fract_y
 _atom_site_fract_z
 _atom_site_occupancy
  Nd  Nd0  1  0.00000000  0.00000000  0.98603701  1
  Nd  Nd1  1  0.00000000  0.00000000  0.48603700  1
  Au  Au2  1  0.33333334  0.66666668  0.71725301  1
  Au  Au3  1  0.66666668  0.33333334  0.21725300  1
  Au  Au4  1  0.33333334  0.66666668  0.27391000  1
  Au  Au5  1  0.66666668  0.33333334  0.77391001  1
