# generated using pymatgen
data_Mo3Se2F5
_symmetry_space_group_name_H-M   'P 1'
_cell_length_a   5.68054390
_cell_length_b   5.79314423
_cell_length_c   6.98754978
_cell_angle_alpha   114.48992920
_cell_angle_beta   90.00000000
_cell_angle_gamma   90.00000000
_symmetry_Int_Tables_number   1
_chemical_formula_structural   Mo3Se2F5
_chemical_formula_sum   'Mo3 Se2 F5'
_cell_volume   209.26031019
_cell_formula_units_Z   1
loop_
 _symmetry_equiv_pos_site_id
 _symmetry_equiv_pos_as_xyz
  1  'x, y, z'
loop_
 _atom_site_type_symbol
 _atom_site_label
 _atom_site_symmetry_multiplicity
 _atom_site_fract_x
 _atom_site_fract_y
 _atom_site_fract_z
 _atom_site_occupancy
  Se  Se0  1  0.25000000  0.10797800  0.21595600  1
  F  F1  1  0.75000001  0.89202197  0.78404402  1
  F  F2  1  0.75000001  0.58071198  0.16142401  1
  F  F3  1  0.25000000  0.41928799  0.83857601  1
  F  F4  1  0.75000001  0.24438499  0.48877001  1
  F  F5  1  0.25000000  0.75561497  0.51123001  1
  Mo  Mo6  1  0.00000000  0.26458099  0.00000000  1
  Mo  Mo7  1  0.50000001  0.26458099  0.00000000  1
  Mo  Mo8  1  0.50000001  0.73541897  0.00000001  1
  Se  Se9  1  0.00000000  0.73541897  0.00000001  1
