# generated using pymatgen
data_AlMo3
_symmetry_space_group_name_H-M   'P 1'
_cell_length_a   4.96627283
_cell_length_b   4.96658611
_cell_length_c   9.95159435
_cell_angle_alpha   90.00000000
_cell_angle_beta   90.00000000
_cell_angle_gamma   90.00000000
_symmetry_Int_Tables_number   1
_chemical_formula_structural   AlMo3
_chemical_formula_sum   'Al4 Mo12'
_cell_volume   245.46027105
_cell_formula_units_Z   4
loop_
 _symmetry_equiv_pos_site_id
 _symmetry_equiv_pos_as_xyz
  1  'x, y, z'
loop_
 _atom_site_type_symbol
 _atom_site_label
 _atom_site_symmetry_multiplicity
 _atom_site_fract_x
 _atom_site_fract_y
 _atom_site_fract_z
 _atom_site_occupancy
  Al  Al0  1  0.50000002  0.49999999  0.74946097  1
  Mo  Mo1  1  0.50000002  0.49999999  0.25053899  1
  Mo  Mo2  1  0.00000000  0.00000000  0.00000000  1
  Mo  Mo3  1  0.00000000  0.00000000  0.49999998  1
  Mo  Mo4  1  0.50000002  0.00000000  0.62344598  1
  Mo  Mo5  1  0.50000002  0.00000000  0.12448300  1
  Mo  Mo6  1  0.75248203  0.49999999  0.99999996  1
  Mo  Mo7  1  0.74988103  0.49999999  0.49999998  1
  Al  Al8  1  0.00000000  0.25019299  0.74795797  1
  Mo  Mo9  1  0.00000000  0.25019299  0.25204199  1
  Al  Al10  1  0.50000002  0.00000000  0.87551697  1
  Mo  Mo11  1  0.50000002  0.00000000  0.37655399  1
  Mo  Mo12  1  0.24751801  0.49999999  -0.00000000  1
  Mo  Mo13  1  0.25011901  0.49999999  0.49999998  1
  Al  Al14  1  0.00000000  0.74980698  0.74795797  1
  Mo  Mo15  1  0.00000000  0.74980698  0.25204199  1
