# generated using pymatgen
data_HoGe2
_symmetry_space_group_name_H-M   'P 1'
_cell_length_a   4.36619806
_cell_length_b   5.65964603
_cell_length_c   5.70864344
_cell_angle_alpha   76.89218140
_cell_angle_beta   67.51634216
_cell_angle_gamma   67.31089020
_symmetry_Int_Tables_number   1
_chemical_formula_structural   HoGe2
_chemical_formula_sum   'Ho2 Ge4'
_cell_volume   119.73611888
_cell_formula_units_Z   2
loop_
 _symmetry_equiv_pos_site_id
 _symmetry_equiv_pos_as_xyz
  1  'x, y, z'
loop_
 _atom_site_type_symbol
 _atom_site_label
 _atom_site_symmetry_multiplicity
 _atom_site_fract_x
 _atom_site_fract_y
 _atom_site_fract_z
 _atom_site_occupancy
  Ho  Ho0  1  0.45791298  0.29283700  0.79133699  1
  Ho  Ho1  1  0.54501397  0.70738199  0.20259000  1
  Ge  Ge2  1  0.83361796  0.71633399  0.61643000  1
  Ge  Ge3  1  0.15727199  0.29557000  0.38988599  1
  Ge  Ge4  1  0.16739197  0.87854299  0.78667298  1
  Ge  Ge5  1  0.83879097  0.10933500  0.21308302  1
