# generated using pymatgen
data_BaLaSmMoO6
_symmetry_space_group_name_H-M   'P 1'
_cell_length_a   5.92027617
_cell_length_b   6.04123163
_cell_length_c   8.44686985
_cell_angle_alpha   89.87579346
_cell_angle_beta   90.38269043
_cell_angle_gamma   89.86792755
_symmetry_Int_Tables_number   1
_chemical_formula_structural   BaLaSmMoO6
_chemical_formula_sum   'Ba2 La2 Sm2 Mo2 O12'
_cell_volume   302.10045537
_cell_formula_units_Z   2
loop_
 _symmetry_equiv_pos_site_id
 _symmetry_equiv_pos_as_xyz
  1  'x, y, z'
loop_
 _atom_site_type_symbol
 _atom_site_label
 _atom_site_symmetry_multiplicity
 _atom_site_fract_x
 _atom_site_fract_y
 _atom_site_fract_z
 _atom_site_occupancy
  Ba  Ba0  1  0.01195346  0.04605376  0.74927027  1
  Ba  Ba1  1  0.98804649  0.95394627  0.25072970  1
  Sm  Sm2  1  -0.00000001  0.50000001  -0.00000001  1
  Sm  Sm3  1  0.49999998  0.00000000  0.50000000  1
  La  La4  1  0.48662290  0.54704071  0.75139825  1
  La  La5  1  0.51337705  0.45295932  0.24860172  1
  Mo  Mo6  1  0.49999998  0.00000000  -0.00000002  1
  Mo  Mo7  1  -0.00000001  0.50000001  0.50000001  1
  O  O8  1  0.77715894  0.18858457  0.04862306  1
  O  O9  1  0.72312671  0.68748233  0.44735855  1
  O  O10  1  0.22284101  0.81141546  0.95137692  1
  O  O11  1  0.27687324  0.31251770  0.55264142  1
  O  O12  1  0.67989727  0.72140304  0.05419359  1
  O  O13  1  0.81721331  0.22334318  0.44682898  1
  O  O14  1  0.32010267  0.27859699  0.94580638  1
  O  O15  1  0.18278664  0.77665685  0.55317100  1
  O  O16  1  0.59363357  0.96333343  0.77001687  1
  O  O17  1  0.89803063  0.46947114  0.72962457  1
  O  O18  1  0.40636638  0.03666660  0.22998310  1
  O  O19  1  0.10196932  0.53052888  0.27037540  1
