# generated using pymatgen
data_TbGa2
_symmetry_space_group_name_H-M   'P 1'
_cell_length_a   3.96614289
_cell_length_b   7.73780203
_cell_length_c   7.73780203
_cell_angle_alpha   120.00000000
_cell_angle_beta   90.00000000
_cell_angle_gamma   90.00000000
_symmetry_Int_Tables_number   1
_chemical_formula_structural   TbGa2
_chemical_formula_sum   'Tb3 Ga6'
_cell_volume   205.65260587
_cell_formula_units_Z   3
loop_
 _symmetry_equiv_pos_site_id
 _symmetry_equiv_pos_as_xyz
  1  'x, y, z'
loop_
 _atom_site_type_symbol
 _atom_site_label
 _atom_site_symmetry_multiplicity
 _atom_site_fract_x
 _atom_site_fract_y
 _atom_site_fract_z
 _atom_site_occupancy
  Tb  Tb0  1  0.50000001  0.59439600  -0.00000000  1
  Tb  Tb1  1  0.50000001  0.40560400  0.40560399  1
  Tb  Tb2  1  0.50000001  0.00000000  0.59439599  1
  Ga  Ga3  1  0.00000000  0.25473400  -0.00000000  1
  Ga  Ga4  1  1.00000003  0.74526599  0.74526598  1
  Ga  Ga5  1  0.00000000  0.00000000  0.25473400  1
  Ga  Ga6  1  1.00000003  0.33333333  0.66666665  1
  Ga  Ga7  1  0.00000000  0.66666666  0.33333332  1
  Ga  Ga8  1  0.50000001  0.00000000  -0.00000000  1
