# generated using pymatgen
data_CsNaGe2F8
_symmetry_space_group_name_H-M   'P 1'
_cell_length_a   5.94709206
_cell_length_b   5.94709206
_cell_length_c   7.88645315
_cell_angle_alpha   90.00000000
_cell_angle_beta   90.00000000
_cell_angle_gamma   120.00000000
_symmetry_Int_Tables_number   1
_chemical_formula_structural   CsNaGe2F8
_chemical_formula_sum   'Cs1 Na1 Ge2 F8'
_cell_volume   241.55814266
_cell_formula_units_Z   1
loop_
 _symmetry_equiv_pos_site_id
 _symmetry_equiv_pos_as_xyz
  1  'x, y, z'
loop_
 _atom_site_type_symbol
 _atom_site_label
 _atom_site_symmetry_multiplicity
 _atom_site_fract_x
 _atom_site_fract_y
 _atom_site_fract_z
 _atom_site_occupancy
  Cs  Cs0  1  0.00000000  0.00000000  0.49999999  1
  Na  Na1  1  0.00000000  0.00000000  0.00000000  1
  Ge  Ge2  1  0.33333335  0.66666669  0.23676800  1
  Ge  Ge3  1  0.66666667  0.33333335  0.76323199  1
  F  F4  1  0.66795101  0.83397603  0.16688000  1
  F  F5  1  0.16602501  0.33205001  0.16688000  1
  F  F6  1  0.16602502  0.83397603  0.16688000  1
  F  F7  1  0.83397501  0.66795003  0.83311998  1
  F  F8  1  0.66666667  0.33333335  0.54145299  1
  F  F9  1  0.33333335  0.66666669  0.45854699  1
  F  F10  1  0.83397500  0.16602401  0.83311998  1
  F  F11  1  0.33204900  0.16602401  0.83311998  1
