# generated using pymatgen
data_MgAl3Co2
_symmetry_space_group_name_H-M   'P 1'
_cell_length_a   5.02912617
_cell_length_b   5.18932819
_cell_length_c   5.18932819
_cell_angle_alpha   63.34592056
_cell_angle_beta   61.01607132
_cell_angle_gamma   61.01607132
_symmetry_Int_Tables_number   1
_chemical_formula_structural   MgAl3Co2
_chemical_formula_sum   'Mg1 Al3 Co2'
_cell_volume   99.50339979
_cell_formula_units_Z   1
loop_
 _symmetry_equiv_pos_site_id
 _symmetry_equiv_pos_as_xyz
  1  'x, y, z'
loop_
 _atom_site_type_symbol
 _atom_site_label
 _atom_site_symmetry_multiplicity
 _atom_site_fract_x
 _atom_site_fract_y
 _atom_site_fract_z
 _atom_site_occupancy
  Mg  Mg0  1  0.00124198  0.99875804  0.99875803  1
  Co  Co1  1  0.87241897  0.37720602  0.37720599  1
  Co  Co2  1  0.37316898  0.37720602  0.37720600  1
  Al  Al3  1  0.75168597  0.74831403  0.74831400  1
  Al  Al4  1  0.37574197  0.87157703  0.37693900  1
  Al  Al5  1  0.37574198  0.37693902  0.87157702  1
