# generated using pymatgen
data_Ba2LiZn3N4
_symmetry_space_group_name_H-M   'P 1'
_cell_length_a   3.38706803
_cell_length_b   5.73799372
_cell_length_c   7.52342606
_cell_angle_alpha   76.56884003
_cell_angle_beta   76.99115753
_cell_angle_gamma   72.83383179
_symmetry_Int_Tables_number   1
_chemical_formula_structural   Ba2LiZn3N4
_chemical_formula_sum   'Ba2 Li1 Zn3 N4'
_cell_volume   133.94127029
_cell_formula_units_Z   1
loop_
 _symmetry_equiv_pos_site_id
 _symmetry_equiv_pos_as_xyz
  1  'x, y, z'
loop_
 _atom_site_type_symbol
 _atom_site_label
 _atom_site_symmetry_multiplicity
 _atom_site_fract_x
 _atom_site_fract_y
 _atom_site_fract_z
 _atom_site_occupancy
  Ba  Ba0  1  0.83651499  0.69703798  0.62993199  1
  Ba  Ba1  1  0.16348500  0.30296199  0.37006799  1
  Zn  Zn2  1  0.34112000  0.37275299  0.94500698  1
  Li  Li3  1  0.65887999  0.62724698  0.05499301  1
  Zn  Zn4  1  0.04411700  0.09422500  0.81754098  1
  Zn  Zn5  1  0.95588299  0.90577497  0.18245901  1
  N  N6  1  0.46143700  0.77048097  0.30664500  1
  N  N7  1  0.53856299  0.22951899  0.69335498  1
  N  N8  1  0.83799299  0.26186499  0.06214901  1
  N  N9  1  0.16200700  0.73813497  0.93785098  1
