# generated using pymatgen
data_BaP2H3O4
_symmetry_space_group_name_H-M   'P 1'
_cell_length_a   3.78217101
_cell_length_b   3.78217101
_cell_length_c   7.40314007
_cell_angle_alpha   90.00000000
_cell_angle_beta   90.00000000
_cell_angle_gamma   90.00000000
_symmetry_Int_Tables_number   1
_chemical_formula_structural   BaP2H3O4
_chemical_formula_sum   'Ba1 P2 H3 O4'
_cell_volume   105.90056802
_cell_formula_units_Z   1
loop_
 _symmetry_equiv_pos_site_id
 _symmetry_equiv_pos_as_xyz
  1  'x, y, z'
loop_
 _atom_site_type_symbol
 _atom_site_label
 _atom_site_symmetry_multiplicity
 _atom_site_fract_x
 _atom_site_fract_y
 _atom_site_fract_z
 _atom_site_occupancy
  Ba  Ba0  1  0.00000000  0.00000000  0.74999999  1
  H  H1  1  0.00000000  0.00000000  0.25000000  1
  H  H2  1  0.21900600  0.50000000  0.00000000  1
  P  P3  1  0.78099400  0.50000000  -0.00000000  1
  H  H4  1  0.50000000  0.21900600  0.50000000  1
  P  P5  1  0.50000000  0.78099400  0.50000000  1
  O  O6  1  0.50000000  0.18437000  -0.00000000  1
  O  O7  1  0.50000000  0.81563000  -0.00000000  1
  O  O8  1  0.81563000  0.50000000  0.50000000  1
  O  O9  1  0.18437000  0.50000000  0.50000000  1
