# generated using pymatgen
data_Ga7P4
_symmetry_space_group_name_H-M   'P 1'
_cell_length_a   4.03270197
_cell_length_b   6.82543850
_cell_length_c   8.50241756
_cell_angle_alpha   90.00000000
_cell_angle_beta   90.00000000
_cell_angle_gamma   107.18254852
_symmetry_Int_Tables_number   1
_chemical_formula_structural   Ga7P4
_chemical_formula_sum   'Ga7 P4'
_cell_volume   223.58361880
_cell_formula_units_Z   1
loop_
 _symmetry_equiv_pos_site_id
 _symmetry_equiv_pos_as_xyz
  1  'x, y, z'
loop_
 _atom_site_type_symbol
 _atom_site_label
 _atom_site_symmetry_multiplicity
 _atom_site_fract_x
 _atom_site_fract_y
 _atom_site_fract_z
 _atom_site_occupancy
  P  P0  1  0.68308901  0.36617799  0.76298604  1
  P  P1  1  0.68308901  0.36617799  0.23701401  1
  P  P2  1  0.00088400  0.00176800  -0.00000000  1
  P  P3  1  0.01780300  0.03560600  0.50000003  1
  Ga  Ga4  1  0.35606500  0.71212998  0.64887103  1
  Ga  Ga5  1  0.31289000  0.62577998  -0.00000000  1
  Ga  Ga6  1  0.35606500  0.71212998  0.35112902  1
  Ga  Ga7  1  0.08803300  0.17606600  0.24388101  1
  Ga  Ga8  1  0.58774700  0.17549400  0.00000000  1
  Ga  Ga9  1  0.61611800  0.23223599  0.50000003  1
  Ga  Ga10  1  0.08803300  0.17606600  0.75611904  1
