# generated using pymatgen
data_P
_symmetry_space_group_name_H-M   'P 1'
_cell_length_a   5.64854908
_cell_length_b   5.65642023
_cell_length_c   6.84483480
_cell_angle_alpha   114.40531921
_cell_angle_beta   90.00000000
_cell_angle_gamma   90.00000000
_symmetry_Int_Tables_number   1
_chemical_formula_structural   P
_chemical_formula_sum   P12
_cell_volume   199.15480895
_cell_formula_units_Z   12
loop_
 _symmetry_equiv_pos_site_id
 _symmetry_equiv_pos_as_xyz
  1  'x, y, z'
loop_
 _atom_site_type_symbol
 _atom_site_label
 _atom_site_symmetry_multiplicity
 _atom_site_fract_x
 _atom_site_fract_y
 _atom_site_fract_z
 _atom_site_occupancy
  P  P0  1  0.00000000  0.66431299  0.32862604  1
  P  P1  1  0.49999999  0.83568699  0.67137406  1
  P  P2  1  0.49999999  0.16431300  0.32862602  1
  P  P3  1  0.00000000  0.33568699  0.67137404  1
  P  P4  1  0.13181500  0.13129800  0.00000001  1
  P  P5  1  0.36818499  0.63129799  0.00000003  1
  P  P6  1  0.86818499  0.86870199  1.00000007  1
  P  P7  1  0.63181499  0.36870199  0.00000002  1
  P  P8  1  0.25000000  0.50664399  0.50000004  1
  P  P9  1  0.74999999  0.99335599  0.50000006  1
  P  P10  1  0.74999999  0.49335599  0.50000004  1
  P  P11  1  0.25000000  0.00664400  0.50000001  1
