# generated using pymatgen
data_Ga5F7
_symmetry_space_group_name_H-M   'P 1'
_cell_length_a   5.66133404
_cell_length_b   5.66133404
_cell_length_c   5.66133404
_cell_angle_alpha   106.79319763
_cell_angle_beta   106.79319763
_cell_angle_gamma   114.97126007
_symmetry_Int_Tables_number   1
_chemical_formula_structural   Ga5F7
_chemical_formula_sum   'Ga5 F7'
_cell_volume   138.70540620
_cell_formula_units_Z   1
loop_
 _symmetry_equiv_pos_site_id
 _symmetry_equiv_pos_as_xyz
  1  'x, y, z'
loop_
 _atom_site_type_symbol
 _atom_site_label
 _atom_site_symmetry_multiplicity
 _atom_site_fract_x
 _atom_site_fract_y
 _atom_site_fract_z
 _atom_site_occupancy
  Ga  Ga0  1  0.24380292  0.74380297  0.49999993  1
  Ga  Ga1  1  0.49380295  0.49380298  0.99999997  1
  Ga  Ga2  1  0.75351199  0.25351199  0.49999996  1
  Ga  Ga3  1  0.00351200  0.00351200  1.00000004  1
  F  F4  1  0.05575897  0.25507199  0.80068600  1
  F  F5  1  0.54755892  0.74626997  0.80128893  1
  F  F6  1  0.00507296  0.30575999  0.30068698  1
  F  F7  1  0.49626992  0.79755897  0.30128891  1
  F  F8  1  0.49626999  0.19498099  0.69871098  1
  F  F9  1  0.00507292  0.70438597  0.69931396  1
  Ga  Ga10  1  0.94498093  0.74626997  0.19871089  1
  F  F11  1  0.45438598  0.25507299  0.19931296  1
