# generated using pymatgen
data_GaO
_symmetry_space_group_name_H-M   'P 1'
_cell_length_a   5.28702402
_cell_length_b   6.58714390
_cell_length_c   6.58714390
_cell_angle_alpha   120.00000000
_cell_angle_beta   90.00000000
_cell_angle_gamma   90.00000000
_symmetry_Int_Tables_number   1
_chemical_formula_structural   GaO
_chemical_formula_sum   'Ga8 O8'
_cell_volume   198.67179559
_cell_formula_units_Z   8
loop_
 _symmetry_equiv_pos_site_id
 _symmetry_equiv_pos_as_xyz
  1  'x, y, z'
loop_
 _atom_site_type_symbol
 _atom_site_label
 _atom_site_symmetry_multiplicity
 _atom_site_fract_x
 _atom_site_fract_y
 _atom_site_fract_z
 _atom_site_occupancy
  Ga  Ga0  1  0.50291600  0.66666668  0.33333333  1
  Ga  Ga1  1  0.50098700  0.16760400  0.83239601  1
  Ga  Ga2  1  0.00012300  0.50032601  0.00065200  1
  Ga  Ga3  1  0.00012300  0.99934901  0.49967500  1
  Ga  Ga4  1  0.50098700  0.66479201  0.83239601  1
  Ga  Ga5  1  0.50098700  0.16760400  0.33520800  1
  Ga  Ga6  1  0.00012300  0.50032601  0.49967500  1
  Ga  Ga7  1  0.99916500  0.00000000  -0.00000000  1
  O  O8  1  0.12519800  0.66666668  0.33333333  1
  O  O9  1  0.61848100  0.00000000  -0.00000000  1
  O  O10  1  0.11974600  0.66673501  0.83336801  1
  O  O11  1  0.11974600  0.16663300  0.33326600  1
  O  O12  1  0.11974600  0.16663300  0.83336801  1
  O  O13  1  0.61989200  0.50099201  0.00198400  1
  O  O14  1  0.61989200  0.99801501  0.49900700  1
  O  O15  1  0.61989200  0.50099201  0.49900700  1
