# generated using pymatgen
data_BaLuCuSe3
_symmetry_space_group_name_H-M   'P 1'
_cell_length_a   4.03714800
_cell_length_b   7.09158659
_cell_length_c   10.44859886
_cell_angle_alpha   90.00000000
_cell_angle_beta   90.00000000
_cell_angle_gamma   106.53753662
_symmetry_Int_Tables_number   1
_chemical_formula_structural   BaLuCuSe3
_chemical_formula_sum   'Ba2 Lu2 Cu2 Se6'
_cell_volume   286.76670115
_cell_formula_units_Z   2
loop_
 _symmetry_equiv_pos_site_id
 _symmetry_equiv_pos_as_xyz
  1  'x, y, z'
loop_
 _atom_site_type_symbol
 _atom_site_label
 _atom_site_symmetry_multiplicity
 _atom_site_fract_x
 _atom_site_fract_y
 _atom_site_fract_z
 _atom_site_occupancy
  Lu  Lu0  1  0.50137000  0.00274000  0.50553801  1
  Lu  Lu1  1  0.49862989  0.99725997  0.00553800  1
  Cu  Cu2  1  0.03360799  0.06721600  0.75503801  1
  Cu  Cu3  1  0.96639190  0.93278397  0.25503800  1
  Ba  Ba4  1  0.74560895  0.49121799  0.76364201  1
  Ba  Ba5  1  0.25439095  0.50878199  0.26364200  1
  Se  Se6  1  0.86124792  0.72249598  0.44598001  1
  Se  Se7  1  0.86061492  0.72122998  0.06529700  1
  Se  Se8  1  0.57720398  0.15440800  0.25314800  1
  Se  Se9  1  0.42279591  0.84559198  0.75314801  1
  Se  Se10  1  0.13938497  0.27876999  0.56529701  1
  Se  Se11  1  0.13875197  0.27750399  0.94598001  1
