# generated using pymatgen
data_Pr9GaSe8
_symmetry_space_group_name_H-M   'P 1'
_cell_length_a   6.33774996
_cell_length_b   9.21377182
_cell_length_c   9.21377182
_cell_angle_alpha   120.00000000
_cell_angle_beta   90.00000000
_cell_angle_gamma   90.00000000
_symmetry_Int_Tables_number   1
_chemical_formula_structural   Pr9GaSe8
_chemical_formula_sum   'Pr9 Ga1 Se8'
_cell_volume   465.95141847
_cell_formula_units_Z   1
loop_
 _symmetry_equiv_pos_site_id
 _symmetry_equiv_pos_as_xyz
  1  'x, y, z'
loop_
 _atom_site_type_symbol
 _atom_site_label
 _atom_site_symmetry_multiplicity
 _atom_site_fract_x
 _atom_site_fract_y
 _atom_site_fract_z
 _atom_site_occupancy
  Pr  Pr0  1  0.75000000  0.25273500  -0.00000001  1
  Pr  Pr1  1  0.25000000  0.25273500  0.25273498  1
  Pr  Pr2  1  0.75000000  0.00000000  0.25273499  1
  Pr  Pr3  1  0.25000000  0.00000000  0.74726497  1
  Pr  Pr4  1  0.25000000  0.74726500  0.99999993  1
  Pr  Pr5  1  0.75000000  0.74726500  0.74726494  1
  Pr  Pr6  1  0.50000000  0.66666667  0.33333329  1
  Pr  Pr7  1  1.00000001  0.33333333  0.66666663  1
  Pr  Pr8  1  0.50000000  0.33333333  0.66666663  1
  Ga  Ga9  1  1.00000001  0.66666667  0.33333329  1
  Se  Se10  1  0.25000000  0.61423500  0.61423495  1
  Se  Se11  1  0.75000000  0.61423500  -0.00000002  1
  Se  Se12  1  0.75000000  0.00000000  0.61423498  1
  Se  Se13  1  0.25000000  0.00000000  0.38576499  1
  Se  Se14  1  0.25000000  0.38576500  -0.00000001  1
  Se  Se15  1  0.75000000  0.38576500  0.38576497  1
  Se  Se16  1  0.50000000  0.00000000  -0.00000000  1
  Se  Se17  1  0.00000000  0.00000000  0.00000000  1
