# generated using pymatgen
data_Na5(BO2)3
_symmetry_space_group_name_H-M   'P 1'
_cell_length_a   6.17841053
_cell_length_b   6.17841053
_cell_length_c   6.17841053
_cell_angle_alpha   109.47122192
_cell_angle_beta   109.47122192
_cell_angle_gamma   109.47122192
_symmetry_Int_Tables_number   1
_chemical_formula_structural   Na5(BO2)3
_chemical_formula_sum   'Na5 B3 O6'
_cell_volume   181.55506720
_cell_formula_units_Z   1
loop_
 _symmetry_equiv_pos_site_id
 _symmetry_equiv_pos_as_xyz
  1  'x, y, z'
loop_
 _atom_site_type_symbol
 _atom_site_label
 _atom_site_symmetry_multiplicity
 _atom_site_fract_x
 _atom_site_fract_y
 _atom_site_fract_z
 _atom_site_occupancy
  Na  Na0  1  0.00000000  0.00000000  0.00000000  1
  Na  Na1  1  0.50000001  0.00000000  0.00000001  1
  Na  Na2  1  0.00000003  0.50000002  0.00000003  1
  Na  Na3  1  0.00000000  0.00000000  0.50000000  1
  Na  Na4  1  0.50000004  0.50000002  0.50000004  1
  B  B5  1  0.50000004  0.50000002  1.00000004  1
  B  B6  1  0.50000001  0.00000000  0.50000001  1
  B  B7  1  0.00000003  0.50000002  0.50000003  1
  O  O8  1  0.00000002  0.31205701  0.31205702  1
  O  O9  1  0.00000004  0.68794303  0.68794304  1
  O  O10  1  0.68794305  0.68794303  1.00000006  1
  O  O11  1  0.31205700  0.00000000  0.31205701  1
  O  O12  1  0.68794301  0.00000000  0.68794302  1
  O  O13  1  0.31205702  0.31205701  1.00000003  1
