# generated using pymatgen
data_BaF3
_symmetry_space_group_name_H-M   'P 1'
_cell_length_a   6.32871294
_cell_length_b   6.95677280
_cell_length_c   9.44956112
_cell_angle_alpha   90.00000000
_cell_angle_beta   90.00000000
_cell_angle_gamma   90.00000000
_symmetry_Int_Tables_number   1
_chemical_formula_structural   BaF3
_chemical_formula_sum   'Ba4 F12'
_cell_volume   416.03977795
_cell_formula_units_Z   4
loop_
 _symmetry_equiv_pos_site_id
 _symmetry_equiv_pos_as_xyz
  1  'x, y, z'
loop_
 _atom_site_type_symbol
 _atom_site_label
 _atom_site_symmetry_multiplicity
 _atom_site_fract_x
 _atom_site_fract_y
 _atom_site_fract_z
 _atom_site_occupancy
  F  F0  1  0.32574200  0.67762202  0.06540200  1
  F  F1  1  0.17425800  0.17762200  0.43459799  1
  F  F2  1  0.67425801  0.32237801  0.56540199  1
  F  F3  1  0.82574201  0.82237802  0.93459799  1
  F  F4  1  0.67425801  0.32237801  0.93459799  1
  F  F5  1  0.82574201  0.82237802  0.56540199  1
  F  F6  1  0.32574200  0.67762202  0.43459799  1
  F  F7  1  0.17425800  0.17762200  0.06540200  1
  F  F8  1  0.86939301  0.54451202  0.25000000  1
  F  F9  1  0.63060701  0.04451200  0.25000000  1
  F  F10  1  0.13060700  0.45548801  0.74999999  1
  F  F11  1  0.36939300  0.95548803  0.74999999  1
  Ba  Ba12  1  0.04960600  0.89376003  0.25000000  1
  Ba  Ba13  1  0.45039400  0.39376001  0.25000000  1
  Ba  Ba14  1  0.95039401  0.10624000  0.74999999  1
  Ba  Ba15  1  0.54960601  0.60624002  0.74999999  1
