# generated using pymatgen
data_Co
_symmetry_space_group_name_H-M   'P 1'
_cell_length_a   3.54895401
_cell_length_b   3.54895401
_cell_length_c   10.61687374
_cell_angle_alpha   90.00000000
_cell_angle_beta   90.00000000
_cell_angle_gamma   90.00000000
_symmetry_Int_Tables_number   1
_chemical_formula_structural   Co
_chemical_formula_sum   Co12
_cell_volume   133.72031642
_cell_formula_units_Z   12
loop_
 _symmetry_equiv_pos_site_id
 _symmetry_equiv_pos_as_xyz
  1  'x, y, z'
loop_
 _atom_site_type_symbol
 _atom_site_label
 _atom_site_symmetry_multiplicity
 _atom_site_fract_x
 _atom_site_fract_y
 _atom_site_fract_z
 _atom_site_occupancy
  Co  Co0  1  0.00000000  0.00000000  0.33285001  1
  Co  Co1  1  0.00000000  0.00000000  0.66715002  1
  Co  Co2  1  0.00000000  0.00000000  0.00000000  1
  Co  Co3  1  0.50000000  0.50000000  -0.00000000  1
  Co  Co4  1  0.50000000  0.50000000  0.33024701  1
  Co  Co5  1  0.50000000  0.50000000  0.66975302  1
  Co  Co6  1  0.50000000  0.00000000  0.15921800  1
  Co  Co7  1  0.50000000  0.00000000  0.50000001  1
  Co  Co8  1  0.50000000  0.00000000  0.84078202  1
  Co  Co9  1  0.00000000  0.50000000  0.15921800  1
  Co  Co10  1  0.00000000  0.50000000  0.50000001  1
  Co  Co11  1  0.00000000  0.50000000  0.84078202  1
