# generated using pymatgen
data_InGaO3
_symmetry_space_group_name_H-M   'P 1'
_cell_length_a   5.46738291
_cell_length_b   5.46738291
_cell_length_c   5.94080782
_cell_angle_alpha   62.60290146
_cell_angle_beta   62.60290146
_cell_angle_gamma   60.00001526
_symmetry_Int_Tables_number   1
_chemical_formula_structural   InGaO3
_chemical_formula_sum   'In2 Ga2 O6'
_cell_volume   130.28655432
_cell_formula_units_Z   2
loop_
 _symmetry_equiv_pos_site_id
 _symmetry_equiv_pos_as_xyz
  1  'x, y, z'
loop_
 _atom_site_type_symbol
 _atom_site_label
 _atom_site_symmetry_multiplicity
 _atom_site_fract_x
 _atom_site_fract_y
 _atom_site_fract_z
 _atom_site_occupancy
  Ga  Ga0  1  0.80040905  0.80040899  0.59877295  1
  Ga  Ga1  1  0.30040902  0.30040900  0.09877298  1
  In  In2  1  0.51299303  0.51299299  0.46102097  1
  In  In3  1  0.01299300  0.01299300  0.96102102  1
  O  O4  1  0.59496401  0.22375100  0.24393198  1
  O  O5  1  0.72375101  0.09496400  0.74393199  1
  O  O6  1  0.09496402  0.43735299  0.74393199  1
  O  O7  1  0.22375105  0.93735299  0.24393196  1
  O  O8  1  0.93735304  0.59496399  0.24393195  1
  O  O9  1  0.43735304  0.72375099  0.74393197  1
