# generated using pymatgen
data_AlBrF6
_symmetry_space_group_name_H-M   'P 1'
_cell_length_a   5.47106075
_cell_length_b   5.47106075
_cell_length_c   5.47106075
_cell_angle_alpha   60.00000000
_cell_angle_beta   60.00000000
_cell_angle_gamma   60.00000000
_symmetry_Int_Tables_number   1
_chemical_formula_structural   AlBrF6
_chemical_formula_sum   'Al1 Br1 F6'
_cell_volume   115.79761492
_cell_formula_units_Z   1
loop_
 _symmetry_equiv_pos_site_id
 _symmetry_equiv_pos_as_xyz
  1  'x, y, z'
loop_
 _atom_site_type_symbol
 _atom_site_label
 _atom_site_symmetry_multiplicity
 _atom_site_fract_x
 _atom_site_fract_y
 _atom_site_fract_z
 _atom_site_occupancy
  Br  Br0  1  0.00000000  0.00000000  0.00000000  1
  Al  Al1  1  0.49999998  0.49999998  0.49999998  1
  F  F2  1  0.26560799  0.73439197  0.73439197  1
  F  F3  1  0.26560799  0.26560799  0.73439197  1
  F  F4  1  0.26560799  0.73439197  0.26560799  1
  F  F5  1  0.73439197  0.26560799  0.26560799  1
  F  F6  1  0.73439197  0.26560799  0.73439197  1
  F  F7  1  0.73439197  0.73439197  0.26560799  1
