# generated using pymatgen
data_Tb9MgBi6
_symmetry_space_group_name_H-M   'P 1'
_cell_length_a   6.75427008
_cell_length_b   9.02102375
_cell_length_c   9.02102375
_cell_angle_alpha   120.00000000
_cell_angle_beta   90.00000000
_cell_angle_gamma   90.00000000
_symmetry_Int_Tables_number   1
_chemical_formula_structural   Tb9MgBi6
_chemical_formula_sum   'Tb9 Mg1 Bi6'
_cell_volume   476.01507482
_cell_formula_units_Z   1
loop_
 _symmetry_equiv_pos_site_id
 _symmetry_equiv_pos_as_xyz
  1  'x, y, z'
loop_
 _atom_site_type_symbol
 _atom_site_label
 _atom_site_symmetry_multiplicity
 _atom_site_fract_x
 _atom_site_fract_y
 _atom_site_fract_z
 _atom_site_occupancy
  Tb  Tb0  1  0.00000000  0.33333334  0.66666669  1
  Tb  Tb1  1  0.00000000  0.66666669  0.33333335  1
  Tb  Tb2  1  0.49999999  0.66666669  0.33333335  1
  Mg  Mg3  1  0.49999999  0.33333334  0.66666669  1
  Tb  Tb4  1  0.25000000  0.23553301  0.00000000  1
  Tb  Tb5  1  0.25000000  0.76446702  0.76446703  1
  Tb  Tb6  1  0.25000000  0.00000000  0.23553301  1
  Tb  Tb7  1  0.74999999  0.76446702  0.00000000  1
  Tb  Tb8  1  0.74999999  0.23553301  0.23553301  1
  Tb  Tb9  1  0.74999999  0.00000000  0.76446702  1
  Bi  Bi10  1  0.25000000  0.59573502  0.00000000  1
  Bi  Bi11  1  0.25000000  0.40426501  0.40426501  1
  Bi  Bi12  1  0.25000000  0.00000000  0.59573502  1
  Bi  Bi13  1  0.74999999  0.40426501  0.00000000  1
  Bi  Bi14  1  0.74999999  0.59573502  0.59573502  1
  Bi  Bi15  1  0.74999999  0.00000000  0.40426501  1
