# generated using pymatgen
data_Ag3Br4
_symmetry_space_group_name_H-M   'P 1'
_cell_length_a   3.87140894
_cell_length_b   7.02079296
_cell_length_c   7.02079296
_cell_angle_alpha   108.55491638
_cell_angle_beta   90.00000000
_cell_angle_gamma   90.00000000
_symmetry_Int_Tables_number   1
_chemical_formula_structural   Ag3Br4
_chemical_formula_sum   'Ag3 Br4'
_cell_volume   180.90828831
_cell_formula_units_Z   1
loop_
 _symmetry_equiv_pos_site_id
 _symmetry_equiv_pos_as_xyz
  1  'x, y, z'
loop_
 _atom_site_type_symbol
 _atom_site_label
 _atom_site_symmetry_multiplicity
 _atom_site_fract_x
 _atom_site_fract_y
 _atom_site_fract_z
 _atom_site_occupancy
  Ag  Ag0  1  0.50000001  0.00000000  0.50000001  1
  Ag  Ag1  1  0.50000001  0.50000001  0.00000002  1
  Ag  Ag2  1  0.00000000  0.00000000  0.00000000  1
  Br  Br3  1  -0.00000000  0.77032802  0.22967204  1
  Br  Br4  1  -0.00000000  0.22967201  0.77032802  1
  Br  Br5  1  0.50000001  0.21775801  0.21775801  1
  Br  Br6  1  0.50000001  0.78224202  0.78224204  1
