# generated using pymatgen
data_Tb2H3Cl
_symmetry_space_group_name_H-M   'P 1'
_cell_length_a   3.13022804
_cell_length_b   5.46247387
_cell_length_c   5.46247387
_cell_angle_alpha   120.00000000
_cell_angle_beta   90.00000000
_cell_angle_gamma   90.00000000
_symmetry_Int_Tables_number   1
_chemical_formula_structural   Tb2H3Cl
_chemical_formula_sum   'Tb2 H3 Cl1'
_cell_volume   80.88823413
_cell_formula_units_Z   1
loop_
 _symmetry_equiv_pos_site_id
 _symmetry_equiv_pos_as_xyz
  1  'x, y, z'
loop_
 _atom_site_type_symbol
 _atom_site_label
 _atom_site_symmetry_multiplicity
 _atom_site_fract_x
 _atom_site_fract_y
 _atom_site_fract_z
 _atom_site_occupancy
  Cl  Cl0  1  0.00000000  0.00000000  0.00000000  1
  Tb  Tb1  1  0.99999999  0.66666667  0.33333331  1
  Tb  Tb2  1  0.00000000  0.33333334  0.66666665  1
  H  H3  1  0.49999999  0.50000001  0.49999998  1
  H  H4  1  0.49999999  0.50000001  -0.00000001  1
  H  H5  1  0.49999999  0.00000000  0.49999999  1
