# generated using pymatgen
data_Nd4Ni3O13
_symmetry_space_group_name_H-M   'P 1'
_cell_length_a   5.51413298
_cell_length_b   5.67400885
_cell_length_c   7.53689814
_cell_angle_alpha   90.00000000
_cell_angle_beta   90.76231384
_cell_angle_gamma   90.00000000
_symmetry_Int_Tables_number   1
_chemical_formula_structural   Nd4Ni3O13
_chemical_formula_sum   'Nd4 Ni3 O13'
_cell_volume   235.78786435
_cell_formula_units_Z   1
loop_
 _symmetry_equiv_pos_site_id
 _symmetry_equiv_pos_as_xyz
  1  'x, y, z'
loop_
 _atom_site_type_symbol
 _atom_site_label
 _atom_site_symmetry_multiplicity
 _atom_site_fract_x
 _atom_site_fract_y
 _atom_site_fract_z
 _atom_site_occupancy
  Nd  Nd0  1  0.98884700  0.55553402  0.25050696  1
  Nd  Nd1  1  0.51115300  0.05553400  0.24949298  1
  Nd  Nd2  1  0.01115300  0.44446601  0.74949299  1
  Nd  Nd3  1  0.48884700  0.94446603  0.75050698  1
  O  O4  1  0.00000000  0.00000000  0.00000000  1
  Ni  Ni5  1  0.50000000  0.50000001  0.49999998  1
  Ni  Ni6  1  0.00000000  0.00000000  0.50000000  1
  Ni  Ni7  1  0.50000000  0.50000001  -0.00000002  1
  O  O8  1  0.80794700  0.28722901  0.45191897  1
  O  O9  1  0.69205300  0.78722902  0.04808097  1
  O  O10  1  0.21071400  0.69490602  0.95227799  1
  O  O11  1  0.28928600  0.19490601  0.54772199  1
  O  O12  1  0.19205300  0.71277102  0.54808099  1
  O  O13  1  0.30794700  0.21277101  0.95191898  1
  O  O14  1  0.78928600  0.30509401  0.04772197  1
  O  O15  1  0.71071400  0.80509402  0.45227797  1
  O  O16  1  0.09471200  0.97009903  0.24666099  1
  O  O17  1  0.40528800  0.47009901  0.25333898  1
  O  O18  1  0.90528800  0.02990100  0.75333896  1
  O  O19  1  0.59471200  0.52990101  0.74666097  1
