# generated using pymatgen
data_UTe2
_symmetry_space_group_name_H-M   'P 1'
_cell_length_a   5.00053406
_cell_length_b   5.98840427
_cell_length_c   5.99351501
_cell_angle_alpha   64.58727264
_cell_angle_beta   65.34445190
_cell_angle_gamma   65.32200623
_symmetry_Int_Tables_number   1
_chemical_formula_structural   UTe2
_chemical_formula_sum   'U2 Te4'
_cell_volume   140.97632637
_cell_formula_units_Z   2
loop_
 _symmetry_equiv_pos_site_id
 _symmetry_equiv_pos_as_xyz
  1  'x, y, z'
loop_
 _atom_site_type_symbol
 _atom_site_label
 _atom_site_symmetry_multiplicity
 _atom_site_fract_x
 _atom_site_fract_y
 _atom_site_fract_z
 _atom_site_occupancy
  Te  Te0  1  0.01943497  0.58078700  0.08568004  1
  U  U1  1  0.33378898  0.50000000  0.50000002  1
  Te  Te2  1  0.68590099  0.41921300  0.91431999  1
  Te  Te3  1  0.98075301  0.08063500  0.58560795  1
  U  U4  1  0.33312600  0.00000000  -0.00000002  1
  Te  Te5  1  0.64699596  0.91936499  0.41439203  1
