# generated using pymatgen
data_Mg3Al(CuSi)4
_symmetry_space_group_name_H-M   'P 1'
_cell_length_a   3.65718889
_cell_length_b   6.14702415
_cell_length_c   7.01542616
_cell_angle_alpha   90.00000000
_cell_angle_beta   90.00000000
_cell_angle_gamma   90.00000000
_symmetry_Int_Tables_number   1
_chemical_formula_structural   Mg3Al(CuSi)4
_chemical_formula_sum   'Mg3 Al1 Si4 Cu4'
_cell_volume   157.71259205
_cell_formula_units_Z   1
loop_
 _symmetry_equiv_pos_site_id
 _symmetry_equiv_pos_as_xyz
  1  'x, y, z'
loop_
 _atom_site_type_symbol
 _atom_site_label
 _atom_site_symmetry_multiplicity
 _atom_site_fract_x
 _atom_site_fract_y
 _atom_site_fract_z
 _atom_site_occupancy
  Al  Al0  1  0.25000001  0.52265999  0.31933099  1
  Mg  Mg1  1  0.75000002  0.97733998  0.81933098  1
  Mg  Mg2  1  0.75000002  0.47733999  0.68066898  1
  Mg  Mg3  1  0.25000001  0.02266000  0.18066900  1
  Si  Si4  1  0.75000002  0.73390798  0.12214000  1
  Si  Si5  1  0.25000001  0.26609199  0.87785998  1
  Si  Si6  1  0.25000001  0.76609198  0.62213999  1
  Si  Si7  1  0.75000002  0.23390799  0.37785999  1
  Cu  Cu8  1  0.75000002  0.35870599  0.06012000  1
  Cu  Cu9  1  0.75000002  0.85870598  0.43987999  1
  Cu  Cu10  1  0.25000001  0.64129398  0.93987998  1
  Cu  Cu11  1  0.25000001  0.14129400  0.56011999  1
