# generated using pymatgen
data_Ba2LiF7
_symmetry_space_group_name_H-M   'P 1'
_cell_length_a   5.46706581
_cell_length_b   5.77100372
_cell_length_c   5.46706581
_cell_angle_alpha   61.72741699
_cell_angle_beta   90.00000000
_cell_angle_gamma   118.27258301
_symmetry_Int_Tables_number   1
_chemical_formula_structural   Ba2LiF7
_chemical_formula_sum   'Ba2 Li1 F7'
_cell_volume   128.06954484
_cell_formula_units_Z   1
loop_
 _symmetry_equiv_pos_site_id
 _symmetry_equiv_pos_as_xyz
  1  'x, y, z'
loop_
 _atom_site_type_symbol
 _atom_site_label
 _atom_site_symmetry_multiplicity
 _atom_site_fract_x
 _atom_site_fract_y
 _atom_site_fract_z
 _atom_site_occupancy
  Ba  Ba0  1  0.25000000  0.49999998  0.25000001  1
  Ba  Ba1  1  0.75000002  0.49999998  0.75000003  1
  Li  Li2  1  0.50000002  0.00000000  0.50000002  1
  F  F3  1  0.00000000  0.00000000  0.00000000  1
  F  F4  1  0.70883602  0.00000100  0.79629303  1
  F  F5  1  0.29116400  0.99999896  0.20370702  1
  F  F6  1  0.79629403  0.00000000  0.29116401  1
  F  F7  1  0.20370601  0.00000000  0.70883602  1
  F  F8  1  0.22700200  0.45400398  0.77299803  1
  F  F9  1  0.77299802  0.54599598  0.22700201  1
