# generated using pymatgen
data_Ba2Zn4P2NO
_symmetry_space_group_name_H-M   'P 1'
_cell_length_a   3.93265390
_cell_length_b   5.89801884
_cell_length_c   7.18278122
_cell_angle_alpha   90.00000000
_cell_angle_beta   90.00000000
_cell_angle_gamma   109.47452545
_symmetry_Int_Tables_number   1
_chemical_formula_structural   Ba2Zn4P2NO
_chemical_formula_sum   'Ba2 Zn4 P2 N1 O1'
_cell_volume   157.07222755
_cell_formula_units_Z   1
loop_
 _symmetry_equiv_pos_site_id
 _symmetry_equiv_pos_as_xyz
  1  'x, y, z'
loop_
 _atom_site_type_symbol
 _atom_site_label
 _atom_site_symmetry_multiplicity
 _atom_site_fract_x
 _atom_site_fract_y
 _atom_site_fract_z
 _atom_site_occupancy
  Ba  Ba0  1  0.45253001  0.90505999  0.74999998  1
  Ba  Ba1  1  0.54747001  0.09494000  0.24999999  1
  P  P2  1  0.73144502  0.46288999  0.74999998  1
  P  P3  1  0.26855501  0.53710999  0.24999999  1
  Zn  Zn4  1  0.16584700  0.33169400  0.94032497  1
  Zn  Zn5  1  0.83415302  0.66830599  0.05967500  1
  Zn  Zn6  1  0.83415302  0.66830599  0.44032499  1
  Zn  Zn7  1  0.16584700  0.33169400  0.55967498  1
  O  O8  1  0.00000000  0.00000000  0.00000000  1
  N  N9  1  0.00000000  0.00000000  0.49999998  1
