# generated using pymatgen
data_NaMg(GeO2)6
_symmetry_space_group_name_H-M   'P 1'
_cell_length_a   5.86640310
_cell_length_b   6.86515856
_cell_length_c   6.86515856
_cell_angle_alpha   83.28070068
_cell_angle_beta   74.08734131
_cell_angle_gamma   74.08734131
_symmetry_Int_Tables_number   1
_chemical_formula_structural   NaMg(GeO2)6
_chemical_formula_sum   'Na1 Mg1 Ge6 O12'
_cell_volume   255.44070640
_cell_formula_units_Z   1
loop_
 _symmetry_equiv_pos_site_id
 _symmetry_equiv_pos_as_xyz
  1  'x, y, z'
loop_
 _atom_site_type_symbol
 _atom_site_label
 _atom_site_symmetry_multiplicity
 _atom_site_fract_x
 _atom_site_fract_y
 _atom_site_fract_z
 _atom_site_occupancy
  Mg  Mg0  1  0.00000009  0.90493196  0.09506794  1
  Na  Na1  1  0.50000007  0.75668397  0.24331597  1
  Ge  Ge2  1  1.00000002  0.24333499  0.75666502  1
  Ge  Ge3  1  0.98018503  0.38967798  0.20051802  1
  Ge  Ge4  1  0.48121002  0.20063299  0.38907400  1
  Ge  Ge5  1  0.01981508  0.79948196  0.61032193  1
  Ge  Ge6  1  0.51879006  0.61092597  0.79936696  1
  Ge  Ge7  1  0.50000001  0.09233300  0.90766700  1
  O  O8  1  0.09927102  0.21631699  0.01578799  1
  O  O9  1  0.92364606  0.62646797  0.09877201  1
  O  O10  1  0.59072300  0.01846400  0.21347803  1
  O  O11  1  0.18964103  0.35783798  0.35987198  1
  O  O12  1  0.07635409  0.90122796  0.37353193  1
  O  O13  1  0.68931203  0.36080698  0.36014300  1
  O  O14  1  0.81035906  0.64012797  0.64216198  1
  O  O15  1  0.42208501  0.09876200  0.62860200  1
  O  O16  1  0.31068806  0.63985697  0.63919296  1
  O  O17  1  0.90072909  0.98421196  0.78368296  1
  O  O18  1  0.57791503  0.37139798  0.90123798  1
  O  O19  1  0.40927707  0.78652196  0.98153594  1
