# generated using pymatgen
data_Ga
_symmetry_space_group_name_H-M   'P 1'
_cell_length_a   3.85673046
_cell_length_b   3.85673046
_cell_length_c   7.05811787
_cell_angle_alpha   74.14448547
_cell_angle_beta   74.14448547
_cell_angle_gamma   59.99999237
_symmetry_Int_Tables_number   1
_chemical_formula_structural   Ga
_chemical_formula_sum   Ga4
_cell_volume   86.27669530
_cell_formula_units_Z   4
loop_
 _symmetry_equiv_pos_site_id
 _symmetry_equiv_pos_as_xyz
  1  'x, y, z'
loop_
 _atom_site_type_symbol
 _atom_site_label
 _atom_site_symmetry_multiplicity
 _atom_site_fract_x
 _atom_site_fract_y
 _atom_site_fract_z
 _atom_site_occupancy
  Ga  Ga0  1  0.13165400  0.13165400  0.60503799  1
  Ga  Ga1  1  0.86834601  0.86834600  0.39496195  1
  Ga  Ga2  1  0.25821200  0.25821200  0.22536398  1
  Ga  Ga3  1  0.74178801  0.74178800  0.77463596  1
