# generated using pymatgen
data_HoGa3
_symmetry_space_group_name_H-M   'P 1'
_cell_length_a   6.15561390
_cell_length_b   6.15561295
_cell_length_c   9.52994442
_cell_angle_alpha   90.00000000
_cell_angle_beta   90.00000000
_cell_angle_gamma   120.00000763
_symmetry_Int_Tables_number   1
_chemical_formula_structural   HoGa3
_chemical_formula_sum   'Ho4 Ga12'
_cell_volume   312.72574947
_cell_formula_units_Z   4
loop_
 _symmetry_equiv_pos_site_id
 _symmetry_equiv_pos_as_xyz
  1  'x, y, z'
loop_
 _atom_site_type_symbol
 _atom_site_label
 _atom_site_symmetry_multiplicity
 _atom_site_fract_x
 _atom_site_fract_y
 _atom_site_fract_z
 _atom_site_occupancy
  Ho  Ho0  1  0.00000000  0.00000000  0.49999998  1
  Ho  Ho1  1  0.00000000  0.00000000  0.00000000  1
  Ho  Ho2  1  0.66666669  0.33333335  0.74999997  1
  Ho  Ho3  1  0.33333337  0.66666669  0.24999999  1
  Ga  Ga4  1  0.50000001  0.00000000  0.49999998  1
  Ga  Ga5  1  0.50000003  0.50000002  0.49999998  1
  Ga  Ga6  1  0.00000003  0.50000002  0.49999998  1
  Ga  Ga7  1  0.50000001  0.00000000  -0.00000000  1
  Ga  Ga8  1  0.50000003  0.50000002  -0.00000000  1
  Ga  Ga9  1  0.00000003  0.50000002  0.99999996  1
  Ga  Ga10  1  0.18555904  0.81444103  0.74999997  1
  Ga  Ga11  1  0.62888205  0.81444103  0.74999997  1
  Ga  Ga12  1  0.18555902  0.37111802  0.74999997  1
  Ga  Ga13  1  0.81444102  0.18555901  0.24999999  1
  Ga  Ga14  1  0.37111802  0.18555901  0.24999999  1
  Ga  Ga15  1  0.81444105  0.62888203  0.24999999  1
