# generated using pymatgen
data_UP
_symmetry_space_group_name_H-M   'P 1'
_cell_length_a   5.48639107
_cell_length_b   8.25239182
_cell_length_c   8.25239182
_cell_angle_alpha   120.00000000
_cell_angle_beta   90.00000000
_cell_angle_gamma   90.00000000
_symmetry_Int_Tables_number   1
_chemical_formula_structural   UP
_chemical_formula_sum   'U9 P9'
_cell_volume   323.57657345
_cell_formula_units_Z   9
loop_
 _symmetry_equiv_pos_site_id
 _symmetry_equiv_pos_as_xyz
  1  'x, y, z'
loop_
 _atom_site_type_symbol
 _atom_site_label
 _atom_site_symmetry_multiplicity
 _atom_site_fract_x
 _atom_site_fract_y
 _atom_site_fract_z
 _atom_site_occupancy
  U  U0  1  0.25000000  0.75441401  0.75441400  1
  U  U1  1  0.74999999  0.24558600  0.24558600  1
  U  U2  1  0.25000000  1.00000002  0.24558599  1
  U  U3  1  0.74999999  1.00000002  0.75441400  1
  U  U4  1  0.25000000  0.24558600  -0.00000000  1
  U  U5  1  0.74999999  0.75441401  -0.00000001  1
  U  U6  1  0.49999999  0.66666668  0.33333333  1
  U  U7  1  0.49999999  0.33333334  0.66666667  1
  P  P8  1  0.99999999  0.33333334  0.66666667  1
  U  U9  1  -0.00000000  0.66666668  0.33333333  1
  P  P10  1  0.49999999  0.00000000  -0.00000000  1
  P  P11  1  0.00000000  0.00000000  0.00000000  1
  P  P12  1  0.25000000  0.39480601  0.39480600  1
  P  P13  1  0.74999999  0.60519401  0.60519400  1
  P  P14  1  0.25000000  1.00000002  0.60519400  1
  P  P15  1  0.74999999  1.00000002  0.39480600  1
  P  P16  1  0.25000000  0.60519401  1.00000001  1
  P  P17  1  0.74999999  0.39480601  -0.00000000  1
