# generated using pymatgen
data_Ge2Te
_symmetry_space_group_name_H-M   'P 1'
_cell_length_a   4.50817394
_cell_length_b   4.51983595
_cell_length_c   10.09097576
_cell_angle_alpha   102.94139862
_cell_angle_beta   102.90743256
_cell_angle_gamma   90.00000000
_symmetry_Int_Tables_number   1
_chemical_formula_structural   Ge2Te
_chemical_formula_sum   'Ge4 Te2'
_cell_volume   195.05857705
_cell_formula_units_Z   2
loop_
 _symmetry_equiv_pos_site_id
 _symmetry_equiv_pos_as_xyz
  1  'x, y, z'
loop_
 _atom_site_type_symbol
 _atom_site_label
 _atom_site_symmetry_multiplicity
 _atom_site_fract_x
 _atom_site_fract_y
 _atom_site_fract_z
 _atom_site_occupancy
  Ge  Ge0  1  0.32963401  0.32963400  0.65926799  1
  Ge  Ge1  1  0.66917602  0.66917601  0.33835200  1
  Ge  Ge2  1  0.00133000  0.00133000  0.00266000  1
  Te  Te3  1  0.74793302  0.24793300  0.49586600  1
  Te  Te4  1  0.41026902  0.91026901  0.82053799  1
  Ge  Ge5  1  0.09165501  0.59165501  0.18331000  1
