# generated using pymatgen
data_LuAu
_symmetry_space_group_name_H-M   'P 1'
_cell_length_a   4.15448809
_cell_length_b   4.15448809
_cell_length_c   7.48145151
_cell_angle_alpha   73.87984467
_cell_angle_beta   73.87984467
_cell_angle_gamma   59.99999619
_symmetry_Int_Tables_number   1
_chemical_formula_structural   LuAu
_chemical_formula_sum   'Lu2 Au2'
_cell_volume   105.92514377
_cell_formula_units_Z   2
loop_
 _symmetry_equiv_pos_site_id
 _symmetry_equiv_pos_as_xyz
  1  'x, y, z'
loop_
 _atom_site_type_symbol
 _atom_site_label
 _atom_site_symmetry_multiplicity
 _atom_site_fract_x
 _atom_site_fract_y
 _atom_site_fract_z
 _atom_site_occupancy
  Au  Au0  1  0.00000000  0.00000000  0.00000000  1
  Au  Au1  1  0.50000001  0.50000002  0.50000001  1
  Lu  Lu2  1  0.24455401  0.24455401  0.26633800  1
  Lu  Lu3  1  0.75544602  0.75544603  0.73366201  1
