# generated using pymatgen
data_Mo3S4
_symmetry_space_group_name_H-M   'P 1'
_cell_length_a   3.60701203
_cell_length_b   6.29379272
_cell_length_c   6.58649635
_cell_angle_alpha   116.33026123
_cell_angle_beta   105.89163208
_cell_angle_gamma   90.00000000
_symmetry_Int_Tables_number   1
_chemical_formula_structural   Mo3S4
_chemical_formula_sum   'Mo3 S4'
_cell_volume   127.60482391
_cell_formula_units_Z   1
loop_
 _symmetry_equiv_pos_site_id
 _symmetry_equiv_pos_as_xyz
  1  'x, y, z'
loop_
 _atom_site_type_symbol
 _atom_site_label
 _atom_site_symmetry_multiplicity
 _atom_site_fract_x
 _atom_site_fract_y
 _atom_site_fract_z
 _atom_site_occupancy
  Mo  Mo0  1  0.25996301  0.28097801  0.51992599  1
  Mo  Mo1  1  0.74003702  0.71902203  0.48007401  1
  Mo  Mo2  1  0.00000000  0.00000000  0.00000000  1
  S  S3  1  0.11637201  0.44834502  0.23274400  1
  S  S4  1  0.88362801  0.55165502  0.76725600  1
  S  S5  1  0.36787000  0.02520900  0.73573999  1
  S  S6  1  0.63213003  0.97479104  0.26426001  1
