# generated using pymatgen
data_Cs2AuCl4
_symmetry_space_group_name_H-M   'P 1'
_cell_length_a   7.24652386
_cell_length_b   7.25945377
_cell_length_c   9.28920078
_cell_angle_alpha   66.99901581
_cell_angle_beta   90.00000000
_cell_angle_gamma   90.00000000
_symmetry_Int_Tables_number   1
_chemical_formula_structural   Cs2AuCl4
_chemical_formula_sum   'Cs4 Au2 Cl8'
_cell_volume   449.81603863
_cell_formula_units_Z   2
loop_
 _symmetry_equiv_pos_site_id
 _symmetry_equiv_pos_as_xyz
  1  'x, y, z'
loop_
 _atom_site_type_symbol
 _atom_site_label
 _atom_site_symmetry_multiplicity
 _atom_site_fract_x
 _atom_site_fract_y
 _atom_site_fract_z
 _atom_site_occupancy
  Cs  Cs0  1  0.50000001  0.13521100  0.72957800  1
  Cs  Cs1  1  0.00000000  0.63521101  0.72957802  1
  Cs  Cs2  1  0.50000001  0.86478902  0.27042202  1
  Cs  Cs3  1  0.00000000  0.36478901  0.27042201  1
  Au  Au4  1  0.50000001  0.50000001  0.00000001  1
  Au  Au5  1  0.00000000  0.00000000  0.00000000  1
  Cl  Cl6  1  0.50000001  0.34688801  0.30622401  1
  Cl  Cl7  1  0.00000000  0.84688802  0.30622402  1
  Cl  Cl8  1  0.50000001  0.65311201  0.69377602  1
  Cl  Cl9  1  1.00000002  0.15311200  0.69377601  1
  Cl  Cl10  1  0.74033501  0.73947502  0.00000001  1
  Cl  Cl11  1  0.25966501  0.26052501  0.00000001  1
  Cl  Cl12  1  0.24033500  0.76052502  0.00000002  1
  Cl  Cl13  1  0.75966501  0.23947500  1.00000001  1
