# generated using pymatgen
data_NaMoO2
_symmetry_space_group_name_H-M   'P 1'
_cell_length_a   2.84300399
_cell_length_b   2.84300423
_cell_length_c   12.70795631
_cell_angle_alpha   90.00000000
_cell_angle_beta   90.00000000
_cell_angle_gamma   120.00000000
_symmetry_Int_Tables_number   1
_chemical_formula_structural   NaMoO2
_chemical_formula_sum   'Na2 Mo2 O4'
_cell_volume   88.95314740
_cell_formula_units_Z   2
loop_
 _symmetry_equiv_pos_site_id
 _symmetry_equiv_pos_as_xyz
  1  'x, y, z'
loop_
 _atom_site_type_symbol
 _atom_site_label
 _atom_site_symmetry_multiplicity
 _atom_site_fract_x
 _atom_site_fract_y
 _atom_site_fract_z
 _atom_site_occupancy
  Na  Na0  1  0.33333338  0.66666670  0.74999998  1
  Na  Na1  1  0.66666669  0.33333335  0.24999999  1
  O  O2  1  0.66666669  0.33333335  0.58472999  1
  O  O3  1  0.33333338  0.66666670  0.08473000  1
  O  O4  1  0.33333338  0.66666670  0.41526999  1
  O  O5  1  0.66666669  0.33333335  0.91526998  1
  Mo  Mo6  1  0.00000000  0.00000000  0.49999999  1
  Mo  Mo7  1  0.00000000  0.00000000  0.00000000  1
