# generated using pymatgen
data_InAg2Sn(PbS5)2
_symmetry_space_group_name_H-M   'P 1'
_cell_length_a   4.67754412
_cell_length_b   9.80469513
_cell_length_c   9.96308231
_cell_angle_alpha   90.00000000
_cell_angle_beta   90.00000000
_cell_angle_gamma   90.00000000
_symmetry_Int_Tables_number   1
_chemical_formula_structural   InAg2Sn(PbS5)2
_chemical_formula_sum   'In1 Ag2 Sn1 Pb2 S10'
_cell_volume   456.92582519
_cell_formula_units_Z   1
loop_
 _symmetry_equiv_pos_site_id
 _symmetry_equiv_pos_as_xyz
  1  'x, y, z'
loop_
 _atom_site_type_symbol
 _atom_site_label
 _atom_site_symmetry_multiplicity
 _atom_site_fract_x
 _atom_site_fract_y
 _atom_site_fract_z
 _atom_site_occupancy
  S  S0  1  0.00000000  0.20932800  0.41521199  1
  S  S1  1  0.00000000  0.79067199  0.58478798  1
  S  S2  1  0.00000000  0.20932800  0.08478800  1
  S  S3  1  0.00000000  0.79067199  0.91521197  1
  S  S4  1  0.49999999  0.22930000  0.74999998  1
  S  S5  1  0.49999999  0.77069999  0.24999999  1
  S  S6  1  0.49999999  0.49999999  -0.00000000  1
  S  S7  1  0.49999999  0.49999999  0.49999998  1
  Ag  Ag8  1  0.49999999  0.25425200  0.99167097  1
  Ag  Ag9  1  0.49999999  0.74574799  0.00832900  1
  Sn  Sn10  1  0.49999999  0.74574799  0.49167098  1
  In  In11  1  0.49999999  0.25425200  0.50832898  1
  S  S12  1  0.00000000  0.01243300  0.74999998  1
  Pb  Pb13  1  0.00000000  0.53521899  0.74999998  1
  Pb  Pb14  1  0.00000000  0.46478099  0.24999999  1
  S  S15  1  0.00000000  0.98756699  0.24999999  1
