# generated using pymatgen
data_Ho8Ga9Fe
_symmetry_space_group_name_H-M   'P 1'
_cell_length_a   5.96203995
_cell_length_b   8.70251846
_cell_length_c   8.70251846
_cell_angle_alpha   120.00000000
_cell_angle_beta   90.00000000
_cell_angle_gamma   90.00000000
_symmetry_Int_Tables_number   1
_chemical_formula_structural   Ho8Ga9Fe
_chemical_formula_sum   'Ho8 Ga9 Fe1'
_cell_volume   391.03480992
_cell_formula_units_Z   1
loop_
 _symmetry_equiv_pos_site_id
 _symmetry_equiv_pos_as_xyz
  1  'x, y, z'
loop_
 _atom_site_type_symbol
 _atom_site_label
 _atom_site_symmetry_multiplicity
 _atom_site_fract_x
 _atom_site_fract_y
 _atom_site_fract_z
 _atom_site_occupancy
  Ga  Ga0  1  1.00000001  0.33333332  0.66666666  1
  Ga  Ga1  1  0.00000000  0.66666664  0.33333334  1
  Ho  Ho2  1  0.50000000  0.66666664  0.33333334  1
  Ho  Ho3  1  0.50000000  0.33333332  0.66666666  1
  Ho  Ho4  1  0.25000000  0.26200699  0.00000001  1
  Ho  Ho5  1  0.25000000  0.73799297  0.73799300  1
  Ho  Ho6  1  0.25000000  0.99999996  0.26200702  1
  Ho  Ho7  1  0.75000001  0.73799297  0.00000002  1
  Ho  Ho8  1  0.75000001  0.26200699  0.26200700  1
  Ho  Ho9  1  0.75000001  0.99999996  0.73799301  1
  Ga  Ga10  1  0.25000000  0.60494697  0.00000001  1
  Ga  Ga11  1  0.25000000  0.39505298  0.39505300  1
  Ga  Ga12  1  0.25000000  0.99999996  0.60494701  1
  Ga  Ga13  1  0.75000001  0.39505298  0.00000001  1
  Ga  Ga14  1  0.75000001  0.60494697  0.60494700  1
  Ga  Ga15  1  0.75000001  0.99999996  0.39505301  1
  Ga  Ga16  1  0.00000000  0.00000000  0.00000000  1
  Fe  Fe17  1  0.50000000  0.00000000  -0.00000000  1
