# generated using pymatgen
data_Mg2B2O5
_symmetry_space_group_name_H-M   'P 1'
_cell_length_a   3.28351808
_cell_length_b   6.25844669
_cell_length_c   9.53459835
_cell_angle_alpha   105.13312531
_cell_angle_beta   91.07124329
_cell_angle_gamma   91.79936981
_symmetry_Int_Tables_number   1
_chemical_formula_structural   Mg2B2O5
_chemical_formula_sum   'Mg4 B4 O10'
_cell_volume   188.97203782
_cell_formula_units_Z   2
loop_
 _symmetry_equiv_pos_site_id
 _symmetry_equiv_pos_as_xyz
  1  'x, y, z'
loop_
 _atom_site_type_symbol
 _atom_site_label
 _atom_site_symmetry_multiplicity
 _atom_site_fract_x
 _atom_site_fract_y
 _atom_site_fract_z
 _atom_site_occupancy
  Mg  Mg0  1  0.76272395  0.63635499  0.89970397  1
  Mg  Mg1  1  0.23727397  0.36364499  0.10029600  1
  Mg  Mg2  1  0.25236894  0.78681999  0.63960998  1
  Mg  Mg3  1  0.74762898  0.21318000  0.36038998  1
  B  B4  1  0.65467599  0.12463200  0.83001996  1
  B  B5  1  0.34532493  0.87536799  0.16998001  1
  B  B6  1  0.30587597  0.31978799  0.64594297  1
  B  B7  1  0.69412595  0.68021299  0.35405699  1
  O  O8  1  0.24213199  0.08829500  0.18119499  1
  O  O9  1  0.74095997  0.30787900  0.94326896  1
  O  O10  1  0.25904095  0.69212099  0.05673101  1
  O  O11  1  0.75786593  0.91170399  0.81880397  1
  O  O12  1  0.73633196  0.47334299  0.26056299  1
  O  O13  1  0.24283798  0.27066300  0.50026898  1
  O  O14  1  0.57107593  0.85605799  0.29563000  1
  O  O15  1  0.42892499  0.14394200  0.70436997  1
  O  O16  1  0.75715894  0.72933699  0.49973099  1
  O  O17  1  0.26366496  0.52665599  0.73943697  1
