# generated using pymatgen
data_Ba7Bi3O10
_symmetry_space_group_name_H-M   'P 1'
_cell_length_a   7.48073435
_cell_length_b   7.48073435
_cell_length_c   7.48073435
_cell_angle_alpha   109.47122192
_cell_angle_beta   109.47122192
_cell_angle_gamma   109.47122192
_symmetry_Int_Tables_number   1
_chemical_formula_structural   Ba7Bi3O10
_chemical_formula_sum   'Ba7 Bi3 O10'
_cell_volume   322.26325273
_cell_formula_units_Z   1
loop_
 _symmetry_equiv_pos_site_id
 _symmetry_equiv_pos_as_xyz
  1  'x, y, z'
loop_
 _atom_site_type_symbol
 _atom_site_label
 _atom_site_symmetry_multiplicity
 _atom_site_fract_x
 _atom_site_fract_y
 _atom_site_fract_z
 _atom_site_occupancy
  Ba  Ba0  1  1.00000004  0.50000002  0.00000005  1
  Ba  Ba1  1  0.00000000  0.00000000  0.50000000  1
  Ba  Ba2  1  0.50000001  0.00000000  1.00000001  1
  Ba  Ba3  1  0.50000004  0.50000002  0.50000004  1
  Ba  Ba4  1  0.00000000  0.00000000  0.00000000  1
  Bi  Bi5  1  0.50000004  0.50000002  1.00000004  1
  Bi  Bi6  1  1.00000004  0.50000002  0.50000005  1
  Bi  Bi7  1  0.50000001  0.00000000  0.50000001  1
  Ba  Ba8  1  0.00000005  0.74740103  0.74740104  1
  O  O9  1  0.25000005  0.75000003  0.50000005  1
  O  O10  1  0.74740106  0.74740103  1.00000006  1
  O  O11  1  0.75000004  0.50000002  0.25000005  1
  O  O12  1  0.50000005  0.75000003  0.25000005  1
  O  O13  1  0.75000002  0.25000001  0.50000003  1
  Ba  Ba14  1  0.25259907  1.00000004  0.25259906  1
  O  O15  1  0.74740107  1.00000004  0.74740108  1
  O  O16  1  1.00000003  0.25259901  0.25259904  1
  O  O17  1  0.50000002  0.25000001  0.75000003  1
  O  O18  1  0.25000003  0.50000002  0.75000004  1
  O  O19  1  0.25259902  0.25259901  1.00000002  1
