# generated using pymatgen
data_HoGa3
_symmetry_space_group_name_H-M   'P 1'
_cell_length_a   3.91453481
_cell_length_b   3.91453481
_cell_length_c   7.45801973
_cell_angle_alpha   74.78523254
_cell_angle_beta   74.78523254
_cell_angle_gamma   59.99998474
_symmetry_Int_Tables_number   1
_chemical_formula_structural   HoGa3
_chemical_formula_sum   'Ho1 Ga3'
_cell_volume   94.31866049
_cell_formula_units_Z   1
loop_
 _symmetry_equiv_pos_site_id
 _symmetry_equiv_pos_as_xyz
  1  'x, y, z'
loop_
 _atom_site_type_symbol
 _atom_site_label
 _atom_site_symmetry_multiplicity
 _atom_site_fract_x
 _atom_site_fract_y
 _atom_site_fract_z
 _atom_site_occupancy
  Ga  Ga0  1  0.77006501  0.77006502  0.68980504  1
  Ga  Ga1  1  0.22993500  0.22993501  0.31019501  1
  Ga  Ga2  1  0.50000001  0.50000001  0.50000003  1
  Ho  Ho3  1  0.00000000  0.00000000  0.00000000  1
