# generated using pymatgen
data_HoCoO3
_symmetry_space_group_name_H-M   'P 1'
_cell_length_a   5.26282883
_cell_length_b   5.68801212
_cell_length_c   7.62239885
_cell_angle_alpha   90.00000000
_cell_angle_beta   90.00000000
_cell_angle_gamma   90.00000000
_symmetry_Int_Tables_number   1
_chemical_formula_structural   HoCoO3
_chemical_formula_sum   'Ho4 Co4 O12'
_cell_volume   228.17677013
_cell_formula_units_Z   4
loop_
 _symmetry_equiv_pos_site_id
 _symmetry_equiv_pos_as_xyz
  1  'x, y, z'
loop_
 _atom_site_type_symbol
 _atom_site_label
 _atom_site_symmetry_multiplicity
 _atom_site_fract_x
 _atom_site_fract_y
 _atom_site_fract_z
 _atom_site_occupancy
  Ho  Ho0  1  0.02226000  0.92927298  0.25000000  1
  Ho  Ho1  1  0.47774002  0.42927299  0.25000000  1
  Ho  Ho2  1  0.52226002  0.57072699  0.75000001  1
  Ho  Ho3  1  0.97774003  0.07072700  0.75000001  1
  Co  Co4  1  0.00000000  0.49999999  -0.00000000  1
  Co  Co5  1  0.00000000  0.49999999  0.50000001  1
  Co  Co6  1  0.50000002  0.00000000  0.00000000  1
  Co  Co7  1  0.50000002  0.00000000  0.50000001  1
  O  O8  1  0.12523800  0.44833799  0.75000001  1
  O  O9  1  0.19172401  0.18712800  0.43693101  1
  O  O10  1  0.19172401  0.18712800  0.06306900  1
  O  O11  1  0.30827601  0.68712799  0.43693101  1
  O  O12  1  0.30827601  0.68712799  0.06306900  1
  O  O13  1  0.37476201  0.94833798  0.75000001  1
  O  O14  1  0.62523802  0.05166200  0.25000000  1
  O  O15  1  0.69172402  0.31287199  0.93693102  1
  O  O16  1  0.69172402  0.31287199  0.56306901  1
  O  O17  1  0.80827603  0.81287198  0.93693102  1
  O  O18  1  0.80827603  0.81287198  0.56306901  1
  O  O19  1  0.87476203  0.55166199  0.25000000  1
