# generated using pymatgen
data_Ba3F13
_symmetry_space_group_name_H-M   'P 1'
_cell_length_a   6.89937210
_cell_length_b   6.89937210
_cell_length_c   7.14483309
_cell_angle_alpha   90.00000000
_cell_angle_beta   90.00000000
_cell_angle_gamma   90.00000000
_symmetry_Int_Tables_number   1
_chemical_formula_structural   Ba3F13
_chemical_formula_sum   'Ba3 F13'
_cell_volume   340.10359609
_cell_formula_units_Z   1
loop_
 _symmetry_equiv_pos_site_id
 _symmetry_equiv_pos_as_xyz
  1  'x, y, z'
loop_
 _atom_site_type_symbol
 _atom_site_label
 _atom_site_symmetry_multiplicity
 _atom_site_fract_x
 _atom_site_fract_y
 _atom_site_fract_z
 _atom_site_occupancy
  F  F0  1  0.00000000  0.49999999  -0.00000000  1
  Ba  Ba1  1  0.00000000  0.49999999  0.49999999  1
  Ba  Ba2  1  0.49999999  0.00000000  0.49999999  1
  F  F3  1  0.49999999  0.00000000  0.00000000  1
  F  F4  1  0.15416900  0.15416900  0.25588500  1
  F  F5  1  0.34583099  0.65416899  0.75588499  1
  F  F6  1  0.65416899  0.34583099  0.75588499  1
  F  F7  1  0.65416899  0.34583099  0.24411500  1
  F  F8  1  0.34583099  0.65416899  0.24411500  1
  F  F9  1  0.84583099  0.84583099  0.25588500  1
  F  F10  1  0.15416900  0.15416900  0.74411499  1
  F  F11  1  0.84583099  0.84583099  0.74411499  1
  Ba  Ba12  1  0.34896699  0.34896699  -0.00000000  1
  F  F13  1  0.15103300  0.84896699  0.49999999  1
  F  F14  1  0.84896699  0.15103300  0.49999999  1
  F  F15  1  0.65103299  0.65103299  -0.00000000  1
