# generated using pymatgen
data_MgInF6
_symmetry_space_group_name_H-M   'P 1'
_cell_length_a   5.48568296
_cell_length_b   5.48568296
_cell_length_c   5.64949369
_cell_angle_alpha   60.95461273
_cell_angle_beta   60.95461273
_cell_angle_gamma   59.99998856
_symmetry_Int_Tables_number   1
_chemical_formula_structural   MgInF6
_chemical_formula_sum   'Mg1 In1 F6'
_cell_volume   121.91970091
_cell_formula_units_Z   1
loop_
 _symmetry_equiv_pos_site_id
 _symmetry_equiv_pos_as_xyz
  1  'x, y, z'
loop_
 _atom_site_type_symbol
 _atom_site_label
 _atom_site_symmetry_multiplicity
 _atom_site_fract_x
 _atom_site_fract_y
 _atom_site_fract_z
 _atom_site_occupancy
  Mg  Mg0  1  0.50000001  0.50000000  0.50000002  1
  In  In1  1  0.00000000  0.00000000  0.00000000  1
  F  F2  1  0.83874001  0.65643000  0.25391805  1
  F  F3  1  0.25091201  0.83874000  0.25391803  1
  F  F4  1  0.34357001  0.74908800  0.74608202  1
  F  F5  1  0.74908801  0.16126000  0.74608202  1
  F  F6  1  0.16126001  0.34357000  0.74608200  1
  F  F7  1  0.65643001  0.25091200  0.25391803  1
