# generated using pymatgen
data_Cd(GeTe)3
_symmetry_space_group_name_H-M   'P 1'
_cell_length_a   3.54743004
_cell_length_b   3.54743052
_cell_length_c   15.24266911
_cell_angle_alpha   90.00000000
_cell_angle_beta   90.00000000
_cell_angle_gamma   119.99999237
_symmetry_Int_Tables_number   1
_chemical_formula_structural   Cd(GeTe)3
_chemical_formula_sum   'Cd1 Ge3 Te3'
_cell_volume   166.11904421
_cell_formula_units_Z   1
loop_
 _symmetry_equiv_pos_site_id
 _symmetry_equiv_pos_as_xyz
  1  'x, y, z'
loop_
 _atom_site_type_symbol
 _atom_site_label
 _atom_site_symmetry_multiplicity
 _atom_site_fract_x
 _atom_site_fract_y
 _atom_site_fract_z
 _atom_site_occupancy
  Te  Te0  1  0.33333328  0.66666663  0.00049200  1
  Ge  Ge1  1  0.00000000  0.00000000  0.74893499  1
  Ge  Ge2  1  0.33333328  0.66666663  0.25120000  1
  Te  Te3  1  0.66666663  0.33333331  0.85931399  1
  Cd  Cd4  1  0.66666663  0.33333331  0.14087500  1
  Ge  Ge5  1  0.66666663  0.33333331  0.35877500  1
  Te  Te6  1  0.66666663  0.33333331  0.64130900  1
