# generated using pymatgen
data_Tb(Co2B)6
_symmetry_space_group_name_H-M   'P 1'
_cell_length_a   5.96016550
_cell_length_b   5.96016550
_cell_length_c   5.96016502
_cell_angle_alpha   103.98889923
_cell_angle_beta   103.98889923
_cell_angle_gamma   103.98889923
_symmetry_Int_Tables_number   1
_chemical_formula_structural   Tb(Co2B)6
_chemical_formula_sum   'Tb1 Co12 B6'
_cell_volume   188.95229031
_cell_formula_units_Z   1
loop_
 _symmetry_equiv_pos_site_id
 _symmetry_equiv_pos_as_xyz
  1  'x, y, z'
loop_
 _atom_site_type_symbol
 _atom_site_label
 _atom_site_symmetry_multiplicity
 _atom_site_fract_x
 _atom_site_fract_y
 _atom_site_fract_z
 _atom_site_occupancy
  Tb  Tb0  1  0.00000000  0.00000000  0.00000000  1
  Co  Co1  1  0.13240292  0.86759695  0.49999997  1
  Co  Co2  1  0.86759693  0.49999997  0.13240296  1
  Co  Co3  1  0.49999997  0.13240299  0.86759700  1
  Co  Co4  1  0.13240295  0.49999997  0.86759699  1
  Co  Co5  1  0.49999991  0.86759695  0.13240295  1
  Co  Co6  1  0.86759696  0.13240299  0.49999999  1
  Co  Co7  1  0.18607496  0.45650497  0.45650498  1
  Co  Co8  1  0.45650495  0.45650497  0.18607497  1
  Co  Co9  1  0.45650497  0.18607499  0.45650499  1
  Co  Co10  1  0.81392493  0.54349497  0.54349497  1
  Co  Co11  1  0.54349494  0.54349497  0.81392498  1
  Co  Co12  1  0.54349491  0.81392495  0.54349496  1
  B  B13  1  0.67609396  0.23273299  0.23273298  1
  B  B14  1  0.23273297  0.23273299  0.67609400  1
  B  B15  1  0.23273293  0.67609396  0.23273297  1
  B  B16  1  0.32390592  0.76726695  0.76726697  1
  B  B17  1  0.76726691  0.76726695  0.32390595  1
  B  B18  1  0.76726695  0.32390598  0.76726698  1
