# generated using pymatgen
data_GaO
_symmetry_space_group_name_H-M   'P 1'
_cell_length_a   4.32030296
_cell_length_b   4.66170979
_cell_length_c   4.66170979
_cell_angle_alpha   120.00000000
_cell_angle_beta   90.00000000
_cell_angle_gamma   90.00000000
_symmetry_Int_Tables_number   1
_chemical_formula_structural   GaO
_chemical_formula_sum   'Ga4 O4'
_cell_volume   81.30837861
_cell_formula_units_Z   4
loop_
 _symmetry_equiv_pos_site_id
 _symmetry_equiv_pos_as_xyz
  1  'x, y, z'
loop_
 _atom_site_type_symbol
 _atom_site_label
 _atom_site_symmetry_multiplicity
 _atom_site_fract_x
 _atom_site_fract_y
 _atom_site_fract_z
 _atom_site_occupancy
  O  O0  1  0.50000000  0.00000000  0.67889399  1
  Ga  Ga1  1  1.00000001  0.00000000  0.32110600  1
  Ga  Ga2  1  -0.00000000  0.32110601  -0.00000001  1
  O  O3  1  0.50000000  0.32110601  0.32110599  1
  O  O4  1  0.50000000  0.67889402  -0.00000002  1
  O  O5  1  0.00000000  0.67889402  0.67889397  1
  Ga  Ga6  1  0.25000000  0.33333334  0.66666665  1
  Ga  Ga7  1  0.75000001  0.66666669  0.33333331  1
