# generated using pymatgen
data_Lu10Ga7Ru
_symmetry_space_group_name_H-M   'P 1'
_cell_length_a   5.91735792
_cell_length_b   8.74468994
_cell_length_c   8.74468994
_cell_angle_alpha   120.00000000
_cell_angle_beta   90.00000000
_cell_angle_gamma   90.00000000
_symmetry_Int_Tables_number   1
_chemical_formula_structural   Lu10Ga7Ru
_chemical_formula_sum   'Lu10 Ga7 Ru1'
_cell_volume   391.87476851
_cell_formula_units_Z   1
loop_
 _symmetry_equiv_pos_site_id
 _symmetry_equiv_pos_as_xyz
  1  'x, y, z'
loop_
 _atom_site_type_symbol
 _atom_site_label
 _atom_site_symmetry_multiplicity
 _atom_site_fract_x
 _atom_site_fract_y
 _atom_site_fract_z
 _atom_site_occupancy
  Lu  Lu0  1  0.00000000  0.66666668  0.33333336  1
  Lu  Lu1  1  0.50000001  0.33333334  0.66666670  1
  Lu  Lu2  1  0.00000000  0.33333334  0.66666670  1
  Lu  Lu3  1  0.50000001  0.66666668  0.33333336  1
  Lu  Lu4  1  0.75000001  0.73028401  0.73028404  1
  Lu  Lu5  1  0.25000000  0.73028401  0.00000002  1
  Lu  Lu6  1  0.25000000  0.00000000  0.73028403  1
  Lu  Lu7  1  0.75000001  0.00000000  0.26971601  1
  Lu  Lu8  1  0.75000001  0.26971600  0.00000001  1
  Lu  Lu9  1  0.25000000  0.26971600  0.26971602  1
  Ga  Ga10  1  0.00000000  0.00000000  0.00000000  1
  Ru  Ru11  1  0.50000001  0.00000000  -0.00000000  1
  Ga  Ga12  1  0.75000001  0.38622101  0.38622102  1
  Ga  Ga13  1  0.25000000  0.38622101  0.00000001  1
  Ga  Ga14  1  0.25000000  0.00000000  0.38622101  1
  Ga  Ga15  1  0.75000001  0.00000000  0.61377902  1
  Ga  Ga16  1  0.75000001  0.61377901  0.00000001  1
  Ga  Ga17  1  0.25000000  0.61377901  0.61377904  1
