# generated using pymatgen
data_Tb2LuCo15
_symmetry_space_group_name_H-M   'P 1'
_cell_length_a   3.85013199
_cell_length_b   9.05254555
_cell_length_c   9.05254555
_cell_angle_alpha   119.90757751
_cell_angle_beta   90.00000000
_cell_angle_gamma   90.00000000
_symmetry_Int_Tables_number   1
_chemical_formula_structural   Tb2LuCo15
_chemical_formula_sum   'Tb2 Lu1 Co15'
_cell_volume   273.49626327
_cell_formula_units_Z   1
loop_
 _symmetry_equiv_pos_site_id
 _symmetry_equiv_pos_as_xyz
  1  'x, y, z'
loop_
 _atom_site_type_symbol
 _atom_site_label
 _atom_site_symmetry_multiplicity
 _atom_site_fract_x
 _atom_site_fract_y
 _atom_site_fract_z
 _atom_site_occupancy
  Lu  Lu0  1  -0.00000000  0.00000900  0.00000900  1
  Tb  Tb1  1  0.50000000  0.66643204  0.33357203  1
  Tb  Tb2  1  0.50000000  0.33357202  0.66643203  1
  Co  Co3  1  0.50000000  0.68531904  0.68531905  1
  Co  Co4  1  0.50000000  0.31439902  0.99995805  1
  Co  Co5  1  0.50000000  0.99995806  0.31439904  1
  Co  Co6  1  0.50000000  0.31469102  0.31469102  1
  Co  Co7  1  0.50000000  0.68561404  0.00005602  1
  Co  Co8  1  0.50000000  0.00005600  0.68561402  1
  Co  Co9  1  -0.00000000  0.50000503  0.50000503  1
  Co  Co10  1  1.00000000  0.50000803  0.00000802  1
  Co  Co11  1  -0.00000000  0.00000800  0.50000802  1
  Co  Co12  1  -0.00000000  0.81666105  0.18335103  1
  Co  Co13  1  -0.00000000  0.81671505  0.63320205  1
  Co  Co14  1  -0.00000000  0.36680602  0.18329402  1
  Co  Co15  1  1.00000000  0.18335101  0.81666104  1
  Co  Co16  1  -0.00000000  0.63320204  0.81671505  1
  Co  Co17  1  -0.00000000  0.18329401  0.36680602  1
