# generated using pymatgen
data_WO3
_symmetry_space_group_name_H-M   'P 1'
_cell_length_a   5.10700417
_cell_length_b   5.27332592
_cell_length_c   7.37632322
_cell_angle_alpha   90.00000000
_cell_angle_beta   90.00000000
_cell_angle_gamma   90.00000000
_symmetry_Int_Tables_number   1
_chemical_formula_structural   WO3
_chemical_formula_sum   'W4 O12'
_cell_volume   198.65100421
_cell_formula_units_Z   4
loop_
 _symmetry_equiv_pos_site_id
 _symmetry_equiv_pos_as_xyz
  1  'x, y, z'
loop_
 _atom_site_type_symbol
 _atom_site_label
 _atom_site_symmetry_multiplicity
 _atom_site_fract_x
 _atom_site_fract_y
 _atom_site_fract_z
 _atom_site_occupancy
  W  W0  1  0.00000000  0.00000000  0.49999998  1
  W  W1  1  0.49999998  0.50000001  0.49999998  1
  W  W2  1  0.49999998  0.50000001  0.00000000  1
  W  W3  1  0.00000000  0.00000000  0.00000000  1
  O  O4  1  0.37693599  0.52147801  0.24999999  1
  O  O5  1  0.87693597  0.97852201  0.74999998  1
  O  O6  1  0.12306400  0.02147800  0.24999999  1
  O  O7  1  0.62306398  0.47852201  0.74999998  1
  O  O8  1  0.18394399  0.31014600  0.94011097  1
  O  O9  1  0.68394398  0.18985400  0.05988900  1
  O  O10  1  0.31605599  0.81014601  0.55988898  1
  O  O11  1  0.81605597  0.68985401  0.44011099  1
  O  O12  1  0.18394399  0.31014600  0.55988898  1
  O  O13  1  0.68394398  0.18985400  0.44011099  1
  O  O14  1  0.81605597  0.68985401  0.05988900  1
  O  O15  1  0.31605599  0.81014601  0.94011097  1
