# generated using pymatgen
data_TaTe15
_symmetry_space_group_name_H-M   'P 1'
_cell_length_a   7.97909451
_cell_length_b   7.97909451
_cell_length_c   8.36320019
_cell_angle_alpha   115.66035461
_cell_angle_beta   115.66035461
_cell_angle_gamma   95.29232788
_symmetry_Int_Tables_number   1
_chemical_formula_structural   TaTe15
_chemical_formula_sum   'Ta1 Te15'
_cell_volume   406.15241552
_cell_formula_units_Z   1
loop_
 _symmetry_equiv_pos_site_id
 _symmetry_equiv_pos_as_xyz
  1  'x, y, z'
loop_
 _atom_site_type_symbol
 _atom_site_label
 _atom_site_symmetry_multiplicity
 _atom_site_fract_x
 _atom_site_fract_y
 _atom_site_fract_z
 _atom_site_occupancy
  Te  Te0  1  0.52971300  0.54223600  0.70597204  1
  Te  Te1  1  0.16373600  0.17625900  0.70597201  1
  Te  Te2  1  0.01977500  0.70935700  0.72913203  1
  Te  Te3  1  0.70958100  0.00022100  0.70980203  1
  Te  Te4  1  0.45776400  0.47028700  0.29402804  1
  Te  Te5  1  0.82374099  0.83626400  0.29402808  1
  Te  Te6  1  0.99977899  0.29041900  0.29019806  1
  Te  Te7  1  0.29064300  0.98022499  0.27086806  1
  Te  Te8  1  0.44242700  0.95078099  0.00000007  1
  Te  Te9  1  0.04921900  0.55757300  0.00000003  1
  Te  Te10  1  0.86478099  0.88438999  0.00000009  1
  Te  Te11  1  0.11561000  0.13521900  0.00000001  1
  Ta  Ta12  1  0.40666200  0.59333800  0.00000005  1
  Te  Te13  1  0.63891200  0.36108800  0.00000005  1
  Te  Te14  1  0.24382700  0.75617300  0.50000004  1
  Te  Te15  1  0.74382700  0.25617300  0.50000004  1
