# generated using pymatgen
data_Ba2Si3Au
_symmetry_space_group_name_H-M   'P 1'
_cell_length_a   4.19517994
_cell_length_b   4.19517994
_cell_length_c   8.65372658
_cell_angle_alpha   104.02773285
_cell_angle_beta   104.02773285
_cell_angle_gamma   90.00000000
_symmetry_Int_Tables_number   1
_chemical_formula_structural   Ba2Si3Au
_chemical_formula_sum   'Ba2 Si3 Au1'
_cell_volume   143.07373583
_cell_formula_units_Z   1
loop_
 _symmetry_equiv_pos_site_id
 _symmetry_equiv_pos_as_xyz
  1  'x, y, z'
loop_
 _atom_site_type_symbol
 _atom_site_label
 _atom_site_symmetry_multiplicity
 _atom_site_fract_x
 _atom_site_fract_y
 _atom_site_fract_z
 _atom_site_occupancy
  Ba  Ba0  1  0.50000000  0.50000000  -0.00000001  1
  Ba  Ba1  1  0.24999999  0.75000001  0.49999997  1
  Si  Si2  1  0.82983400  0.32983400  0.65966796  1
  Si  Si3  1  0.07983400  0.07983400  0.15966799  1
  Au  Au4  1  0.67016600  0.17016600  0.34033198  1
  Si  Si5  1  0.92016600  0.92016601  0.84033194  1
