# generated using pymatgen
data_Li3Mn4O9
_symmetry_space_group_name_H-M   'P 1'
_cell_length_a   6.02525759
_cell_length_b   6.02525759
_cell_length_c   6.03463316
_cell_angle_alpha   91.92799377
_cell_angle_beta   118.87969971
_cell_angle_gamma   118.85407257
_symmetry_Int_Tables_number   1
_chemical_formula_structural   Li3Mn4O9
_chemical_formula_sum   'Li3 Mn4 O9'
_cell_volume   157.53022585
_cell_formula_units_Z   1
loop_
 _symmetry_equiv_pos_site_id
 _symmetry_equiv_pos_as_xyz
  1  'x, y, z'
loop_
 _atom_site_type_symbol
 _atom_site_label
 _atom_site_symmetry_multiplicity
 _atom_site_fract_x
 _atom_site_fract_y
 _atom_site_fract_z
 _atom_site_occupancy
  Li  Li0  1  0.50000000  0.49999999  0.50000003  1
  Mn  Mn1  1  0.49999998  0.00000000  0.50000000  1
  O  O2  1  0.99999997  0.00000000  0.50000000  1
  Li  Li3  1  0.99999998  0.49999999  0.50000003  1
  Li  Li4  1  0.00000000  0.00000000  0.00000000  1
  Mn  Mn5  1  0.00000001  0.49999999  0.00000003  1
  Mn  Mn6  1  0.49999998  0.00000000  -0.00000000  1
  Mn  Mn7  1  0.50000000  0.49999999  0.00000002  1
  O  O8  1  0.45755901  0.74745999  0.20501904  1
  O  O9  1  0.49750099  0.23697300  0.23422301  1
  O  O10  1  0.99724999  0.73672199  0.23422303  1
  O  O11  1  0.01966101  0.25372100  0.27338202  1
  O  O12  1  0.98033899  0.74627899  0.72661804  1
  O  O13  1  0.00275001  0.26327800  0.76577703  1
  O  O14  1  0.50249900  0.76302699  0.76577705  1
  O  O15  1  0.54244099  0.25254000  0.79498102  1
