# generated using pymatgen
data_Mg3Ga
_symmetry_space_group_name_H-M   'P 1'
_cell_length_a   5.08666086
_cell_length_b   5.20778084
_cell_length_c   6.17847204
_cell_angle_alpha   90.00000000
_cell_angle_beta   90.00000000
_cell_angle_gamma   90.00000000
_symmetry_Int_Tables_number   1
_chemical_formula_structural   Mg3Ga
_chemical_formula_sum   'Mg6 Ga2'
_cell_volume   163.66905256
_cell_formula_units_Z   2
loop_
 _symmetry_equiv_pos_site_id
 _symmetry_equiv_pos_as_xyz
  1  'x, y, z'
loop_
 _atom_site_type_symbol
 _atom_site_label
 _atom_site_symmetry_multiplicity
 _atom_site_fract_x
 _atom_site_fract_y
 _atom_site_fract_z
 _atom_site_occupancy
  Mg  Mg0  1  0.00000000  0.34486701  -0.00000000  1
  Ga  Ga1  1  0.50000001  0.65513302  0.50000000  1
  Mg  Mg2  1  0.50000001  0.66150002  -0.00000000  1
  Mg  Mg3  1  0.00000000  0.33850001  0.50000000  1
  Mg  Mg4  1  0.00000000  0.84137903  0.74509099  1
  Mg  Mg5  1  0.00000000  0.84137903  0.25490900  1
  Mg  Mg6  1  0.50000001  0.15862100  0.75490899  1
  Ga  Ga7  1  0.50000001  0.15862100  0.24509100  1
