# generated using pymatgen
data_Sr2BiSbO6
_symmetry_space_group_name_H-M   'P 1'
_cell_length_a   5.83740091
_cell_length_b   5.91895199
_cell_length_c   8.28860283
_cell_angle_alpha   90.00000000
_cell_angle_beta   89.53511810
_cell_angle_gamma   90.00000000
_symmetry_Int_Tables_number   1
_chemical_formula_structural   Sr2BiSbO6
_chemical_formula_sum   'Sr4 Bi2 Sb2 O12'
_cell_volume   286.37254107
_cell_formula_units_Z   2
loop_
 _symmetry_equiv_pos_site_id
 _symmetry_equiv_pos_as_xyz
  1  'x, y, z'
loop_
 _atom_site_type_symbol
 _atom_site_label
 _atom_site_symmetry_multiplicity
 _atom_site_fract_x
 _atom_site_fract_y
 _atom_site_fract_z
 _atom_site_occupancy
  Sr  Sr0  1  0.49015801  0.53968600  0.24936101  1
  Sr  Sr1  1  0.00984200  0.03968600  0.25063900  1
  Sr  Sr2  1  0.99015801  0.96031400  0.74936103  1
  Sr  Sr3  1  0.50984201  0.46031400  0.75063901  1
  Bi  Bi4  1  0.50000001  0.00000000  0.50000001  1
  Bi  Bi5  1  0.00000000  0.50000000  -0.00000000  1
  Sb  Sb6  1  0.50000001  0.00000000  0.00000001  1
  Sb  Sb7  1  0.00000000  0.50000000  0.50000000  1
  O  O8  1  0.07981300  0.52266000  0.73218200  1
  O  O9  1  0.42018701  0.02266000  0.76781801  1
  O  O10  1  0.92018701  0.47734000  0.26781803  1
  O  O11  1  0.57981301  0.97734000  0.23218202  1
  O  O12  1  0.19289100  0.77176500  0.45597001  1
  O  O13  1  0.30710900  0.27176500  0.04403001  1
  O  O14  1  0.80710901  0.22823500  0.54403002  1
  O  O15  1  0.69289101  0.72823500  0.95597002  1
  O  O16  1  0.77043501  0.19638400  0.95891802  1
  O  O17  1  0.72956501  0.69638400  0.54108202  1
  O  O18  1  0.22956500  0.80361600  0.04108201  1
  O  O19  1  0.27043500  0.30361600  0.45891801  1
