# generated using pymatgen
data_B2Mo7P10S
_symmetry_space_group_name_H-M   'P 1'
_cell_length_a   5.64574003
_cell_length_b   8.04110241
_cell_length_c   8.04110241
_cell_angle_alpha   90.00000000
_cell_angle_beta   90.00000000
_cell_angle_gamma   90.00000000
_symmetry_Int_Tables_number   1
_chemical_formula_structural   B2Mo7P10S
_chemical_formula_sum   'B2 Mo7 P10 S1'
_cell_volume   365.04975631
_cell_formula_units_Z   1
loop_
 _symmetry_equiv_pos_site_id
 _symmetry_equiv_pos_as_xyz
  1  'x, y, z'
loop_
 _atom_site_type_symbol
 _atom_site_label
 _atom_site_symmetry_multiplicity
 _atom_site_fract_x
 _atom_site_fract_y
 _atom_site_fract_z
 _atom_site_occupancy
  P  P0  1  0.30908400  0.99999995  0.27486599  1
  P  P1  1  0.80908400  0.77486596  0.49999997  1
  P  P2  1  0.80908400  0.22513399  0.49999997  1
  P  P3  1  0.30908400  0.00000000  0.72513396  1
  P  P4  1  0.19091600  0.49999997  0.77486596  1
  Mo  Mo5  1  0.69091600  0.27486599  -0.00000000  1
  Mo  Mo6  1  0.69091600  0.72513396  0.00000000  1
  Mo  Mo7  1  0.19091600  0.49999997  0.22513399  1
  S  S8  1  0.10173600  0.99999995  0.49999997  1
  P  P9  1  0.60173600  0.99999995  0.49999997  1
  B  B10  1  0.89826399  0.49999997  -0.00000000  1
  B  B11  1  0.39826400  0.49999997  0.00000000  1
  P  P12  1  0.50000000  0.29595898  0.29595898  1
  P  P13  1  0.50000000  0.70404096  0.29595898  1
  Mo  Mo14  1  0.50000000  0.29595898  0.70404096  1
  Mo  Mo15  1  0.50000000  0.70404096  0.70404096  1
  Mo  Mo16  1  0.00000000  0.79595896  0.79595896  1
  Mo  Mo17  1  0.99999999  0.20404099  0.79595896  1
  P  P18  1  0.00000000  0.79595896  0.20404099  1
  P  P19  1  0.00000000  0.20404099  0.20404099  1
