# generated using pymatgen
data_Cs6N2OF5
_symmetry_space_group_name_H-M   'P 1'
_cell_length_a   7.32225180
_cell_length_b   7.38697243
_cell_length_c   7.32225180
_cell_angle_alpha   60.28940582
_cell_angle_beta   90.00000000
_cell_angle_gamma   119.71059418
_symmetry_Int_Tables_number   1
_chemical_formula_structural   Cs6N2OF5
_chemical_formula_sum   'Cs6 N2 O1 F5'
_cell_volume   282.48573013
_cell_formula_units_Z   1
loop_
 _symmetry_equiv_pos_site_id
 _symmetry_equiv_pos_as_xyz
  1  'x, y, z'
loop_
 _atom_site_type_symbol
 _atom_site_label
 _atom_site_symmetry_multiplicity
 _atom_site_fract_x
 _atom_site_fract_y
 _atom_site_fract_z
 _atom_site_occupancy
  Cs  Cs0  1  0.29713898  0.97765496  0.81948405  1
  Cs  Cs1  1  0.18051597  0.97765496  0.31948404  1
  Cs  Cs2  1  0.79713899  0.97765496  0.70286105  1
  Cs  Cs3  1  0.68051599  0.97765496  0.20286104  1
  F  F4  1  0.24617299  0.49234598  0.75382704  1
  Cs  Cs5  1  0.74617301  0.49234598  0.25382702  1
  N  N6  1  0.71303701  0.42607398  0.78696304  1
  N  N7  1  0.21303699  0.42607398  0.28696302  1
  F  F8  1  0.17397699  0.55703598  0.32602303  1
  F  F9  1  0.38305899  0.55703598  0.11694102  1
  F  F10  1  0.50009801  0.00019600  0.49990201  1
  Cs  Cs11  1  0.00009800  0.00019600  0.99990203  1
  F  F12  1  0.67397700  0.55703598  0.61694103  1
  O  O13  1  0.88305901  0.55703598  0.82602304  1
