# generated using pymatgen
data_WS5
_symmetry_space_group_name_H-M   'P 1'
_cell_length_a   4.10565186
_cell_length_b   6.55375957
_cell_length_c   6.55375957
_cell_angle_alpha   84.36952209
_cell_angle_beta   71.74607849
_cell_angle_gamma   71.74607849
_symmetry_Int_Tables_number   1
_chemical_formula_structural   WS5
_chemical_formula_sum   'W1 S5'
_cell_volume   159.04338177
_cell_formula_units_Z   1
loop_
 _symmetry_equiv_pos_site_id
 _symmetry_equiv_pos_as_xyz
  1  'x, y, z'
loop_
 _atom_site_type_symbol
 _atom_site_label
 _atom_site_symmetry_multiplicity
 _atom_site_fract_x
 _atom_site_fract_y
 _atom_site_fract_z
 _atom_site_occupancy
  W  W0  1  0.98557905  0.00000000  -0.00000004  1
  S  S1  1  0.57381803  0.00000000  1.00000001  1
  S  S2  1  0.32133196  0.68230503  0.81778200  1
  S  S3  1  0.00363793  0.81778104  0.31769499  1
  S  S4  1  0.13911399  0.18221901  0.68230401  1
  S  S5  1  0.82141902  0.31769501  0.18221897  1
