# generated using pymatgen
data_Bi3HNO7
_symmetry_space_group_name_H-M   'P 1'
_cell_length_a   4.35176277
_cell_length_b   5.84676409
_cell_length_c   5.84676409
_cell_angle_alpha   90.00000000
_cell_angle_beta   90.00000000
_cell_angle_gamma   90.00000000
_symmetry_Int_Tables_number   1
_chemical_formula_structural   Bi3HNO7
_chemical_formula_sum   'Bi3 H1 N1 O7'
_cell_volume   148.76348852
_cell_formula_units_Z   1
loop_
 _symmetry_equiv_pos_site_id
 _symmetry_equiv_pos_as_xyz
  1  'x, y, z'
loop_
 _atom_site_type_symbol
 _atom_site_label
 _atom_site_symmetry_multiplicity
 _atom_site_fract_x
 _atom_site_fract_y
 _atom_site_fract_z
 _atom_site_occupancy
  O  O0  1  0.86285105  0.85327999  -0.00000000  1
  O  O1  1  0.86285105  0.14672000  0.00000000  1
  O  O2  1  0.86285105  0.49999999  0.35327999  1
  Bi  Bi3  1  0.86285105  0.49999999  0.64671999  1
  H  H4  1  0.13714901  0.00000000  0.14672000  1
  O  O5  1  0.13714901  0.64671999  0.49999999  1
  O  O6  1  0.13714901  0.35327999  0.49999999  1
  O  O7  1  0.13714901  0.00000000  0.85327999  1
  Bi  Bi8  1  0.60253903  0.49999999  0.00000000  1
  Bi  Bi9  1  0.39746102  0.00000000  0.49999999  1
  O  O10  1  0.00000000  0.00000000  0.00000000  1
  N  N11  1  0.00000000  0.49999999  0.49999999  1
