# generated using pymatgen
data_MnSiB2
_symmetry_space_group_name_H-M   'P 1'
_cell_length_a   3.22837257
_cell_length_b   3.22837257
_cell_length_c   5.61495686
_cell_angle_alpha   73.29286194
_cell_angle_beta   73.29286194
_cell_angle_gamma   59.99998856
_symmetry_Int_Tables_number   1
_chemical_formula_structural   MnSiB2
_chemical_formula_sum   'Mn1 Si1 B2'
_cell_volume   47.80708287
_cell_formula_units_Z   1
loop_
 _symmetry_equiv_pos_site_id
 _symmetry_equiv_pos_as_xyz
  1  'x, y, z'
loop_
 _atom_site_type_symbol
 _atom_site_label
 _atom_site_symmetry_multiplicity
 _atom_site_fract_x
 _atom_site_fract_y
 _atom_site_fract_z
 _atom_site_occupancy
  B  B0  1  0.00000000  0.00000000  0.00000000  1
  Si  Si1  1  0.49999999  0.50000000  0.49999996  1
  B  B2  1  0.75187999  0.75187999  0.74435995  1
  Mn  Mn3  1  0.24812000  0.24812000  0.25563998  1
