# generated using pymatgen
data_Ta5Mn7
_symmetry_space_group_name_H-M   'P 1'
_cell_length_a   5.09210205
_cell_length_b   5.09210205
_cell_length_c   7.79540300
_cell_angle_alpha   90.00000000
_cell_angle_beta   90.00000000
_cell_angle_gamma   120.00000000
_symmetry_Int_Tables_number   1
_chemical_formula_structural   Ta5Mn7
_chemical_formula_sum   'Ta5 Mn7'
_cell_volume   175.05051843
_cell_formula_units_Z   1
loop_
 _symmetry_equiv_pos_site_id
 _symmetry_equiv_pos_as_xyz
  1  'x, y, z'
loop_
 _atom_site_type_symbol
 _atom_site_label
 _atom_site_symmetry_multiplicity
 _atom_site_fract_x
 _atom_site_fract_y
 _atom_site_fract_z
 _atom_site_occupancy
  Ta  Ta0  1  0.66666667  0.33333335  0.56139600  1
  Ta  Ta1  1  0.33333335  0.66666671  0.43860400  1
  Ta  Ta2  1  0.33333335  0.66666671  0.06139600  1
  Ta  Ta3  1  0.66666667  0.33333335  0.93860400  1
  Mn  Mn4  1  0.00000000  0.00000000  0.50000000  1
  Ta  Ta5  1  0.00000000  0.00000000  0.00000000  1
  Mn  Mn6  1  0.17187901  0.34375802  0.75000000  1
  Mn  Mn7  1  0.17187903  0.82812105  0.75000000  1
  Mn  Mn8  1  0.65624202  0.82812105  0.75000000  1
  Mn  Mn9  1  0.82812102  0.65624204  0.25000000  1
  Mn  Mn10  1  0.82812100  0.17187901  0.25000000  1
  Mn  Mn11  1  0.34375800  0.17187901  0.25000000  1
