# generated using pymatgen
data_La2WN4
_symmetry_space_group_name_H-M   'P 1'
_cell_length_a   4.02203560
_cell_length_b   4.02203512
_cell_length_c   7.08951759
_cell_angle_alpha   106.47881317
_cell_angle_beta   106.47881317
_cell_angle_gamma   90.00000763
_symmetry_Int_Tables_number   1
_chemical_formula_structural   La2WN4
_chemical_formula_sum   'La2 W1 N4'
_cell_volume   105.05297488
_cell_formula_units_Z   1
loop_
 _symmetry_equiv_pos_site_id
 _symmetry_equiv_pos_as_xyz
  1  'x, y, z'
loop_
 _atom_site_type_symbol
 _atom_site_label
 _atom_site_symmetry_multiplicity
 _atom_site_fract_x
 _atom_site_fract_y
 _atom_site_fract_z
 _atom_site_occupancy
  La  La0  1  0.34992801  0.34992801  0.69985503  1
  La  La1  1  0.65007301  0.65007203  0.30014405  1
  W  W2  1  0.00000000  0.00000000  0.00000000  1
  N  N3  1  0.50000099  0.00000100  1.00000003  1
  N  N4  1  0.00000002  0.49999902  0.00000002  1
  N  N5  1  0.83563901  0.83563704  0.67127706  1
  N  N6  1  0.16436300  0.16436301  0.32872301  1
