# generated using pymatgen
data_Zn3Ga(Mo2S3)2
_symmetry_space_group_name_H-M   'P 1'
_cell_length_a   7.15104914
_cell_length_b   7.15162230
_cell_length_c   7.15161800
_cell_angle_alpha   60.07976151
_cell_angle_beta   60.07538986
_cell_angle_gamma   60.07625580
_symmetry_Int_Tables_number   1
_chemical_formula_structural   Zn3Ga(Mo2S3)2
_chemical_formula_sum   'Zn3 Ga1 Mo4 S6'
_cell_volume   259.07298488
_cell_formula_units_Z   1
loop_
 _symmetry_equiv_pos_site_id
 _symmetry_equiv_pos_as_xyz
  1  'x, y, z'
loop_
 _atom_site_type_symbol
 _atom_site_label
 _atom_site_symmetry_multiplicity
 _atom_site_fract_x
 _atom_site_fract_y
 _atom_site_fract_z
 _atom_site_occupancy
  S  S0  1  0.12504675  0.12503752  0.12503999  1
  S  S1  1  0.87493727  0.87493932  0.87492183  1
  S  S2  1  0.00001859  0.49996181  0.50005032  1
  S  S3  1  0.49995973  0.50005930  0.00001278  1
  S  S4  1  0.49998299  0.00000079  0.50001877  1
  S  S5  1  0.50000359  0.50000281  0.50000066  1
  Mo  Mo6  1  0.26300546  0.26301548  0.26301574  1
  Zn  Zn7  1  0.29516486  0.72865130  0.72864795  1
  Zn  Zn8  1  0.72866462  0.29516540  0.72863341  1
  Zn  Zn9  1  0.72867514  0.72863947  0.29515015  1
  Mo  Mo10  1  0.27135643  0.70483090  0.27136084  1
  Mo  Mo11  1  0.27134824  0.27135627  0.70483385  1
  Ga  Ga12  1  0.73698922  0.73699055  0.73696772  1
  Mo  Mo13  1  0.70484620  0.27135397  0.27134176  1
