# generated using pymatgen
data_Zn3(PO4)2
_symmetry_space_group_name_H-M   'P 1'
_cell_length_a   4.90055895
_cell_length_b   5.33143473
_cell_length_c   6.37823343
_cell_angle_alpha   71.82312012
_cell_angle_beta   86.97815704
_cell_angle_gamma   68.71181488
_symmetry_Int_Tables_number   1
_chemical_formula_structural   Zn3(PO4)2
_chemical_formula_sum   'Zn3 P2 O8'
_cell_volume   147.17957170
_cell_formula_units_Z   1
loop_
 _symmetry_equiv_pos_site_id
 _symmetry_equiv_pos_as_xyz
  1  'x, y, z'
loop_
 _atom_site_type_symbol
 _atom_site_label
 _atom_site_symmetry_multiplicity
 _atom_site_fract_x
 _atom_site_fract_y
 _atom_site_fract_z
 _atom_site_occupancy
  Zn  Zn0  1  0.28005802  0.24361299  0.31106700  1
  Zn  Zn1  1  0.99869801  0.00123900  0.99651398  1
  Zn  Zn2  1  0.72038405  0.77442095  0.68699001  1
  P  P3  1  0.64069904  0.64399896  0.22496101  1
  P  P4  1  0.36021002  0.34989598  0.77831101  1
  O  O5  1  0.61289405  0.84494595  0.36575302  1
  O  O6  1  0.38552701  0.15492899  0.63371900  1
  O  O7  1  0.33344404  0.64111496  0.17494302  1
  O  O8  1  0.66685003  0.35170298  0.82956100  1
  O  O9  1  0.76515405  0.77457495  0.99960701  1
  O  O10  1  0.23545301  0.22340999  0.00039800  1
  O  O11  1  0.84733803  0.34236198  0.33840700  1
  O  O12  1  0.15329204  0.65379296  0.65976802  1
