# generated using pymatgen
data_GaP
_symmetry_space_group_name_H-M   'P 1'
_cell_length_a   5.48833561
_cell_length_b   5.48833561
_cell_length_c   6.69250679
_cell_angle_alpha   114.09636688
_cell_angle_beta   114.09636688
_cell_angle_gamma   90.24639130
_symmetry_Int_Tables_number   1
_chemical_formula_structural   GaP
_chemical_formula_sum   'Ga4 P4'
_cell_volume   164.41372466
_cell_formula_units_Z   4
loop_
 _symmetry_equiv_pos_site_id
 _symmetry_equiv_pos_as_xyz
  1  'x, y, z'
loop_
 _atom_site_type_symbol
 _atom_site_label
 _atom_site_symmetry_multiplicity
 _atom_site_fract_x
 _atom_site_fract_y
 _atom_site_fract_z
 _atom_site_occupancy
  Ga  Ga0  1  0.00661700  0.00661700  0.01323400  1
  Ga  Ga1  1  0.74081400  0.24081400  0.48162898  1
  Ga  Ga2  1  0.24081395  0.74081400  0.48162897  1
  Ga  Ga3  1  0.50736997  0.50737000  0.01474099  1
  P  P4  1  0.12671096  0.61719500  0.74390596  1
  P  P5  1  0.61719500  0.12671100  0.74390597  1
  P  P6  1  0.87223196  0.87223200  0.26047697  1
  P  P7  1  0.38824498  0.38824500  0.26047698  1
