# generated using pymatgen
data_Cs7Cl3F2
_symmetry_space_group_name_H-M   'P 1'
_cell_length_a   9.25224209
_cell_length_b   9.25224209
_cell_length_c   9.25224209
_cell_angle_alpha   73.36878967
_cell_angle_beta   72.84481049
_cell_angle_gamma   114.76066589
_symmetry_Int_Tables_number   1
_chemical_formula_structural   Cs7Cl3F2
_chemical_formula_sum   'Cs7 Cl3 F2'
_cell_volume   605.75882718
_cell_formula_units_Z   1
loop_
 _symmetry_equiv_pos_site_id
 _symmetry_equiv_pos_as_xyz
  1  'x, y, z'
loop_
 _atom_site_type_symbol
 _atom_site_label
 _atom_site_symmetry_multiplicity
 _atom_site_fract_x
 _atom_site_fract_y
 _atom_site_fract_z
 _atom_site_occupancy
  Cs  Cs0  1  0.72946399  0.75000000  0.52053603  1
  Cs  Cs1  1  0.27053600  0.25000000  0.47946402  1
  Cs  Cs2  1  0.49999998  1.00000000  1.00000004  1
  Cs  Cs3  1  -0.00000001  0.50000000  0.00000001  1
  F  F4  1  0.26847899  0.56711700  0.16440401  1
  Cl  Cl5  1  0.26634399  0.48013600  0.71379202  1
  Cs  Cs6  1  0.19392797  0.98013600  0.28620802  1
  F  F7  1  0.26847898  0.93288300  0.79863803  1
  Cs  Cs8  1  0.73152101  0.06711700  0.20136201  1
  Cl  Cl9  1  0.73365600  0.51986400  0.28620802  1
  Cs  Cs10  1  0.80607201  0.01986400  0.71379202  1
  Cl  Cl11  1  0.73152100  0.43288300  0.83559603  1
