# generated using pymatgen
data_CsBaF3
_symmetry_space_group_name_H-M   'P 1'
_cell_length_a   7.07139206
_cell_length_b   7.16081715
_cell_length_c   10.10526466
_cell_angle_alpha   90.00000000
_cell_angle_beta   90.00000000
_cell_angle_gamma   90.00000000
_symmetry_Int_Tables_number   1
_chemical_formula_structural   CsBaF3
_chemical_formula_sum   'Cs4 Ba4 F12'
_cell_volume   511.69973611
_cell_formula_units_Z   4
loop_
 _symmetry_equiv_pos_site_id
 _symmetry_equiv_pos_as_xyz
  1  'x, y, z'
loop_
 _atom_site_type_symbol
 _atom_site_label
 _atom_site_symmetry_multiplicity
 _atom_site_fract_x
 _atom_site_fract_y
 _atom_site_fract_z
 _atom_site_occupancy
  Ba  Ba0  1  0.00000000  0.00000000  0.00000000  1
  Ba  Ba1  1  0.50000000  0.49999999  -0.00000000  1
  Ba  Ba2  1  0.00000000  0.00000000  0.50000002  1
  Ba  Ba3  1  0.50000000  0.49999999  0.50000002  1
  Cs  Cs4  1  0.01699800  0.44883099  0.25000001  1
  Cs  Cs5  1  0.98300199  0.55116899  0.75000002  1
  Cs  Cs6  1  0.51699800  0.05116900  0.75000002  1
  Cs  Cs7  1  0.48300200  0.94883098  0.25000001  1
  F  F8  1  0.28212000  0.21788100  0.02537000  1
  F  F9  1  0.71787999  0.78211898  0.97463003  1
  F  F10  1  0.78211999  0.28211899  0.97463003  1
  F  F11  1  0.71787999  0.78211898  0.52537002  1
  F  F12  1  0.21788000  0.71788099  0.02537000  1
  F  F13  1  0.28212000  0.21788100  0.47463002  1
  F  F14  1  0.21788000  0.71788099  0.47463002  1
  F  F15  1  0.78211999  0.28211899  0.52537002  1
  F  F16  1  0.55089600  0.50086699  0.25000001  1
  F  F17  1  0.44910400  0.49913299  0.75000002  1
  F  F18  1  0.05089600  0.99913298  0.75000002  1
  F  F19  1  0.94910399  0.00086700  0.25000001  1
