# generated using pymatgen
data_Ba3MoSe3O
_symmetry_space_group_name_H-M   'P 1'
_cell_length_a   5.60695601
_cell_length_b   5.60695601
_cell_length_c   5.60695505
_cell_angle_alpha   83.85152435
_cell_angle_beta   83.85152435
_cell_angle_gamma   83.85152435
_symmetry_Int_Tables_number   1
_chemical_formula_structural   Ba3MoSe3O
_chemical_formula_sum   'Ba3 Mo1 Se3 O1'
_cell_volume   173.43175792
_cell_formula_units_Z   1
loop_
 _symmetry_equiv_pos_site_id
 _symmetry_equiv_pos_as_xyz
  1  'x, y, z'
loop_
 _atom_site_type_symbol
 _atom_site_label
 _atom_site_symmetry_multiplicity
 _atom_site_fract_x
 _atom_site_fract_y
 _atom_site_fract_z
 _atom_site_occupancy
  Mo  Mo0  1  0.25728699  0.25728701  0.25728700  1
  O  O1  1  0.74271298  0.74271302  0.74271299  1
  Ba  Ba2  1  0.25336297  0.79919602  0.79919599  1
  Ba  Ba3  1  0.79919598  0.79919602  0.25336299  1
  Ba  Ba4  1  0.79919600  0.25336301  0.79919599  1
  Se  Se5  1  0.74663700  0.20080400  0.20080399  1
  Se  Se6  1  0.20080400  0.20080400  0.74663699  1
  Se  Se7  1  0.20080397  0.74663702  0.20080399  1
