# generated using pymatgen
data_WSe2
_symmetry_space_group_name_H-M   'P 1'
_cell_length_a   3.22278404
_cell_length_b   6.02679491
_cell_length_c   6.74306488
_cell_angle_alpha   90.00000000
_cell_angle_beta   90.00000000
_cell_angle_gamma   90.00000000
_symmetry_Int_Tables_number   1
_chemical_formula_structural   WSe2
_chemical_formula_sum   'W2 Se4'
_cell_volume   130.97094340
_cell_formula_units_Z   2
loop_
 _symmetry_equiv_pos_site_id
 _symmetry_equiv_pos_as_xyz
  1  'x, y, z'
loop_
 _atom_site_type_symbol
 _atom_site_label
 _atom_site_symmetry_multiplicity
 _atom_site_fract_x
 _atom_site_fract_y
 _atom_site_fract_z
 _atom_site_occupancy
  Se  Se0  1  0.49999999  0.68264801  0.14231300  1
  Se  Se1  1  0.49999999  0.31735200  0.85768702  1
  Se  Se2  1  0.00000000  0.18264800  0.35768701  1
  Se  Se3  1  0.00000000  0.81735201  0.64231301  1
  W  W4  1  0.49999999  0.50000001  0.50000001  1
  W  W5  1  0.00000000  0.00000000  0.00000000  1
