# generated using pymatgen
data_BaGaWO6
_symmetry_space_group_name_H-M   'P 1'
_cell_length_a   5.15450191
_cell_length_b   5.15450144
_cell_length_c   6.19822121
_cell_angle_alpha   90.00000000
_cell_angle_beta   90.00000000
_cell_angle_gamma   120.00000000
_symmetry_Int_Tables_number   1
_chemical_formula_structural   BaGaWO6
_chemical_formula_sum   'Ba1 Ga1 W1 O6'
_cell_volume   142.61692679
_cell_formula_units_Z   1
loop_
 _symmetry_equiv_pos_site_id
 _symmetry_equiv_pos_as_xyz
  1  'x, y, z'
loop_
 _atom_site_type_symbol
 _atom_site_label
 _atom_site_symmetry_multiplicity
 _atom_site_fract_x
 _atom_site_fract_y
 _atom_site_fract_z
 _atom_site_occupancy
  Ba  Ba0  1  0.00000000  0.00000000  0.00000000  1
  Ga  Ga1  1  0.66666665  0.33333332  0.49999998  1
  W  W2  1  0.33333329  0.66666664  0.49999998  1
  O  O3  1  0.61456596  0.62421397  0.32441699  1
  O  O4  1  0.00964797  0.38543298  0.32441699  1
  O  O5  1  0.37578493  0.99035096  0.32441699  1
  O  O6  1  0.00964795  0.62421397  0.67558298  1
  O  O7  1  0.37578498  0.38543298  0.67558298  1
  O  O8  1  0.61456593  0.99035096  0.67558298  1
