# generated using pymatgen
data_LuCo2Ge3
_symmetry_space_group_name_H-M   'P 1'
_cell_length_a   3.14618897
_cell_length_b   5.46842813
_cell_length_c   5.46842766
_cell_angle_alpha   120.00000000
_cell_angle_beta   90.00000000
_cell_angle_gamma   90.00000000
_symmetry_Int_Tables_number   1
_chemical_formula_structural   LuCo2Ge3
_chemical_formula_sum   'Lu1 Co2 Ge3'
_cell_volume   81.47801063
_cell_formula_units_Z   1
loop_
 _symmetry_equiv_pos_site_id
 _symmetry_equiv_pos_as_xyz
  1  'x, y, z'
loop_
 _atom_site_type_symbol
 _atom_site_label
 _atom_site_symmetry_multiplicity
 _atom_site_fract_x
 _atom_site_fract_y
 _atom_site_fract_z
 _atom_site_occupancy
  Lu  Lu0  1  0.50000000  0.00000000  -0.00000000  1
  Co  Co1  1  0.50000000  0.33333332  0.66666663  1
  Co  Co2  1  0.50000000  0.66666663  0.33333328  1
  Ge  Ge3  1  1.00000001  0.49999997  0.49999996  1
  Ge  Ge4  1  -0.00000000  0.49999997  -0.00000003  1
  Ge  Ge5  1  0.00000000  0.00000000  0.49999999  1
