# generated using pymatgen
data_Li3CuF7
_symmetry_space_group_name_H-M   'P 1'
_cell_length_a   2.93881679
_cell_length_b   5.89424467
_cell_length_c   6.80765963
_cell_angle_alpha   103.58740997
_cell_angle_beta   102.09851837
_cell_angle_gamma   91.98012543
_symmetry_Int_Tables_number   1
_chemical_formula_structural   Li3CuF7
_chemical_formula_sum   'Li3 Cu1 F7'
_cell_volume   111.64029939
_cell_formula_units_Z   1
loop_
 _symmetry_equiv_pos_site_id
 _symmetry_equiv_pos_as_xyz
  1  'x, y, z'
loop_
 _atom_site_type_symbol
 _atom_site_label
 _atom_site_symmetry_multiplicity
 _atom_site_fract_x
 _atom_site_fract_y
 _atom_site_fract_z
 _atom_site_occupancy
  Li  Li0  1  0.00139496  0.52780001  0.03233802  1
  Li  Li1  1  0.33189200  0.13880100  0.63425401  1
  F  F2  1  0.01182792  0.99747303  0.00447605  1
  Li  Li3  1  0.32151696  0.66923102  0.66219904  1
  Cu  Cu4  1  0.66666665  0.33333334  0.33333336  1
  F  F5  1  0.54308299  0.23924801  0.02821802  1
  F  F6  1  0.11729296  0.55699101  0.34570903  1
  F  F7  1  0.21605500  0.10964700  0.32099201  1
  F  F8  1  0.85402295  0.91050902  0.69372106  1
  F  F9  1  0.79027898  0.42744501  0.63851004  1
  F  F10  1  0.47930495  0.75619602  0.97288205  1
