# generated using pymatgen
data_KNa(BH4)2
_symmetry_space_group_name_H-M   'P 1'
_cell_length_a   4.70348978
_cell_length_b   4.70349026
_cell_length_c   7.29443121
_cell_angle_alpha   90.00000000
_cell_angle_beta   90.00000000
_cell_angle_gamma   120.00000000
_symmetry_Int_Tables_number   1
_chemical_formula_structural   KNa(BH4)2
_chemical_formula_sum   'K1 Na1 B2 H8'
_cell_volume   139.75344369
_cell_formula_units_Z   1
loop_
 _symmetry_equiv_pos_site_id
 _symmetry_equiv_pos_as_xyz
  1  'x, y, z'
loop_
 _atom_site_type_symbol
 _atom_site_label
 _atom_site_symmetry_multiplicity
 _atom_site_fract_x
 _atom_site_fract_y
 _atom_site_fract_z
 _atom_site_occupancy
  K  K0  1  0.00000000  0.00000000  0.84142298  1
  Na  Na1  1  0.66666670  0.33333333  0.31050699  1
  B  B2  1  0.66666670  0.33333333  0.66039498  1
  B  B3  1  0.33333336  0.66666666  0.15081400  1
  H  H4  1  0.66666670  0.33333333  0.82883498  1
  H  H5  1  0.33333336  0.66666666  0.98293897  1
  H  H6  1  0.19090903  0.80908999  0.20815399  1
  H  H7  1  0.52410003  0.47589999  0.60555498  1
  H  H8  1  0.19090902  0.38181800  0.20815399  1
  H  H9  1  0.61818105  0.80908999  0.20815399  1
  H  H10  1  0.95180005  0.47589999  0.60555498  1
  H  H11  1  0.52410003  0.04820000  0.60555498  1
