# generated using pymatgen
data_HoNi4B
_symmetry_space_group_name_H-M   'P 1'
_cell_length_a   5.03076601
_cell_length_b   5.03076601
_cell_length_c   7.02387524
_cell_angle_alpha   90.00000000
_cell_angle_beta   90.00000000
_cell_angle_gamma   119.96746826
_symmetry_Int_Tables_number   1
_chemical_formula_structural   HoNi4B
_chemical_formula_sum   'Ho2 Ni8 B2'
_cell_volume   153.99901029
_cell_formula_units_Z   2
loop_
 _symmetry_equiv_pos_site_id
 _symmetry_equiv_pos_as_xyz
  1  'x, y, z'
loop_
 _atom_site_type_symbol
 _atom_site_label
 _atom_site_symmetry_multiplicity
 _atom_site_fract_x
 _atom_site_fract_y
 _atom_site_fract_z
 _atom_site_occupancy
  Ho  Ho0  1  0.00002400  0.00002400  -0.00000000  1
  Ho  Ho1  1  0.00001200  0.00001200  0.49999998  1
  Ni  Ni2  1  0.66675301  0.33329099  -0.00000000  1
  Ni  Ni3  1  0.33333331  0.66679530  -0.00000000  1
  Ni  Ni4  1  0.50001500  0.50001498  0.71392698  1
  Ni  Ni5  1  0.50001502  0.00001600  0.71397798  1
  Ni  Ni6  1  0.00001598  0.50001498  0.71397798  1
  Ni  Ni7  1  0.50001500  0.50001498  0.28607299  1
  Ni  Ni8  1  0.50001502  0.00001600  0.28602199  1
  Ni  Ni9  1  0.00001598  0.50001498  0.28602199  1
  B  B10  1  0.66657401  0.33345199  0.49999998  1
  B  B11  1  0.33345298  0.66657497  0.49999998  1
