# generated using pymatgen
data_Cs2HgI4
_symmetry_space_group_name_H-M   'P 1'
_cell_length_a   8.42428207
_cell_length_b   8.58474636
_cell_length_c   10.30557346
_cell_angle_alpha   90.00000000
_cell_angle_beta   108.15888214
_cell_angle_gamma   90.00000000
_symmetry_Int_Tables_number   1
_chemical_formula_structural   Cs2HgI4
_chemical_formula_sum   'Cs4 Hg2 I8'
_cell_volume   708.18334303
_cell_formula_units_Z   2
loop_
 _symmetry_equiv_pos_site_id
 _symmetry_equiv_pos_as_xyz
  1  'x, y, z'
loop_
 _atom_site_type_symbol
 _atom_site_label
 _atom_site_symmetry_multiplicity
 _atom_site_fract_x
 _atom_site_fract_y
 _atom_site_fract_z
 _atom_site_occupancy
  Cs  Cs0  1  0.21801600  0.24999999  0.55142400  1
  Cs  Cs1  1  0.78198400  0.74999997  0.44857599  1
  Cs  Cs2  1  0.26113800  0.24999999  0.06703099  1
  Cs  Cs3  1  0.73886200  0.74999997  0.93296899  1
  Hg  Hg4  1  0.77453600  0.24999999  0.70053299  1
  Hg  Hg5  1  0.22546400  0.74999997  0.29946700  1
  I  I6  1  0.59149100  0.24999999  0.41992499  1
  I  I7  1  0.40850900  0.74999997  0.58007500  1
  I  I8  1  0.99965300  0.00531300  0.23837698  1
  I  I9  1  0.00034700  0.99468696  0.76162301  1
  I  I10  1  0.00034700  0.50531298  0.76162301  1
  I  I11  1  0.99965300  0.49468698  0.23837698  1
  I  I12  1  0.57216200  0.24999999  0.87334200  1
  I  I13  1  0.42783800  0.74999997  0.12665799  1
