# generated using pymatgen
data_LaGe
_symmetry_space_group_name_H-M   'P 1'
_cell_length_a   4.13115501
_cell_length_b   4.82290316
_cell_length_c   11.49853516
_cell_angle_alpha   90.00000000
_cell_angle_beta   90.00000000
_cell_angle_gamma   90.00000000
_symmetry_Int_Tables_number   1
_chemical_formula_structural   LaGe
_chemical_formula_sum   'La4 Ge4'
_cell_volume   229.09866062
_cell_formula_units_Z   4
loop_
 _symmetry_equiv_pos_site_id
 _symmetry_equiv_pos_as_xyz
  1  'x, y, z'
loop_
 _atom_site_type_symbol
 _atom_site_label
 _atom_site_symmetry_multiplicity
 _atom_site_fract_x
 _atom_site_fract_y
 _atom_site_fract_z
 _atom_site_occupancy
  La  La0  1  0.50000000  0.74999998  0.35553900  1
  La  La1  1  0.00000000  0.74999998  0.86086199  1
  La  La2  1  0.00000000  0.24999999  0.13214600  1
  La  La3  1  0.50000000  0.24999999  0.64507899  1
  Ge  Ge4  1  0.50000000  0.74999998  0.06703100  1
  Ge  Ge5  1  0.00000000  0.74999998  0.58235799  1
  Ge  Ge6  1  0.00000000  0.24999999  0.43210099  1
  Ge  Ge7  1  0.50000000  0.24999999  0.92488399  1
