# generated using pymatgen
data_Li4H7N5
_symmetry_space_group_name_H-M   'P 1'
_cell_length_a   4.86517048
_cell_length_b   4.86517048
_cell_length_c   6.36415195
_cell_angle_alpha   112.27563477
_cell_angle_beta   112.27563477
_cell_angle_gamma   90.47514343
_symmetry_Int_Tables_number   1
_chemical_formula_structural   Li4H7N5
_chemical_formula_sum   'Li4 H7 N5'
_cell_volume   126.94574651
_cell_formula_units_Z   1
loop_
 _symmetry_equiv_pos_site_id
 _symmetry_equiv_pos_as_xyz
  1  'x, y, z'
loop_
 _atom_site_type_symbol
 _atom_site_label
 _atom_site_symmetry_multiplicity
 _atom_site_fract_x
 _atom_site_fract_y
 _atom_site_fract_z
 _atom_site_occupancy
  Li  Li0  1  0.25746897  0.50746900  0.51493798  1
  Li  Li1  1  0.49253096  0.74253100  0.98506197  1
  Li  Li2  1  0.74253098  0.49253100  0.48506198  1
  Li  Li3  1  0.50746899  0.25746900  0.01493800  1
  H  H4  1  0.84640699  0.43047800  0.83155198  1
  H  H5  1  0.98514496  0.90107400  0.83155197  1
  H  H6  1  0.09892600  0.01485500  0.66844798  1
  H  H7  1  0.56952200  0.15359300  0.66844798  1
  H  H8  1  0.15359297  0.56952200  0.16844799  1
  N  N9  1  0.01485499  0.09892600  0.16844799  1
  H  H10  1  0.90107396  0.98514500  0.33155198  1
  H  H11  1  0.43047796  0.84640700  0.33155198  1
  N  N12  1  0.61447599  0.38552400  0.74999998  1
  N  N13  1  0.13552395  0.86447600  0.74999997  1
  N  N14  1  0.38552397  0.61447600  0.24999999  1
  N  N15  1  0.86447600  0.13552400  0.24999999  1
