# generated using pymatgen
data_Ho(CoGe)2
_symmetry_space_group_name_H-M   'P 1'
_cell_length_a   4.01871395
_cell_length_b   4.01871395
_cell_length_c   5.56563234
_cell_angle_alpha   111.16342926
_cell_angle_beta   111.16342926
_cell_angle_gamma   90.00000000
_symmetry_Int_Tables_number   1
_chemical_formula_structural   Ho(CoGe)2
_chemical_formula_sum   'Ho1 Co2 Ge2'
_cell_volume   77.28649579
_cell_formula_units_Z   1
loop_
 _symmetry_equiv_pos_site_id
 _symmetry_equiv_pos_as_xyz
  1  'x, y, z'
loop_
 _atom_site_type_symbol
 _atom_site_label
 _atom_site_symmetry_multiplicity
 _atom_site_fract_x
 _atom_site_fract_y
 _atom_site_fract_z
 _atom_site_occupancy
  Ho  Ho0  1  0.00000000  0.00000000  0.00000000  1
  Ge  Ge1  1  0.62880399  0.62880400  0.25760797  1
  Ge  Ge2  1  0.37119600  0.37119600  0.74239197  1
  Co  Co3  1  0.24999999  0.75000000  0.49999997  1
  Co  Co4  1  0.75000000  0.25000000  0.49999997  1
