# generated using pymatgen
data_Ga7Ni2
_symmetry_space_group_name_H-M   'P 1'
_cell_length_a   3.83965397
_cell_length_b   6.46944189
_cell_length_c   6.46944284
_cell_angle_alpha   119.99999237
_cell_angle_beta   90.00000000
_cell_angle_gamma   90.00000000
_symmetry_Int_Tables_number   1
_chemical_formula_structural   Ga7Ni2
_chemical_formula_sum   'Ga7 Ni2'
_cell_volume   139.17346792
_cell_formula_units_Z   1
loop_
 _symmetry_equiv_pos_site_id
 _symmetry_equiv_pos_as_xyz
  1  'x, y, z'
loop_
 _atom_site_type_symbol
 _atom_site_label
 _atom_site_symmetry_multiplicity
 _atom_site_fract_x
 _atom_site_fract_y
 _atom_site_fract_z
 _atom_site_occupancy
  Ga  Ga0  1  0.50000000  0.58479199  -0.00000004  1
  Ga  Ga1  1  0.50000000  0.41520799  0.41520796  1
  Ga  Ga2  1  0.50000000  0.00000000  0.58479199  1
  Ga  Ga3  1  0.00000000  0.33333333  0.66666663  1
  Ga  Ga4  1  0.00000000  0.66666665  0.33333328  1
  Ga  Ga5  1  0.50000000  0.00000000  -0.00000000  1
  Ga  Ga6  1  0.00000000  0.24488699  0.99999997  1
  Ni  Ni7  1  -0.00000000  0.75511298  0.75511293  1
  Ni  Ni8  1  0.00000000  0.00000000  0.24488700  1
