# generated using pymatgen
data_Ga3Co2
_symmetry_space_group_name_H-M   'P 1'
_cell_length_a   6.55565071
_cell_length_b   6.55565071
_cell_length_c   6.55565071
_cell_angle_alpha   89.06860352
_cell_angle_beta   89.06860352
_cell_angle_gamma   89.06860352
_symmetry_Int_Tables_number   1
_chemical_formula_structural   Ga3Co2
_chemical_formula_sum   'Ga9 Co6'
_cell_volume   281.62881309
_cell_formula_units_Z   3
loop_
 _symmetry_equiv_pos_site_id
 _symmetry_equiv_pos_as_xyz
  1  'x, y, z'
loop_
 _atom_site_type_symbol
 _atom_site_label
 _atom_site_symmetry_multiplicity
 _atom_site_fract_x
 _atom_site_fract_y
 _atom_site_fract_z
 _atom_site_occupancy
  Ga  Ga0  1  0.00000000  0.00000000  0.00000000  1
  Co  Co1  1  0.41898399  0.22644600  0.56260197  1
  Co  Co2  1  0.22644597  0.56260201  0.41898396  1
  Co  Co3  1  0.56260198  0.41898401  0.22644595  1
  Co  Co4  1  0.58101596  0.77355401  0.43739793  1
  Co  Co5  1  0.77355398  0.43739801  0.58101594  1
  Co  Co6  1  0.43739797  0.58101601  0.77355395  1
  Ga  Ga7  1  0.24292599  0.24292600  0.24292598  1
  Ga  Ga8  1  0.75707396  0.75707401  0.75707392  1
  Ga  Ga9  1  0.37497796  0.74795801  0.12638594  1
  Ga  Ga10  1  0.74795800  0.12638600  0.37497795  1
  Ga  Ga11  1  0.12638598  0.37497800  0.74795798  1
  Ga  Ga12  1  0.62502199  0.25204200  0.87361396  1
  Ga  Ga13  1  0.25204195  0.87361401  0.62502194  1
  Ga  Ga14  1  0.87361397  0.62502201  0.25204192  1
