# generated using pymatgen
data_BaH12Pt
_symmetry_space_group_name_H-M   'P 1'
_cell_length_a   5.38152361
_cell_length_b   5.38152361
_cell_length_c   5.38152361
_cell_angle_alpha   101.19522858
_cell_angle_beta   101.19522858
_cell_angle_gamma   101.19523621
_symmetry_Int_Tables_number   1
_chemical_formula_structural   BaH12Pt
_chemical_formula_sum   'Ba1 H12 Pt1'
_cell_volume   145.56029828
_cell_formula_units_Z   1
loop_
 _symmetry_equiv_pos_site_id
 _symmetry_equiv_pos_as_xyz
  1  'x, y, z'
loop_
 _atom_site_type_symbol
 _atom_site_label
 _atom_site_symmetry_multiplicity
 _atom_site_fract_x
 _atom_site_fract_y
 _atom_site_fract_z
 _atom_site_occupancy
  Ba  Ba0  1  0.49999998  0.49999999  0.50000003  1
  H  H1  1  0.65651700  0.00000000  0.34348302  1
  H  H2  1  -0.00000001  0.34348300  0.65651702  1
  H  H3  1  0.65651698  0.34348300  0.00000002  1
  H  H4  1  -0.00000002  0.65651699  0.34348302  1
  H  H5  1  0.34348300  0.00000000  0.65651702  1
  H  H6  1  0.34348298  0.65651699  0.00000001  1
  Pt  Pt7  1  0.00000000  0.00000000  0.00000000  1
  H  H8  1  0.72896299  0.08287900  0.72896303  1
  H  H9  1  0.72896297  0.72896299  0.08287902  1
  H  H10  1  0.27103697  0.91712099  0.27103702  1
  H  H11  1  0.27103699  0.27103700  0.91712103  1
  H  H12  1  0.91712099  0.27103700  0.27103703  1
  H  H13  1  0.08287897  0.72896299  0.72896303  1
