# generated using pymatgen
data_GeTe
_symmetry_space_group_name_H-M   'P 1'
_cell_length_a   3.89939189
_cell_length_b   3.89939189
_cell_length_c   8.58697891
_cell_angle_alpha   90.00000000
_cell_angle_beta   90.00000000
_cell_angle_gamma   90.00000000
_symmetry_Int_Tables_number   1
_chemical_formula_structural   GeTe
_chemical_formula_sum   'Ge3 Te3'
_cell_volume   130.56722215
_cell_formula_units_Z   3
loop_
 _symmetry_equiv_pos_site_id
 _symmetry_equiv_pos_as_xyz
  1  'x, y, z'
loop_
 _atom_site_type_symbol
 _atom_site_label
 _atom_site_symmetry_multiplicity
 _atom_site_fract_x
 _atom_site_fract_y
 _atom_site_fract_z
 _atom_site_occupancy
  Ge  Ge0  1  0.00000000  0.50000001  0.71304101  1
  Ge  Ge1  1  0.50000001  0.00000000  0.28695900  1
  Te  Te2  1  0.00000000  0.00000000  0.00000000  1
  Ge  Ge3  1  0.50000001  0.50000001  -0.00000000  1
  Te  Te4  1  0.00000000  0.50000001  0.36544200  1
  Te  Te5  1  0.50000001  0.00000000  0.63455801  1
