# generated using pymatgen
data_TbCoGe2
_symmetry_space_group_name_H-M   'P 1'
_cell_length_a   4.11736584
_cell_length_b   4.22612000
_cell_length_c   8.47374821
_cell_angle_alpha   90.00000000
_cell_angle_beta   104.06061554
_cell_angle_gamma   90.00000000
_symmetry_Int_Tables_number   1
_chemical_formula_structural   TbCoGe2
_chemical_formula_sum   'Tb2 Co2 Ge4'
_cell_volume   143.02967127
_cell_formula_units_Z   2
loop_
 _symmetry_equiv_pos_site_id
 _symmetry_equiv_pos_as_xyz
  1  'x, y, z'
loop_
 _atom_site_type_symbol
 _atom_site_label
 _atom_site_symmetry_multiplicity
 _atom_site_fract_x
 _atom_site_fract_y
 _atom_site_fract_z
 _atom_site_occupancy
  Tb  Tb0  1  0.89101702  0.25000000  0.78203395  1
  Tb  Tb1  1  0.10898300  0.75000000  0.21796599  1
  Co  Co2  1  0.67944002  0.25000000  0.35887997  1
  Co  Co3  1  0.32056001  0.75000000  0.64111998  1
  Ge  Ge4  1  0.54027901  0.25000000  0.08055798  1
  Ge  Ge5  1  0.45972101  0.75000000  0.91944197  1
  Ge  Ge6  1  0.25103001  0.25000000  0.50205998  1
  Ge  Ge7  1  0.74897002  0.75000000  0.49793997  1
