# generated using pymatgen
data_Ga8F11
_symmetry_space_group_name_H-M   'P 1'
_cell_length_a   6.98328590
_cell_length_b   6.98328590
_cell_length_c   6.98328590
_cell_angle_alpha   109.47122192
_cell_angle_beta   109.47122192
_cell_angle_gamma   109.47122192
_symmetry_Int_Tables_number   1
_chemical_formula_structural   Ga8F11
_chemical_formula_sum   'Ga8 F11'
_cell_volume   262.15464508
_cell_formula_units_Z   1
loop_
 _symmetry_equiv_pos_site_id
 _symmetry_equiv_pos_as_xyz
  1  'x, y, z'
loop_
 _atom_site_type_symbol
 _atom_site_label
 _atom_site_symmetry_multiplicity
 _atom_site_fract_x
 _atom_site_fract_y
 _atom_site_fract_z
 _atom_site_occupancy
  Ga  Ga0  1  0.00000003  0.50000002  0.50000003  1
  Ga  Ga1  1  0.50000004  0.50000002  0.00000004  1
  Ga  Ga2  1  0.50000000  0.00000000  0.50000001  1
  Ga  Ga3  1  0.29535007  1.00000004  0.00000006  1
  Ga  Ga4  1  0.00000000  0.00000000  0.29535000  1
  Ga  Ga5  1  0.00000002  0.29535001  0.00000002  1
  Ga  Ga6  1  0.70465005  0.70465003  0.70465006  1
  F  F7  1  0.00000005  0.75809003  0.75809004  1
  F  F8  1  0.75809006  0.75809003  0.00000006  1
  F  F9  1  0.75809001  0.00000000  0.75809002  1
  F  F10  1  0.00000002  0.24191001  0.24191001  1
  Ga  Ga11  1  0.24191002  0.24191001  1.00000002  1
  F  F12  1  0.24191000  0.00000000  0.24191001  1
  F  F13  1  0.25000003  0.50000002  0.75000003  1
  F  F14  1  0.50000005  0.75000003  0.25000005  1
  F  F15  1  0.75000002  0.25000001  0.50000003  1
  F  F16  1  0.75000004  0.50000002  0.25000005  1
  F  F17  1  0.25000005  0.75000003  0.50000005  1
  F  F18  1  0.50000002  0.25000001  0.75000003  1
