# generated using pymatgen
data_CsAg5S8
_symmetry_space_group_name_H-M   'P 1'
_cell_length_a   3.74860692
_cell_length_b   9.28065586
_cell_length_c   9.70354652
_cell_angle_alpha   104.45706177
_cell_angle_beta   101.13705444
_cell_angle_gamma   90.00000000
_symmetry_Int_Tables_number   1
_chemical_formula_structural   CsAg5S8
_chemical_formula_sum   'Cs1 Ag5 S8'
_cell_volume   320.32286458
_cell_formula_units_Z   1
loop_
 _symmetry_equiv_pos_site_id
 _symmetry_equiv_pos_as_xyz
  1  'x, y, z'
loop_
 _atom_site_type_symbol
 _atom_site_label
 _atom_site_symmetry_multiplicity
 _atom_site_fract_x
 _atom_site_fract_y
 _atom_site_fract_z
 _atom_site_occupancy
  Cs  Cs0  1  0.49999999  0.49999997  -0.00000001  1
  Ag  Ag1  1  0.00000000  0.00000000  0.00000000  1
  Ag  Ag2  1  0.34123597  0.99327795  0.68247199  1
  Ag  Ag3  1  0.65876401  0.00672200  0.31752799  1
  Ag  Ag4  1  0.29027298  0.65685297  0.58054699  1
  Ag  Ag5  1  0.70972700  0.34314798  0.41945299  1
  S  S6  1  0.57440200  0.17154199  0.14880299  1
  S  S7  1  0.42559798  0.82845796  0.85119699  1
  S  S8  1  0.09072398  0.83595896  0.18144799  1
  S  S9  1  0.90927601  0.16404099  0.81855199  1
  S  S10  1  0.16390399  0.49052997  0.32780800  1
  S  S11  1  0.83609599  0.50946997  0.67219199  1
  S  S12  1  0.24226600  0.16706499  0.48453100  1
  S  S13  1  0.75773398  0.83293496  0.51546899  1
