# generated using pymatgen
data_SrCaAu2(O3F)2
_symmetry_space_group_name_H-M   'P 1'
_cell_length_a   3.91222405
_cell_length_b   3.91222405
_cell_length_c   12.44046021
_cell_angle_alpha   80.95338440
_cell_angle_beta   80.95338440
_cell_angle_gamma   60.00000000
_symmetry_Int_Tables_number   1
_chemical_formula_structural   SrCaAu2(O3F)2
_chemical_formula_sum   'Sr1 Ca1 Au2 O6 F2'
_cell_volume   162.15696288
_cell_formula_units_Z   1
loop_
 _symmetry_equiv_pos_site_id
 _symmetry_equiv_pos_as_xyz
  1  'x, y, z'
loop_
 _atom_site_type_symbol
 _atom_site_label
 _atom_site_symmetry_multiplicity
 _atom_site_fract_x
 _atom_site_fract_y
 _atom_site_fract_z
 _atom_site_occupancy
  Sr  Sr0  1  0.00000000  0.00000000  0.00000000  1
  Ca  Ca1  1  0.49999999  0.49999999  0.49999998  1
  Au  Au2  1  0.75198898  0.75198899  0.74403297  1
  Au  Au3  1  0.24801099  0.24801100  0.25596699  1
  O  O4  1  0.07150200  0.07150200  0.78549399  1
  F  F5  1  0.56724898  0.56724899  0.29825298  1
  O  O6  1  0.92849797  0.92849798  0.21450597  1
  F  F7  1  0.43275099  0.43275099  0.70174698  1
  O  O8  1  0.69779598  0.69779599  0.90661198  1
  O  O9  1  0.19376799  0.19376800  0.41869599  1
  O  O10  1  0.30220399  0.30220400  0.09338799  1
  O  O11  1  0.80623198  0.80623199  0.58130397  1
