# generated using pymatgen
data_Li3Co5O8
_symmetry_space_group_name_H-M   'P 1'
_cell_length_a   5.17491436
_cell_length_b   5.17490768
_cell_length_c   5.84201813
_cell_angle_alpha   89.99743652
_cell_angle_beta   89.99743652
_cell_angle_gamma   68.71710968
_symmetry_Int_Tables_number   1
_chemical_formula_structural   Li3Co5O8
_chemical_formula_sum   'Li3 Co5 O8'
_cell_volume   145.77774271
_cell_formula_units_Z   1
loop_
 _symmetry_equiv_pos_site_id
 _symmetry_equiv_pos_as_xyz
  1  'x, y, z'
loop_
 _atom_site_type_symbol
 _atom_site_label
 _atom_site_symmetry_multiplicity
 _atom_site_fract_x
 _atom_site_fract_y
 _atom_site_fract_z
 _atom_site_occupancy
  Li  Li0  1  0.50000002  0.00000000  0.74999200  1
  Li  Li1  1  -0.00000001  0.49999999  0.25000700  1
  Co  Co2  1  0.50000001  0.49999999  0.00000002  1
  Li  Li3  1  0.00000000  0.00000000  0.49999999  1
  Co  Co4  1  -0.00000001  0.50000099  0.75025999  1
  Co  Co5  1  0.50000002  0.00000000  0.24973901  1
  Co  Co6  1  0.49999501  0.50000499  0.50000101  1
  Co  Co7  1  0.99999503  0.00000600  0.00000003  1
  O  O8  1  0.76592202  0.26677599  0.74956401  1
  O  O9  1  0.26676700  0.76592998  0.25043301  1
  O  O10  1  0.23406900  0.73323299  0.74956800  1
  O  O11  1  0.73322302  0.23407900  0.25043602  1
  O  O12  1  0.24859700  0.24858100  0.99999399  1
  O  O13  1  0.74849201  0.74847399  0.49999602  1
  O  O14  1  0.25152400  0.25151000  0.50000500  1
  O  O15  1  0.75141801  0.75140399  0.00000503  1
