# generated using pymatgen
data_Mg(B2Ir3)2
_symmetry_space_group_name_H-M   'P 1'
_cell_length_a   3.35878205
_cell_length_b   6.57130623
_cell_length_c   6.57130671
_cell_angle_alpha   119.99999237
_cell_angle_beta   90.00000000
_cell_angle_gamma   90.00000000
_symmetry_Int_Tables_number   1
_chemical_formula_structural   Mg(B2Ir3)2
_chemical_formula_sum   'Mg1 B4 Ir6'
_cell_volume   125.60760443
_cell_formula_units_Z   1
loop_
 _symmetry_equiv_pos_site_id
 _symmetry_equiv_pos_as_xyz
  1  'x, y, z'
loop_
 _atom_site_type_symbol
 _atom_site_label
 _atom_site_symmetry_multiplicity
 _atom_site_fract_x
 _atom_site_fract_y
 _atom_site_fract_z
 _atom_site_occupancy
  Mg  Mg0  1  0.00000000  0.00000000  0.00000000  1
  Ir  Ir1  1  0.49999999  0.80127495  0.60254997  1
  Ir  Ir2  1  0.49999999  0.80127495  0.19872496  1
  Ir  Ir3  1  0.00000000  0.46505797  0.53494299  1
  Ir  Ir4  1  0.00000000  0.06988500  0.53494301  1
  Ir  Ir5  1  0.00000000  0.46505797  0.93011600  1
  Ir  Ir6  1  0.49999999  0.39744997  0.19872498  1
  B  B7  1  0.49999999  0.18722599  0.37445200  1
  B  B8  1  0.49999999  0.62554896  0.81277499  1
  B  B9  1  0.00000000  0.66666662  0.33333330  1
  B  B10  1  0.49999999  0.18722599  0.81277502  1
