# generated using pymatgen
data_NdGa7
_symmetry_space_group_name_H-M   'P 1'
_cell_length_a   4.61360312
_cell_length_b   6.43342781
_cell_length_c   6.43342781
_cell_angle_alpha   120.00000000
_cell_angle_beta   90.00000000
_cell_angle_gamma   90.00000000
_symmetry_Int_Tables_number   1
_chemical_formula_structural   NdGa7
_chemical_formula_sum   'Nd1 Ga7'
_cell_volume   165.36961966
_cell_formula_units_Z   1
loop_
 _symmetry_equiv_pos_site_id
 _symmetry_equiv_pos_as_xyz
  1  'x, y, z'
loop_
 _atom_site_type_symbol
 _atom_site_label
 _atom_site_symmetry_multiplicity
 _atom_site_fract_x
 _atom_site_fract_y
 _atom_site_fract_z
 _atom_site_occupancy
  Nd  Nd0  1  0.24999999  0.66666668  0.33333333  1
  Ga  Ga1  1  0.74999998  0.33333334  0.66666668  1
  Ga  Ga2  1  0.74999998  0.85560102  0.14439900  1
  Ga  Ga3  1  0.74999998  0.28879801  0.14439900  1
  Ga  Ga4  1  0.74999998  0.85560102  0.71120201  1
  Ga  Ga5  1  0.24999999  0.14439900  0.85560101  1
  Ga  Ga6  1  0.24999999  0.71120202  0.85560101  1
  Ga  Ga7  1  0.24999999  0.14439900  0.28879800  1
