# generated using pymatgen
data_Li3(GeO2)2
_symmetry_space_group_name_H-M   'P 1'
_cell_length_a   5.47659779
_cell_length_b   5.47659779
_cell_length_c   6.20379782
_cell_angle_alpha   90.00000000
_cell_angle_beta   90.00000000
_cell_angle_gamma   93.77648163
_symmetry_Int_Tables_number   1
_chemical_formula_structural   Li3(GeO2)2
_chemical_formula_sum   'Li6 Ge4 O8'
_cell_volume   185.66723550
_cell_formula_units_Z   2
loop_
 _symmetry_equiv_pos_site_id
 _symmetry_equiv_pos_as_xyz
  1  'x, y, z'
loop_
 _atom_site_type_symbol
 _atom_site_label
 _atom_site_symmetry_multiplicity
 _atom_site_fract_x
 _atom_site_fract_y
 _atom_site_fract_z
 _atom_site_occupancy
  Li  Li0  1  0.15954094  0.84045897  -0.00000000  1
  Ge  Ge1  1  0.84045896  0.15954099  0.50000001  1
  Ge  Ge2  1  0.84045896  0.15954099  -0.00000000  1
  Li  Li3  1  0.15954094  0.84045897  0.50000001  1
  Li  Li4  1  0.58395492  0.87648797  0.75000002  1
  Li  Li5  1  0.41604498  0.12351200  0.25000001  1
  Li  Li6  1  0.87648793  0.58395498  0.75000002  1
  Li  Li7  1  0.12351197  0.41604498  0.25000001  1
  Ge  Ge8  1  0.34012597  0.34012599  0.75000002  1
  Ge  Ge9  1  0.65987394  0.65987397  0.25000001  1
  O  O10  1  0.27000695  0.66426497  0.75000002  1
  O  O11  1  0.72999295  0.33573499  0.25000001  1
  O  O12  1  0.20294098  0.20294099  0.99702803  1
  O  O13  1  0.79705892  0.79705897  0.49702801  1
  O  O14  1  0.20294098  0.20294099  0.50297201  1
  O  O15  1  0.79705892  0.79705897  0.00297200  1
  O  O16  1  0.66426496  0.27000699  0.75000002  1
  O  O17  1  0.33573494  0.72999297  0.25000001  1
