# generated using pymatgen
data_Ga
_symmetry_space_group_name_H-M   'P 1'
_cell_length_a   5.50761414
_cell_length_b   5.50761414
_cell_length_c   5.50761318
_cell_angle_alpha   86.14093781
_cell_angle_beta   86.14093781
_cell_angle_gamma   86.14093781
_symmetry_Int_Tables_number   1
_chemical_formula_structural   Ga
_chemical_formula_sum   Ga8
_cell_volume   165.97917733
_cell_formula_units_Z   8
loop_
 _symmetry_equiv_pos_site_id
 _symmetry_equiv_pos_as_xyz
  1  'x, y, z'
loop_
 _atom_site_type_symbol
 _atom_site_label
 _atom_site_symmetry_multiplicity
 _atom_site_fract_x
 _atom_site_fract_y
 _atom_site_fract_z
 _atom_site_occupancy
  Ga  Ga0  1  0.72562797  0.72562798  0.72562789  1
  Ga  Ga1  1  0.27437199  0.27437199  0.27437196  1
  Ga  Ga2  1  0.20186599  0.75732298  0.20186594  1
  Ga  Ga3  1  0.20186599  0.20186599  0.75732295  1
  Ga  Ga4  1  0.75732298  0.20186599  0.20186593  1
  Ga  Ga5  1  0.24267699  0.79813398  0.79813391  1
  Ga  Ga6  1  0.79813398  0.24267699  0.79813391  1
  Ga  Ga7  1  0.79813397  0.79813398  0.24267690  1
