# generated using pymatgen
data_TbLuCo10(BP2)2
_symmetry_space_group_name_H-M   'P 1'
_cell_length_a   5.35170603
_cell_length_b   5.35170603
_cell_length_c   7.50748396
_cell_angle_alpha   90.00000000
_cell_angle_beta   90.00000000
_cell_angle_gamma   90.00000000
_symmetry_Int_Tables_number   1
_chemical_formula_structural   TbLuCo10(BP2)2
_chemical_formula_sum   'Tb1 Lu1 Co10 B2 P4'
_cell_volume   215.02002683
_cell_formula_units_Z   1
loop_
 _symmetry_equiv_pos_site_id
 _symmetry_equiv_pos_as_xyz
  1  'x, y, z'
loop_
 _atom_site_type_symbol
 _atom_site_label
 _atom_site_symmetry_multiplicity
 _atom_site_fract_x
 _atom_site_fract_y
 _atom_site_fract_z
 _atom_site_occupancy
  Lu  Lu0  1  0.00000000  0.00000000  0.00000000  1
  Tb  Tb1  1  0.50000000  0.50000000  0.50000000  1
  Co  Co2  1  0.83267200  0.50000000  0.15120500  1
  P  P3  1  0.16732800  0.50000000  0.15120500  1
  P  P4  1  0.00000000  0.33267200  0.65120500  1
  B  B5  1  0.00000000  0.66732800  0.65120500  1
  P  P6  1  0.66732800  0.00000000  0.34879500  1
  B  B7  1  0.33267200  0.00000000  0.34879500  1
  P  P8  1  0.50000000  0.16732800  0.84879500  1
  Co  Co9  1  0.50000000  0.83267200  0.84879500  1
  Co  Co10  1  0.24889600  0.50000000  0.85506400  1
  Co  Co11  1  0.75110400  0.50000000  0.85506400  1
  Co  Co12  1  0.00000000  0.74889600  0.35506400  1
  Co  Co13  1  0.00000000  0.25110400  0.35506400  1
  Co  Co14  1  0.25110400  0.00000000  0.64493600  1
  Co  Co15  1  0.74889600  0.00000000  0.64493600  1
  Co  Co16  1  0.50000000  0.75110400  0.14493600  1
  Co  Co17  1  0.50000000  0.24889600  0.14493600  1
