# generated using pymatgen
data_HoGaCo4
_symmetry_space_group_name_H-M   'P 1'
_cell_length_a   5.04020357
_cell_length_b   5.04020357
_cell_length_c   5.04020357
_cell_angle_alpha   60.00000000
_cell_angle_beta   60.00000000
_cell_angle_gamma   60.00000000
_symmetry_Int_Tables_number   1
_chemical_formula_structural   HoGaCo4
_chemical_formula_sum   'Ho1 Ga1 Co4'
_cell_volume   90.53765368
_cell_formula_units_Z   1
loop_
 _symmetry_equiv_pos_site_id
 _symmetry_equiv_pos_as_xyz
  1  'x, y, z'
loop_
 _atom_site_type_symbol
 _atom_site_label
 _atom_site_symmetry_multiplicity
 _atom_site_fract_x
 _atom_site_fract_y
 _atom_site_fract_z
 _atom_site_occupancy
  Ho  Ho0  1  0.49999998  0.49999998  0.49999998  1
  Ga  Ga1  1  0.74999997  0.74999997  0.74999997  1
  Co  Co2  1  0.12502800  0.12502900  0.12502900  1
  Co  Co3  1  0.62491298  0.12502900  0.12502900  1
  Co  Co4  1  0.12502800  0.62491398  0.12502900  1
  Co  Co5  1  0.12502800  0.12502900  0.62491398  1
