# generated using pymatgen
data_Ca(PbI4)3
_symmetry_space_group_name_H-M   'P 1'
_cell_length_a   6.99126291
_cell_length_b   8.04909134
_cell_length_c   10.21643162
_cell_angle_alpha   90.00000000
_cell_angle_beta   90.00000000
_cell_angle_gamma   90.00000000
_symmetry_Int_Tables_number   1
_chemical_formula_structural   Ca(PbI4)3
_chemical_formula_sum   'Ca1 Pb3 I12'
_cell_volume   574.91246194
_cell_formula_units_Z   1
loop_
 _symmetry_equiv_pos_site_id
 _symmetry_equiv_pos_as_xyz
  1  'x, y, z'
loop_
 _atom_site_type_symbol
 _atom_site_label
 _atom_site_symmetry_multiplicity
 _atom_site_fract_x
 _atom_site_fract_y
 _atom_site_fract_z
 _atom_site_occupancy
  I  I0  1  0.33713200  0.67596897  0.06308500  1
  I  I1  1  0.16286800  0.17596899  0.43691502  1
  I  I2  1  0.66286801  0.32403099  0.56308502  1
  I  I3  1  0.83713201  0.82403097  0.93691504  1
  I  I4  1  0.66286801  0.32403099  0.93691504  1
  I  I5  1  0.83713201  0.82403097  0.56308502  1
  I  I6  1  0.33713200  0.67596897  0.43691502  1
  I  I7  1  0.16286800  0.17596899  0.06308500  1
  I  I8  1  0.85798801  0.53456898  0.25000001  1
  I  I9  1  0.64201201  0.03456900  0.25000001  1
  I  I10  1  0.14201200  0.46543098  0.75000003  1
  I  I11  1  0.35798800  0.96543096  0.75000003  1
  Pb  Pb12  1  0.05470900  0.87938796  0.25000001  1
  Pb  Pb13  1  0.44529101  0.37938798  0.25000001  1
  Ca  Ca14  1  0.94529101  0.12061199  0.75000003  1
  Pb  Pb15  1  0.55470901  0.62061197  0.75000003  1
