# generated using pymatgen
data_Cs2WF6
_symmetry_space_group_name_H-M   'P 1'
_cell_length_a   5.15748596
_cell_length_b   6.36122990
_cell_length_c   6.36123037
_cell_angle_alpha   60.00000000
_cell_angle_beta   90.00000000
_cell_angle_gamma   90.00000000
_symmetry_Int_Tables_number   1
_chemical_formula_structural   Cs2WF6
_chemical_formula_sum   'Cs2 W1 F6'
_cell_volume   180.73859486
_cell_formula_units_Z   1
loop_
 _symmetry_equiv_pos_site_id
 _symmetry_equiv_pos_as_xyz
  1  'x, y, z'
loop_
 _atom_site_type_symbol
 _atom_site_label
 _atom_site_symmetry_multiplicity
 _atom_site_fract_x
 _atom_site_fract_y
 _atom_site_fract_z
 _atom_site_occupancy
  Cs  Cs0  1  0.29857000  0.66666668  0.66666663  1
  Cs  Cs1  1  0.70143001  0.33333334  0.33333332  1
  W  W2  1  0.00000000  0.00000000  0.00000000  1
  F  F3  1  0.21181500  0.14940800  0.70118398  1
  F  F4  1  0.21181500  0.14940800  0.14940799  1
  F  F5  1  0.21181500  0.70118402  0.14940798  1
  F  F6  1  0.78818501  0.85059202  0.29881597  1
  F  F7  1  0.78818501  0.85059202  0.85059196  1
  F  F8  1  0.78818501  0.29881601  0.85059197  1
