# generated using pymatgen
data_Cs3(CuS2)2
_symmetry_space_group_name_H-M   'P 1'
_cell_length_a   3.92343497
_cell_length_b   11.46052361
_cell_length_c   11.46052361
_cell_angle_alpha   120.00000000
_cell_angle_beta   90.00000000
_cell_angle_gamma   90.00000000
_symmetry_Int_Tables_number   1
_chemical_formula_structural   Cs3(CuS2)2
_chemical_formula_sum   'Cs6 Cu4 S8'
_cell_volume   446.27854729
_cell_formula_units_Z   2
loop_
 _symmetry_equiv_pos_site_id
 _symmetry_equiv_pos_as_xyz
  1  'x, y, z'
loop_
 _atom_site_type_symbol
 _atom_site_label
 _atom_site_symmetry_multiplicity
 _atom_site_fract_x
 _atom_site_fract_y
 _atom_site_fract_z
 _atom_site_occupancy
  Cs  Cs0  1  1.00000001  0.38182201  0.38182202  1
  Cs  Cs1  1  1.00000001  0.61817802  0.00000000  1
  Cs  Cs2  1  0.00000000  0.00000000  0.61817803  1
  Cs  Cs3  1  0.00000000  0.00000000  0.28706601  1
  Cs  Cs4  1  0.00000000  0.28706601  1.00000004  1
  Cs  Cs5  1  1.00000001  0.71293403  0.71293403  1
  S  S6  1  0.50000000  0.12335900  0.12335901  1
  S  S7  1  0.50000000  0.00000000  0.87664104  1
  S  S8  1  0.50000000  0.87664103  1.00000004  1
  S  S9  1  0.50000000  0.22030101  0.53663002  1
  Cu  Cu10  1  0.50000000  0.31632901  0.77969903  1
  S  S11  1  0.50000000  0.68367103  0.46337002  1
  Cu  Cu12  1  0.50000000  0.77969903  0.31632902  1
  S  S13  1  0.50000000  0.53663002  0.22030101  1
  S  S14  1  0.50000000  0.46337002  0.68367103  1
  Cu  Cu15  1  0.00000000  0.66666669  0.33333335  1
  Cu  Cu16  1  1.00000001  0.33333335  0.66666669  1
  S  S17  1  0.00000000  0.00000000  0.00000000  1
