# generated using pymatgen
data_Ge
_symmetry_space_group_name_H-M   'P 1'
_cell_length_a   6.93319035
_cell_length_b   6.93816137
_cell_length_c   6.99198627
_cell_angle_alpha   118.77743530
_cell_angle_beta   118.35759735
_cell_angle_gamma   91.89604187
_symmetry_Int_Tables_number   1
_chemical_formula_structural   Ge
_chemical_formula_sum   Ge10
_cell_volume   244.03083152
_cell_formula_units_Z   10
loop_
 _symmetry_equiv_pos_site_id
 _symmetry_equiv_pos_as_xyz
  1  'x, y, z'
loop_
 _atom_site_type_symbol
 _atom_site_label
 _atom_site_symmetry_multiplicity
 _atom_site_fract_x
 _atom_site_fract_y
 _atom_site_fract_z
 _atom_site_occupancy
  Ge  Ge0  1  0.93006905  0.43098501  0.36412405  1
  Ge  Ge1  1  0.45504401  0.07105100  0.01921002  1
  Ge  Ge2  1  0.95870511  0.94933103  0.40557206  1
  Ge  Ge3  1  0.41879910  0.92923903  0.35302304  1
  Ge  Ge4  1  0.06886605  0.45274501  0.01689701  1
  Ge  Ge5  1  0.56884406  0.56117702  0.62242703  1
  Ge  Ge6  1  0.26223908  0.75836302  0.52409102  1
  Ge  Ge7  1  0.76324603  0.25217601  0.52071304  1
  Ge  Ge8  1  0.99344011  0.99372603  0.98495006  1
  Ge  Ge9  1  0.49310705  0.49255302  0.98307702  1
