# generated using pymatgen
data_Ba4CuAg2Bi5
_symmetry_space_group_name_H-M   'P 1'
_cell_length_a   6.65472984
_cell_length_b   6.80128193
_cell_length_c   8.91038132
_cell_angle_alpha   112.43588257
_cell_angle_beta   111.92704010
_cell_angle_gamma   90.00000000
_symmetry_Int_Tables_number   1
_chemical_formula_structural   Ba4CuAg2Bi5
_chemical_formula_sum   'Ba4 Cu1 Ag2 Bi5'
_cell_volume   340.98813370
_cell_formula_units_Z   1
loop_
 _symmetry_equiv_pos_site_id
 _symmetry_equiv_pos_as_xyz
  1  'x, y, z'
loop_
 _atom_site_type_symbol
 _atom_site_label
 _atom_site_symmetry_multiplicity
 _atom_site_fract_x
 _atom_site_fract_y
 _atom_site_fract_z
 _atom_site_occupancy
  Ba  Ba0  1  0.67294600  0.91781801  0.34589199  1
  Ba  Ba1  1  0.17294600  0.42807400  0.34589200  1
  Bi  Bi2  1  0.82705400  0.57192601  0.65410800  1
  Bi  Bi3  1  0.32705400  0.08218200  0.65410801  1
  Ag  Ag4  1  0.75000000  0.50000000  -0.00000002  1
  Ag  Ag5  1  0.25000000  0.50000000  -0.00000001  1
  Ba  Ba6  1  0.25000000  0.00000000  1.00000002  1
  Cu  Cu7  1  0.75000001  0.00000000  -0.00000002  1
  Bi  Bi8  1  0.40518700  0.70306901  0.81037501  1
  Bi  Bi9  1  0.59481300  0.29693100  0.18962499  1
  Bi  Bi10  1  0.09481199  0.89269401  0.18962400  1
  Ba  Ba11  1  0.90518801  0.10730600  0.81037600  1
