# generated using pymatgen
data_Li(WO2)3
_symmetry_space_group_name_H-M   'P 1'
_cell_length_a   4.98940516
_cell_length_b   5.06005669
_cell_length_c   5.43282795
_cell_angle_alpha   116.55773163
_cell_angle_beta   90.41983032
_cell_angle_gamma   118.81426239
_symmetry_Int_Tables_number   1
_chemical_formula_structural   Li(WO2)3
_chemical_formula_sum   'Li1 W3 O6'
_cell_volume   103.06189912
_cell_formula_units_Z   1
loop_
 _symmetry_equiv_pos_site_id
 _symmetry_equiv_pos_as_xyz
  1  'x, y, z'
loop_
 _atom_site_type_symbol
 _atom_site_label
 _atom_site_symmetry_multiplicity
 _atom_site_fract_x
 _atom_site_fract_y
 _atom_site_fract_z
 _atom_site_occupancy
  W  W0  1  0.35126101  0.70324899  0.05312003  1
  W  W1  1  0.65054101  0.28839200  0.94913003  1
  Li  Li2  1  0.86836001  0.72029999  0.56958803  1
  W  W3  1  0.15265700  0.29734900  0.45144602  1
  O  O4  1  0.71335501  0.77090999  0.22541503  1
  O  O5  1  0.27246400  0.21542900  0.74989802  1
  O  O6  1  0.56568101  0.84574799  0.76806404  1
  O  O7  1  0.42053200  0.16152800  0.22882901  1
  O  O8  1  0.05731601  0.50512999  0.24544502  1
  O  O9  1  0.94783301  0.49196399  0.75906503  1
