# generated using pymatgen
data_Ba4EuF8
_symmetry_space_group_name_H-M   'P 1'
_cell_length_a   6.86785650
_cell_length_b   6.86785650
_cell_length_c   7.87076187
_cell_angle_alpha   64.13264465
_cell_angle_beta   64.13264465
_cell_angle_gamma   59.99999619
_symmetry_Int_Tables_number   1
_chemical_formula_structural   Ba4EuF8
_chemical_formula_sum   'Ba4 Eu1 F8'
_cell_volume   277.72700757
_cell_formula_units_Z   1
loop_
 _symmetry_equiv_pos_site_id
 _symmetry_equiv_pos_as_xyz
  1  'x, y, z'
loop_
 _atom_site_type_symbol
 _atom_site_label
 _atom_site_symmetry_multiplicity
 _atom_site_fract_x
 _atom_site_fract_y
 _atom_site_fract_z
 _atom_site_occupancy
  Ba  Ba0  1  0.50000001  0.50000000  0.49999996  1
  Ba  Ba1  1  0.50000000  0.00000000  -0.00000002  1
  Ba  Ba2  1  0.00000001  0.50000000  -0.00000002  1
  Eu  Eu3  1  0.50000001  0.50000000  -0.00000004  1
  Ba  Ba4  1  0.00000000  0.00000000  0.00000000  1
  F  F5  1  0.76421901  0.25835100  0.21321096  1
  F  F6  1  0.23578101  0.23578100  0.78678898  1
  F  F7  1  0.23578102  0.74164899  0.78678896  1
  F  F8  1  0.74164901  0.23578100  0.78678896  1
  F  F9  1  0.26400101  0.26400100  0.20799698  1
  F  F10  1  0.73599902  0.73599899  0.79200294  1
  F  F11  1  0.25835102  0.76421899  0.21321096  1
  F  F12  1  0.76421902  0.76421899  0.21321094  1
