# generated using pymatgen
data_LiMn7F12
_symmetry_space_group_name_H-M   'P 1'
_cell_length_a   5.27952814
_cell_length_b   5.40317297
_cell_length_c   7.85049295
_cell_angle_alpha   90.00000000
_cell_angle_beta   90.00000000
_cell_angle_gamma   90.00000000
_symmetry_Int_Tables_number   1
_chemical_formula_structural   LiMn7F12
_chemical_formula_sum   'Li1 Mn7 F12'
_cell_volume   223.94476151
_cell_formula_units_Z   1
loop_
 _symmetry_equiv_pos_site_id
 _symmetry_equiv_pos_as_xyz
  1  'x, y, z'
loop_
 _atom_site_type_symbol
 _atom_site_label
 _atom_site_symmetry_multiplicity
 _atom_site_fract_x
 _atom_site_fract_y
 _atom_site_fract_z
 _atom_site_occupancy
  Mn  Mn0  1  0.50980899  0.03644000  0.75000000  1
  Li  Li1  1  0.00980900  0.46356000  0.25000000  1
  Mn  Mn2  1  0.99019097  0.53644000  0.75000000  1
  Mn  Mn3  1  0.49019099  0.96356001  0.25000000  1
  Mn  Mn4  1  0.00000000  0.00000000  0.50000000  1
  Mn  Mn5  1  0.49999999  0.50000000  0.50000000  1
  Mn  Mn6  1  0.49999999  0.50000000  -0.00000000  1
  Mn  Mn7  1  0.00000000  0.00000000  0.00000000  1
  F  F8  1  0.37338699  0.59132100  0.25000000  1
  F  F9  1  0.87338698  0.90867901  0.75000000  1
  F  F10  1  0.12661300  0.09132100  0.25000000  1
  F  F11  1  0.62661298  0.40867900  0.75000000  1
  F  F12  1  0.16716600  0.32024700  0.92993501  1
  F  F13  1  0.66716598  0.17975300  0.07006500  1
  F  F14  1  0.33283399  0.82024700  0.57006500  1
  F  F15  1  0.83283398  0.67975300  0.42993500  1
  F  F16  1  0.16716600  0.32024700  0.57006500  1
  F  F17  1  0.66716598  0.17975300  0.42993500  1
  F  F18  1  0.83283398  0.67975300  0.07006500  1
  F  F19  1  0.33283399  0.82024700  0.92993501  1
