# generated using pymatgen
data_Li2Mn4BPO10
_symmetry_space_group_name_H-M   'P 1'
_cell_length_a   4.74691391
_cell_length_b   6.29804611
_cell_length_c   6.29804611
_cell_angle_alpha   90.00000000
_cell_angle_beta   90.00000000
_cell_angle_gamma   90.00000000
_symmetry_Int_Tables_number   1
_chemical_formula_structural   Li2Mn4BPO10
_chemical_formula_sum   'Li2 Mn4 B1 P1 O10'
_cell_volume   188.28816699
_cell_formula_units_Z   1
loop_
 _symmetry_equiv_pos_site_id
 _symmetry_equiv_pos_as_xyz
  1  'x, y, z'
loop_
 _atom_site_type_symbol
 _atom_site_label
 _atom_site_symmetry_multiplicity
 _atom_site_fract_x
 _atom_site_fract_y
 _atom_site_fract_z
 _atom_site_occupancy
  Li  Li0  1  0.00000000  0.74999999  0.25000000  1
  Li  Li1  1  0.00000000  0.25000000  0.25000000  1
  Mn  Mn2  1  1.00000002  0.25000000  0.74999999  1
  Mn  Mn3  1  0.00000000  0.74999999  0.74999999  1
  Mn  Mn4  1  0.54817301  0.00000000  0.49999999  1
  Mn  Mn5  1  0.45182701  0.49999999  0.00000000  1
  B  B6  1  0.50000001  0.49999999  0.49999999  1
  P  P7  1  0.50000001  0.00000000  0.00000000  1
  O  O8  1  0.29852301  0.49999999  0.31922399  1
  O  O9  1  0.11939600  0.00000000  0.49999999  1
  O  O10  1  0.70147701  0.31922399  0.49999999  1
  O  O11  1  0.70147701  0.68077599  0.49999999  1
  O  O12  1  0.29852301  0.49999999  0.68077599  1
  O  O13  1  0.70147701  0.00000000  0.81922399  1
  O  O14  1  0.29852301  0.81922399  0.00000000  1
  O  O15  1  0.29852301  0.18077600  -0.00000000  1
  O  O16  1  0.88060402  0.49999999  -0.00000000  1
  O  O17  1  0.70147701  0.00000000  0.18077600  1
