# generated using pymatgen
data_AgBr
_symmetry_space_group_name_H-M   'P 1'
_cell_length_a   3.86444807
_cell_length_b   4.09545898
_cell_length_c   3.86444807
_cell_angle_alpha   118.15098572
_cell_angle_beta   90.00000000
_cell_angle_gamma   118.15098572
_symmetry_Int_Tables_number   1
_chemical_formula_structural   AgBr
_chemical_formula_sum   'Ag1 Br1'
_cell_volume   45.55666701
_cell_formula_units_Z   1
loop_
 _symmetry_equiv_pos_site_id
 _symmetry_equiv_pos_as_xyz
  1  'x, y, z'
loop_
 _atom_site_type_symbol
 _atom_site_label
 _atom_site_symmetry_multiplicity
 _atom_site_fract_x
 _atom_site_fract_y
 _atom_site_fract_z
 _atom_site_occupancy
  Ag  Ag0  1  0.00195900  0.00391800  0.00195900  1
  Br  Br1  1  0.57004099  0.14008201  0.57004099  1
