# generated using pymatgen
data_CoP
_symmetry_space_group_name_H-M   'P 1'
_cell_length_a   3.35012603
_cell_length_b   5.15462780
_cell_length_c   5.58064795
_cell_angle_alpha   90.00000000
_cell_angle_beta   90.00000000
_cell_angle_gamma   90.00000000
_symmetry_Int_Tables_number   1
_chemical_formula_structural   CoP
_chemical_formula_sum   'Co4 P4'
_cell_volume   96.37027153
_cell_formula_units_Z   4
loop_
 _symmetry_equiv_pos_site_id
 _symmetry_equiv_pos_as_xyz
  1  'x, y, z'
loop_
 _atom_site_type_symbol
 _atom_site_label
 _atom_site_symmetry_multiplicity
 _atom_site_fract_x
 _atom_site_fract_y
 _atom_site_fract_z
 _atom_site_occupancy
  P  P0  1  0.74999999  0.32157901  0.91656201  1
  P  P1  1  0.74999999  0.82157903  0.58343801  1
  P  P2  1  0.25000000  0.67842103  0.08343800  1
  P  P3  1  0.25000000  0.17842101  0.41656200  1
  Co  Co4  1  0.25000000  0.00919300  0.81196101  1
  Co  Co5  1  0.25000000  0.50919302  0.68803901  1
  Co  Co6  1  0.74999999  0.99080704  0.18803900  1
  Co  Co7  1  0.74999999  0.49080702  0.31196100  1
