# generated using pymatgen
data_BaLa(B5Os3)2
_symmetry_space_group_name_H-M   'P 1'
_cell_length_a   3.98075104
_cell_length_b   7.69960213
_cell_length_c   7.69960213
_cell_angle_alpha   90.00000000
_cell_angle_beta   90.00000000
_cell_angle_gamma   90.00000000
_symmetry_Int_Tables_number   1
_chemical_formula_structural   BaLa(B5Os3)2
_chemical_formula_sum   'Ba1 La1 B10 Os6'
_cell_volume   235.99433862
_cell_formula_units_Z   1
loop_
 _symmetry_equiv_pos_site_id
 _symmetry_equiv_pos_as_xyz
  1  'x, y, z'
loop_
 _atom_site_type_symbol
 _atom_site_label
 _atom_site_symmetry_multiplicity
 _atom_site_fract_x
 _atom_site_fract_y
 _atom_site_fract_z
 _atom_site_occupancy
  Ba  Ba0  1  0.50000000  0.00000000  -0.00000000  1
  La  La1  1  0.00000000  0.49999999  0.49999999  1
  B  B2  1  0.60835399  0.65791199  0.77878299  1
  B  B3  1  0.89164599  0.15791200  0.27878300  1
  B  B4  1  0.10835400  0.27878300  0.84208799  1
  B  B5  1  0.10835400  0.72121699  0.15791200  1
  B  B6  1  0.60835399  0.34208799  0.22121700  1
  B  B7  1  0.89164599  0.84208799  0.72121699  1
  B  B8  1  0.39164600  0.22121700  0.65791199  1
  B  B9  1  0.39164600  0.77878299  0.34208799  1
  B  B10  1  0.10753200  0.34433699  0.11073300  1
  Os  Os11  1  0.10753200  0.65566299  0.88926699  1
  Os  Os12  1  0.60753199  0.61073299  0.15566300  1
  B  B13  1  0.89246799  0.11073300  0.65566299  1
  Os  Os14  1  0.39246800  0.15566300  0.38926699  1
  Os  Os15  1  0.39246800  0.84433699  0.61073299  1
  Os  Os16  1  0.89246799  0.88926699  0.34433699  1
  Os  Os17  1  0.60753199  0.38926699  0.84433699  1
