# generated using pymatgen
data_Ba2LaN2
_symmetry_space_group_name_H-M   'P 1'
_cell_length_a   3.75489807
_cell_length_b   5.73433638
_cell_length_c   11.40989494
_cell_angle_alpha   90.00000000
_cell_angle_beta   90.00000000
_cell_angle_gamma   109.11132813
_symmetry_Int_Tables_number   1
_chemical_formula_structural   Ba2LaN2
_chemical_formula_sum   'Ba4 La2 N4'
_cell_volume   232.13549359
_cell_formula_units_Z   2
loop_
 _symmetry_equiv_pos_site_id
 _symmetry_equiv_pos_as_xyz
  1  'x, y, z'
loop_
 _atom_site_type_symbol
 _atom_site_label
 _atom_site_symmetry_multiplicity
 _atom_site_fract_x
 _atom_site_fract_y
 _atom_site_fract_z
 _atom_site_occupancy
  Ba  Ba0  1  0.56403998  0.12808000  0.37139500  1
  Ba  Ba1  1  0.43595996  0.87192003  0.87139500  1
  Ba  Ba2  1  0.17545798  0.35091601  0.09712100  1
  Ba  Ba3  1  0.82454196  0.64908402  0.59712100  1
  La  La4  1  0.86368496  0.72737002  0.25061900  1
  La  La5  1  0.13631499  0.27263001  0.75061900  1
  N  N6  1  0.27848897  0.55697802  0.37247700  1
  N  N7  1  0.72151097  0.44302201  0.87247700  1
  N  N8  1  0.45060196  0.90120403  0.13038900  1
  N  N9  1  0.54939799  0.09879600  0.63038900  1
