# generated using pymatgen
data_In4Au3
_symmetry_space_group_name_H-M   'P 1'
_cell_length_a   7.40560532
_cell_length_b   7.40560532
_cell_length_c   7.40560532
_cell_angle_alpha   70.68872833
_cell_angle_beta   70.44874573
_cell_angle_gamma   109.55125427
_symmetry_Int_Tables_number   1
_chemical_formula_structural   In4Au3
_chemical_formula_sum   'In8 Au6'
_cell_volume   312.64915488
_cell_formula_units_Z   2
loop_
 _symmetry_equiv_pos_site_id
 _symmetry_equiv_pos_as_xyz
  1  'x, y, z'
loop_
 _atom_site_type_symbol
 _atom_site_label
 _atom_site_symmetry_multiplicity
 _atom_site_fract_x
 _atom_site_fract_y
 _atom_site_fract_z
 _atom_site_occupancy
  Au  Au0  1  0.49999999  0.25000000  0.25000000  1
  Au  Au1  1  0.37795900  0.36865499  0.75086599  1
  Au  Au2  1  0.00000000  0.49999999  0.50000000  1
  Au  Au3  1  0.11952100  0.75086599  0.87117499  1
  Au  Au4  1  0.62204100  0.87117499  0.00930400  1
  Au  Au5  1  0.88047899  0.00930400  0.36865499  1
  In  In6  1  0.90192499  0.27605400  0.97014599  1
  In  In7  1  0.24269700  0.48329899  0.11980600  1
  In  In8  1  0.39689600  0.75939899  0.48329800  1
  In  In9  1  0.75379999  0.62587099  0.27605400  1
  In  In10  1  0.75730299  0.63749699  0.75939799  1
  In  In11  1  0.60310399  0.11980500  0.63749799  1
  In  In12  1  0.24620000  0.97014599  0.12792900  1
  In  In13  1  0.09807500  0.12792900  0.62587099  1
