# generated using pymatgen
data_GaO2
_symmetry_space_group_name_H-M   'P 1'
_cell_length_a   3.94946814
_cell_length_b   3.94960904
_cell_length_c   5.68350935
_cell_angle_alpha   110.33282471
_cell_angle_beta   110.33233643
_cell_angle_gamma   89.99804688
_symmetry_Int_Tables_number   1
_chemical_formula_structural   GaO2
_chemical_formula_sum   'Ga2 O4'
_cell_volume   77.21438926
_cell_formula_units_Z   2
loop_
 _symmetry_equiv_pos_site_id
 _symmetry_equiv_pos_as_xyz
  1  'x, y, z'
loop_
 _atom_site_type_symbol
 _atom_site_label
 _atom_site_symmetry_multiplicity
 _atom_site_fract_x
 _atom_site_fract_y
 _atom_site_fract_z
 _atom_site_occupancy
  Ga  Ga0  1  0.99999797  0.99999801  0.99999800  1
  Ga  Ga1  1  0.75000500  0.25000500  0.50000400  1
  O  O2  1  0.53617600  0.03617500  0.07235000  1
  O  O3  1  0.20513899  0.20513800  0.41028101  1
  O  O4  1  0.96382399  0.46382501  0.92764801  1
  O  O5  1  0.79485798  0.79485901  0.58972000  1
