# generated using pymatgen
data_Co5B2P
_symmetry_space_group_name_H-M   'P 1'
_cell_length_a   5.47548199
_cell_length_b   5.47548199
_cell_length_c   6.43907928
_cell_angle_alpha   115.16179657
_cell_angle_beta   115.16179657
_cell_angle_gamma   90.00000000
_symmetry_Int_Tables_number   1
_chemical_formula_structural   Co5B2P
_chemical_formula_sum   'Co10 B4 P2'
_cell_volume   154.25251286
_cell_formula_units_Z   2
loop_
 _symmetry_equiv_pos_site_id
 _symmetry_equiv_pos_as_xyz
  1  'x, y, z'
loop_
 _atom_site_type_symbol
 _atom_site_label
 _atom_site_symmetry_multiplicity
 _atom_site_fract_x
 _atom_site_fract_y
 _atom_site_fract_z
 _atom_site_occupancy
  Co  Co0  1  0.19706001  0.02914200  0.72620203  1
  Co  Co1  1  0.52914205  0.69706003  0.72620209  1
  Co  Co2  1  0.69706003  0.19706001  0.72620206  1
  Co  Co3  1  0.02914203  0.52914202  0.72620206  1
  Co  Co4  1  0.80294007  0.97085804  0.27379811  1
  Co  Co5  1  0.47085803  0.30294001  0.27379805  1
  Co  Co6  1  0.30294005  0.80294003  0.27379808  1
  Co  Co7  1  0.97085805  0.47085802  0.27379808  1
  Co  Co8  1  0.50000004  0.50000002  0.00000006  1
  Co  Co9  1  0.00000000  0.00000000  0.00000000  1
  P  P10  1  0.25000002  0.25000001  0.50000004  1
  P  P11  1  0.75000006  0.75000003  0.50000010  1
  B  B12  1  0.12100002  0.37900001  0.00000003  1
  B  B13  1  0.87900006  0.62100002  0.00000008  1
  B  B14  1  0.62100002  0.12100000  0.00000004  1
  B  B15  1  0.37900006  0.87900003  0.00000008  1
