# generated using pymatgen
data_BMoO3
_symmetry_space_group_name_H-M   'P 1'
_cell_length_a   4.85627222
_cell_length_b   4.85627222
_cell_length_c   5.97278214
_cell_angle_alpha   66.01274109
_cell_angle_beta   66.01274109
_cell_angle_gamma   59.99999619
_symmetry_Int_Tables_number   1
_chemical_formula_structural   BMoO3
_chemical_formula_sum   'B2 Mo2 O6'
_cell_volume   107.71113181
_cell_formula_units_Z   2
loop_
 _symmetry_equiv_pos_site_id
 _symmetry_equiv_pos_as_xyz
  1  'x, y, z'
loop_
 _atom_site_type_symbol
 _atom_site_label
 _atom_site_symmetry_multiplicity
 _atom_site_fract_x
 _atom_site_fract_y
 _atom_site_fract_z
 _atom_site_occupancy
  Mo  Mo0  1  0.49999997  0.50000000  0.50000007  1
  Mo  Mo1  1  0.00000000  0.00000000  0.00000000  1
  B  B2  1  0.25328698  0.25328700  0.24013903  1
  B  B3  1  0.74671295  0.74671300  0.75986110  1
  O  O4  1  0.97224796  0.54317800  0.24403209  1
  O  O5  1  0.54317798  0.24054200  0.24403205  1
  O  O6  1  0.24054195  0.97224800  0.24403208  1
  O  O7  1  0.45682196  0.75945800  0.75596808  1
  O  O8  1  0.75945798  0.02775200  0.75596805  1
  O  O9  1  0.02775198  0.45682200  0.75596804  1
