# generated using pymatgen
data_Mg3Cd(GeO3)4
_symmetry_space_group_name_H-M   'P 1'
_cell_length_a   5.27290487
_cell_length_b   6.79661798
_cell_length_c   6.79681635
_cell_angle_alpha   85.79296112
_cell_angle_beta   82.68236542
_cell_angle_gamma   82.68153381
_symmetry_Int_Tables_number   1
_chemical_formula_structural   Mg3Cd(GeO3)4
_chemical_formula_sum   'Mg3 Cd1 Ge4 O12'
_cell_volume   239.22714543
_cell_formula_units_Z   1
loop_
 _symmetry_equiv_pos_site_id
 _symmetry_equiv_pos_as_xyz
  1  'x, y, z'
loop_
 _atom_site_type_symbol
 _atom_site_label
 _atom_site_symmetry_multiplicity
 _atom_site_fract_x
 _atom_site_fract_y
 _atom_site_fract_z
 _atom_site_occupancy
  Cd  Cd0  1  0.75000705  0.27322201  0.72677297  1
  Mg  Mg1  1  0.75000709  0.90876402  0.09122295  1
  Mg  Mg2  1  0.25001205  0.72676602  0.27323697  1
  Mg  Mg3  1  0.25001402  0.09137300  0.90862499  1
  Ge  Ge4  1  0.29141503  0.20571000  0.39433998  1
  Ge  Ge5  1  0.79140406  0.39430901  0.20574497  1
  Ge  Ge6  1  0.20855304  0.60565701  0.79427397  1
  Ge  Ge7  1  0.70859608  0.79426602  0.60566095  1
  O  O8  1  0.36284802  0.02637400  0.21219699  1
  O  O9  1  0.86283605  0.21216500  0.02640097  1
  O  O10  1  0.13717105  0.78781702  0.97360396  1
  O  O11  1  0.63719608  0.97359902  0.78780395  1
  O  O12  1  0.09832903  0.42462801  0.29298998  1
  O  O13  1  0.59833005  0.29297401  0.42466597  1
  O  O14  1  0.40163106  0.70703902  0.57536596  1
  O  O15  1  0.90163308  0.57533901  0.70703596  1
  O  O16  1  0.12770501  0.13776700  0.62117699  1
  O  O17  1  0.62770706  0.62115601  0.13779796  1
  O  O18  1  0.37230004  0.37883001  0.86224297  1
  O  O19  1  0.87230409  0.86224602  0.37883995  1
