# generated using pymatgen
data_Mg2ZnTe3
_symmetry_space_group_name_H-M   'P 1'
_cell_length_a   3.87037110
_cell_length_b   3.87037110
_cell_length_c   8.00395870
_cell_angle_alpha   90.00000000
_cell_angle_beta   90.00000000
_cell_angle_gamma   90.00000000
_symmetry_Int_Tables_number   1
_chemical_formula_structural   Mg2ZnTe3
_chemical_formula_sum   'Mg2 Zn1 Te3'
_cell_volume   119.89748027
_cell_formula_units_Z   1
loop_
 _symmetry_equiv_pos_site_id
 _symmetry_equiv_pos_as_xyz
  1  'x, y, z'
loop_
 _atom_site_type_symbol
 _atom_site_label
 _atom_site_symmetry_multiplicity
 _atom_site_fract_x
 _atom_site_fract_y
 _atom_site_fract_z
 _atom_site_occupancy
  Mg  Mg0  1  0.00000000  0.49999999  0.27402701  1
  Mg  Mg1  1  0.49999999  0.00000000  0.72597303  1
  Zn  Zn2  1  0.00000000  0.00000000  0.00000000  1
  Te  Te3  1  0.49999999  0.49999999  0.00000000  1
  Te  Te4  1  0.49999999  0.00000000  0.36792201  1
  Te  Te5  1  0.00000000  0.49999999  0.63207802  1
