# generated using pymatgen
data_Ba3W2O9
_symmetry_space_group_name_H-M   'P 1'
_cell_length_a   5.77773190
_cell_length_b   5.77773190
_cell_length_c   7.78281164
_cell_angle_alpha   68.21126556
_cell_angle_beta   68.21126556
_cell_angle_gamma   60.00000381
_symmetry_Int_Tables_number   1
_chemical_formula_structural   Ba3W2O9
_chemical_formula_sum   'Ba3 W2 O9'
_cell_volume   203.28512107
_cell_formula_units_Z   1
loop_
 _symmetry_equiv_pos_site_id
 _symmetry_equiv_pos_as_xyz
  1  'x, y, z'
loop_
 _atom_site_type_symbol
 _atom_site_label
 _atom_site_symmetry_multiplicity
 _atom_site_fract_x
 _atom_site_fract_y
 _atom_site_fract_z
 _atom_site_occupancy
  Ba  Ba0  1  0.00000000  0.00000000  0.00000000  1
  Ba  Ba1  1  0.21116501  0.21116499  0.36650501  1
  Ba  Ba2  1  0.78883503  0.78883498  0.63349500  1
  W  W3  1  0.39129302  0.39129299  0.82612101  1
  W  W4  1  0.60870702  0.60870698  0.17387899  1
  O  O5  1  0.50000002  0.49999999  -0.00000001  1
  O  O6  1  0.50000004  0.99999997  -0.00000002  1
  O  O7  1  0.00000002  0.49999999  -0.00000001  1
  O  O8  1  0.75331701  0.27937899  0.68792501  1
  O  O9  1  0.27937903  0.75331698  0.68792501  1
  O  O10  1  0.27937901  0.27937899  0.68792501  1
  O  O11  1  0.72062103  0.72062098  0.31207499  1
  O  O12  1  0.72062101  0.24668299  0.31207500  1
  O  O13  1  0.24668303  0.72062098  0.31207500  1
