# generated using pymatgen
data_Li3Cr5O8
_symmetry_space_group_name_H-M   'P 1'
_cell_length_a   5.14209795
_cell_length_b   5.17009974
_cell_length_c   6.00615788
_cell_angle_alpha   106.85053253
_cell_angle_beta   90.02622223
_cell_angle_gamma   100.02196503
_symmetry_Int_Tables_number   1
_chemical_formula_structural   Li3Cr5O8
_chemical_formula_sum   'Li3 Cr5 O8'
_cell_volume   150.26739664
_cell_formula_units_Z   1
loop_
 _symmetry_equiv_pos_site_id
 _symmetry_equiv_pos_as_xyz
  1  'x, y, z'
loop_
 _atom_site_type_symbol
 _atom_site_label
 _atom_site_symmetry_multiplicity
 _atom_site_fract_x
 _atom_site_fract_y
 _atom_site_fract_z
 _atom_site_occupancy
  Li  Li0  1  0.00000000  0.00000000  0.00000000  1
  Li  Li1  1  0.49832100  0.00338900  0.75503798  1
  Li  Li2  1  0.00000000  0.00000000  0.50000000  1
  Cr  Cr3  1  0.50167905  0.99661104  0.24496196  1
  Cr  Cr4  1  0.75020603  0.50058602  0.62461896  1
  Cr  Cr5  1  0.24979402  0.49941402  0.37538098  1
  Cr  Cr6  1  0.24959602  0.49891702  0.87672797  1
  Cr  Cr7  1  0.75040403  0.50108302  0.12327196  1
  O  O8  1  0.87977802  0.27228001  0.82199096  1
  O  O9  1  0.62285404  0.72390703  0.93113295  1
  O  O10  1  0.37484802  0.27395401  0.56892798  1
  O  O11  1  0.12049503  0.72840003  0.68875197  1
  O  O12  1  0.87950502  0.27160001  0.31124797  1
  O  O13  1  0.62515204  0.72604603  0.43107196  1
  O  O14  1  0.37714602  0.27609301  0.06886698  1
  O  O15  1  0.12022203  0.72772003  0.17800898  1
