# generated using pymatgen
data_Ba4LaPbS8
_symmetry_space_group_name_H-M   'P 1'
_cell_length_a   7.73346090
_cell_length_b   7.73346090
_cell_length_c   7.73346090
_cell_angle_alpha   73.46169281
_cell_angle_beta   69.04271698
_cell_angle_gamma   110.95728302
_symmetry_Int_Tables_number   1
_chemical_formula_structural   Ba4LaPbS8
_chemical_formula_sum   'Ba4 La1 Pb1 S8'
_cell_volume   355.34566837
_cell_formula_units_Z   1
loop_
 _symmetry_equiv_pos_site_id
 _symmetry_equiv_pos_as_xyz
  1  'x, y, z'
loop_
 _atom_site_type_symbol
 _atom_site_label
 _atom_site_symmetry_multiplicity
 _atom_site_fract_x
 _atom_site_fract_y
 _atom_site_fract_z
 _atom_site_occupancy
  Ba  Ba0  1  0.37926499  0.62499998  0.49573503  1
  Ba  Ba1  1  0.87926498  0.75426497  0.62500003  1
  La  La2  1  0.62073499  0.12500000  0.75426499  1
  Ba  Ba3  1  0.12073499  0.49573498  0.12500003  1
  Ba  Ba4  1  0.00000000  0.00000000  0.00000000  1
  Pb  Pb5  1  0.49999999  0.24999999  0.25000001  1
  S  S6  1  0.26726498  0.89128697  0.23911905  1
  S  S7  1  0.86959399  0.37597799  0.89128700  1
  S  S8  1  0.73273499  0.49361598  0.37597802  1
  S  S9  1  0.13040600  0.23911899  0.49361601  1
  S  S10  1  0.36959399  0.35871299  0.87402201  1
  S  S11  1  0.23273498  0.87402197  0.75638404  1
  S  S12  1  0.63040598  0.75638397  0.01088104  1
  S  S13  1  0.76726499  0.01088100  0.35871299  1
