# generated using pymatgen
data_PrHoOsC2
_symmetry_space_group_name_H-M   'P 1'
_cell_length_a   4.51209784
_cell_length_b   4.51209831
_cell_length_c   5.28300095
_cell_angle_alpha   90.00000000
_cell_angle_beta   90.00000000
_cell_angle_gamma   120.00000000
_symmetry_Int_Tables_number   1
_chemical_formula_structural   PrHoOsC2
_chemical_formula_sum   'Pr1 Ho1 Os1 C2'
_cell_volume   93.14689484
_cell_formula_units_Z   1
loop_
 _symmetry_equiv_pos_site_id
 _symmetry_equiv_pos_as_xyz
  1  'x, y, z'
loop_
 _atom_site_type_symbol
 _atom_site_label
 _atom_site_symmetry_multiplicity
 _atom_site_fract_x
 _atom_site_fract_y
 _atom_site_fract_z
 _atom_site_occupancy
  Ho  Ho0  1  0.33333339  0.66666671  0.27989900  1
  Pr  Pr1  1  0.66666671  0.33333335  0.72010101  1
  Os  Os2  1  0.00000000  0.00000000  0.00000000  1
  C  C3  1  0.00000000  0.00000000  0.37992000  1
  C  C4  1  0.00000000  0.00000000  0.62008001  1
