# generated using pymatgen
data_Lu3(Ge2Pd)2
_symmetry_space_group_name_H-M   'P 1'
_cell_length_a   3.90123606
_cell_length_b   6.90920782
_cell_length_c   6.90920734
_cell_angle_alpha   120.00000000
_cell_angle_beta   90.00000000
_cell_angle_gamma   90.00000000
_symmetry_Int_Tables_number   1
_chemical_formula_structural   Lu3(Ge2Pd)2
_chemical_formula_sum   'Lu3 Ge4 Pd2'
_cell_volume   161.28327856
_cell_formula_units_Z   1
loop_
 _symmetry_equiv_pos_site_id
 _symmetry_equiv_pos_as_xyz
  1  'x, y, z'
loop_
 _atom_site_type_symbol
 _atom_site_label
 _atom_site_symmetry_multiplicity
 _atom_site_fract_x
 _atom_site_fract_y
 _atom_site_fract_z
 _atom_site_occupancy
  Lu  Lu0  1  0.49999999  0.00000000  0.58317301  1
  Lu  Lu1  1  0.49999999  0.41682700  0.41682698  1
  Lu  Lu2  1  0.49999999  0.58317300  -0.00000003  1
  Ge  Ge3  1  0.99999999  0.76454400  0.76454397  1
  Pd  Pd4  1  0.00000000  0.23545600  -0.00000001  1
  Pd  Pd5  1  0.00000000  0.00000000  0.23545600  1
  Ge  Ge6  1  0.00000000  0.66666667  0.33333330  1
  Ge  Ge7  1  0.00000000  0.33333333  0.66666666  1
  Ge  Ge8  1  0.49999999  0.00000000  -0.00000000  1
