# generated using pymatgen
data_Li4AgP5
_symmetry_space_group_name_H-M   'P 1'
_cell_length_a   5.68459606
_cell_length_b   5.68782091
_cell_length_c   5.68811417
_cell_angle_alpha   119.90148163
_cell_angle_beta   90.15465546
_cell_angle_gamma   119.89511871
_symmetry_Int_Tables_number   1
_chemical_formula_structural   Li4AgP5
_chemical_formula_sum   'Li4 Ag1 P5'
_cell_volume   130.27037492
_cell_formula_units_Z   1
loop_
 _symmetry_equiv_pos_site_id
 _symmetry_equiv_pos_as_xyz
  1  'x, y, z'
loop_
 _atom_site_type_symbol
 _atom_site_label
 _atom_site_symmetry_multiplicity
 _atom_site_fract_x
 _atom_site_fract_y
 _atom_site_fract_z
 _atom_site_occupancy
  P  P0  1  0.50994901  0.02003200  0.51021699  1
  P  P1  1  0.00438600  0.00866400  0.00423600  1
  Li  Li2  1  0.27750397  0.55465797  0.77680401  1
  Li  Li3  1  0.77693298  0.55482197  0.27786400  1
  Li  Li4  1  0.73941094  0.99033395  0.76123001  1
  Li  Li5  1  0.25086193  0.99004795  0.22888702  1
  Ag  Ag6  1  0.22871293  0.98979195  0.73922803  1
  P  P7  1  0.76138395  0.99013195  0.25075601  1
  P  P8  1  0.75772298  0.51638498  0.75782500  1
  P  P9  1  0.24513597  0.48913398  0.24495501  1
