# generated using pymatgen
data_Tb5Au9
_symmetry_space_group_name_H-M   'P 1'
_cell_length_a   4.61572790
_cell_length_b   7.76557589
_cell_length_c   9.73318481
_cell_angle_alpha   107.68218994
_cell_angle_beta   90.00000000
_cell_angle_gamma   90.00000000
_symmetry_Int_Tables_number   1
_chemical_formula_structural   Tb5Au9
_chemical_formula_sum   'Tb5 Au9'
_cell_volume   332.39195438
_cell_formula_units_Z   1
loop_
 _symmetry_equiv_pos_site_id
 _symmetry_equiv_pos_as_xyz
  1  'x, y, z'
loop_
 _atom_site_type_symbol
 _atom_site_label
 _atom_site_symmetry_multiplicity
 _atom_site_fract_x
 _atom_site_fract_y
 _atom_site_fract_z
 _atom_site_occupancy
  Tb  Tb0  1  0.25000001  0.16724201  0.78837002  1
  Tb  Tb1  1  0.75000002  0.83275803  0.21163005  1
  Tb  Tb2  1  0.75000002  0.90352003  0.87716906  1
  Au  Au3  1  0.25000001  0.09648000  0.12283101  1
  Au  Au4  1  0.75000002  0.89525503  0.57179406  1
  Au  Au5  1  0.25000001  0.10474500  0.42820601  1
  Tb  Tb6  1  0.75000002  0.46240002  0.36775203  1
  Tb  Tb7  1  0.25000001  0.53760002  0.63224804  1
  Au  Au8  1  0.75000002  0.49532002  0.87091204  1
  Au  Au9  1  0.25000001  0.50468002  0.12908803  1
  Au  Au10  1  0.75000002  0.27312401  0.05812002  1
  Au  Au11  1  0.25000001  0.72687603  0.94188005  1
  Au  Au12  1  0.75000002  0.27555801  0.58031602  1
  Au  Au13  1  0.25000001  0.72444203  0.41968405  1
