# generated using pymatgen
data_La3S4
_symmetry_space_group_name_H-M   'P 1'
_cell_length_a   7.52216673
_cell_length_b   7.52216673
_cell_length_c   7.52216673
_cell_angle_alpha   109.47122192
_cell_angle_beta   109.47122192
_cell_angle_gamma   109.47122192
_symmetry_Int_Tables_number   1
_chemical_formula_structural   La3S4
_chemical_formula_sum   'La6 S8'
_cell_volume   327.64757240
_cell_formula_units_Z   2
loop_
 _symmetry_equiv_pos_site_id
 _symmetry_equiv_pos_as_xyz
  1  'x, y, z'
loop_
 _atom_site_type_symbol
 _atom_site_label
 _atom_site_symmetry_multiplicity
 _atom_site_fract_x
 _atom_site_fract_y
 _atom_site_fract_z
 _atom_site_occupancy
  La  La0  1  0.12500002  0.25000001  0.37500002  1
  La  La1  1  0.75000005  0.62500003  0.87500006  1
  La  La2  1  0.37500005  0.75000003  0.12500005  1
  La  La3  1  0.87500002  0.12500001  0.75000003  1
  La  La4  1  0.62500003  0.37500002  0.25000004  1
  La  La5  1  0.25000006  0.87500004  0.62500006  1
  S  S6  1  0.35678803  0.35678802  0.85678803  1
  S  S7  1  0.50000001  0.14321201  0.50000002  1
  S  S8  1  0.00000003  0.50000002  0.64321203  1
  S  S9  1  0.50000005  0.64321203  0.50000005  1
  S  S10  1  0.14321200  0.00000000  0.00000000  1
  S  S11  1  0.64321201  0.00000000  0.00000002  1
  S  S12  1  0.00000003  0.50000002  0.14321203  1
  S  S13  1  0.85678806  0.85678804  0.35678807  1
