# generated using pymatgen
data_Ge4N5
_symmetry_space_group_name_H-M   'P 1'
_cell_length_a   5.19331312
_cell_length_b   5.19331312
_cell_length_c   9.17117214
_cell_angle_alpha   90.00000000
_cell_angle_beta   90.00000000
_cell_angle_gamma   112.29312134
_symmetry_Int_Tables_number   1
_chemical_formula_structural   Ge4N5
_chemical_formula_sum   'Ge8 N10'
_cell_volume   228.86291659
_cell_formula_units_Z   2
loop_
 _symmetry_equiv_pos_site_id
 _symmetry_equiv_pos_as_xyz
  1  'x, y, z'
loop_
 _atom_site_type_symbol
 _atom_site_label
 _atom_site_symmetry_multiplicity
 _atom_site_fract_x
 _atom_site_fract_y
 _atom_site_fract_z
 _atom_site_occupancy
  Ge  Ge0  1  0.56582396  0.89268796  0.00035600  1
  Ge  Ge1  1  0.43417598  0.10731200  0.50035599  1
  Ge  Ge2  1  0.10731198  0.43417598  0.00035600  1
  Ge  Ge3  1  0.89268795  0.56582398  0.50035599  1
  Ge  Ge4  1  0.39808497  0.60191497  0.29029500  1
  Ge  Ge5  1  0.60191497  0.39808498  0.79029499  1
  Ge  Ge6  1  0.06251397  0.93748596  0.21035300  1
  Ge  Ge7  1  0.93748597  0.06251400  0.71035299  1
  N  N8  1  0.19532697  0.80467296  0.38475599  1
  N  N9  1  0.80467297  0.19532699  0.88475599  1
  N  N10  1  0.69072095  0.82089296  0.17643500  1
  N  N11  1  0.30927898  0.17910699  0.67643499  1
  N  N12  1  0.17910699  0.30927899  0.17643500  1
  N  N13  1  0.82089295  0.69072097  0.67643499  1
  N  N14  1  0.55772997  0.44226998  0.41069599  1
  N  N15  1  0.44226997  0.55772998  0.91069599  1
  N  N16  1  0.80384997  0.19614999  0.55511799  1
  N  N17  1  0.19614997  0.80384996  0.05511800  1
