# generated using pymatgen
data_HoGa3
_symmetry_space_group_name_H-M   'P 1'
_cell_length_a   3.95848489
_cell_length_b   7.81168222
_cell_length_c   10.55481815
_cell_angle_alpha   90.00000000
_cell_angle_beta   90.00000000
_cell_angle_gamma   90.00000000
_symmetry_Int_Tables_number   1
_chemical_formula_structural   HoGa3
_chemical_formula_sum   'Ho4 Ga12'
_cell_volume   326.38058366
_cell_formula_units_Z   4
loop_
 _symmetry_equiv_pos_site_id
 _symmetry_equiv_pos_as_xyz
  1  'x, y, z'
loop_
 _atom_site_type_symbol
 _atom_site_label
 _atom_site_symmetry_multiplicity
 _atom_site_fract_x
 _atom_site_fract_y
 _atom_site_fract_z
 _atom_site_occupancy
  Ga  Ga0  1  0.25000001  0.48745099  0.39238399  1
  Ga  Ga1  1  0.25000001  0.98745097  0.10761600  1
  Ga  Ga2  1  0.75000002  0.51254899  0.60761599  1
  Ga  Ga3  1  0.75000002  0.01254900  0.89238399  1
  Ho  Ho4  1  0.25000001  0.13918900  0.63606499  1
  Ho  Ho5  1  0.25000001  0.63918898  0.86393499  1
  Ho  Ho6  1  0.75000002  0.86081098  0.36393499  1
  Ho  Ho7  1  0.75000002  0.36081099  0.13606500  1
  Ga  Ga8  1  0.25000001  0.22674499  0.93461399  1
  Ga  Ga9  1  0.25000001  0.72674498  0.56538599  1
  Ga  Ga10  1  0.75000002  0.77325498  0.06538600  1
  Ga  Ga11  1  0.75000002  0.27325499  0.43461399  1
  Ga  Ga12  1  0.25000001  0.15279400  0.31431000  1
  Ga  Ga13  1  0.25000001  0.65279398  0.18569000  1
  Ga  Ga14  1  0.75000002  0.84720598  0.68568999  1
  Ga  Ga15  1  0.75000002  0.34720599  0.81430999  1
