# generated using pymatgen
data_Na2MoO4
_symmetry_space_group_name_H-M   'P 1'
_cell_length_a   3.75920892
_cell_length_b   3.75920892
_cell_length_c   13.09858418
_cell_angle_alpha   90.00000000
_cell_angle_beta   90.00000000
_cell_angle_gamma   90.00000000
_symmetry_Int_Tables_number   1
_chemical_formula_structural   Na2MoO4
_chemical_formula_sum   'Na4 Mo2 O8'
_cell_volume   185.10462915
_cell_formula_units_Z   2
loop_
 _symmetry_equiv_pos_site_id
 _symmetry_equiv_pos_as_xyz
  1  'x, y, z'
loop_
 _atom_site_type_symbol
 _atom_site_label
 _atom_site_symmetry_multiplicity
 _atom_site_fract_x
 _atom_site_fract_y
 _atom_site_fract_z
 _atom_site_occupancy
  Na  Na0  1  0.50000001  0.00000000  0.58351699  1
  Na  Na1  1  0.00000000  0.50000001  0.41648299  1
  Na  Na2  1  0.00000000  0.50000001  0.10807000  1
  Na  Na3  1  0.50000001  0.00000000  0.89192999  1
  Mo  Mo4  1  0.50000001  0.00000000  0.27114000  1
  Mo  Mo5  1  0.00000000  0.50000001  0.72885999  1
  O  O6  1  0.00000000  0.50000001  0.93053199  1
  O  O7  1  0.50000001  0.00000000  0.06946800  1
  O  O8  1  0.00000000  0.50000001  0.59409799  1
  O  O9  1  0.50000001  0.00000000  0.40590199  1
  O  O10  1  0.00000000  0.00000000  0.23386500  1
  O  O11  1  0.50000001  0.50000001  0.23386500  1
  O  O12  1  0.00000000  0.00000000  0.76613499  1
  O  O13  1  0.50000001  0.50000001  0.76613499  1
