# generated using pymatgen
data_Ho3Ga8Co7
_symmetry_space_group_name_H-M   'P 1'
_cell_length_a   4.02175283
_cell_length_b   8.72686768
_cell_length_c   8.72686768
_cell_angle_alpha   120.00000000
_cell_angle_beta   90.00000000
_cell_angle_gamma   90.00000000
_symmetry_Int_Tables_number   1
_chemical_formula_structural   Ho3Ga8Co7
_chemical_formula_sum   'Ho3 Ga8 Co7'
_cell_volume   265.25451809
_cell_formula_units_Z   1
loop_
 _symmetry_equiv_pos_site_id
 _symmetry_equiv_pos_as_xyz
  1  'x, y, z'
loop_
 _atom_site_type_symbol
 _atom_site_label
 _atom_site_symmetry_multiplicity
 _atom_site_fract_x
 _atom_site_fract_y
 _atom_site_fract_z
 _atom_site_occupancy
  Ho  Ho0  1  -0.00000000  0.66666668  0.33333332  1
  Ho  Ho1  1  0.00000000  0.33333334  0.66666666  1
  Ho  Ho2  1  0.00000000  0.00000000  0.00000000  1
  Co  Co3  1  0.50000002  0.50000001  0.49999999  1
  Co  Co4  1  0.50000002  1.00000002  0.49999997  1
  Ga  Ga5  1  0.50000002  0.50000001  -0.00000001  1
  Co  Co6  1  0.50000002  0.83961802  0.16038098  1
  Ga  Ga7  1  0.50000002  0.16038200  0.83961900  1
  Co  Co8  1  0.50000002  0.32076301  0.16038099  1
  Co  Co9  1  0.50000002  0.67923702  0.83961898  1
  Co  Co10  1  0.50000002  0.83961802  0.67923598  1
  Co  Co11  1  0.50000002  0.16038200  0.32076400  1
  Ga  Ga12  1  -0.00000000  0.67610902  0.67610898  1
  Ga  Ga13  1  -0.00000000  0.32389101  0.32389099  1
  Ga  Ga14  1  -0.00000000  1.00000002  0.32389097  1
  Ga  Ga15  1  0.00000000  1.00000002  0.67610897  1
  Ga  Ga16  1  0.00000000  0.32389101  0.99999999  1
  Ga  Ga17  1  -0.00000000  0.67610902  0.99999998  1
