# generated using pymatgen
data_Ba6LiGa10Sn3
_symmetry_space_group_name_H-M   'P 1'
_cell_length_a   4.82180882
_cell_length_b   4.82180882
_cell_length_c   22.95276642
_cell_angle_alpha   90.00000000
_cell_angle_beta   90.00000000
_cell_angle_gamma   90.00000000
_symmetry_Int_Tables_number   1
_chemical_formula_structural   Ba6LiGa10Sn3
_chemical_formula_sum   'Ba6 Li1 Ga10 Sn3'
_cell_volume   533.64815249
_cell_formula_units_Z   1
loop_
 _symmetry_equiv_pos_site_id
 _symmetry_equiv_pos_as_xyz
  1  'x, y, z'
loop_
 _atom_site_type_symbol
 _atom_site_label
 _atom_site_symmetry_multiplicity
 _atom_site_fract_x
 _atom_site_fract_y
 _atom_site_fract_z
 _atom_site_occupancy
  Ba  Ba0  1  0.50000002  0.00000000  0.87026102  1
  Ba  Ba1  1  0.50000002  0.00000000  0.38274701  1
  Ba  Ba2  1  0.00000000  0.50000002  0.12973900  1
  Ba  Ba3  1  0.00000000  0.50000002  0.61725302  1
  Li  Li4  1  0.50000002  0.00000000  0.07135000  1
  Ga  Ga5  1  0.50000002  0.00000000  0.56279601  1
  Sn  Sn6  1  0.00000000  0.50000002  0.92865002  1
  Ga  Ga7  1  0.00000000  0.50000002  0.43720401  1
  Sn  Sn8  1  0.50000002  0.50000002  0.74576002  1
  Ga  Ga9  1  0.50000002  0.50000002  0.25424001  1
  Sn  Sn10  1  0.00000000  0.00000000  0.74537702  1
  Ga  Ga11  1  0.00000000  0.00000000  0.25462301  1
  Ba  Ba12  1  0.50000002  0.50000002  -0.00000000  1
  Ga  Ga13  1  0.50000002  0.00000000  0.18800200  1
  Ga  Ga14  1  0.50000002  0.00000000  0.68098002  1
  Ga  Ga15  1  0.00000000  0.50000002  0.81199802  1
  Ga  Ga16  1  0.00000000  0.50000002  0.31902001  1
  Ga  Ga17  1  0.50000002  0.50000002  0.50000001  1
  Ba  Ba18  1  0.00000000  0.00000000  0.00000000  1
  Ga  Ga19  1  0.00000000  0.00000000  0.50000001  1
