# generated using pymatgen
data_NaNbO3
_symmetry_space_group_name_H-M   'P 1'
_cell_length_a   3.04885793
_cell_length_b   5.67314243
_cell_length_c   7.63391113
_cell_angle_alpha   90.00000000
_cell_angle_beta   90.00000000
_cell_angle_gamma   105.58750916
_symmetry_Int_Tables_number   1
_chemical_formula_structural   NaNbO3
_chemical_formula_sum   'Na2 Nb2 O6'
_cell_volume   127.18444342
_cell_formula_units_Z   2
loop_
 _symmetry_equiv_pos_site_id
 _symmetry_equiv_pos_as_xyz
  1  'x, y, z'
loop_
 _atom_site_type_symbol
 _atom_site_label
 _atom_site_symmetry_multiplicity
 _atom_site_fract_x
 _atom_site_fract_y
 _atom_site_fract_z
 _atom_site_occupancy
  Nb  Nb0  1  0.00000000  0.00000000  0.49999999  1
  Nb  Nb1  1  0.00000000  0.00000000  0.00000000  1
  Na  Na2  1  0.25450104  0.50900201  0.25000000  1
  Na  Na3  1  0.74549905  0.49099801  0.74999999  1
  O  O4  1  0.37971506  0.75943002  0.54798199  1
  O  O5  1  0.62028503  0.24057000  0.04798200  1
  O  O6  1  0.37971506  0.75943002  0.95201798  1
  O  O7  1  0.62028503  0.24057000  0.45201799  1
  O  O8  1  0.93929209  0.87858402  0.25000000  1
  O  O9  1  0.06070801  0.12141600  0.74999999  1
