# generated using pymatgen
data_Ba2Zn4P2NO
_symmetry_space_group_name_H-M   'P 1'
_cell_length_a   4.00090981
_cell_length_b   5.81540871
_cell_length_c   7.33355093
_cell_angle_alpha   90.00000000
_cell_angle_beta   90.00000000
_cell_angle_gamma   110.12028503
_symmetry_Int_Tables_number   1
_chemical_formula_structural   Ba2Zn4P2NO
_chemical_formula_sum   'Ba2 Zn4 P2 N1 O1'
_cell_volume   160.21611621
_cell_formula_units_Z   1
loop_
 _symmetry_equiv_pos_site_id
 _symmetry_equiv_pos_as_xyz
  1  'x, y, z'
loop_
 _atom_site_type_symbol
 _atom_site_label
 _atom_site_symmetry_multiplicity
 _atom_site_fract_x
 _atom_site_fract_y
 _atom_site_fract_z
 _atom_site_occupancy
  Ba  Ba0  1  0.45600201  0.91200400  0.75000001  1
  Ba  Ba1  1  0.54399802  0.08799600  0.25000000  1
  Zn  Zn2  1  0.17444900  0.34889800  0.93873301  1
  Zn  Zn3  1  0.82555103  0.65110200  0.06126700  1
  Zn  Zn4  1  0.82555103  0.65110200  0.43873300  1
  Zn  Zn5  1  0.17444900  0.34889800  0.56126701  1
  P  P6  1  0.73403103  0.46806200  0.75000001  1
  P  P7  1  0.26596901  0.53193800  0.25000000  1
  O  O8  1  0.00000000  0.00000000  0.00000000  1
  N  N9  1  0.00000000  0.00000000  0.50000000  1
