# generated using pymatgen
data_BaGe2Ir3
_symmetry_space_group_name_H-M   'P 1'
_cell_length_a   4.11565685
_cell_length_b   5.42787790
_cell_length_c   5.42787886
_cell_angle_alpha   60.00000381
_cell_angle_beta   90.00000000
_cell_angle_gamma   90.00000000
_symmetry_Int_Tables_number   1
_chemical_formula_structural   BaGe2Ir3
_chemical_formula_sum   'Ba1 Ge2 Ir3'
_cell_volume   105.00984618
_cell_formula_units_Z   1
loop_
 _symmetry_equiv_pos_site_id
 _symmetry_equiv_pos_as_xyz
  1  'x, y, z'
loop_
 _atom_site_type_symbol
 _atom_site_label
 _atom_site_symmetry_multiplicity
 _atom_site_fract_x
 _atom_site_fract_y
 _atom_site_fract_z
 _atom_site_occupancy
  Ba  Ba0  1  0.00000000  0.00000000  0.00000000  1
  Ir  Ir1  1  0.50000002  0.00000000  0.49999998  1
  Ir  Ir2  1  0.50000002  0.50000001  0.49999998  1
  Ir  Ir3  1  0.50000002  0.50000001  -0.00000000  1
  Ge  Ge4  1  1.00000004  0.33333334  0.33333332  1
  Ge  Ge5  1  1.00000004  0.66666668  0.66666664  1
