# generated using pymatgen
data_Bi6PF13
_symmetry_space_group_name_H-M   'P 1'
_cell_length_a   6.82000208
_cell_length_b   6.82000208
_cell_length_c   6.82000208
_cell_angle_alpha   90.00000000
_cell_angle_beta   90.00000000
_cell_angle_gamma   90.00000000
_symmetry_Int_Tables_number   1
_chemical_formula_structural   Bi6PF13
_chemical_formula_sum   'Bi6 P1 F13'
_cell_volume   317.21485810
_cell_formula_units_Z   1
loop_
 _symmetry_equiv_pos_site_id
 _symmetry_equiv_pos_as_xyz
  1  'x, y, z'
loop_
 _atom_site_type_symbol
 _atom_site_label
 _atom_site_symmetry_multiplicity
 _atom_site_fract_x
 _atom_site_fract_y
 _atom_site_fract_z
 _atom_site_occupancy
  Bi  Bi0  1  0.07848600  0.07848600  0.07848600  1
  Bi  Bi1  1  0.42151400  0.92151399  0.57848599  1
  Bi  Bi2  1  0.57848599  0.42151400  0.92151399  1
  Bi  Bi3  1  0.92151399  0.57848599  0.42151400  1
  P  P4  1  0.40433300  0.40433300  0.40433300  1
  Bi  Bi5  1  0.09566700  0.59566699  0.90433299  1
  F  F6  1  0.90433299  0.09566700  0.59566699  1
  Bi  Bi7  1  0.59566699  0.90433299  0.09566700  1
  F  F8  1  0.21472100  0.40125500  0.00184700  1
  F  F9  1  0.71472099  0.09874500  0.99815299  1
  F  F10  1  0.78527899  0.90125499  0.49815299  1
  F  F11  1  0.09874500  0.99815299  0.71472099  1
  F  F12  1  0.49815299  0.78527899  0.90125499  1
  F  F13  1  0.99815299  0.71472099  0.09874500  1
  F  F14  1  0.40125500  0.00184700  0.21472100  1
  F  F15  1  0.00184700  0.21472100  0.40125500  1
  F  F16  1  0.28527900  0.59874499  0.50184699  1
  F  F17  1  0.50184699  0.28527900  0.59874499  1
  F  F18  1  0.59874499  0.50184699  0.28527900  1
  F  F19  1  0.90125499  0.49815299  0.78527899  1
