# generated using pymatgen
data_Hg
_symmetry_space_group_name_H-M   'P 1'
_cell_length_a   5.60608578
_cell_length_b   6.73422194
_cell_length_c   6.73422194
_cell_angle_alpha   120.00000000
_cell_angle_beta   90.00000000
_cell_angle_gamma   90.00000000
_symmetry_Int_Tables_number   1
_chemical_formula_structural   Hg
_chemical_formula_sum   Hg8
_cell_volume   220.17358822
_cell_formula_units_Z   8
loop_
 _symmetry_equiv_pos_site_id
 _symmetry_equiv_pos_as_xyz
  1  'x, y, z'
loop_
 _atom_site_type_symbol
 _atom_site_label
 _atom_site_symmetry_multiplicity
 _atom_site_fract_x
 _atom_site_fract_y
 _atom_site_fract_z
 _atom_site_occupancy
  Hg  Hg0  1  0.25000001  0.66666666  0.33333330  1
  Hg  Hg1  1  0.75000003  0.33333333  0.66666664  1
  Hg  Hg2  1  0.75000003  0.83277300  0.16722597  1
  Hg  Hg3  1  0.75000003  0.33445300  0.16722599  1
  Hg  Hg4  1  0.75000003  0.83277300  0.66554596  1
  Hg  Hg5  1  0.25000001  0.16722700  0.83277397  1
  Hg  Hg6  1  0.25000001  0.66554700  0.83277395  1
  Hg  Hg7  1  0.25000001  0.16722700  0.33445398  1
