# generated using pymatgen
data_Ga
_symmetry_space_group_name_H-M   'P 1'
_cell_length_a   7.48797798
_cell_length_b   7.48797798
_cell_length_c   7.48797798
_cell_angle_alpha   109.47122192
_cell_angle_beta   109.47122192
_cell_angle_gamma   109.47122192
_symmetry_Int_Tables_number   1
_chemical_formula_structural   Ga
_chemical_formula_sum   Ga14
_cell_volume   323.20030696
_cell_formula_units_Z   14
loop_
 _symmetry_equiv_pos_site_id
 _symmetry_equiv_pos_as_xyz
  1  'x, y, z'
loop_
 _atom_site_type_symbol
 _atom_site_label
 _atom_site_symmetry_multiplicity
 _atom_site_fract_x
 _atom_site_fract_y
 _atom_site_fract_z
 _atom_site_occupancy
  Ga  Ga0  1  0.75000000  0.12500000  0.37500002  1
  Ga  Ga1  1  0.62500001  0.25000000  0.87500001  1
  Ga  Ga2  1  0.87500003  0.75000001  0.62500005  1
  Ga  Ga3  1  0.12500005  0.87500001  0.25000005  1
  Ga  Ga4  1  0.37500003  0.62500001  0.75000003  1
  Ga  Ga5  1  0.25000002  0.37500001  0.12500002  1
  Ga  Ga6  1  0.84155499  0.00000000  0.00000002  1
  Ga  Ga7  1  0.15844501  0.15844500  0.65844500  1
  Ga  Ga8  1  0.00000003  0.50000001  0.84155501  1
  Ga  Ga9  1  0.50000001  0.34155501  0.50000002  1
  Ga  Ga10  1  0.00000003  0.50000001  0.34155502  1
  Ga  Ga11  1  0.50000005  0.84155501  0.50000005  1
  Ga  Ga12  1  0.65844503  0.65844501  0.15844505  1
  Ga  Ga13  1  0.34155499  0.00000000  0.00000001  1
