# generated using pymatgen
data_GaTe2
_symmetry_space_group_name_H-M   'P 1'
_cell_length_a   2.93247795
_cell_length_b   2.93247795
_cell_length_c   5.76111507
_cell_angle_alpha   104.74432373
_cell_angle_beta   104.74432373
_cell_angle_gamma   90.00000000
_symmetry_Int_Tables_number   1
_chemical_formula_structural   GaTe2
_chemical_formula_sum   'Ga1 Te2'
_cell_volume   46.22200559
_cell_formula_units_Z   1
loop_
 _symmetry_equiv_pos_site_id
 _symmetry_equiv_pos_as_xyz
  1  'x, y, z'
loop_
 _atom_site_type_symbol
 _atom_site_label
 _atom_site_symmetry_multiplicity
 _atom_site_fract_x
 _atom_site_fract_y
 _atom_site_fract_z
 _atom_site_occupancy
  Ga  Ga0  1  0.66225403  0.66225402  0.32450802  1
  Te  Te1  1  0.33774601  0.33774601  0.67549200  1
  Te  Te2  1  0.00000000  0.00000000  0.00000000  1
