# generated using pymatgen
data_Ho2(NiB2)3
_symmetry_space_group_name_H-M   'P 1'
_cell_length_a   3.47193789
_cell_length_b   5.78104591
_cell_length_c   5.78104591
_cell_angle_alpha   96.75537872
_cell_angle_beta   90.00000000
_cell_angle_gamma   90.00000000
_symmetry_Int_Tables_number   1
_chemical_formula_structural   Ho2(NiB2)3
_chemical_formula_sum   'Ho2 Ni3 B6'
_cell_volume   115.22829754
_cell_formula_units_Z   1
loop_
 _symmetry_equiv_pos_site_id
 _symmetry_equiv_pos_as_xyz
  1  'x, y, z'
loop_
 _atom_site_type_symbol
 _atom_site_label
 _atom_site_symmetry_multiplicity
 _atom_site_fract_x
 _atom_site_fract_y
 _atom_site_fract_z
 _atom_site_occupancy
  Ho  Ho0  1  0.00000000  0.27655099  0.72344899  1
  Ho  Ho1  1  0.00000000  0.72344898  0.27655103  1
  Ni  Ni2  1  0.50000002  0.00000000  -0.00000000  1
  Ni  Ni3  1  0.00000000  0.77400898  0.77400902  1
  Ni  Ni4  1  0.00000000  0.22599100  0.22599100  1
  B  B5  1  0.50000002  0.91525098  0.61521703  1
  B  B6  1  0.50000002  0.08474900  0.38478299  1
  B  B7  1  0.50000002  0.61521699  0.91525100  1
  B  B8  1  0.50000002  0.38478299  0.08474902  1
  B  B9  1  0.50000002  0.61349599  0.61349601  1
  B  B10  1  0.50000002  0.38650399  0.38650401  1
