# generated using pymatgen
data_Hg3Te7
_symmetry_space_group_name_H-M   'P 1'
_cell_length_a   6.68074894
_cell_length_b   8.16248894
_cell_length_c   8.17523861
_cell_angle_alpha   80.24415588
_cell_angle_beta   65.91478729
_cell_angle_gamma   65.85099030
_symmetry_Int_Tables_number   1
_chemical_formula_structural   Hg3Te7
_chemical_formula_sum   'Hg3 Te7'
_cell_volume   371.37596074
_cell_formula_units_Z   1
loop_
 _symmetry_equiv_pos_site_id
 _symmetry_equiv_pos_as_xyz
  1  'x, y, z'
loop_
 _atom_site_type_symbol
 _atom_site_label
 _atom_site_symmetry_multiplicity
 _atom_site_fract_x
 _atom_site_fract_y
 _atom_site_fract_z
 _atom_site_occupancy
  Te  Te0  1  0.99739400  0.00367000  0.99813602  1
  Hg  Hg1  1  0.40433402  0.80928298  0.39621597  1
  Te  Te2  1  0.78685101  0.59885599  0.81025099  1
  Hg  Hg3  1  0.20567501  0.39444899  0.18734298  1
  Te  Te4  1  0.60924600  0.19311500  0.60804000  1
  Hg  Hg5  1  0.65250401  0.29844999  0.90061100  1
  Te  Te6  1  0.04511200  0.09955900  0.29954000  1
  Te  Te7  1  0.44836202  0.89949298  0.70059296  1
  Te  Te8  1  0.85241202  0.70130298  0.10011798  1
  Te  Te9  1  0.24811001  0.50182099  0.49915198  1
