# generated using pymatgen
data_HoLuCo4
_symmetry_space_group_name_H-M   'P 1'
_cell_length_a   5.04955721
_cell_length_b   5.04955721
_cell_length_c   5.04955721
_cell_angle_alpha   60.00000000
_cell_angle_beta   60.00000000
_cell_angle_gamma   60.00000000
_symmetry_Int_Tables_number   1
_chemical_formula_structural   HoLuCo4
_chemical_formula_sum   'Ho1 Lu1 Co4'
_cell_volume   91.04265053
_cell_formula_units_Z   1
loop_
 _symmetry_equiv_pos_site_id
 _symmetry_equiv_pos_as_xyz
  1  'x, y, z'
loop_
 _atom_site_type_symbol
 _atom_site_label
 _atom_site_symmetry_multiplicity
 _atom_site_fract_x
 _atom_site_fract_y
 _atom_site_fract_z
 _atom_site_occupancy
  Lu  Lu0  1  0.00000000  0.00000000  0.00000000  1
  Co  Co1  1  0.37595598  0.87213396  0.37595498  1
  Co  Co2  1  0.37595598  0.37595498  0.37595498  1
  Co  Co3  1  0.37595598  0.37595498  0.87213396  1
  Co  Co4  1  0.87213496  0.37595498  0.37595498  1
  Ho  Ho5  1  0.74999997  0.74999997  0.74999997  1
