# generated using pymatgen
data_GaAgSe2
_symmetry_space_group_name_H-M   'P 1'
_cell_length_a   6.04271603
_cell_length_b   6.04271603
_cell_length_c   7.01049566
_cell_angle_alpha   115.52954102
_cell_angle_beta   115.52954102
_cell_angle_gamma   90.00000000
_symmetry_Int_Tables_number   1
_chemical_formula_structural   GaAgSe2
_chemical_formula_sum   'Ga2 Ag2 Se4'
_cell_volume   202.94211927
_cell_formula_units_Z   2
loop_
 _symmetry_equiv_pos_site_id
 _symmetry_equiv_pos_as_xyz
  1  'x, y, z'
loop_
 _atom_site_type_symbol
 _atom_site_label
 _atom_site_symmetry_multiplicity
 _atom_site_fract_x
 _atom_site_fract_y
 _atom_site_fract_z
 _atom_site_occupancy
  Ga  Ga0  1  0.25000003  0.75000001  0.50000004  1
  Ga  Ga1  1  0.50000002  0.50000001  1.00000004  1
  Ag  Ag2  1  0.00000000  0.00000000  0.00000000  1
  Ag  Ag3  1  0.75000002  0.25000000  0.50000003  1
  Se  Se4  1  0.58887501  0.12500000  0.75000002  1
  Se  Se5  1  0.37500002  0.41112501  0.25000003  1
  Se  Se6  1  0.16112503  0.62500001  0.75000003  1
  Se  Se7  1  0.87500004  0.83887502  0.25000007  1
