# generated using pymatgen
data_Ho(CuGe)2
_symmetry_space_group_name_H-M   'P 1'
_cell_length_a   4.08675623
_cell_length_b   4.08675623
_cell_length_c   5.73169231
_cell_angle_alpha   110.88571930
_cell_angle_beta   110.88571930
_cell_angle_gamma   90.00000000
_symmetry_Int_Tables_number   1
_chemical_formula_structural   Ho(CuGe)2
_chemical_formula_sum   'Ho1 Cu2 Ge2'
_cell_volume   82.67113550
_cell_formula_units_Z   1
loop_
 _symmetry_equiv_pos_site_id
 _symmetry_equiv_pos_as_xyz
  1  'x, y, z'
loop_
 _atom_site_type_symbol
 _atom_site_label
 _atom_site_symmetry_multiplicity
 _atom_site_fract_x
 _atom_site_fract_y
 _atom_site_fract_z
 _atom_site_occupancy
  Ho  Ho0  1  0.00000000  0.00000000  0.00000000  1
  Ge  Ge1  1  0.38938296  0.38938297  0.77876598  1
  Ge  Ge2  1  0.61061694  0.61061695  0.22123396  1
  Cu  Cu3  1  0.74999994  0.24999998  0.49999997  1
  Cu  Cu4  1  0.24999996  0.74999994  0.49999997  1
