# generated using pymatgen
data_Na3AsSO4
_symmetry_space_group_name_H-M   'P 1'
_cell_length_a   5.37069702
_cell_length_b   7.47563410
_cell_length_c   7.47563410
_cell_angle_alpha   90.00000000
_cell_angle_beta   90.00000000
_cell_angle_gamma   90.00000000
_symmetry_Int_Tables_number   1
_chemical_formula_structural   Na3AsSO4
_chemical_formula_sum   'Na6 As2 S2 O8'
_cell_volume   300.14196787
_cell_formula_units_Z   2
loop_
 _symmetry_equiv_pos_site_id
 _symmetry_equiv_pos_as_xyz
  1  'x, y, z'
loop_
 _atom_site_type_symbol
 _atom_site_label
 _atom_site_symmetry_multiplicity
 _atom_site_fract_x
 _atom_site_fract_y
 _atom_site_fract_z
 _atom_site_occupancy
  As  As0  1  0.00000000  0.49999999  0.49999999  1
  As  As1  1  0.00000000  0.00000000  0.00000000  1
  Na  Na2  1  0.10389100  0.49999999  -0.00000000  1
  Na  Na3  1  0.50000000  0.74999999  0.25000000  1
  Na  Na4  1  0.50000000  0.74999999  0.74999999  1
  Na  Na5  1  0.89610900  0.00000000  0.49999999  1
  Na  Na6  1  0.50000000  0.25000000  0.74999999  1
  Na  Na7  1  0.50000000  0.25000000  0.25000000  1
  S  S8  1  0.37239200  0.00000000  0.49999999  1
  S  S9  1  0.62760800  0.49999999  -0.00000000  1
  O  O10  1  0.18625100  0.49999999  0.31876400  1
  O  O11  1  0.18625100  0.18123600  -0.00000000  1
  O  O12  1  0.18625100  0.49999999  0.68123599  1
  O  O13  1  0.18625100  0.81876399  -0.00000000  1
  O  O14  1  0.81374900  0.68123599  0.49999999  1
  O  O15  1  0.81374900  0.00000000  0.18123600  1
  O  O16  1  0.81374900  0.00000000  0.81876399  1
  O  O17  1  0.81374900  0.31876400  0.49999999  1
