# generated using pymatgen
data_CaMoO3
_symmetry_space_group_name_H-M   'P 1'
_cell_length_a   5.40784836
_cell_length_b   5.61523914
_cell_length_c   7.70875263
_cell_angle_alpha   90.03182220
_cell_angle_beta   90.29463959
_cell_angle_gamma   89.97604370
_symmetry_Int_Tables_number   1
_chemical_formula_structural   CaMoO3
_chemical_formula_sum   'Ca4 Mo4 O12'
_cell_volume   234.08361987
_cell_formula_units_Z   4
loop_
 _symmetry_equiv_pos_site_id
 _symmetry_equiv_pos_as_xyz
  1  'x, y, z'
loop_
 _atom_site_type_symbol
 _atom_site_label
 _atom_site_symmetry_multiplicity
 _atom_site_fract_x
 _atom_site_fract_y
 _atom_site_fract_z
 _atom_site_occupancy
  Ca  Ca0  1  0.98530198  0.05885800  0.25136303  1
  Ca  Ca1  1  0.51475402  0.55904602  0.24881603  1
  Ca  Ca2  1  0.01469706  0.94114103  0.74863802  1
  Ca  Ca3  1  0.48524501  0.44095502  0.75118302  1
  Mo  Mo4  1  0.49999999  0.00000000  0.00000002  1
  Mo  Mo5  1  0.00000003  0.50000002  0.50000001  1
  Mo  Mo6  1  0.49999905  0.99999904  0.50000004  1
  Mo  Mo7  1  0.99999900  0.50000102  0.99999903  1
  O  O8  1  0.68630300  0.28869201  0.44871503  1
  O  O9  1  0.81374303  0.78860003  0.05126306  1
  O  O10  1  0.31369704  0.71130702  0.55128503  1
  O  O11  1  0.18625601  0.21140101  0.94873600  1
  O  O12  1  0.20836401  0.19233801  0.54822800  1
  O  O13  1  0.29147404  0.69224202  0.95181002  1
  O  O14  1  0.79163503  0.80766103  0.45177205  1
  O  O15  1  0.70852500  0.30775901  0.04818903  1
  O  O16  1  0.09566203  0.46952002  0.24139702  1
  O  O17  1  0.40418805  0.96949303  0.25841304  1
  O  O18  1  0.59581198  0.03050700  0.74158701  1
  O  O19  1  0.90433801  0.53048002  0.75860304  1
