# generated using pymatgen
data_InGa15
_symmetry_space_group_name_H-M   'P 1'
_cell_length_a   4.59197378
_cell_length_b   4.59197474
_cell_length_c   20.94852638
_cell_angle_alpha   90.00000000
_cell_angle_beta   90.00000000
_cell_angle_gamma   119.99999237
_symmetry_Int_Tables_number   1
_chemical_formula_structural   InGa15
_chemical_formula_sum   'In1 Ga15'
_cell_volume   382.54544296
_cell_formula_units_Z   1
loop_
 _symmetry_equiv_pos_site_id
 _symmetry_equiv_pos_as_xyz
  1  'x, y, z'
loop_
 _atom_site_type_symbol
 _atom_site_label
 _atom_site_symmetry_multiplicity
 _atom_site_fract_x
 _atom_site_fract_y
 _atom_site_fract_z
 _atom_site_occupancy
  In  In0  1  0.33333332  0.66666665  0.28756799  1
  Ga  Ga1  1  0.66666668  0.33333333  0.78756799  1
  Ga  Ga2  1  0.00000000  0.00000000  0.20417000  1
  Ga  Ga3  1  0.00000000  0.00000000  0.70416999  1
  Ga  Ga4  1  0.00000000  0.00000000  0.47089599  1
  Ga  Ga5  1  0.00000000  0.00000000  0.97089598  1
  Ga  Ga6  1  0.33333332  0.66666665  0.87473998  1
  Ga  Ga7  1  0.66666668  0.33333333  0.37473999  1
  Ga  Ga8  1  0.33333332  0.66666665  0.59258199  1
  Ga  Ga9  1  0.66666668  0.33333333  0.09258200  1
  Ga  Ga10  1  0.33333332  0.66666665  0.15529400  1
  Ga  Ga11  1  0.66666668  0.33333333  0.65529399  1
  Ga  Ga12  1  0.33333332  0.66666665  0.01545500  1
  Ga  Ga13  1  0.66666668  0.33333333  0.51545499  1
  Ga  Ga14  1  0.00000000  0.00000000  0.33506599  1
  Ga  Ga15  1  0.00000000  0.00000000  0.83506598  1
