# generated using pymatgen
data_BaNaCo4O7
_symmetry_space_group_name_H-M   'P 1'
_cell_length_a   6.33191013
_cell_length_b   6.47491264
_cell_length_c   6.33191013
_cell_angle_alpha   119.27206421
_cell_angle_beta   90.00000000
_cell_angle_gamma   119.27206421
_symmetry_Int_Tables_number   1
_chemical_formula_structural   BaNaCo4O7
_chemical_formula_sum   'Ba1 Na1 Co4 O7'
_cell_volume   187.53088194
_cell_formula_units_Z   1
loop_
 _symmetry_equiv_pos_site_id
 _symmetry_equiv_pos_as_xyz
  1  'x, y, z'
loop_
 _atom_site_type_symbol
 _atom_site_label
 _atom_site_symmetry_multiplicity
 _atom_site_fract_x
 _atom_site_fract_y
 _atom_site_fract_z
 _atom_site_occupancy
  Ba  Ba0  1  0.74999999  0.49999999  0.25000000  1
  Na  Na1  1  0.00000000  0.00000000  0.00000000  1
  Co  Co2  1  0.86079698  0.24003700  0.58932799  1
  Co  Co3  1  0.37924000  0.24003800  0.65070899  1
  Co  Co4  1  0.34929100  0.75996199  0.13920201  1
  Co  Co5  1  0.41067100  0.75996299  0.62076000  1
  O  O6  1  0.17232901  0.95173698  0.27855901  1
  O  O7  1  0.77940800  0.95173598  0.67317800  1
  O  O8  1  0.32682199  0.04826300  0.82767098  1
  O  O9  1  0.72144199  0.04826400  0.22059300  1
  O  O10  1  0.24549400  0.49098799  0.24549400  1
  O  O11  1  0.75450599  0.50901199  0.75450599  1
  O  O12  1  0.25000000  0.49999999  0.74999999  1
