# generated using pymatgen
data_Ga3Co2
_symmetry_space_group_name_H-M   'P 1'
_cell_length_a   3.94157004
_cell_length_b   3.94157028
_cell_length_c   12.11473560
_cell_angle_alpha   90.00000000
_cell_angle_beta   90.00000000
_cell_angle_gamma   120.00000000
_symmetry_Int_Tables_number   1
_chemical_formula_structural   Ga3Co2
_chemical_formula_sum   'Ga6 Co4'
_cell_volume   162.99830772
_cell_formula_units_Z   2
loop_
 _symmetry_equiv_pos_site_id
 _symmetry_equiv_pos_as_xyz
  1  'x, y, z'
loop_
 _atom_site_type_symbol
 _atom_site_label
 _atom_site_symmetry_multiplicity
 _atom_site_fract_x
 _atom_site_fract_y
 _atom_site_fract_z
 _atom_site_occupancy
  Ga  Ga0  1  0.66666667  0.33333333  0.43477701  1
  Co  Co1  1  0.33333335  0.66666667  0.93477703  1
  Ga  Ga2  1  0.33333335  0.66666667  0.56522302  1
  Co  Co3  1  0.66666667  0.33333333  0.06522300  1
  Ga  Ga4  1  0.00000000  0.00000000  0.75000002  1
  Ga  Ga5  1  0.00000000  0.00000000  0.25000001  1
  Co  Co6  1  0.66666667  0.33333333  0.63717402  1
  Ga  Ga7  1  0.33333335  0.66666667  0.13717400  1
  Co  Co8  1  0.33333335  0.66666667  0.36282601  1
  Ga  Ga9  1  0.66666667  0.33333333  0.86282603  1
