# generated using pymatgen
data_HoGa2
_symmetry_space_group_name_H-M   'P 1'
_cell_length_a   4.46324015
_cell_length_b   5.65179014
_cell_length_c   5.65179014
_cell_angle_alpha   76.79969025
_cell_angle_beta   66.74326324
_cell_angle_gamma   66.74326324
_symmetry_Int_Tables_number   1
_chemical_formula_structural   HoGa2
_chemical_formula_sum   'Ho2 Ga4'
_cell_volume   119.89649928
_cell_formula_units_Z   2
loop_
 _symmetry_equiv_pos_site_id
 _symmetry_equiv_pos_as_xyz
  1  'x, y, z'
loop_
 _atom_site_type_symbol
 _atom_site_label
 _atom_site_symmetry_multiplicity
 _atom_site_fract_x
 _atom_site_fract_y
 _atom_site_fract_z
 _atom_site_occupancy
  Ho  Ho0  1  0.29339798  0.70660202  0.70660202  1
  Ho  Ho1  1  0.36393799  0.13606200  0.13606200  1
  Ga  Ga2  1  0.66008098  0.15949400  0.52034401  1
  Ga  Ga3  1  0.66008097  0.52034401  0.15949400  1
  Ga  Ga4  1  0.99215097  0.28226401  0.73343401  1
  Ga  Ga5  1  0.99215096  0.73343402  0.28226401  1
