# generated using pymatgen
data_BMo
_symmetry_space_group_name_H-M   'P 1'
_cell_length_a   6.39299536
_cell_length_b   6.39299536
_cell_length_c   6.39299536
_cell_angle_alpha   61.16445160
_cell_angle_beta   61.16445160
_cell_angle_gamma   61.16444778
_symmetry_Int_Tables_number   1
_chemical_formula_structural   BMo
_chemical_formula_sum   'B7 Mo7'
_cell_volume   189.59639446
_cell_formula_units_Z   7
loop_
 _symmetry_equiv_pos_site_id
 _symmetry_equiv_pos_as_xyz
  1  'x, y, z'
loop_
 _atom_site_type_symbol
 _atom_site_label
 _atom_site_symmetry_multiplicity
 _atom_site_fract_x
 _atom_site_fract_y
 _atom_site_fract_z
 _atom_site_occupancy
  Mo  Mo0  1  0.88581798  0.29352000  0.50335799  1
  Mo  Mo1  1  0.51740899  0.04278300  0.75014301  1
  Mo  Mo2  1  0.75014298  0.51740899  0.04278297  1
  Mo  Mo3  1  0.34438799  0.34438800  0.34438800  1
  Mo  Mo4  1  0.50335798  0.88581799  0.29351998  1
  Mo  Mo5  1  0.29351999  0.50335799  0.88581801  1
  Mo  Mo6  1  0.04278299  0.75014299  0.51740900  1
  B  B7  1  0.99904598  0.99904599  0.99904599  1
  B  B8  1  0.78680999  0.11012500  0.32249399  1
  B  B9  1  0.66217999  0.18720800  0.92477601  1
  B  B10  1  0.92477598  0.66217999  0.18720797  1
  B  B11  1  0.11012500  0.32249400  0.78681002  1
  B  B12  1  0.32249399  0.78680999  0.11012498  1
  B  B13  1  0.18720799  0.92477599  0.66218000  1
