# generated using pymatgen
data_Na2WO4
_symmetry_space_group_name_H-M   'P 1'
_cell_length_a   5.50846720
_cell_length_b   5.50846720
_cell_length_c   5.50846720
_cell_angle_alpha   109.47122192
_cell_angle_beta   109.47122192
_cell_angle_gamma   109.47122192
_symmetry_Int_Tables_number   1
_chemical_formula_structural   Na2WO4
_chemical_formula_sum   'Na2 W1 O4'
_cell_volume   128.66795285
_cell_formula_units_Z   1
loop_
 _symmetry_equiv_pos_site_id
 _symmetry_equiv_pos_as_xyz
  1  'x, y, z'
loop_
 _atom_site_type_symbol
 _atom_site_label
 _atom_site_symmetry_multiplicity
 _atom_site_fract_x
 _atom_site_fract_y
 _atom_site_fract_z
 _atom_site_occupancy
  W  W0  1  0.00000000  0.00000000  0.00000000  1
  Na  Na1  1  0.70806600  0.00000000  0.70806601  1
  O  O2  1  0.29193400  0.00000000  0.29193400  1
  O  O3  1  0.70806605  0.70806602  0.00000006  1
  O  O4  1  0.29193402  0.29193401  1.00000002  1
  O  O5  1  0.00000002  0.29193401  0.29193401  1
  Na  Na6  1  0.00000004  0.70806602  0.70806603  1
