# generated using pymatgen
data_Cs2AuSe4
_symmetry_space_group_name_H-M   'P 1'
_cell_length_a   7.65290594
_cell_length_b   7.68621016
_cell_length_c   9.73722553
_cell_angle_alpha   90.00000000
_cell_angle_beta   71.46258545
_cell_angle_gamma   90.00000000
_symmetry_Int_Tables_number   1
_chemical_formula_structural   Cs2AuSe4
_chemical_formula_sum   'Cs4 Au2 Se8'
_cell_volume   543.04453821
_cell_formula_units_Z   2
loop_
 _symmetry_equiv_pos_site_id
 _symmetry_equiv_pos_as_xyz
  1  'x, y, z'
loop_
 _atom_site_type_symbol
 _atom_site_label
 _atom_site_symmetry_multiplicity
 _atom_site_fract_x
 _atom_site_fract_y
 _atom_site_fract_z
 _atom_site_occupancy
  Cs  Cs0  1  0.27069600  0.24999999  0.92886101  1
  Cs  Cs1  1  0.72930401  0.74999998  0.07113898  1
  Cs  Cs2  1  0.22367800  0.24999999  0.44822500  1
  Cs  Cs3  1  0.77632201  0.74999998  0.55177499  1
  Au  Au4  1  0.78906201  0.24999999  0.29443798  1
  Au  Au5  1  0.21093800  0.74999998  0.70556201  1
  Se  Se6  1  0.00550400  0.99337998  0.23314700  1
  Se  Se7  1  0.99449602  0.49337999  0.76685299  1
  Se  Se8  1  0.37554801  0.74999998  0.43530200  1
  Se  Se9  1  0.62445201  0.24999999  0.56469799  1
  Se  Se10  1  0.40485201  0.74999998  0.87423800  1
  Se  Se11  1  0.59514801  0.24999999  0.12576199  1
  Se  Se12  1  0.00550400  0.50661999  0.23314700  1
  Se  Se13  1  0.99449602  0.00662000  0.76685299  1
