# generated using pymatgen
data_Ba(GeAu)2
_symmetry_space_group_name_H-M   'P 1'
_cell_length_a   4.52750301
_cell_length_b   4.52750301
_cell_length_c   10.89059162
_cell_angle_alpha   90.00000000
_cell_angle_beta   90.00000000
_cell_angle_gamma   90.00000000
_symmetry_Int_Tables_number   1
_chemical_formula_structural   Ba(GeAu)2
_chemical_formula_sum   'Ba2 Ge4 Au4'
_cell_volume   223.23843495
_cell_formula_units_Z   2
loop_
 _symmetry_equiv_pos_site_id
 _symmetry_equiv_pos_as_xyz
  1  'x, y, z'
loop_
 _atom_site_type_symbol
 _atom_site_label
 _atom_site_symmetry_multiplicity
 _atom_site_fract_x
 _atom_site_fract_y
 _atom_site_fract_z
 _atom_site_occupancy
  Ba  Ba0  1  0.00000000  0.50000000  0.76146903  1
  Ba  Ba1  1  0.50000000  0.00000000  0.23853101  1
  Ge  Ge2  1  0.00000000  0.00000000  0.00000000  1
  Ge  Ge3  1  0.50000000  0.50000000  -0.00000000  1
  Ge  Ge4  1  0.00000000  0.50000000  0.36223201  1
  Ge  Ge5  1  0.50000000  0.00000000  0.63776802  1
  Au  Au6  1  0.00000000  0.00000000  0.50000002  1
  Au  Au7  1  0.50000000  0.50000000  0.50000002  1
  Au  Au8  1  0.00000000  0.50000000  0.12999700  1
  Au  Au9  1  0.50000000  0.00000000  0.87000303  1
