# generated using pymatgen
data_Ba4In3MoSe12
_symmetry_space_group_name_H-M   'P 1'
_cell_length_a   7.26197910
_cell_length_b   7.49293280
_cell_length_c   10.39595985
_cell_angle_alpha   90.00000000
_cell_angle_beta   90.00000000
_cell_angle_gamma   90.00000000
_symmetry_Int_Tables_number   1
_chemical_formula_structural   Ba4In3MoSe12
_chemical_formula_sum   'Ba4 In3 Mo1 Se12'
_cell_volume   565.68078388
_cell_formula_units_Z   1
loop_
 _symmetry_equiv_pos_site_id
 _symmetry_equiv_pos_as_xyz
  1  'x, y, z'
loop_
 _atom_site_type_symbol
 _atom_site_label
 _atom_site_symmetry_multiplicity
 _atom_site_fract_x
 _atom_site_fract_y
 _atom_site_fract_z
 _atom_site_occupancy
  Ba  Ba0  1  0.98509099  0.05652800  0.25000000  1
  Ba  Ba1  1  0.48509099  0.44347201  0.75000001  1
  Ba  Ba2  1  0.51490899  0.55652802  0.25000000  1
  Ba  Ba3  1  0.01490900  0.94347203  0.75000001  1
  Mo  Mo4  1  0.49999999  0.00000000  0.00000000  1
  In  In5  1  0.00000000  0.50000001  -0.00000000  1
  In  In6  1  0.00000000  0.50000001  0.50000001  1
  In  In7  1  0.49999999  0.00000000  0.50000001  1
  Se  Se8  1  0.70663499  0.29273101  0.45618601  1
  Se  Se9  1  0.20663500  0.20726901  0.54381401  1
  Se  Se10  1  0.79336499  0.79273102  0.04381400  1
  Se  Se11  1  0.29336500  0.70726902  0.95618601  1
  Se  Se12  1  0.29336500  0.70726902  0.54381401  1
  Se  Se13  1  0.79336499  0.79273102  0.45618601  1
  Se  Se14  1  0.20663500  0.20726901  0.95618601  1
  Se  Se15  1  0.70663499  0.29273101  0.04381400  1
  Se  Se16  1  0.08230000  0.47941101  0.25000000  1
  Se  Se17  1  0.58229999  0.02058900  0.75000001  1
  Se  Se18  1  0.41769999  0.97941103  0.25000000  1
  Se  Se19  1  0.91769999  0.52058901  0.75000001  1
