# generated using pymatgen
data_MoSe4
_symmetry_space_group_name_H-M   'P 1'
_cell_length_a   3.89272690
_cell_length_b   9.54115677
_cell_length_c   13.50801277
_cell_angle_alpha   90.00000000
_cell_angle_beta   90.00000000
_cell_angle_gamma   90.00000000
_symmetry_Int_Tables_number   1
_chemical_formula_structural   MoSe4
_chemical_formula_sum   'Mo4 Se16'
_cell_volume   501.70269081
_cell_formula_units_Z   4
loop_
 _symmetry_equiv_pos_site_id
 _symmetry_equiv_pos_as_xyz
  1  'x, y, z'
loop_
 _atom_site_type_symbol
 _atom_site_label
 _atom_site_symmetry_multiplicity
 _atom_site_fract_x
 _atom_site_fract_y
 _atom_site_fract_z
 _atom_site_occupancy
  Se  Se0  1  0.75000002  0.85160302  0.04424400  1
  Se  Se1  1  0.25000001  0.14839700  0.95575602  1
  Mo  Mo2  1  0.75000002  0.35160301  0.45575601  1
  Mo  Mo3  1  0.25000001  0.64839702  0.54424401  1
  Se  Se4  1  0.75000002  0.47266601  0.85826601  1
  Se  Se5  1  0.25000001  0.52733401  0.14173400  1
  Se  Se6  1  0.75000002  0.97266602  0.64173401  1
  Se  Se7  1  0.25000001  0.02733400  0.35826601  1
  Se  Se8  1  0.25000001  0.81297402  0.70081301  1
  Se  Se9  1  0.75000002  0.18702600  0.29918701  1
  Mo  Mo10  1  0.25000001  0.31297401  0.79918701  1
  Mo  Mo11  1  0.75000002  0.68702602  0.20081300  1
  Se  Se12  1  0.25000001  0.15924900  0.52020301  1
  Se  Se13  1  0.75000002  0.84075102  0.47979701  1
  Se  Se14  1  0.25000001  0.65924902  0.97979702  1
  Se  Se15  1  0.75000002  0.34075101  0.02020300  1
  Se  Se16  1  0.75000002  0.99963202  0.88391401  1
  Se  Se17  1  0.25000001  0.00036800  0.11608600  1
  Se  Se18  1  0.75000002  0.49963201  0.61608601  1
  Se  Se19  1  0.25000001  0.50036801  0.38391401  1
