# generated using pymatgen
data_Ba2In3Ge7
_symmetry_space_group_name_H-M   'P 1'
_cell_length_a   4.58630180
_cell_length_b   7.39411116
_cell_length_c   8.91974926
_cell_angle_alpha   90.00000000
_cell_angle_beta   104.89727783
_cell_angle_gamma   90.00000000
_symmetry_Int_Tables_number   1
_chemical_formula_structural   Ba2In3Ge7
_chemical_formula_sum   'Ba2 In3 Ge7'
_cell_volume   292.31621899
_cell_formula_units_Z   1
loop_
 _symmetry_equiv_pos_site_id
 _symmetry_equiv_pos_as_xyz
  1  'x, y, z'
loop_
 _atom_site_type_symbol
 _atom_site_label
 _atom_site_symmetry_multiplicity
 _atom_site_fract_x
 _atom_site_fract_y
 _atom_site_fract_z
 _atom_site_occupancy
  Ba  Ba0  1  0.62642802  0.74999998  0.25285598  1
  Ba  Ba1  1  0.37357201  0.24999999  0.74714398  1
  Ge  Ge2  1  0.81518502  0.95355698  0.63036996  1
  In  In3  1  0.18481500  0.04644300  0.36962999  1
  Ge  Ge4  1  0.81518502  0.54644299  0.63036996  1
  Ge  Ge5  1  0.18481500  0.45355699  0.36962999  1
  Ge  Ge6  1  0.43327101  0.74999998  0.86654197  1
  Ge  Ge7  1  0.56672901  0.24999999  0.13345798  1
  In  In8  1  0.00000000  0.00000000  0.00000000  1
  In  In9  1  0.00000000  0.49999999  -0.00000000  1
  Ge  Ge10  1  0.27750301  0.74999998  0.55500598  1
  Ge  Ge11  1  0.72249702  0.24999999  0.44499397  1
