# generated using pymatgen
data_BaHgTe
_symmetry_space_group_name_H-M   'P 1'
_cell_length_a   4.72222996
_cell_length_b   4.72222996
_cell_length_c   8.09880924
_cell_angle_alpha   90.00000000
_cell_angle_beta   90.00000000
_cell_angle_gamma   90.00000000
_symmetry_Int_Tables_number   1
_chemical_formula_structural   BaHgTe
_chemical_formula_sum   'Ba2 Hg2 Te2'
_cell_volume   180.59903851
_cell_formula_units_Z   2
loop_
 _symmetry_equiv_pos_site_id
 _symmetry_equiv_pos_as_xyz
  1  'x, y, z'
loop_
 _atom_site_type_symbol
 _atom_site_label
 _atom_site_symmetry_multiplicity
 _atom_site_fract_x
 _atom_site_fract_y
 _atom_site_fract_z
 _atom_site_occupancy
  Te  Te0  1  0.00000000  0.50000000  0.82917398  1
  Te  Te1  1  0.50000000  0.00000000  0.17082599  1
  Ba  Ba2  1  0.50000000  0.00000000  0.65165098  1
  Ba  Ba3  1  0.00000000  0.50000000  0.34834899  1
  Hg  Hg4  1  0.50000000  0.50000000  0.00000000  1
  Hg  Hg5  1  0.00000000  0.00000000  0.00000000  1
