# generated using pymatgen
data_SiB(Mo2C)2
_symmetry_space_group_name_H-M   'P 1'
_cell_length_a   3.10013890
_cell_length_b   3.13533401
_cell_length_c   8.92919731
_cell_angle_alpha   100.11161804
_cell_angle_beta   90.00000000
_cell_angle_gamma   90.00000000
_symmetry_Int_Tables_number   1
_chemical_formula_structural   SiB(Mo2C)2
_chemical_formula_sum   'Si1 B1 Mo4 C2'
_cell_volume   85.44345761
_cell_formula_units_Z   1
loop_
 _symmetry_equiv_pos_site_id
 _symmetry_equiv_pos_as_xyz
  1  'x, y, z'
loop_
 _atom_site_type_symbol
 _atom_site_label
 _atom_site_symmetry_multiplicity
 _atom_site_fract_x
 _atom_site_fract_y
 _atom_site_fract_z
 _atom_site_occupancy
  Mo  Mo0  1  0.50000002  0.68444199  0.36888397  1
  Si  Si1  1  0.50000002  0.52876399  0.05752799  1
  B  B2  1  0.00000000  0.47166399  0.94332795  1
  Mo  Mo3  1  1.00000003  0.31655300  0.63310597  1
  Mo  Mo4  1  0.50000002  0.92787799  0.85575595  1
  Mo  Mo5  1  1.00000003  0.06896300  0.13792599  1
  C  C6  1  0.50000002  0.80965799  0.61931596  1
  C  C7  1  1.00000003  0.19207900  0.38415798  1
