# generated using pymatgen
data_Te5Mo2
_symmetry_space_group_name_H-M   'P 1'
_cell_length_a   6.33928013
_cell_length_b   6.33928013
_cell_length_c   7.78159142
_cell_angle_alpha   114.03693390
_cell_angle_beta   114.03693390
_cell_angle_gamma   90.00000000
_symmetry_Int_Tables_number   1
_chemical_formula_structural   Te5Mo2
_chemical_formula_sum   'Te5 Mo2'
_cell_volume   255.61858952
_cell_formula_units_Z   1
loop_
 _symmetry_equiv_pos_site_id
 _symmetry_equiv_pos_as_xyz
  1  'x, y, z'
loop_
 _atom_site_type_symbol
 _atom_site_label
 _atom_site_symmetry_multiplicity
 _atom_site_fract_x
 _atom_site_fract_y
 _atom_site_fract_z
 _atom_site_occupancy
  Te  Te0  1  0.00000000  0.00000000  0.00000000  1
  Mo  Mo1  1  0.25000002  0.75000000  0.50000003  1
  Mo  Mo2  1  0.75000000  0.25000000  0.50000003  1
  Te  Te3  1  0.61485000  0.16160200  0.77645202  1
  Te  Te4  1  0.83839802  0.83839800  0.22354805  1
  Te  Te5  1  0.16160202  0.61485000  0.77645202  1
  Te  Te6  1  0.38515001  0.38515000  0.22354802  1
