# generated using pymatgen
data_Cs2SbAu
_symmetry_space_group_name_H-M   'P 1'
_cell_length_a   6.36017323
_cell_length_b   6.75906610
_cell_length_c   6.75906610
_cell_angle_alpha   103.41930389
_cell_angle_beta   90.00000000
_cell_angle_gamma   90.00000000
_symmetry_Int_Tables_number   1
_chemical_formula_structural   Cs2SbAu
_chemical_formula_sum   'Cs4 Sb2 Au2'
_cell_volume   282.63128979
_cell_formula_units_Z   2
loop_
 _symmetry_equiv_pos_site_id
 _symmetry_equiv_pos_as_xyz
  1  'x, y, z'
loop_
 _atom_site_type_symbol
 _atom_site_label
 _atom_site_symmetry_multiplicity
 _atom_site_fract_x
 _atom_site_fract_y
 _atom_site_fract_z
 _atom_site_occupancy
  Cs  Cs0  1  0.24999999  0.97673103  0.32168604  1
  Cs  Cs1  1  0.74999997  0.02326900  0.67831401  1
  Cs  Cs2  1  0.24999999  0.32168601  0.97673103  1
  Cs  Cs3  1  0.74999997  0.67831402  0.02326903  1
  Sb  Sb4  1  -0.00000000  0.50000001  0.50000003  1
  Sb  Sb5  1  0.49999998  0.50000001  0.50000003  1
  Au  Au6  1  0.24999999  0.76500402  0.76500404  1
  Au  Au7  1  0.74999997  0.23499601  0.23499601  1
