# generated using pymatgen
data_HoGa2(Co4Mo)2
_symmetry_space_group_name_H-M   'P 1'
_cell_length_a   4.68077278
_cell_length_b   6.41976547
_cell_length_c   6.41976500
_cell_angle_alpha   82.28042603
_cell_angle_beta   68.61952972
_cell_angle_gamma   68.61952209
_symmetry_Int_Tables_number   1
_chemical_formula_structural   HoGa2(Co4Mo)2
_chemical_formula_sum   'Ho1 Ga2 Co8 Mo2'
_cell_volume   167.27176905
_cell_formula_units_Z   1
loop_
 _symmetry_equiv_pos_site_id
 _symmetry_equiv_pos_as_xyz
  1  'x, y, z'
loop_
 _atom_site_type_symbol
 _atom_site_label
 _atom_site_symmetry_multiplicity
 _atom_site_fract_x
 _atom_site_fract_y
 _atom_site_fract_z
 _atom_site_occupancy
  Ho  Ho0  1  0.00000000  0.00000000  0.00000000  1
  Co  Co1  1  0.50000006  0.78997599  0.21002405  1
  Co  Co2  1  0.50000003  0.21002400  0.78997604  1
  Co  Co3  1  0.72162007  0.77837999  0.77838007  1
  Co  Co4  1  0.27838002  0.22162000  0.22162002  1
  Co  Co5  1  0.00000000  0.00000000  0.50000001  1
  Co  Co6  1  0.50000002  0.00000000  0.50000003  1
  Ga  Ga7  1  0.50000004  0.49999999  0.00000003  1
  Co  Co8  1  1.00000006  0.49999999  1.00000007  1
  Mo  Mo9  1  0.00000002  0.35913800  0.64086203  1
  Mo  Mo10  1  1.00000007  0.64086199  0.35913806  1
  Co  Co11  1  0.64146104  0.35853900  0.35853904  1
  Ga  Ga12  1  0.35853905  0.64146099  0.64146105  1
