# generated using pymatgen
data_Cs3In2Bi2SBr12
_symmetry_space_group_name_H-M   'P 1'
_cell_length_a   4.35599422
_cell_length_b   9.06987476
_cell_length_c   15.94175243
_cell_angle_alpha   90.00000000
_cell_angle_beta   90.00000000
_cell_angle_gamma   90.00000000
_symmetry_Int_Tables_number   1
_chemical_formula_structural   Cs3In2Bi2SBr12
_chemical_formula_sum   'Cs3 In2 Bi2 S1 Br12'
_cell_volume   629.83188979
_cell_formula_units_Z   1
loop_
 _symmetry_equiv_pos_site_id
 _symmetry_equiv_pos_as_xyz
  1  'x, y, z'
loop_
 _atom_site_type_symbol
 _atom_site_label
 _atom_site_symmetry_multiplicity
 _atom_site_fract_x
 _atom_site_fract_y
 _atom_site_fract_z
 _atom_site_occupancy
  Br  Br0  1  0.24999999  0.02215500  0.59459798  1
  Br  Br1  1  0.24999999  0.17315200  0.99985997  1
  Br  Br2  1  0.74999996  0.21004801  0.79126998  1
  Br  Br3  1  0.24999999  0.28995201  0.29126999  1
  Br  Br4  1  0.74999996  0.32684801  0.49985999  1
  Br  Br5  1  0.74999996  0.47784501  0.09459800  1
  Br  Br6  1  0.24999999  0.52215501  0.90540198  1
  Br  Br7  1  0.24999999  0.67315202  0.50013999  1
  S  S8  1  0.74999996  0.71004802  0.70872998  1
  Br  Br9  1  0.24999999  0.78995202  0.20872999  1
  Br  Br10  1  0.74999996  0.82684802  0.00014000  1
  Br  Br11  1  0.74999996  0.97784503  0.40540199  1
  Cs  Cs12  1  0.74999996  0.07919900  0.17401200  1
  Cs  Cs13  1  0.24999999  0.42080101  0.67401198  1
  Cs  Cs14  1  0.74999996  0.57919902  0.32598799  1
  Br  Br15  1  0.24999999  0.92080102  0.82598798  1
  Bi  Bi16  1  0.24999999  0.16879800  0.43895099  1
  In  In17  1  0.74999996  0.33120201  0.93895097  1
  In  In18  1  0.24999999  0.66879802  0.06104900  1
  Bi  Bi19  1  0.74999996  0.83120202  0.56104898  1
