# generated using pymatgen
data_CsMnI3
_symmetry_space_group_name_H-M   'P 1'
_cell_length_a   7.17007399
_cell_length_b   8.06680393
_cell_length_c   8.58962250
_cell_angle_alpha   61.99381638
_cell_angle_beta   90.00000000
_cell_angle_gamma   90.00000000
_symmetry_Int_Tables_number   1
_chemical_formula_structural   CsMnI3
_chemical_formula_sum   'Cs2 Mn2 I6'
_cell_volume   438.64099482
_cell_formula_units_Z   2
loop_
 _symmetry_equiv_pos_site_id
 _symmetry_equiv_pos_as_xyz
  1  'x, y, z'
loop_
 _atom_site_type_symbol
 _atom_site_label
 _atom_site_symmetry_multiplicity
 _atom_site_fract_x
 _atom_site_fract_y
 _atom_site_fract_z
 _atom_site_occupancy
  I  I0  1  0.25000000  0.60185100  0.79629799  1
  I  I1  1  0.75000000  0.39814900  0.20370200  1
  Cs  Cs2  1  0.25000000  0.19483100  0.61033799  1
  Cs  Cs3  1  0.75000000  0.80516900  0.38966200  1
  I  I4  1  0.25000000  0.08471500  0.20069400  1
  I  I5  1  0.75000000  0.28540900  0.79930598  1
  I  I6  1  0.75000000  0.91528500  0.79930599  1
  I  I7  1  0.25000000  0.71459100  0.20069401  1
  Mn  Mn8  1  0.00000000  0.00000000  0.00000000  1
  Mn  Mn9  1  0.50000000  0.00000000  -0.00000000  1
