# generated using pymatgen
data_LuSi3Ag5
_symmetry_space_group_name_H-M   'P 1'
_cell_length_a   3.61365390
_cell_length_b   7.19904423
_cell_length_c   7.19904470
_cell_angle_alpha   119.99999237
_cell_angle_beta   90.00000000
_cell_angle_gamma   90.00000000
_symmetry_Int_Tables_number   1
_chemical_formula_structural   LuSi3Ag5
_chemical_formula_sum   'Lu1 Si3 Ag5'
_cell_volume   162.19106756
_cell_formula_units_Z   1
loop_
 _symmetry_equiv_pos_site_id
 _symmetry_equiv_pos_as_xyz
  1  'x, y, z'
loop_
 _atom_site_type_symbol
 _atom_site_label
 _atom_site_symmetry_multiplicity
 _atom_site_fract_x
 _atom_site_fract_y
 _atom_site_fract_z
 _atom_site_occupancy
  Lu  Lu0  1  0.50000001  0.60270696  -0.00000004  1
  Ag  Ag1  1  0.50000001  0.39729297  0.39729298  1
  Ag  Ag2  1  0.50000001  0.00000000  0.60270701  1
  Ag  Ag3  1  0.00000000  0.26371798  -0.00000002  1
  Ag  Ag4  1  1.00000003  0.73628195  0.73628196  1
  Ag  Ag5  1  0.00000000  0.00000000  0.26371801  1
  Si  Si6  1  0.00000000  0.33333331  0.66666666  1
  Si  Si7  1  0.00000000  0.66666662  0.33333329  1
  Si  Si8  1  0.50000001  0.00000000  -0.00000000  1
