# generated using pymatgen
data_SrGeO3
_symmetry_space_group_name_H-M   'P 1'
_cell_length_a   4.47220993
_cell_length_b   5.51394176
_cell_length_c   6.57938051
_cell_angle_alpha   90.00000000
_cell_angle_beta   107.11547852
_cell_angle_gamma   90.00000000
_symmetry_Int_Tables_number   1
_chemical_formula_structural   SrGeO3
_chemical_formula_sum   'Sr2 Ge2 O6'
_cell_volume   155.05904389
_cell_formula_units_Z   2
loop_
 _symmetry_equiv_pos_site_id
 _symmetry_equiv_pos_as_xyz
  1  'x, y, z'
loop_
 _atom_site_type_symbol
 _atom_site_label
 _atom_site_symmetry_multiplicity
 _atom_site_fract_x
 _atom_site_fract_y
 _atom_site_fract_z
 _atom_site_occupancy
  Sr  Sr0  1  0.65790201  0.25000001  0.30068199  1
  Sr  Sr1  1  0.34209800  0.75000003  0.69931799  1
  Ge  Ge2  1  0.92917001  0.25000001  0.84636299  1
  Ge  Ge3  1  0.07083000  0.75000003  0.15363700  1
  O  O4  1  0.66824101  0.75000003  0.10793500  1
  O  O5  1  0.81710601  0.49128902  0.66658799  1
  O  O6  1  0.81710601  0.00871100  0.66658799  1
  O  O7  1  0.18289400  0.99128904  0.33341200  1
  O  O8  1  0.18289400  0.50871102  0.33341200  1
  O  O9  1  0.33175900  0.25000001  0.89206499  1
