# generated using pymatgen
data_TbGa17
_symmetry_space_group_name_H-M   'P 1'
_cell_length_a   5.78620625
_cell_length_b   5.78620625
_cell_length_c   13.85229588
_cell_angle_alpha   96.09115601
_cell_angle_beta   96.09115601
_cell_angle_gamma   119.46804047
_symmetry_Int_Tables_number   1
_chemical_formula_structural   TbGa17
_chemical_formula_sum   'Tb1 Ga17'
_cell_volume   394.72883597
_cell_formula_units_Z   1
loop_
 _symmetry_equiv_pos_site_id
 _symmetry_equiv_pos_as_xyz
  1  'x, y, z'
loop_
 _atom_site_type_symbol
 _atom_site_label
 _atom_site_symmetry_multiplicity
 _atom_site_fract_x
 _atom_site_fract_y
 _atom_site_fract_z
 _atom_site_occupancy
  Ga  Ga0  1  0.91603297  0.91603297  0.83206599  1
  Ga  Ga1  1  0.08396700  0.08396700  0.16793400  1
  Ga  Ga2  1  0.74999997  0.24999999  0.50000000  1
  Ga  Ga3  1  0.91823697  0.41823699  0.83647400  1
  Ga  Ga4  1  0.08176300  0.58176298  0.16352599  1
  Ga  Ga5  1  0.41823700  0.91823697  0.83647400  1
  Ga  Ga6  1  0.58176298  0.08176300  0.16352599  1
  Ga  Ga7  1  0.25000000  0.74999997  0.50000000  1
  Ga  Ga8  1  0.16405700  0.83594297  -0.00000001  1
  Ga  Ga9  1  0.33317300  0.99922497  0.33239799  1
  Ga  Ga10  1  0.41200499  0.41200499  0.82401001  1
  Ga  Ga11  1  0.83594297  0.16405699  -0.00000001  1
  Ga  Ga12  1  0.58799498  0.58799498  0.17598999  1
  Ga  Ga13  1  0.00077501  0.66682698  0.66760201  1
  Ga  Ga14  1  0.99922496  0.33317299  0.33239799  1
  Ga  Ga15  1  0.66682697  0.00077500  0.66760200  1
  Tb  Tb16  1  0.28665599  0.28665599  0.57331200  1
  Ga  Ga17  1  0.71334398  0.71334398  0.42668799  1
