# generated using pymatgen
data_CdPS3
_symmetry_space_group_name_H-M   'P 1'
_cell_length_a   5.40542793
_cell_length_b   5.40542793
_cell_length_c   8.14642334
_cell_angle_alpha   70.62393951
_cell_angle_beta   70.62393951
_cell_angle_gamma   60.00000000
_symmetry_Int_Tables_number   1
_chemical_formula_structural   CdPS3
_chemical_formula_sum   'Cd2 P2 S6'
_cell_volume   190.41168488
_cell_formula_units_Z   2
loop_
 _symmetry_equiv_pos_site_id
 _symmetry_equiv_pos_as_xyz
  1  'x, y, z'
loop_
 _atom_site_type_symbol
 _atom_site_label
 _atom_site_symmetry_multiplicity
 _atom_site_fract_x
 _atom_site_fract_y
 _atom_site_fract_z
 _atom_site_occupancy
  Cd  Cd0  1  0.61782497  0.61782500  0.14652501  1
  Cd  Cd1  1  0.38217498  0.38217500  0.85347504  1
  P  P2  1  0.83300295  0.83300300  0.50099103  1
  P  P3  1  0.16699699  0.16699700  0.49900902  1
  S  S4  1  0.83306297  0.44881400  0.65008003  1
  S  S5  1  0.06804297  0.83306300  0.65008003  1
  S  S6  1  0.44881399  0.06804300  0.65008003  1
  S  S7  1  0.16693698  0.55118600  0.34992002  1
  S  S8  1  0.93195698  0.16693700  0.34992002  1
  S  S9  1  0.55118595  0.93195700  0.34992002  1
