# generated using pymatgen
data_SiGe(PO4)2
_symmetry_space_group_name_H-M   'P 1'
_cell_length_a   5.12521553
_cell_length_b   5.12521553
_cell_length_c   7.16700411
_cell_angle_alpha   90.00000000
_cell_angle_beta   90.00000000
_cell_angle_gamma   89.90648651
_symmetry_Int_Tables_number   1
_chemical_formula_structural   SiGe(PO4)2
_chemical_formula_sum   'Si1 Ge1 P2 O8'
_cell_volume   188.26142512
_cell_formula_units_Z   1
loop_
 _symmetry_equiv_pos_site_id
 _symmetry_equiv_pos_as_xyz
  1  'x, y, z'
loop_
 _atom_site_type_symbol
 _atom_site_label
 _atom_site_symmetry_multiplicity
 _atom_site_fract_x
 _atom_site_fract_y
 _atom_site_fract_z
 _atom_site_occupancy
  Ge  Ge0  1  0.79496102  0.20503900  0.49999999  1
  Si  Si1  1  0.20503902  0.79496101  0.99999998  1
  P  P2  1  0.29612401  0.29612400  0.25000000  1
  P  P3  1  0.70387603  0.70387601  0.74999999  1
  O  O4  1  0.57975401  0.25861300  0.31434400  1
  O  O5  1  0.42024602  0.74138701  0.81434399  1
  O  O6  1  0.74138702  0.42024601  0.68565599  1
  O  O7  1  0.25861302  0.57975401  0.18565600  1
  O  O8  1  0.11340101  0.23919000  0.41521799  1
  O  O9  1  0.88659903  0.76081001  0.91521799  1
  O  O10  1  0.76081003  0.88659901  0.58478199  1
  O  O11  1  0.23919001  0.11340100  0.08478200  1
