# generated using pymatgen
data_CsLiAgO2
_symmetry_space_group_name_H-M   'P 1'
_cell_length_a   3.81864595
_cell_length_b   3.81864595
_cell_length_c   6.29731750
_cell_angle_alpha   107.64968109
_cell_angle_beta   107.64968109
_cell_angle_gamma   90.00000000
_symmetry_Int_Tables_number   1
_chemical_formula_structural   CsLiAgO2
_chemical_formula_sum   'Cs1 Li1 Ag1 O2'
_cell_volume   82.95790615
_cell_formula_units_Z   1
loop_
 _symmetry_equiv_pos_site_id
 _symmetry_equiv_pos_as_xyz
  1  'x, y, z'
loop_
 _atom_site_type_symbol
 _atom_site_label
 _atom_site_symmetry_multiplicity
 _atom_site_fract_x
 _atom_site_fract_y
 _atom_site_fract_z
 _atom_site_occupancy
  Cs  Cs0  1  0.00000000  0.00000000  0.00000000  1
  Li  Li1  1  0.75000002  0.25000001  0.50000001  1
  Ag  Ag2  1  0.25000003  0.75000002  0.50000001  1
  O  O3  1  0.65409803  0.65409802  0.30819602  1
  O  O4  1  0.34590202  0.34590201  0.69180399  1
