# generated using pymatgen
data_Ba5Te14Mo
_symmetry_space_group_name_H-M   'P 1'
_cell_length_a   7.45033598
_cell_length_b   10.34579563
_cell_length_c   10.34579563
_cell_angle_alpha   60.28965378
_cell_angle_beta   68.89575958
_cell_angle_gamma   68.89575958
_symmetry_Int_Tables_number   1
_chemical_formula_structural   Ba5Te14Mo
_chemical_formula_sum   'Ba5 Te14 Mo1'
_cell_volume   629.72375213
_cell_formula_units_Z   1
loop_
 _symmetry_equiv_pos_site_id
 _symmetry_equiv_pos_as_xyz
  1  'x, y, z'
loop_
 _atom_site_type_symbol
 _atom_site_label
 _atom_site_symmetry_multiplicity
 _atom_site_fract_x
 _atom_site_fract_y
 _atom_site_fract_z
 _atom_site_occupancy
  Mo  Mo0  1  0.91049700  0.08950300  0.08950301  1
  Te  Te1  1  0.08950301  0.91049703  0.91049702  1
  Ba  Ba2  1  0.66561301  0.55208002  0.11669401  1
  Ba  Ba3  1  1.00000001  0.50000002  0.50000002  1
  Ba  Ba4  1  0.33438801  0.88330603  0.44791901  1
  Ba  Ba5  1  0.33438701  0.44792001  0.88330603  1
  Ba  Ba6  1  0.66561200  0.11669400  0.55208102  1
  Te  Te7  1  0.76080800  0.09714300  0.90285704  1
  Te  Te8  1  0.23919201  0.90285703  0.09714300  1
  Te  Te9  1  0.23919200  0.09714300  0.90285703  1
  Te  Te10  1  0.76080801  0.90285703  0.09714300  1
  Te  Te11  1  0.54229700  0.21246401  0.21246401  1
  Te  Te12  1  0.45770301  0.78753603  0.78753602  1
  Te  Te13  1  0.86624800  0.39458801  0.87291603  1
  Te  Te14  1  0.13375200  0.12708400  0.60541202  1
  Te  Te15  1  0.03277500  0.21246401  0.21246401  1
  Te  Te16  1  0.96722501  0.78753603  0.78753603  1
  Te  Te17  1  0.86624801  0.87291603  0.39458801  1
  Te  Te18  1  0.50000001  0.50000002  0.50000002  1
  Te  Te19  1  0.13375201  0.60541202  0.12708400  1
