# generated using pymatgen
data_InCuPt
_symmetry_space_group_name_H-M   'P 1'
_cell_length_a   4.23132420
_cell_length_b   4.23132467
_cell_length_c   6.86463881
_cell_angle_alpha   90.00000000
_cell_angle_beta   90.00000000
_cell_angle_gamma   119.99999237
_symmetry_Int_Tables_number   1
_chemical_formula_structural   InCuPt
_chemical_formula_sum   'In2 Cu2 Pt2'
_cell_volume   106.43905446
_cell_formula_units_Z   2
loop_
 _symmetry_equiv_pos_site_id
 _symmetry_equiv_pos_as_xyz
  1  'x, y, z'
loop_
 _atom_site_type_symbol
 _atom_site_label
 _atom_site_symmetry_multiplicity
 _atom_site_fract_x
 _atom_site_fract_y
 _atom_site_fract_z
 _atom_site_occupancy
  In  In0  1  0.00000000  0.00000000  0.24457101  1
  In  In1  1  0.00000000  0.00000000  0.74457102  1
  Cu  Cu2  1  0.33333330  0.66666668  0.44524101  1
  Cu  Cu3  1  0.66666663  0.33333334  0.94524103  1
  Pt  Pt4  1  0.66666663  0.33333334  0.56018802  1
  Pt  Pt5  1  0.33333330  0.66666668  0.06018800  1
