# generated using pymatgen
data_TbHO2
_symmetry_space_group_name_H-M   'P 1'
_cell_length_a   3.67079711
_cell_length_b   4.34605217
_cell_length_c   6.04936838
_cell_angle_alpha   109.68097687
_cell_angle_beta   90.00000000
_cell_angle_gamma   90.00000000
_symmetry_Int_Tables_number   1
_chemical_formula_structural   TbHO2
_chemical_formula_sum   'Tb2 H2 O4'
_cell_volume   90.87066096
_cell_formula_units_Z   2
loop_
 _symmetry_equiv_pos_site_id
 _symmetry_equiv_pos_as_xyz
  1  'x, y, z'
loop_
 _atom_site_type_symbol
 _atom_site_label
 _atom_site_symmetry_multiplicity
 _atom_site_fract_x
 _atom_site_fract_y
 _atom_site_fract_z
 _atom_site_occupancy
  Tb  Tb0  1  0.74999998  0.66379399  0.31069503  1
  Tb  Tb1  1  0.24999999  0.33620599  0.68930501  1
  H  H2  1  0.24999999  0.98610198  0.09770605  1
  H  H3  1  0.74999998  0.01389800  0.90229400  1
  O  O4  1  0.24999999  0.76492499  0.55020803  1
  O  O5  1  0.74999998  0.23507500  0.44979201  1
  O  O6  1  0.24999999  0.75099599  0.06753504  1
  O  O7  1  0.74999998  0.24900400  0.93246501  1
