# generated using pymatgen
data_BaHg11
_symmetry_space_group_name_H-M   'P 1'
_cell_length_a   5.48147488
_cell_length_b   7.31385899
_cell_length_c   10.20612812
_cell_angle_alpha   90.00000000
_cell_angle_beta   90.00000000
_cell_angle_gamma   90.00000000
_symmetry_Int_Tables_number   1
_chemical_formula_structural   BaHg11
_chemical_formula_sum   'Ba1 Hg11'
_cell_volume   409.17117051
_cell_formula_units_Z   1
loop_
 _symmetry_equiv_pos_site_id
 _symmetry_equiv_pos_as_xyz
  1  'x, y, z'
loop_
 _atom_site_type_symbol
 _atom_site_label
 _atom_site_symmetry_multiplicity
 _atom_site_fract_x
 _atom_site_fract_y
 _atom_site_fract_z
 _atom_site_occupancy
  Ba  Ba0  1  0.25000001  0.02986600  0.29772600  1
  Hg  Hg1  1  0.25000001  0.52986600  0.20227400  1
  Hg  Hg2  1  0.75000002  0.97013400  0.70227399  1
  Hg  Hg3  1  0.75000002  0.47013400  0.79772599  1
  Hg  Hg4  1  0.25000001  0.17898800  0.92970799  1
  Hg  Hg5  1  0.25000001  0.67898800  0.57029199  1
  Hg  Hg6  1  0.75000002  0.82101200  0.07029200  1
  Hg  Hg7  1  0.75000002  0.32101200  0.42970799  1
  Hg  Hg8  1  0.25000001  0.22319600  0.60642099  1
  Hg  Hg9  1  0.25000001  0.72319600  0.89357899  1
  Hg  Hg10  1  0.75000002  0.77680400  0.39357900  1
  Hg  Hg11  1  0.75000002  0.27680400  0.10642100  1
