# generated using pymatgen
data_Li4Mn3CoO8
_symmetry_space_group_name_H-M   'P 1'
_cell_length_a   5.04336500
_cell_length_b   5.95672035
_cell_length_c   5.95672035
_cell_angle_alpha   62.18630600
_cell_angle_beta   76.16199493
_cell_angle_gamma   76.16199493
_symmetry_Int_Tables_number   1
_chemical_formula_structural   Li4Mn3CoO8
_chemical_formula_sum   'Li4 Mn3 Co1 O8'
_cell_volume   151.97787885
_cell_formula_units_Z   1
loop_
 _symmetry_equiv_pos_site_id
 _symmetry_equiv_pos_as_xyz
  1  'x, y, z'
loop_
 _atom_site_type_symbol
 _atom_site_label
 _atom_site_symmetry_multiplicity
 _atom_site_fract_x
 _atom_site_fract_y
 _atom_site_fract_z
 _atom_site_occupancy
  Li  Li0  1  0.50496298  0.24780199  0.24780199  1
  Li  Li1  1  0.00000001  0.49999999  0.99999995  1
  Li  Li2  1  0.49503699  0.75219798  0.75219796  1
  Li  Li3  1  0.00000000  0.00000000  0.49999998  1
  Mn  Mn4  1  0.49999998  0.24865899  0.75134097  1
  Mn  Mn5  1  0.99999996  0.49999999  0.49999999  1
  Mn  Mn6  1  0.49999999  0.75134098  0.24865898  1
  Co  Co7  1  0.00000000  0.00000000  0.00000000  1
  O  O8  1  0.75763798  0.88466798  0.88466795  1
  O  O9  1  0.25380099  0.13333300  0.63850998  1
  O  O10  1  0.75465397  0.38534799  0.38534799  1
  O  O11  1  0.25380100  0.63850998  0.13333298  1
  O  O12  1  0.24534600  0.61465199  0.61465196  1
  O  O13  1  0.74619898  0.86666698  0.36148997  1
  O  O14  1  0.24236199  0.11533200  0.11533200  1
  O  O15  1  0.74619897  0.36148999  0.86666697  1
