# generated using pymatgen
data_P5Os7
_symmetry_space_group_name_H-M   'P 1'
_cell_length_a   5.51501799
_cell_length_b   5.51501799
_cell_length_c   6.69983768
_cell_angle_alpha   114.30403137
_cell_angle_beta   114.30403137
_cell_angle_gamma   90.00000000
_symmetry_Int_Tables_number   1
_chemical_formula_structural   P5Os7
_chemical_formula_sum   'P5 Os7'
_cell_volume   165.70157626
_cell_formula_units_Z   1
loop_
 _symmetry_equiv_pos_site_id
 _symmetry_equiv_pos_as_xyz
  1  'x, y, z'
loop_
 _atom_site_type_symbol
 _atom_site_label
 _atom_site_symmetry_multiplicity
 _atom_site_fract_x
 _atom_site_fract_y
 _atom_site_fract_z
 _atom_site_occupancy
  P  P0  1  0.50000002  0.50000001  0.00000002  1
  P  P1  1  0.25000002  0.75000001  0.50000004  1
  P  P2  1  0.00000000  0.00000000  0.00000000  1
  P  P3  1  0.75000001  0.25000000  0.50000003  1
  Os  Os4  1  0.37500002  0.89447201  0.25000004  1
  Os  Os5  1  0.87500002  0.35552901  0.25000003  1
  Os  Os6  1  0.10552901  0.62500001  0.75000004  1
  Os  Os7  1  0.64447202  0.62500101  0.75000105  1
  Os  Os8  1  0.87500003  0.89447201  0.25000104  1
  P  P9  1  0.64447201  0.12500100  0.75000103  1
  Os  Os10  1  0.10552900  0.12500000  0.75000002  1
  Os  Os11  1  0.37500001  0.35552901  0.25000002  1
