# generated using pymatgen
data_Cs3Au2Se5
_symmetry_space_group_name_H-M   'P 1'
_cell_length_a   4.42307186
_cell_length_b   8.23044395
_cell_length_c   10.20684147
_cell_angle_alpha   66.56768036
_cell_angle_beta   77.48636627
_cell_angle_gamma   74.41296387
_symmetry_Int_Tables_number   1
_chemical_formula_structural   Cs3Au2Se5
_chemical_formula_sum   'Cs3 Au2 Se5'
_cell_volume   325.84207546
_cell_formula_units_Z   1
loop_
 _symmetry_equiv_pos_site_id
 _symmetry_equiv_pos_as_xyz
  1  'x, y, z'
loop_
 _atom_site_type_symbol
 _atom_site_label
 _atom_site_symmetry_multiplicity
 _atom_site_fract_x
 _atom_site_fract_y
 _atom_site_fract_z
 _atom_site_occupancy
  Cs  Cs0  1  0.18681603  0.35641500  0.26995298  1
  Cs  Cs1  1  0.81318406  0.64358501  0.73004697  1
  Au  Au2  1  0.45083506  0.80654901  0.29178096  1
  Au  Au3  1  0.54916503  0.19345100  0.70821899  1
  Cs  Cs4  1  0.00000000  0.00000000  0.00000000  1
  Se  Se5  1  0.59612106  0.74530401  0.06245396  1
  Se  Se6  1  0.40387903  0.25469600  0.93754599  1
  Se  Se7  1  0.13158301  0.03016100  0.70667300  1
  Se  Se8  1  0.50000004  0.50000001  0.49999997  1
  Se  Se9  1  0.86841708  0.96983901  0.29332695  1
