# generated using pymatgen
data_Cs4CuHg5S8
_symmetry_space_group_name_H-M   'P 1'
_cell_length_a   7.50744200
_cell_length_b   8.46754360
_cell_length_c   9.35513306
_cell_angle_alpha   71.62425232
_cell_angle_beta   82.09226227
_cell_angle_gamma   67.75148010
_symmetry_Int_Tables_number   1
_chemical_formula_structural   Cs4CuHg5S8
_chemical_formula_sum   'Cs4 Cu1 Hg5 S8'
_cell_volume   522.24772616
_cell_formula_units_Z   1
loop_
 _symmetry_equiv_pos_site_id
 _symmetry_equiv_pos_as_xyz
  1  'x, y, z'
loop_
 _atom_site_type_symbol
 _atom_site_label
 _atom_site_symmetry_multiplicity
 _atom_site_fract_x
 _atom_site_fract_y
 _atom_site_fract_z
 _atom_site_occupancy
  Cs  Cs0  1  0.78241497  0.81168397  0.42099402  1
  Cs  Cs1  1  0.21758499  0.18831599  0.57900602  1
  Cs  Cs2  1  0.02695899  0.25277199  0.07676499  1
  Cs  Cs3  1  0.97304097  0.74722798  0.92323505  1
  Hg  Hg4  1  0.62300199  0.28097499  0.80445804  1
  Hg  Hg5  1  0.37699798  0.71902498  0.19554200  1
  Hg  Hg6  1  0.53280898  0.71240098  0.83202802  1
  Cu  Cu7  1  0.26273498  0.66815098  0.57675401  1
  Hg  Hg8  1  0.46719099  0.28759899  0.16797202  1
  Hg  Hg9  1  0.73726498  0.33184899  0.42324604  1
  S  S10  1  0.72449498  0.58141398  0.22266002  1
  S  S11  1  0.76084999  0.09096600  0.63528905  1
  S  S12  1  0.29299297  0.91418197  0.93901901  1
  S  S13  1  0.21611198  0.50171698  0.25416600  1
  S  S14  1  0.27550499  0.41858599  0.77734002  1
  S  S15  1  0.70700699  0.08581800  0.06098103  1
  S  S16  1  0.23914997  0.90903397  0.36471099  1
  S  S17  1  0.78388798  0.49828298  0.74583404  1
