# generated using pymatgen
data_Mg4GaO5
_symmetry_space_group_name_H-M   'P 1'
_cell_length_a   6.11632395
_cell_length_b   6.11632395
_cell_length_c   7.55661917
_cell_angle_alpha   90.00000000
_cell_angle_beta   90.00000000
_cell_angle_gamma   120.00000000
_symmetry_Int_Tables_number   1
_chemical_formula_structural   Mg4GaO5
_chemical_formula_sum   'Mg8 Ga2 O10'
_cell_volume   244.81562146
_cell_formula_units_Z   2
loop_
 _symmetry_equiv_pos_site_id
 _symmetry_equiv_pos_as_xyz
  1  'x, y, z'
loop_
 _atom_site_type_symbol
 _atom_site_label
 _atom_site_symmetry_multiplicity
 _atom_site_fract_x
 _atom_site_fract_y
 _atom_site_fract_z
 _atom_site_occupancy
  Mg  Mg0  1  0.00000000  0.00000000  0.49999999  1
  Ga  Ga1  1  0.66666667  0.33333334  0.42409299  1
  Ga  Ga2  1  0.33333334  0.66666668  0.57590699  1
  Mg  Mg3  1  0.84554601  0.69109201  0.84715998  1
  Mg  Mg4  1  0.84554601  0.15445500  0.84715998  1
  Mg  Mg5  1  0.30890900  0.15445500  0.84715998  1
  Mg  Mg6  1  0.69109101  0.84554501  0.15284000  1
  Mg  Mg7  1  0.15445400  0.84554501  0.15284000  1
  Mg  Mg8  1  0.15445400  0.30890800  0.15284000  1
  Mg  Mg9  1  0.50000000  0.00000000  0.00000000  1
  O  O10  1  0.50000001  0.50000001  -0.00000000  1
  O  O11  1  0.00000000  0.50000001  -0.00000000  1
  O  O12  1  0.84395001  0.68790001  0.32676499  1
  O  O13  1  0.84395001  0.15604900  0.32676499  1
  O  O14  1  0.31209900  0.15604900  0.32676499  1
  O  O15  1  0.68790101  0.84395101  0.67323499  1
  O  O16  1  0.15605000  0.84395101  0.67323499  1
  O  O17  1  0.15605000  0.31210000  0.67323499  1
  O  O18  1  0.66666667  0.33333334  0.68700698  1
  O  O19  1  0.33333334  0.66666668  0.31299299  1
