# generated using pymatgen
data_Lu4MgGaSe8
_symmetry_space_group_name_H-M   'P 1'
_cell_length_a   8.00330353
_cell_length_b   8.00330353
_cell_length_c   8.00330353
_cell_angle_alpha   60.00000000
_cell_angle_beta   60.00000000
_cell_angle_gamma   60.00000000
_symmetry_Int_Tables_number   1
_chemical_formula_structural   Lu4MgGaSe8
_chemical_formula_sum   'Lu4 Mg1 Ga1 Se8'
_cell_volume   362.48735901
_cell_formula_units_Z   1
loop_
 _symmetry_equiv_pos_site_id
 _symmetry_equiv_pos_as_xyz
  1  'x, y, z'
loop_
 _atom_site_type_symbol
 _atom_site_label
 _atom_site_symmetry_multiplicity
 _atom_site_fract_x
 _atom_site_fract_y
 _atom_site_fract_z
 _atom_site_occupancy
  Ga  Ga0  1  0.74999997  0.74999997  0.74999997  1
  Mg  Mg1  1  0.00000000  0.00000000  0.00000000  1
  Lu  Lu2  1  0.37499999  0.37499999  0.87499997  1
  Lu  Lu3  1  0.37499999  0.37499999  0.37499999  1
  Lu  Lu4  1  0.37499999  0.87499997  0.37499999  1
  Lu  Lu5  1  0.87499997  0.37499999  0.37499999  1
  Se  Se6  1  0.62041198  0.62041098  0.13876600  1
  Se  Se7  1  0.62041198  0.62041098  0.62041098  1
  Se  Se8  1  0.62041198  0.13876600  0.62041098  1
  Se  Se9  1  0.13876700  0.62041098  0.62041098  1
  Se  Se10  1  0.12958800  0.12958900  0.61123398  1
  Se  Se11  1  0.12958800  0.12958900  0.12958900  1
  Se  Se12  1  0.12958800  0.61123398  0.12958900  1
  Se  Se13  1  0.61123298  0.12958900  0.12958900  1
