# generated using pymatgen
data_ZnGeO3
_symmetry_space_group_name_H-M   'P 1'
_cell_length_a   5.26927996
_cell_length_b   6.77480555
_cell_length_c   6.77479219
_cell_angle_alpha   86.70608521
_cell_angle_beta   82.38576508
_cell_angle_gamma   82.38558960
_symmetry_Int_Tables_number   1
_chemical_formula_structural   ZnGeO3
_chemical_formula_sum   'Zn4 Ge4 O12'
_cell_volume   237.40661602
_cell_formula_units_Z   4
loop_
 _symmetry_equiv_pos_site_id
 _symmetry_equiv_pos_as_xyz
  1  'x, y, z'
loop_
 _atom_site_type_symbol
 _atom_site_label
 _atom_site_symmetry_multiplicity
 _atom_site_fract_x
 _atom_site_fract_y
 _atom_site_fract_z
 _atom_site_occupancy
  Zn  Zn0  1  0.74999897  0.27211199  0.72788797  1
  Zn  Zn1  1  0.24999799  0.72789198  0.27211003  1
  Zn  Zn2  1  0.24999999  0.09434100  0.90565898  1
  Zn  Zn3  1  0.75000197  0.90565998  0.09434203  1
  Ge  Ge4  1  0.78443197  0.39500099  0.20868699  1
  Ge  Ge5  1  0.71556698  0.79131198  0.60500101  1
  Ge  Ge6  1  0.21556099  0.60500899  0.79131302  1
  Ge  Ge7  1  0.28443999  0.20868700  0.39498699  1
  O  O8  1  0.59445298  0.29034499  0.42792499  1
  O  O9  1  0.90554597  0.57207199  0.70965499  1
  O  O10  1  0.40554799  0.70965799  0.57206902  1
  O  O11  1  0.09445200  0.42792999  0.29034302  1
  O  O12  1  0.11103700  0.14941300  0.62024599  1
  O  O13  1  0.38896399  0.37975299  0.85058899  1
  O  O14  1  0.88893197  0.85058898  0.37974501  1
  O  O15  1  0.61106798  0.62025699  0.14940901  1
  O  O16  1  0.85724697  0.21662900  0.02307198  1
  O  O17  1  0.64275198  0.97692798  0.78336802  1
  O  O18  1  0.14270200  0.78335198  0.97694103  1
  O  O19  1  0.35729999  0.02306000  0.21664798  1
