# generated using pymatgen
data_Mo11P
_symmetry_space_group_name_H-M   'P 1'
_cell_length_a   5.12384987
_cell_length_b   5.15099478
_cell_length_c   7.44716978
_cell_angle_alpha   90.00000000
_cell_angle_beta   90.00000000
_cell_angle_gamma   119.82582855
_symmetry_Int_Tables_number   1
_chemical_formula_structural   Mo11P
_chemical_formula_sum   'Mo11 P1'
_cell_volume   170.51749189
_cell_formula_units_Z   1
loop_
 _symmetry_equiv_pos_site_id
 _symmetry_equiv_pos_as_xyz
  1  'x, y, z'
loop_
 _atom_site_type_symbol
 _atom_site_label
 _atom_site_symmetry_multiplicity
 _atom_site_fract_x
 _atom_site_fract_y
 _atom_site_fract_z
 _atom_site_occupancy
  Mo  Mo0  1  0.33260102  0.66520202  0.43403201  1
  Mo  Mo1  1  0.66739902  0.33479801  0.56596802  1
  Mo  Mo2  1  0.66739902  0.33479801  0.93403203  1
  Mo  Mo3  1  0.33260102  0.66520202  0.06596800  1
  P  P4  1  0.83244202  0.16685600  0.25000001  1
  Mo  Mo5  1  0.83319203  0.66638302  0.25000001  1
  Mo  Mo6  1  0.33441501  0.16685600  0.25000001  1
  Mo  Mo7  1  0.16755802  0.83314402  0.75000002  1
  Mo  Mo8  1  0.16680801  0.33361701  0.75000002  1
  Mo  Mo9  1  0.66558503  0.83314402  0.75000002  1
  Mo  Mo10  1  0.00000000  0.00000000  0.50000001  1
  Mo  Mo11  1  0.00000000  0.00000000  0.00000000  1
