# generated using pymatgen
data_NaH5(SO5)2
_symmetry_space_group_name_H-M   'P 1'
_cell_length_a   5.42282248
_cell_length_b   5.42695999
_cell_length_c   7.46048880
_cell_angle_alpha   69.35037994
_cell_angle_beta   69.39276886
_cell_angle_gamma   72.45948029
_symmetry_Int_Tables_number   1
_chemical_formula_structural   NaH5(SO5)2
_chemical_formula_sum   'Na1 H5 S2 O10'
_cell_volume   188.32715409
_cell_formula_units_Z   1
loop_
 _symmetry_equiv_pos_site_id
 _symmetry_equiv_pos_as_xyz
  1  'x, y, z'
loop_
 _atom_site_type_symbol
 _atom_site_label
 _atom_site_symmetry_multiplicity
 _atom_site_fract_x
 _atom_site_fract_y
 _atom_site_fract_z
 _atom_site_occupancy
  Na  Na0  1  0.49981100  0.49981501  0.50058501  1
  H  H1  1  0.49856899  0.99443202  0.99925501  1
  H  H2  1  0.99430900  0.49861601  0.99930604  1
  H  H3  1  0.30016400  0.30015701  0.23343801  1
  H  H4  1  0.68832500  0.68836701  0.77390902  1
  H  H5  1  0.48449900  0.48448601  0.01078601  1
  S  S6  1  0.90381399  0.90399502  0.29556402  1
  S  S7  1  0.09358200  0.09336900  0.70579701  1
  O  O8  1  0.77781299  0.77775702  0.50389102  1
  O  O9  1  0.21971600  0.21978700  0.49709201  1
  O  O10  1  0.34098200  0.34151101  0.08680901  1
  O  O11  1  0.65004000  0.64947001  0.91943602  1
  O  O12  1  0.80790499  0.80794302  0.16642901  1
  O  O13  1  0.19111900  0.19099500  0.83349901  1
  O  O14  1  0.20414599  0.82018602  0.24837499  1
  O  O15  1  0.82000800  0.20405900  0.24857103  1
  O  O16  1  0.79354500  0.17745300  0.75372403  1
  O  O17  1  0.17765099  0.79360202  0.75353500  1
