# generated using pymatgen
data_LiV2F6
_symmetry_space_group_name_H-M   'P 1'
_cell_length_a   5.51845598
_cell_length_b   5.57439280
_cell_length_c   7.21038151
_cell_angle_alpha   72.80694580
_cell_angle_beta   72.53218842
_cell_angle_gamma   72.09665680
_symmetry_Int_Tables_number   1
_chemical_formula_structural   LiV2F6
_chemical_formula_sum   'Li2 V4 F12'
_cell_volume   196.21664441
_cell_formula_units_Z   2
loop_
 _symmetry_equiv_pos_site_id
 _symmetry_equiv_pos_as_xyz
  1  'x, y, z'
loop_
 _atom_site_type_symbol
 _atom_site_label
 _atom_site_symmetry_multiplicity
 _atom_site_fract_x
 _atom_site_fract_y
 _atom_site_fract_z
 _atom_site_occupancy
  Li  Li0  1  0.00000000  0.00000000  0.00000000  1
  V  V1  1  0.35592600  0.30177700  0.15765300  1
  Li  Li2  1  0.00000000  0.00000000  0.49999999  1
  V  V3  1  0.35539700  0.34692100  0.67195299  1
  V  V4  1  0.64460300  0.65307900  0.32804699  1
  V  V5  1  0.64407400  0.69822300  0.84234698  1
  F  F6  1  0.69387500  0.30779200  0.49873599  1
  F  F7  1  0.10704500  0.09697600  0.20469000  1
  F  F8  1  0.44203100  0.44415700  0.87069698  1
  F  F9  1  0.55796900  0.55584300  0.12930299  1
  F  F10  1  0.89295500  0.90302401  0.79530998  1
  F  F11  1  0.30612500  0.69220800  0.50126398  1
  F  F12  1  0.64517300  0.00645100  0.17382801  1
  F  F13  1  0.35482700  0.99354901  0.82617197  1
  F  F14  1  0.02697900  0.60567700  0.18231899  1
  F  F15  1  0.75622500  0.75795500  0.53369099  1
  F  F16  1  0.24377500  0.24204500  0.46630899  1
  F  F17  1  0.97302100  0.39432300  0.81768099  1
