# generated using pymatgen
data_BaSr(BiO3)2
_symmetry_space_group_name_H-M   'P 1'
_cell_length_a   5.94929123
_cell_length_b   6.10961390
_cell_length_c   8.46987820
_cell_angle_alpha   90.00000000
_cell_angle_beta   90.00000000
_cell_angle_gamma   90.00000000
_symmetry_Int_Tables_number   1
_chemical_formula_structural   BaSr(BiO3)2
_chemical_formula_sum   'Ba2 Sr2 Bi4 O12'
_cell_volume   307.86205162
_cell_formula_units_Z   2
loop_
 _symmetry_equiv_pos_site_id
 _symmetry_equiv_pos_as_xyz
  1  'x, y, z'
loop_
 _atom_site_type_symbol
 _atom_site_label
 _atom_site_symmetry_multiplicity
 _atom_site_fract_x
 _atom_site_fract_y
 _atom_site_fract_z
 _atom_site_occupancy
  Ba  Ba0  1  0.48677398  0.05154000  0.74999998  1
  Sr  Sr1  1  0.98677396  0.44846001  0.24999999  1
  Ba  Ba2  1  0.51322598  0.94846002  0.24999999  1
  Sr  Sr3  1  0.01322600  0.55154001  0.74999998  1
  Bi  Bi4  1  0.00000000  0.00000000  0.49999999  1
  Bi  Bi5  1  0.49999998  0.50000001  -0.00000000  1
  Bi  Bi6  1  0.49999998  0.50000001  0.49999999  1
  Bi  Bi7  1  0.00000000  0.00000000  0.00000000  1
  O  O8  1  0.60207298  0.45838601  0.74999998  1
  O  O9  1  0.30084999  0.79748701  0.94641398  1
  O  O10  1  0.10207300  0.04161400  0.24999999  1
  O  O11  1  0.19914999  0.29748701  0.94641398  1
  O  O12  1  0.30084999  0.79748701  0.55358599  1
  O  O13  1  0.89792697  0.95838602  0.74999998  1
  O  O14  1  0.80084997  0.70251301  0.05358600  1
  O  O15  1  0.69914997  0.20251300  0.05358600  1
  O  O16  1  0.39792698  0.54161401  0.24999999  1
  O  O17  1  0.80084997  0.70251301  0.44641399  1
  O  O18  1  0.69914997  0.20251300  0.44641399  1
  O  O19  1  0.19914999  0.29748701  0.55358599  1
