# generated using pymatgen
data_BaEuMgRuO6
_symmetry_space_group_name_H-M   'P 1'
_cell_length_a   5.51448202
_cell_length_b   5.80606174
_cell_length_c   5.51448202
_cell_angle_alpha   61.64780807
_cell_angle_beta   90.00000000
_cell_angle_gamma   118.35219574
_symmetry_Int_Tables_number   1
_chemical_formula_structural   BaEuMgRuO6
_chemical_formula_sum   'Ba1 Eu1 Mg1 Ru1 O6'
_cell_volume   130.81603461
_cell_formula_units_Z   1
loop_
 _symmetry_equiv_pos_site_id
 _symmetry_equiv_pos_as_xyz
  1  'x, y, z'
loop_
 _atom_site_type_symbol
 _atom_site_label
 _atom_site_symmetry_multiplicity
 _atom_site_fract_x
 _atom_site_fract_y
 _atom_site_fract_z
 _atom_site_occupancy
  Ba  Ba0  1  0.00000000  0.00000000  0.00000000  1
  Eu  Eu1  1  0.50000000  0.00000000  0.50000000  1
  Mg  Mg2  1  0.75000003  0.50000000  0.75000000  1
  Ru  Ru3  1  0.25000003  0.50000000  0.25000000  1
  O  O4  1  0.48210505  0.96420999  0.01789500  1
  O  O5  1  0.47199003  0.55312600  0.92493900  1
  O  O6  1  0.52193502  0.44687300  0.47199100  1
  O  O7  1  0.01789500  0.03579000  0.48210500  1
  O  O8  1  0.92493902  0.44687500  0.08113500  1
  O  O9  1  0.08113603  0.55312600  0.52193500  1
