# generated using pymatgen
data_Tb4Ge7Au
_symmetry_space_group_name_H-M   'P 1'
_cell_length_a   4.47007322
_cell_length_b   7.11044407
_cell_length_c   7.97878218
_cell_angle_alpha   90.00000000
_cell_angle_beta   90.00000000
_cell_angle_gamma   90.00000000
_symmetry_Int_Tables_number   1
_chemical_formula_structural   Tb4Ge7Au
_chemical_formula_sum   'Tb4 Ge7 Au1'
_cell_volume   253.59925344
_cell_formula_units_Z   1
loop_
 _symmetry_equiv_pos_site_id
 _symmetry_equiv_pos_as_xyz
  1  'x, y, z'
loop_
 _atom_site_type_symbol
 _atom_site_label
 _atom_site_symmetry_multiplicity
 _atom_site_fract_x
 _atom_site_fract_y
 _atom_site_fract_z
 _atom_site_occupancy
  Tb  Tb0  1  0.24999999  0.51218800  0.18843400  1
  Tb  Tb1  1  0.74999996  0.48781200  0.81156598  1
  Tb  Tb2  1  0.74999996  0.98781199  0.68843398  1
  Tb  Tb3  1  0.24999999  0.01218800  0.31156599  1
  Ge  Ge4  1  0.24999999  0.67474499  0.58838699  1
  Ge  Ge5  1  0.74999996  0.32525500  0.41161299  1
  Ge  Ge6  1  0.74999996  0.82525499  0.08838700  1
  Ge  Ge7  1  0.24999999  0.17474500  0.91161298  1
  Ge  Ge8  1  0.24999999  0.78608199  0.90871198  1
  Ge  Ge9  1  0.74999996  0.21391800  0.09128800  1
  Ge  Ge10  1  0.74999996  0.71391799  0.40871199  1
  Au  Au11  1  0.24999999  0.28608200  0.59128799  1
