# generated using pymatgen
data_Co2Ge
_symmetry_space_group_name_H-M   'P 1'
_cell_length_a   3.95365405
_cell_length_b   3.95365405
_cell_length_c   14.24769402
_cell_angle_alpha   97.97535706
_cell_angle_beta   97.97535706
_cell_angle_gamma   90.00000000
_symmetry_Int_Tables_number   1
_chemical_formula_structural   Co2Ge
_chemical_formula_sum   'Co10 Ge5'
_cell_volume   218.38168027
_cell_formula_units_Z   5
loop_
 _symmetry_equiv_pos_site_id
 _symmetry_equiv_pos_as_xyz
  1  'x, y, z'
loop_
 _atom_site_type_symbol
 _atom_site_label
 _atom_site_symmetry_multiplicity
 _atom_site_fract_x
 _atom_site_fract_y
 _atom_site_fract_z
 _atom_site_occupancy
  Ge  Ge0  1  0.00000000  0.00000000  0.00000000  1
  Ge  Ge1  1  0.40128800  0.40128800  0.80257602  1
  Ge  Ge2  1  0.80037400  0.80037399  0.60074802  1
  Ge  Ge3  1  0.19962600  0.19962600  0.39925201  1
  Ge  Ge4  1  0.59871200  0.59871199  0.19742401  1
  Co  Co5  1  0.14925600  0.64925599  0.29851201  1
  Co  Co6  1  0.54868199  0.04868200  0.09736401  1
  Co  Co7  1  0.95131799  0.45131800  0.90263602  1
  Co  Co8  1  0.35074400  0.85074399  0.70148802  1
  Co  Co9  1  0.74999999  0.25000000  0.50000001  1
  Co  Co10  1  0.04868200  0.54868199  0.09736401  1
  Co  Co11  1  0.45131800  0.95131799  0.90263602  1
  Co  Co12  1  0.85074399  0.35074400  0.70148802  1
  Co  Co13  1  0.25000000  0.74999999  0.50000001  1
  Co  Co14  1  0.64925599  0.14925600  0.29851201  1
