# generated using pymatgen
data_Nd(GaCo)4
_symmetry_space_group_name_H-M   'P 1'
_cell_length_a   4.00315809
_cell_length_b   8.93496227
_cell_length_c   8.93496323
_cell_angle_alpha   120.00000000
_cell_angle_beta   90.00000000
_cell_angle_gamma   90.00000000
_symmetry_Int_Tables_number   1
_chemical_formula_structural   Nd(GaCo)4
_chemical_formula_sum   'Nd2 Ga8 Co8'
_cell_volume   276.76990569
_cell_formula_units_Z   2
loop_
 _symmetry_equiv_pos_site_id
 _symmetry_equiv_pos_as_xyz
  1  'x, y, z'
loop_
 _atom_site_type_symbol
 _atom_site_label
 _atom_site_symmetry_multiplicity
 _atom_site_fract_x
 _atom_site_fract_y
 _atom_site_fract_z
 _atom_site_occupancy
  Co  Co0  1  0.00000000  0.00000000  0.00000000  1
  Nd  Nd1  1  0.49999999  0.33333333  0.66666665  1
  Nd  Nd2  1  0.49999999  0.66666667  0.33333336  1
  Ga  Ga3  1  0.99999998  0.50000000  0.00000003  1
  Ga  Ga4  1  0.99999998  0.50000000  0.50000001  1
  Ga  Ga5  1  0.00000000  0.00000000  0.49999998  1
  Ga  Ga6  1  0.49999999  0.29576400  0.00000002  1
  Ga  Ga7  1  0.49999999  0.70423600  0.70423601  1
  Ga  Ga8  1  0.49999999  0.00000000  0.29576399  1
  Co  Co9  1  0.49999999  0.70423600  0.00000004  1
  Ga  Ga10  1  0.49999999  0.29576400  0.29576400  1
  Ga  Ga11  1  0.49999999  0.00000000  0.70423597  1
  Co  Co12  1  0.99999998  0.18139200  0.36278399  1
  Co  Co13  1  0.99999998  0.18139200  0.81860797  1
  Co  Co14  1  0.99999998  0.63721600  0.81860800  1
  Co  Co15  1  0.99999998  0.81860800  0.63721602  1
  Co  Co16  1  0.99999998  0.36278400  0.18139201  1
  Co  Co17  1  0.99999998  0.81860800  0.18139204  1
