# generated using pymatgen
data_InCo4TeS
_symmetry_space_group_name_H-M   'P 1'
_cell_length_a   5.43680906
_cell_length_b   5.43680906
_cell_length_c   5.43680859
_cell_angle_alpha   61.25181580
_cell_angle_beta   61.25181580
_cell_angle_gamma   61.25182343
_symmetry_Int_Tables_number   1
_chemical_formula_structural   InCo4TeS
_chemical_formula_sum   'In1 Co4 Te1 S1'
_cell_volume   116.83503670
_cell_formula_units_Z   1
loop_
 _symmetry_equiv_pos_site_id
 _symmetry_equiv_pos_as_xyz
  1  'x, y, z'
loop_
 _atom_site_type_symbol
 _atom_site_label
 _atom_site_symmetry_multiplicity
 _atom_site_fract_x
 _atom_site_fract_y
 _atom_site_fract_z
 _atom_site_occupancy
  Co  Co0  1  0.50000000  0.49999999  0.00000002  1
  Co  Co1  1  0.00000001  0.49999999  0.50000002  1
  Co  Co2  1  0.49999999  0.00000000  0.50000002  1
  In  In3  1  0.00000000  0.00000000  0.00000000  1
  Te  Te4  1  0.50000000  0.49999999  0.50000003  1
  Co  Co5  1  0.77937801  0.77937799  0.77937804  1
  S  S6  1  0.22062200  0.22062200  0.22062201  1
