# generated using pymatgen
data_CsAu5
_symmetry_space_group_name_H-M   'P 1'
_cell_length_a   4.57215214
_cell_length_b   5.52753210
_cell_length_c   5.60920763
_cell_angle_alpha   60.48051453
_cell_angle_beta   90.00000000
_cell_angle_gamma   90.00000000
_symmetry_Int_Tables_number   1
_chemical_formula_structural   CsAu5
_chemical_formula_sum   'Cs1 Au5'
_cell_volume   123.35780758
_cell_formula_units_Z   1
loop_
 _symmetry_equiv_pos_site_id
 _symmetry_equiv_pos_as_xyz
  1  'x, y, z'
loop_
 _atom_site_type_symbol
 _atom_site_label
 _atom_site_symmetry_multiplicity
 _atom_site_fract_x
 _atom_site_fract_y
 _atom_site_fract_z
 _atom_site_occupancy
  Cs  Cs0  1  0.00000000  0.00000000  0.00000000  1
  Au  Au1  1  0.49999998  0.00000000  0.49999998  1
  Au  Au2  1  0.49999998  0.49999999  0.49999998  1
  Au  Au3  1  0.99999997  0.67509899  0.64980197  1
  Au  Au4  1  0.99999997  0.32490099  0.35019798  1
  Au  Au5  1  0.49999998  0.49999999  0.99999996  1
