# generated using pymatgen
data_Tb5(ReO6)2
_symmetry_space_group_name_H-M   'P 1'
_cell_length_a   5.64548779
_cell_length_b   6.78888273
_cell_length_c   7.49284363
_cell_angle_alpha   106.23166656
_cell_angle_beta   90.00000000
_cell_angle_gamma   114.56902313
_symmetry_Int_Tables_number   1
_chemical_formula_structural   Tb5(ReO6)2
_chemical_formula_sum   'Tb5 Re2 O12'
_cell_volume   248.53271879
_cell_formula_units_Z   1
loop_
 _symmetry_equiv_pos_site_id
 _symmetry_equiv_pos_as_xyz
  1  'x, y, z'
loop_
 _atom_site_type_symbol
 _atom_site_label
 _atom_site_symmetry_multiplicity
 _atom_site_fract_x
 _atom_site_fract_y
 _atom_site_fract_z
 _atom_site_occupancy
  Tb  Tb0  1  0.30289997  0.60579997  0.63948801  1
  Tb  Tb1  1  0.69710000  0.39419998  0.36051200  1
  Tb  Tb2  1  0.31391897  0.62783796  0.17545900  1
  Tb  Tb3  1  0.68608100  0.37216198  0.82454102  1
  Tb  Tb4  1  0.00000000  0.00000000  0.50000001  1
  Re  Re5  1  0.21453101  0.00000000  0.00000000  1
  Re  Re6  1  0.78546903  0.00000000  0.00000000  1
  O  O7  1  0.99943898  0.99887794  0.20792800  1
  O  O8  1  0.00056100  0.00112200  0.79207202  1
  O  O9  1  0.42085400  0.33272298  0.08666200  1
  O  O10  1  0.57914598  0.66727696  0.91333801  1
  O  O11  1  0.08813096  0.66727696  0.91333801  1
  O  O12  1  0.91186901  0.33272298  0.08666200  1
  O  O13  1  0.50066702  0.00133400  0.17966400  1
  O  O14  1  0.49933296  0.99866594  0.82033601  1
  O  O15  1  0.59403598  0.69232896  0.42583800  1
  O  O16  1  0.40596400  0.30767098  0.57416201  1
  O  O17  1  0.90170702  0.30767098  0.57416201  1
  O  O18  1  0.09829296  0.69232896  0.42583800  1
