# generated using pymatgen
data_BaLa2O4
_symmetry_space_group_name_H-M   'P 1'
_cell_length_a   7.50256872
_cell_length_b   7.56686592
_cell_length_c   7.56688738
_cell_angle_alpha   119.25770569
_cell_angle_beta   119.71735382
_cell_angle_gamma   60.28493500
_symmetry_Int_Tables_number   1
_chemical_formula_structural   BaLa2O4
_chemical_formula_sum   'Ba2 La4 O8'
_cell_volume   306.74406182
_cell_formula_units_Z   2
loop_
 _symmetry_equiv_pos_site_id
 _symmetry_equiv_pos_as_xyz
  1  'x, y, z'
loop_
 _atom_site_type_symbol
 _atom_site_label
 _atom_site_symmetry_multiplicity
 _atom_site_fract_x
 _atom_site_fract_y
 _atom_site_fract_z
 _atom_site_occupancy
  Ba  Ba0  1  0.50014899  0.49996999  0.49999298  1
  Ba  Ba1  1  0.50012896  0.99996799  0.00001695  1
  La  La2  1  0.12363497  0.62629399  0.87369499  1
  La  La3  1  0.87621000  0.37374499  0.12625498  1
  La  La4  1  0.00025395  0.99983099  0.50022696  1
  La  La5  1  0.49970701  0.00022900  0.49984401  1
  O  O6  1  0.24557999  0.21994400  0.71109100  1
  O  O7  1  0.27076799  0.22937600  0.27061299  1
  O  O8  1  0.77059100  0.22920500  0.27077199  1
  O  O9  1  0.75442000  0.21105500  0.71989700  1
  O  O10  1  0.22958097  0.77057499  0.72934898  1
  O  O11  1  0.24558397  0.78891399  0.28008497  1
  O  O12  1  0.75439698  0.78010799  0.28894097  1
  O  O13  1  0.72899498  0.77078599  0.72922597  1
