# generated using pymatgen
data_MoS
_symmetry_space_group_name_H-M   'P 1'
_cell_length_a   3.06317902
_cell_length_b   5.33456421
_cell_length_c   5.94818878
_cell_angle_alpha   90.00000000
_cell_angle_beta   90.00000000
_cell_angle_gamma   90.00000000
_symmetry_Int_Tables_number   1
_chemical_formula_structural   MoS
_chemical_formula_sum   'Mo4 S4'
_cell_volume   97.19771799
_cell_formula_units_Z   4
loop_
 _symmetry_equiv_pos_site_id
 _symmetry_equiv_pos_as_xyz
  1  'x, y, z'
loop_
 _atom_site_type_symbol
 _atom_site_label
 _atom_site_symmetry_multiplicity
 _atom_site_fract_x
 _atom_site_fract_y
 _atom_site_fract_z
 _atom_site_occupancy
  Mo  Mo0  1  0.25000000  0.50885298  0.69007703  1
  Mo  Mo1  1  0.75000000  0.49114698  0.30992301  1
  Mo  Mo2  1  0.25000000  0.00885300  0.80992303  1
  Mo  Mo3  1  0.75000000  0.99114696  0.19007701  1
  S  S4  1  0.25000000  0.68268297  0.06444600  1
  S  S5  1  0.75000000  0.31731699  0.93555403  1
  S  S6  1  0.25000000  0.18268299  0.43555402  1
  S  S7  1  0.75000000  0.81731697  0.56444602  1
