# generated using pymatgen
data_Ba(AgO)2
_symmetry_space_group_name_H-M   'P 1'
_cell_length_a   6.00139189
_cell_length_b   6.90744638
_cell_length_c   6.00139189
_cell_angle_alpha   115.74805450
_cell_angle_beta   90.00000000
_cell_angle_gamma   115.74805450
_symmetry_Int_Tables_number   1
_chemical_formula_structural   Ba(AgO)2
_chemical_formula_sum   'Ba2 Ag4 O4'
_cell_volume   196.29752219
_cell_formula_units_Z   2
loop_
 _symmetry_equiv_pos_site_id
 _symmetry_equiv_pos_as_xyz
  1  'x, y, z'
loop_
 _atom_site_type_symbol
 _atom_site_label
 _atom_site_symmetry_multiplicity
 _atom_site_fract_x
 _atom_site_fract_y
 _atom_site_fract_z
 _atom_site_occupancy
  Ba  Ba0  1  0.50000001  0.00000000  0.50000001  1
  Ba  Ba1  1  0.75000002  0.50000000  0.25000001  1
  Ag  Ag2  1  0.62500002  0.75000000  0.87500003  1
  Ag  Ag3  1  0.12500001  0.25000000  0.37500001  1
  Ag  Ag4  1  0.12500001  0.25000000  0.87500002  1
  Ag  Ag5  1  0.12500001  0.75000000  0.87500003  1
  O  O6  1  0.98998003  0.97996000  0.48998002  1
  O  O7  1  0.73998002  0.47996000  0.73998002  1
  O  O8  1  0.26002001  0.52004000  0.26002001  1
  O  O9  1  0.51002001  0.02004000  0.01002000  1
