# generated using pymatgen
data_Li(GeO2)3
_symmetry_space_group_name_H-M   'P 1'
_cell_length_a   5.23801422
_cell_length_b   6.69370890
_cell_length_c   6.69370890
_cell_angle_alpha   86.09044647
_cell_angle_beta   81.49480438
_cell_angle_gamma   81.49480438
_symmetry_Int_Tables_number   1
_chemical_formula_structural   Li(GeO2)3
_chemical_formula_sum   'Li2 Ge6 O12'
_cell_volume   229.30197890
_cell_formula_units_Z   2
loop_
 _symmetry_equiv_pos_site_id
 _symmetry_equiv_pos_as_xyz
  1  'x, y, z'
loop_
 _atom_site_type_symbol
 _atom_site_label
 _atom_site_symmetry_multiplicity
 _atom_site_fract_x
 _atom_site_fract_y
 _atom_site_fract_z
 _atom_site_occupancy
  Li  Li0  1  0.25000003  0.90614899  0.09385100  1
  Li  Li1  1  0.75000000  0.73012099  0.26987901  1
  Ge  Ge2  1  0.74999998  0.09385100  0.90614901  1
  Ge  Ge3  1  0.25000000  0.26987900  0.73012100  1
  Ge  Ge4  1  0.78488098  0.20436600  0.39464702  1
  Ge  Ge5  1  0.28488101  0.39464699  0.20436600  1
  Ge  Ge6  1  0.71511900  0.60535299  0.79563401  1
  Ge  Ge7  1  0.21511902  0.79563399  0.60535299  1
  O  O8  1  0.08969501  0.28950800  0.42854500  1
  O  O9  1  0.41030501  0.57145499  0.71049200  1
  O  O10  1  0.61593798  0.13588400  0.62734501  1
  O  O11  1  0.86465997  0.02257200  0.20726302  1
  O  O12  1  0.36465999  0.20726300  0.02257201  1
  O  O13  1  0.91030499  0.71049199  0.57145501  1
  O  O14  1  0.58969500  0.42854499  0.28950801  1
  O  O15  1  0.88406198  0.37265500  0.86411601  1
  O  O16  1  0.11593802  0.62734499  0.13588400  1
  O  O17  1  0.13534003  0.97742799  0.79273699  1
  O  O18  1  0.63534001  0.79273699  0.97742800  1
  O  O19  1  0.38406202  0.86411599  0.37265500  1
