# generated using pymatgen
data_Hg
_symmetry_space_group_name_H-M   'P 1'
_cell_length_a   4.68244410
_cell_length_b   4.68244410
_cell_length_c   5.87826633
_cell_angle_alpha   113.47097778
_cell_angle_beta   113.47097778
_cell_angle_gamma   90.00000000
_symmetry_Int_Tables_number   1
_chemical_formula_structural   Hg
_chemical_formula_sum   Hg4
_cell_volume   106.49317900
_cell_formula_units_Z   4
loop_
 _symmetry_equiv_pos_site_id
 _symmetry_equiv_pos_as_xyz
  1  'x, y, z'
loop_
 _atom_site_type_symbol
 _atom_site_label
 _atom_site_symmetry_multiplicity
 _atom_site_fract_x
 _atom_site_fract_y
 _atom_site_fract_z
 _atom_site_occupancy
  Hg  Hg0  1  0.00000000  0.00000000  0.00000000  1
  Hg  Hg1  1  0.75000001  0.25000000  0.50000003  1
  Hg  Hg2  1  0.25000004  0.75000001  0.50000004  1
  Hg  Hg3  1  0.50000003  0.50000001  0.00000005  1
