# generated using pymatgen
data_Ga
_symmetry_space_group_name_H-M   'P 1'
_cell_length_a   4.24582195
_cell_length_b   5.77263880
_cell_length_c   11.27670765
_cell_angle_alpha   90.00000000
_cell_angle_beta   90.00000000
_cell_angle_gamma   90.00000000
_symmetry_Int_Tables_number   1
_chemical_formula_structural   Ga
_chemical_formula_sum   Ga16
_cell_volume   276.38755471
_cell_formula_units_Z   16
loop_
 _symmetry_equiv_pos_site_id
 _symmetry_equiv_pos_as_xyz
  1  'x, y, z'
loop_
 _atom_site_type_symbol
 _atom_site_label
 _atom_site_symmetry_multiplicity
 _atom_site_fract_x
 _atom_site_fract_y
 _atom_site_fract_z
 _atom_site_occupancy
  Ga  Ga0  1  0.50000001  0.31767501  0.85921003  1
  Ga  Ga1  1  0.50000001  0.81767503  0.64079002  1
  Ga  Ga2  1  0.00000000  0.50000002  0.50000002  1
  Ga  Ga3  1  0.00000000  0.00000000  0.00000000  1
  Ga  Ga4  1  0.50000001  0.68232502  0.14079000  1
  Ga  Ga5  1  0.50000001  0.18232501  0.35921001  1
  Ga  Ga6  1  0.50000001  0.70663202  0.38675001  1
  Ga  Ga7  1  0.50000001  0.29336801  0.61325002  1
  Ga  Ga8  1  0.00000000  0.06069100  0.75663602  1
  Ga  Ga9  1  0.50000001  0.79336803  0.88675003  1
  Ga  Ga10  1  0.00000000  0.43930902  0.25663601  1
  Ga  Ga11  1  0.00000000  0.93930903  0.24336401  1
  Ga  Ga12  1  0.00000000  0.56069102  0.74336402  1
  Ga  Ga13  1  0.00000000  0.50000002  -0.00000000  1
  Ga  Ga14  1  0.00000000  0.00000000  0.50000002  1
  Ga  Ga15  1  0.50000001  0.20663201  0.11325000  1
