# generated using pymatgen
data_LiMnF4
_symmetry_space_group_name_H-M   'P 1'
_cell_length_a   4.80821419
_cell_length_b   4.80821085
_cell_length_c   8.96990776
_cell_angle_alpha   89.99993134
_cell_angle_beta   89.99983215
_cell_angle_gamma   89.99645233
_symmetry_Int_Tables_number   1
_chemical_formula_structural   LiMnF4
_chemical_formula_sum   'Li3 Mn3 F12'
_cell_volume   207.37446852
_cell_formula_units_Z   3
loop_
 _symmetry_equiv_pos_site_id
 _symmetry_equiv_pos_as_xyz
  1  'x, y, z'
loop_
 _atom_site_type_symbol
 _atom_site_label
 _atom_site_symmetry_multiplicity
 _atom_site_fract_x
 _atom_site_fract_y
 _atom_site_fract_z
 _atom_site_occupancy
  Mn  Mn0  1  0.99999602  0.99999003  0.33484799  1
  Li  Li1  1  0.50000601  0.50000902  0.16524499  1
  Li  Li2  1  0.99998796  0.00002100  0.66509400  1
  Li  Li3  1  0.49999601  0.50001602  0.83488101  1
  Mn  Mn4  1  0.00000206  0.99999703  0.00008699  1
  Mn  Mn5  1  0.49999801  0.49999702  0.49990900  1
  F  F6  1  0.69949501  0.69949302  0.00021998  1
  F  F7  1  0.30050901  0.30050001  0.00021999  1
  F  F8  1  0.19949004  0.80050603  0.49976400  1
  F  F9  1  0.80051198  0.19948901  0.49976300  1
  F  F10  1  0.68433401  0.68432902  0.66477600  1
  F  F11  1  0.31560701  0.31560501  0.33509300  1
  F  F12  1  0.31566801  0.31566501  0.66477901  1
  F  F13  1  0.18436804  0.81562803  0.16490799  1
  F  F14  1  0.18433904  0.81566103  0.83520501  1
  F  F15  1  0.68439601  0.68439402  0.33509399  1
  F  F16  1  0.81566098  0.18433601  0.83520701  1
  F  F17  1  0.81563398  0.18436401  0.16490699  1
