# generated using pymatgen
data_Li4VF8
_symmetry_space_group_name_H-M   'P 1'
_cell_length_a   5.17624617
_cell_length_b   5.27266550
_cell_length_c   6.08210516
_cell_angle_alpha   90.00000000
_cell_angle_beta   90.00000000
_cell_angle_gamma   112.12158203
_symmetry_Int_Tables_number   1
_chemical_formula_structural   Li4VF8
_chemical_formula_sum   'Li4 V1 F8'
_cell_volume   153.77702289
_cell_formula_units_Z   1
loop_
 _symmetry_equiv_pos_site_id
 _symmetry_equiv_pos_as_xyz
  1  'x, y, z'
loop_
 _atom_site_type_symbol
 _atom_site_label
 _atom_site_symmetry_multiplicity
 _atom_site_fract_x
 _atom_site_fract_y
 _atom_site_fract_z
 _atom_site_occupancy
  Li  Li0  1  -0.00000003  0.50000000  0.18469900  1
  Li  Li1  1  0.49999996  0.50000000  0.99212497  1
  Li  Li2  1  0.49999998  0.00000000  0.23583899  1
  Li  Li3  1  0.49999998  0.00000000  0.78973898  1
  V  V4  1  0.49999996  0.50000000  0.50401199  1
  F  F5  1  0.29515295  0.73294100  0.48967499  1
  F  F6  1  0.30129395  0.73838600  0.01834800  1
  F  F7  1  0.26239398  0.28373900  0.28133999  1
  F  F8  1  0.28632998  0.26677500  0.72067198  1
  F  F9  1  0.71366994  0.73322500  0.72067198  1
  F  F10  1  0.73760594  0.71626100  0.28133999  1
  F  F11  1  0.69870596  0.26161400  0.01834800  1
  F  F12  1  0.70484696  0.26705900  0.48967499  1
