# generated using pymatgen
data_Sr2HoMoO6
_symmetry_space_group_name_H-M   'P 1'
_cell_length_a   5.78226185
_cell_length_b   5.94791794
_cell_length_c   8.30025196
_cell_angle_alpha   89.89564514
_cell_angle_beta   90.17671204
_cell_angle_gamma   89.81841278
_symmetry_Int_Tables_number   1
_chemical_formula_structural   Sr2HoMoO6
_chemical_formula_sum   'Sr4 Ho2 Mo2 O12'
_cell_volume   285.46247304
_cell_formula_units_Z   2
loop_
 _symmetry_equiv_pos_site_id
 _symmetry_equiv_pos_as_xyz
  1  'x, y, z'
loop_
 _atom_site_type_symbol
 _atom_site_label
 _atom_site_symmetry_multiplicity
 _atom_site_fract_x
 _atom_site_fract_y
 _atom_site_fract_z
 _atom_site_occupancy
  Sr  Sr0  1  0.48766100  0.54773800  0.25118800  1
  Sr  Sr1  1  0.99130800  0.95298201  0.75288400  1
  Ho  Ho2  1  0.00058301  0.50338700  0.50165599  1
  Ho  Ho3  1  0.50093801  0.99531901  0.99768799  1
  Sr  Sr4  1  0.51226700  0.44598700  0.75028900  1
  Sr  Sr5  1  0.01408000  0.05186900  0.24980000  1
  Mo  Mo6  1  0.49936601  0.99919801  0.50333700  1
  Mo  Mo7  1  0.00045501  0.50044800  0.99726399  1
  O  O8  1  0.16844302  0.78846501  0.05657500  1
  O  O9  1  0.66951800  0.71156701  0.55942100  1
  O  O10  1  0.82230398  0.21754500  0.93828200  1
  O  O11  1  0.31805600  0.27930200  0.44732200  1
  O  O12  1  0.61122301  0.97064701  0.27119200  1
  O  O13  1  0.11079101  0.54722000  0.76846399  1
  O  O14  1  0.38975899  0.04023300  0.73213500  1
  O  O15  1  0.90947799  0.45632500  0.23044801  1
  O  O16  1  0.21518802  0.82120001  0.44468600  1
  O  O17  1  0.71507200  0.67804201  0.94406900  1
  O  O18  1  0.78217698  0.18129500  0.55813000  1
  O  O19  1  0.28133300  0.31123000  0.04517100  1
