# generated using pymatgen
data_Mg2Ga
_symmetry_space_group_name_H-M   'P 1'
_cell_length_a   3.35807300
_cell_length_b   7.95176220
_cell_length_c   7.95176220
_cell_angle_alpha   120.00000000
_cell_angle_beta   90.00000000
_cell_angle_gamma   90.00000000
_symmetry_Int_Tables_number   1
_chemical_formula_structural   Mg2Ga
_chemical_formula_sum   'Mg6 Ga3'
_cell_volume   183.88551980
_cell_formula_units_Z   3
loop_
 _symmetry_equiv_pos_site_id
 _symmetry_equiv_pos_as_xyz
  1  'x, y, z'
loop_
 _atom_site_type_symbol
 _atom_site_label
 _atom_site_symmetry_multiplicity
 _atom_site_fract_x
 _atom_site_fract_y
 _atom_site_fract_z
 _atom_site_occupancy
  Mg  Mg0  1  -0.00000000  0.74503698  0.74503700  1
  Mg  Mg1  1  0.00000000  0.25496299  0.00000000  1
  Mg  Mg2  1  0.00000000  0.00000000  0.25496300  1
  Mg  Mg3  1  0.50000000  0.40182199  0.40182200  1
  Mg  Mg4  1  0.50000000  0.59817799  0.00000000  1
  Mg  Mg5  1  0.50000000  0.00000000  0.59817799  1
  Ga  Ga6  1  0.00000000  0.33333333  0.66666666  1
  Ga  Ga7  1  0.00000000  0.66666665  0.33333333  1
  Ga  Ga8  1  0.50000000  0.00000000  -0.00000000  1
