# generated using pymatgen
data_BaMo8ClO8
_symmetry_space_group_name_H-M   'P 1'
_cell_length_a   6.40138006
_cell_length_b   7.63984537
_cell_length_c   7.63984537
_cell_angle_alpha   79.89128113
_cell_angle_beta   65.23188019
_cell_angle_gamma   65.23188019
_symmetry_Int_Tables_number   1
_chemical_formula_structural   BaMo8ClO8
_chemical_formula_sum   'Ba1 Mo8 Cl1 O8'
_cell_volume   308.05247941
_cell_formula_units_Z   1
loop_
 _symmetry_equiv_pos_site_id
 _symmetry_equiv_pos_as_xyz
  1  'x, y, z'
loop_
 _atom_site_type_symbol
 _atom_site_label
 _atom_site_symmetry_multiplicity
 _atom_site_fract_x
 _atom_site_fract_y
 _atom_site_fract_z
 _atom_site_occupancy
  Ba  Ba0  1  0.50000006  0.99999995  0.00000003  1
  O  O1  1  0.98561399  0.31601098  0.71949904  1
  Mo  Mo2  1  0.69837500  0.28050098  0.31601103  1
  O  O3  1  0.29488704  0.71949896  0.68398900  1
  Mo  Mo4  1  0.02112405  0.68398896  0.28050100  1
  O  O5  1  0.53323301  0.33232298  0.13380303  1
  O  O6  1  0.13444406  0.86619695  0.33232300  1
  O  O7  1  0.33296500  0.13380299  0.66767600  1
  Mo  Mo8  1  0.99935901  0.66767696  0.86619604  1
  Mo  Mo9  1  0.31314005  0.77440196  0.92400200  1
  Cl  Cl10  1  0.25000003  0.49999997  0.50000000  1
  Mo  Mo11  1  0.51658802  0.45020998  0.71857101  1
  Mo  Mo12  1  0.03320202  0.28142898  0.45020999  1
  O  O13  1  0.76484103  0.71857096  0.54979003  1
  O  O14  1  0.68536902  0.54978997  0.28142903  1
  Mo  Mo15  1  0.01154402  0.22559799  0.07599700  1
  O  O16  1  0.76285804  0.92400295  0.22559704  1
  Mo  Mo17  1  0.91245897  0.07599700  0.77440203  1
