# generated using pymatgen
data_HgBi3Se8
_symmetry_space_group_name_H-M   'P 1'
_cell_length_a   4.14171696
_cell_length_b   8.20223522
_cell_length_c   8.22150707
_cell_angle_alpha   89.94470215
_cell_angle_beta   90.00000000
_cell_angle_gamma   90.00000000
_symmetry_Int_Tables_number   1
_chemical_formula_structural   HgBi3Se8
_chemical_formula_sum   'Hg1 Bi3 Se8'
_cell_volume   279.29545490
_cell_formula_units_Z   1
loop_
 _symmetry_equiv_pos_site_id
 _symmetry_equiv_pos_as_xyz
  1  'x, y, z'
loop_
 _atom_site_type_symbol
 _atom_site_label
 _atom_site_symmetry_multiplicity
 _atom_site_fract_x
 _atom_site_fract_y
 _atom_site_fract_z
 _atom_site_occupancy
  Hg  Hg0  1  0.71231001  0.37020499  0.27717800  1
  Bi  Bi1  1  0.21231000  0.12979500  0.72282198  1
  Bi  Bi2  1  0.28769000  0.62979498  0.72282199  1
  Bi  Bi3  1  0.78769001  0.87020498  0.27717801  1
  Se  Se4  1  0.65197901  0.10514600  0.99766597  1
  Se  Se5  1  0.15197900  0.39485399  0.00233401  1
  Se  Se6  1  0.34802100  0.89485398  0.00233402  1
  Se  Se7  1  0.84802101  0.60514598  0.99766598  1
  Se  Se8  1  0.73765201  0.37440899  0.63478799  1
  Se  Se9  1  0.23765200  0.12559100  0.36521199  1
  Se  Se10  1  0.26234800  0.62559098  0.36521200  1
  Se  Se11  1  0.76234801  0.87440898  0.63478800  1
