# generated using pymatgen
data_Tb(GeRu)2
_symmetry_space_group_name_H-M   'P 1'
_cell_length_a   4.19418621
_cell_length_b   4.19418621
_cell_length_c   5.75777960
_cell_angle_alpha   111.35952759
_cell_angle_beta   111.35952759
_cell_angle_gamma   90.00000000
_symmetry_Int_Tables_number   1
_chemical_formula_structural   Tb(GeRu)2
_chemical_formula_sum   'Tb1 Ge2 Ru2'
_cell_volume   86.81649052
_cell_formula_units_Z   1
loop_
 _symmetry_equiv_pos_site_id
 _symmetry_equiv_pos_as_xyz
  1  'x, y, z'
loop_
 _atom_site_type_symbol
 _atom_site_label
 _atom_site_symmetry_multiplicity
 _atom_site_fract_x
 _atom_site_fract_y
 _atom_site_fract_z
 _atom_site_occupancy
  Tb  Tb0  1  0.00000000  0.00000000  0.00000000  1
  Ge  Ge1  1  0.61765893  0.61765896  0.23531795  1
  Ge  Ge2  1  0.38234096  0.38234097  0.76468195  1
  Ru  Ru3  1  0.74999994  0.24999998  0.49999995  1
  Ru  Ru4  1  0.24999995  0.74999995  0.49999994  1
