# generated using pymatgen
data_Cs5Br9
_symmetry_space_group_name_H-M   'P 1'
_cell_length_a   8.50561237
_cell_length_b   8.50561237
_cell_length_c   8.98214722
_cell_angle_alpha   105.32827759
_cell_angle_beta   105.32827759
_cell_angle_gamma   109.72442627
_symmetry_Int_Tables_number   1
_chemical_formula_structural   Cs5Br9
_chemical_formula_sum   'Cs5 Br9'
_cell_volume   543.35242727
_cell_formula_units_Z   1
loop_
 _symmetry_equiv_pos_site_id
 _symmetry_equiv_pos_as_xyz
  1  'x, y, z'
loop_
 _atom_site_type_symbol
 _atom_site_label
 _atom_site_symmetry_multiplicity
 _atom_site_fract_x
 _atom_site_fract_y
 _atom_site_fract_z
 _atom_site_occupancy
  Cs  Cs0  1  0.79390004  0.79390000  0.32404811  1
  Cs  Cs1  1  0.00000004  0.50000000  0.00000004  1
  Cs  Cs2  1  0.34198204  0.65801800  0.50000008  1
  Cs  Cs3  1  0.65801801  0.34198200  0.50000007  1
  Cs  Cs4  1  0.49999999  0.00000000  0.00000002  1
  Br  Br5  1  0.20610001  0.20610000  0.67595204  1
  Br  Br6  1  0.89277104  0.89277101  0.86124313  1
  Br  Br7  1  0.10722901  0.10722900  0.13875702  1
  Br  Br8  1  0.36014002  0.36014000  0.12110005  1
  Br  Br9  1  0.63986003  0.63986000  0.87890009  1
  Br  Br10  1  0.24755807  0.94947801  0.29768609  1
  Br  Br11  1  0.05052206  0.75244200  0.70231407  1
  Br  Br12  1  0.75244198  0.05052200  0.70231405  1
  Br  Br13  1  0.94947799  0.24755800  0.29768607  1
