# generated using pymatgen
data_CsLiV2F9
_symmetry_space_group_name_H-M   'P 1'
_cell_length_a   3.88745904
_cell_length_b   7.54474592
_cell_length_c   7.54474640
_cell_angle_alpha   120.00000000
_cell_angle_beta   90.00000000
_cell_angle_gamma   90.00000000
_symmetry_Int_Tables_number   1
_chemical_formula_structural   CsLiV2F9
_chemical_formula_sum   'Cs1 Li1 V2 F9'
_cell_volume   191.63980631
_cell_formula_units_Z   1
loop_
 _symmetry_equiv_pos_site_id
 _symmetry_equiv_pos_as_xyz
  1  'x, y, z'
loop_
 _atom_site_type_symbol
 _atom_site_label
 _atom_site_symmetry_multiplicity
 _atom_site_fract_x
 _atom_site_fract_y
 _atom_site_fract_z
 _atom_site_occupancy
  Cs  Cs0  1  0.00000000  0.00000000  0.00000000  1
  V  V1  1  0.49999999  1.00000002  0.50000001  1
  Li  Li2  1  0.49999999  0.50000001  0.00000001  1
  V  V3  1  0.49999999  0.50000001  0.50000000  1
  F  F4  1  0.00000000  1.00000002  0.50000001  1
  F  F5  1  0.49999999  0.21084000  0.42168000  1
  F  F6  1  0.49999999  0.21084000  0.78915999  1
  F  F7  1  0.49999999  0.57832001  0.78916000  1
  F  F8  1  0.00000000  0.50000001  0.00000001  1
  F  F9  1  0.49999999  0.42168001  0.21084001  1
  F  F10  1  0.00000000  0.50000001  0.50000000  1
  F  F11  1  0.49999999  0.78916002  0.21084001  1
  F  F12  1  0.49999999  0.78916002  0.57832001  1
