# generated using pymatgen
data_Ba2LaCu2PbO7
_symmetry_space_group_name_H-M   'P 1'
_cell_length_a   3.94580197
_cell_length_b   3.97539306
_cell_length_c   12.85357189
_cell_angle_alpha   90.00000000
_cell_angle_beta   90.00000000
_cell_angle_gamma   90.00000000
_symmetry_Int_Tables_number   1
_chemical_formula_structural   Ba2LaCu2PbO7
_chemical_formula_sum   'Ba2 La1 Cu2 Pb1 O7'
_cell_volume   201.62259103
_cell_formula_units_Z   1
loop_
 _symmetry_equiv_pos_site_id
 _symmetry_equiv_pos_as_xyz
  1  'x, y, z'
loop_
 _atom_site_type_symbol
 _atom_site_label
 _atom_site_symmetry_multiplicity
 _atom_site_fract_x
 _atom_site_fract_y
 _atom_site_fract_z
 _atom_site_occupancy
  Ba  Ba0  1  0.50000000  0.49600799  0.79595901  1
  Ba  Ba1  1  0.50000000  0.49600799  0.20404100  1
  La  La2  1  0.50000000  0.49973099  0.50000000  1
  Pb  Pb3  1  0.00000000  0.93033599  -0.00000000  1
  Cu  Cu4  1  0.00000000  0.99972399  0.64016501  1
  Cu  Cu5  1  0.00000000  0.99972399  0.35983500  1
  O  O6  1  0.00000000  0.49977399  0.62328601  1
  O  O7  1  0.50000000  0.99830299  0.62252801  1
  O  O8  1  0.00000000  0.49977399  0.37671400  1
  O  O9  1  0.50000000  0.99830299  0.37747200  1
  O  O10  1  0.00000000  0.00924100  0.83426601  1
  O  O11  1  0.00000000  0.00924100  0.16573400  1
  O  O12  1  0.50000000  0.61433299  -0.00000000  1
