# generated using pymatgen
data_Co4SiMo15
_symmetry_space_group_name_H-M   'P 1'
_cell_length_a   5.24707794
_cell_length_b   7.00955820
_cell_length_c   8.17431355
_cell_angle_alpha   90.00000000
_cell_angle_beta   90.00000000
_cell_angle_gamma   90.00000000
_symmetry_Int_Tables_number   1
_chemical_formula_structural   Co4SiMo15
_chemical_formula_sum   'Co4 Si1 Mo15'
_cell_volume   300.64878533
_cell_formula_units_Z   1
loop_
 _symmetry_equiv_pos_site_id
 _symmetry_equiv_pos_as_xyz
  1  'x, y, z'
loop_
 _atom_site_type_symbol
 _atom_site_label
 _atom_site_symmetry_multiplicity
 _atom_site_fract_x
 _atom_site_fract_y
 _atom_site_fract_z
 _atom_site_occupancy
  Mo  Mo0  1  0.75000001  0.58346998  0.37415802  1
  Si  Si1  1  0.75000001  0.08347000  0.12584201  1
  Co  Co2  1  0.25000000  0.41652999  0.62584203  1
  Co  Co3  1  0.25000000  0.91652997  0.87415805  1
  Mo  Mo4  1  0.99115601  0.26603399  0.37741802  1
  Mo  Mo5  1  0.50884401  0.76603398  0.12258201  1
  Mo  Mo6  1  0.49115601  0.73396598  0.62258203  1
  Mo  Mo7  1  0.00884400  0.23396599  0.87741805  1
  Mo  Mo8  1  0.00884400  0.73396598  0.62258203  1
  Mo  Mo9  1  0.49115601  0.23396599  0.87741805  1
  Mo  Mo10  1  0.50884401  0.26603399  0.37741802  1
  Mo  Mo11  1  0.99115601  0.76603398  0.12258201  1
  Co  Co12  1  0.75000001  0.89906397  0.85224905  1
  Mo  Mo13  1  0.75000001  0.39906399  0.64775104  1
  Co  Co14  1  0.25000000  0.10093600  0.14775101  1
  Mo  Mo15  1  0.25000000  0.60093598  0.35224902  1
  Mo  Mo16  1  0.75000001  0.93848697  0.40776402  1
  Mo  Mo17  1  0.75000001  0.43848699  0.09223601  1
  Mo  Mo18  1  0.25000000  0.06151300  0.59223603  1
  Mo  Mo19  1  0.25000000  0.56151298  0.90776405  1
