# generated using pymatgen
data_BaCu2O3
_symmetry_space_group_name_H-M   'P 1'
_cell_length_a   5.32150602
_cell_length_b   5.88303518
_cell_length_c   5.88303518
_cell_angle_alpha   118.38115692
_cell_angle_beta   90.00000000
_cell_angle_gamma   90.00000000
_symmetry_Int_Tables_number   1
_chemical_formula_structural   BaCu2O3
_chemical_formula_sum   'Ba2 Cu4 O6'
_cell_volume   162.04060212
_cell_formula_units_Z   2
loop_
 _symmetry_equiv_pos_site_id
 _symmetry_equiv_pos_as_xyz
  1  'x, y, z'
loop_
 _atom_site_type_symbol
 _atom_site_label
 _atom_site_symmetry_multiplicity
 _atom_site_fract_x
 _atom_site_fract_y
 _atom_site_fract_z
 _atom_site_occupancy
  O  O0  1  0.52626700  0.65492899  0.65492897  1
  O  O1  1  0.02626700  0.34507099  0.34507098  1
  Cu  Cu2  1  0.50459200  0.97089198  0.31675495  1
  Cu  Cu3  1  0.50459200  0.31675499  0.97089199  1
  Cu  Cu4  1  0.00459200  0.02910800  0.68324501  1
  Cu  Cu5  1  0.00459200  0.68324499  0.02910796  1
  O  O6  1  0.16775500  0.88381999  0.35312995  1
  O  O7  1  0.16775500  0.35312999  0.88381999  1
  O  O8  1  0.66775500  0.11618000  0.64687000  1
  O  O9  1  0.66775500  0.64686999  0.11617997  1
  Ba  Ba10  1  0.04103900  0.79411599  0.79411596  1
  Ba  Ba11  1  0.54103900  0.20588400  0.20588399  1
