# generated using pymatgen
data_Tb2(Ge5Ir)3
_symmetry_space_group_name_H-M   'P 1'
_cell_length_a   6.47467089
_cell_length_b   6.47467089
_cell_length_c   6.48733664
_cell_angle_alpha   83.32950592
_cell_angle_beta   83.32950592
_cell_angle_gamma   83.06727600
_symmetry_Int_Tables_number   1
_chemical_formula_structural   Tb2(Ge5Ir)3
_chemical_formula_sum   'Tb2 Ge15 Ir3'
_cell_volume   266.69942376
_cell_formula_units_Z   1
loop_
 _symmetry_equiv_pos_site_id
 _symmetry_equiv_pos_as_xyz
  1  'x, y, z'
loop_
 _atom_site_type_symbol
 _atom_site_label
 _atom_site_symmetry_multiplicity
 _atom_site_fract_x
 _atom_site_fract_y
 _atom_site_fract_z
 _atom_site_occupancy
  Tb  Tb0  1  0.66483896  0.66483900  0.64484095  1
  Tb  Tb1  1  0.33516098  0.33516100  0.35515898  1
  Ge  Ge2  1  0.71579898  0.28420100  0.99999997  1
  Ge  Ge3  1  0.00049897  0.71245199  0.28647298  1
  Ge  Ge4  1  0.28754796  0.99950099  0.71352696  1
  Ge  Ge5  1  0.99950098  0.28754800  0.71352695  1
  Ge  Ge6  1  0.71245099  0.00049900  0.28647297  1
  Ge  Ge7  1  0.28420097  0.71579899  0.99999997  1
  Ge  Ge8  1  0.00000000  0.00000000  0.50000000  1
  Ge  Ge9  1  0.49999999  0.00000000  -0.00000002  1
  Ge  Ge10  1  -0.00000002  0.50000000  -0.00000002  1
  Ge  Ge11  1  0.34397898  0.34397900  0.85262898  1
  Ge  Ge12  1  0.84776698  0.34268800  0.34336795  1
  Ge  Ge13  1  0.34268796  0.84776699  0.34336796  1
  Ir  Ir14  1  0.65602097  0.65602100  0.14737095  1
  Ir  Ir15  1  0.15223297  0.65731200  0.65663197  1
  Ir  Ir16  1  0.65731199  0.15223300  0.65663197  1
  Ge  Ge17  1  0.90395195  0.90395199  0.90311794  1
  Ge  Ge18  1  0.09604799  0.09604800  0.09688199  1
  Ge  Ge19  1  0.49999997  0.50000000  -0.00000004  1
