# generated using pymatgen
data_Ba(PPd2)2
_symmetry_space_group_name_H-M   'P 1'
_cell_length_a   4.16397333
_cell_length_b   4.16397333
_cell_length_c   7.90480375
_cell_angle_alpha   74.72914124
_cell_angle_beta   74.72914124
_cell_angle_gamma   60.00001144
_symmetry_Int_Tables_number   1
_chemical_formula_structural   Ba(PPd2)2
_chemical_formula_sum   'Ba1 P2 Pd4'
_cell_volume   113.07392434
_cell_formula_units_Z   1
loop_
 _symmetry_equiv_pos_site_id
 _symmetry_equiv_pos_as_xyz
  1  'x, y, z'
loop_
 _atom_site_type_symbol
 _atom_site_label
 _atom_site_symmetry_multiplicity
 _atom_site_fract_x
 _atom_site_fract_y
 _atom_site_fract_z
 _atom_site_occupancy
  Ba  Ba0  1  0.00000000  0.00000000  0.00000000  1
  Pd  Pd1  1  0.14423300  0.14423300  0.56730101  1
  Pd  Pd2  1  0.56317598  0.56317599  0.31047201  1
  Pd  Pd3  1  0.85576698  0.85576699  0.43269901  1
  Pd  Pd4  1  0.43682399  0.43682399  0.68952801  1
  P  P5  1  0.25318199  0.25318200  0.24045400  1
  P  P6  1  0.74681798  0.74681799  0.75954601  1
