# generated using pymatgen
data_ScSiNi
_symmetry_space_group_name_H-M   'P 1'
_cell_length_a   4.10650396
_cell_length_b   6.47975492
_cell_length_c   6.93888092
_cell_angle_alpha   90.00000000
_cell_angle_beta   90.00000000
_cell_angle_gamma   90.00000000
_symmetry_Int_Tables_number   1
_chemical_formula_structural   ScSiNi
_chemical_formula_sum   'Sc4 Si4 Ni4'
_cell_volume   184.63764886
_cell_formula_units_Z   4
loop_
 _symmetry_equiv_pos_site_id
 _symmetry_equiv_pos_as_xyz
  1  'x, y, z'
loop_
 _atom_site_type_symbol
 _atom_site_label
 _atom_site_symmetry_multiplicity
 _atom_site_fract_x
 _atom_site_fract_y
 _atom_site_fract_z
 _atom_site_occupancy
  Sc  Sc0  1  0.75000001  0.99762801  0.68772101  1
  Sc  Sc1  1  0.75000001  0.49762801  0.81227901  1
  Sc  Sc2  1  0.25000000  0.00237200  0.31227900  1
  Sc  Sc3  1  0.25000000  0.50237201  0.18772100  1
  Ni  Ni4  1  0.75000001  0.65415201  0.44561801  1
  Ni  Ni5  1  0.75000001  0.15415200  0.05438200  1
  Ni  Ni6  1  0.25000000  0.34584800  0.55438201  1
  Ni  Ni7  1  0.25000000  0.84584801  0.94561801  1
  Si  Si8  1  0.75000001  0.78971301  0.11834300  1
  Si  Si9  1  0.75000001  0.28971300  0.38165700  1
  Si  Si10  1  0.25000000  0.21028700  0.88165701  1
  Si  Si11  1  0.25000000  0.71028701  0.61834301  1
