# generated using pymatgen
data_Tb2Ge7Pd
_symmetry_space_group_name_H-M   'P 1'
_cell_length_a   5.88265896
_cell_length_b   8.34830379
_cell_length_c   8.34830379
_cell_angle_alpha   94.40596771
_cell_angle_beta   108.63919830
_cell_angle_gamma   108.63919830
_symmetry_Int_Tables_number   1
_chemical_formula_structural   Tb2Ge7Pd
_chemical_formula_sum   'Tb4 Ge14 Pd2'
_cell_volume   360.71998701
_cell_formula_units_Z   2
loop_
 _symmetry_equiv_pos_site_id
 _symmetry_equiv_pos_as_xyz
  1  'x, y, z'
loop_
 _atom_site_type_symbol
 _atom_site_label
 _atom_site_symmetry_multiplicity
 _atom_site_fract_x
 _atom_site_fract_y
 _atom_site_fract_z
 _atom_site_occupancy
  Tb  Tb0  1  0.23661899  0.37023998  0.09106898  1
  Tb  Tb1  1  0.26338099  0.90893095  0.62975993  1
  Tb  Tb2  1  0.76338099  0.62975996  0.90893093  1
  Tb  Tb3  1  0.73661900  0.09106899  0.37023998  1
  Ge  Ge4  1  0.25000000  0.01348300  0.98651695  1
  Ge  Ge5  1  0.74999998  0.98651694  0.01348296  1
  Ge  Ge6  1  0.24999999  0.70690196  0.29309796  1
  Ge  Ge7  1  0.74999999  0.29309798  0.70690195  1
  Ge  Ge8  1  0.25000000  0.27770198  0.72229795  1
  Ge  Ge9  1  0.74999999  0.72229796  0.27770196  1
  Ge  Ge10  1  0.16916199  0.57536797  0.76477694  1
  Ge  Ge11  1  0.66916199  0.76477696  0.57536794  1
  Ge  Ge12  1  0.83083799  0.42463198  0.23522297  1
  Ge  Ge13  1  0.33083800  0.23522299  0.42463197  1
  Ge  Ge14  1  0.87381400  0.04543600  0.76140096  1
  Pd  Pd15  1  0.74999999  0.49746197  0.50253796  1
  Ge  Ge16  1  0.37381399  0.76140096  0.04543597  1
  Ge  Ge17  1  0.12618599  0.95456395  0.23859895  1
  Ge  Ge18  1  0.62618599  0.23859899  0.95456394  1
  Pd  Pd19  1  0.24999999  0.50253797  0.49746195  1
