# generated using pymatgen
data_ZnCdP8
_symmetry_space_group_name_H-M   'P 1'
_cell_length_a   3.13735294
_cell_length_b   5.79346418
_cell_length_c   5.79346418
_cell_angle_alpha   90.00000000
_cell_angle_beta   90.00000000
_cell_angle_gamma   90.00000000
_symmetry_Int_Tables_number   1
_chemical_formula_structural   ZnCdP8
_chemical_formula_sum   'Zn1 Cd1 P8'
_cell_volume   105.30282715
_cell_formula_units_Z   1
loop_
 _symmetry_equiv_pos_site_id
 _symmetry_equiv_pos_as_xyz
  1  'x, y, z'
loop_
 _atom_site_type_symbol
 _atom_site_label
 _atom_site_symmetry_multiplicity
 _atom_site_fract_x
 _atom_site_fract_y
 _atom_site_fract_z
 _atom_site_occupancy
  Cd  Cd0  1  1.00000002  0.49999998  0.49999998  1
  Zn  Zn1  1  0.00000000  0.00000000  0.00000000  1
  P  P2  1  0.00000000  0.11401800  0.61401798  1
  P  P3  1  0.00000000  0.88598197  0.38598199  1
  P  P4  1  0.00000000  0.61401798  0.88598197  1
  P  P5  1  0.00000000  0.38598199  0.11401800  1
  P  P6  1  0.50000001  0.67732198  0.17732199  1
  P  P7  1  0.50000001  0.32267799  0.82267797  1
  P  P8  1  0.50000001  0.17732199  0.32267799  1
  P  P9  1  0.50000001  0.82267797  0.67732198  1
