# generated using pymatgen
data_Ga2S3
_symmetry_space_group_name_H-M   'P 1'
_cell_length_a   5.83176422
_cell_length_b   5.83176422
_cell_length_c   6.13913536
_cell_angle_alpha   61.64284134
_cell_angle_beta   61.64284134
_cell_angle_gamma   60.00000000
_symmetry_Int_Tables_number   1
_chemical_formula_structural   Ga2S3
_chemical_formula_sum   'Ga4 S6'
_cell_volume   151.19636571
_cell_formula_units_Z   2
loop_
 _symmetry_equiv_pos_site_id
 _symmetry_equiv_pos_as_xyz
  1  'x, y, z'
loop_
 _atom_site_type_symbol
 _atom_site_label
 _atom_site_symmetry_multiplicity
 _atom_site_fract_x
 _atom_site_fract_y
 _atom_site_fract_z
 _atom_site_occupancy
  Ga  Ga0  1  0.70926897  0.70926897  0.87219301  1
  Ga  Ga1  1  0.20926899  0.20926899  0.37219300  1
  Ga  Ga2  1  0.99873796  0.99873796  0.00378603  1
  Ga  Ga3  1  0.49873798  0.49873798  0.50378601  1
  S  S4  1  0.29367599  0.61538598  0.20400601  1
  S  S5  1  0.88693196  0.29367599  0.20400601  1
  S  S6  1  0.61538597  0.88693196  0.20400602  1
  S  S7  1  0.38693198  0.11538600  0.70400600  1
  S  S8  1  0.11538599  0.79367597  0.70400601  1
  S  S9  1  0.79367597  0.38693198  0.70400601  1
