# generated using pymatgen
data_MoClO3
_symmetry_space_group_name_H-M   'P 1'
_cell_length_a   4.19376421
_cell_length_b   5.77536869
_cell_length_c   5.85453653
_cell_angle_alpha   88.52136230
_cell_angle_beta   88.90629578
_cell_angle_gamma   89.29799652
_symmetry_Int_Tables_number   1
_chemical_formula_structural   MoClO3
_chemical_formula_sum   'Mo2 Cl2 O6'
_cell_volume   141.71715205
_cell_formula_units_Z   2
loop_
 _symmetry_equiv_pos_site_id
 _symmetry_equiv_pos_as_xyz
  1  'x, y, z'
loop_
 _atom_site_type_symbol
 _atom_site_label
 _atom_site_symmetry_multiplicity
 _atom_site_fract_x
 _atom_site_fract_y
 _atom_site_fract_z
 _atom_site_occupancy
  Mo  Mo0  1  0.77185302  0.64295498  0.91859602  1
  Mo  Mo1  1  0.74488498  0.13767200  0.41118601  1
  Cl  Cl2  1  0.22410905  0.62221198  0.38493401  1
  Cl  Cl3  1  0.22942900  0.13573300  0.86202700  1
  O  O4  1  0.81109599  0.39176599  0.68537401  1
  O  O5  1  0.79959604  0.90562897  0.20295302  1
  O  O6  1  0.28326705  0.65888398  0.96023701  1
  O  O7  1  0.30971000  0.15657299  0.44550500  1
  O  O8  1  0.80618700  0.40438399  0.20949701  1
  O  O9  1  0.80986804  0.92119197  0.68668902  1
