# generated using pymatgen
data_Cu5O2F7
_symmetry_space_group_name_H-M   'P 1'
_cell_length_a   3.14221501
_cell_length_b   3.28113389
_cell_length_c   14.54130077
_cell_angle_alpha   96.47797394
_cell_angle_beta   90.00000000
_cell_angle_gamma   90.00000000
_symmetry_Int_Tables_number   1
_chemical_formula_structural   Cu5O2F7
_chemical_formula_sum   'Cu5 O2 F7'
_cell_volume   148.96401870
_cell_formula_units_Z   1
loop_
 _symmetry_equiv_pos_site_id
 _symmetry_equiv_pos_as_xyz
  1  'x, y, z'
loop_
 _atom_site_type_symbol
 _atom_site_label
 _atom_site_symmetry_multiplicity
 _atom_site_fract_x
 _atom_site_fract_y
 _atom_site_fract_z
 _atom_site_occupancy
  F  F0  1  0.75000000  0.45323702  0.90647400  1
  F  F1  1  0.25000000  0.54676302  0.09352601  1
  F  F2  1  0.75000000  0.78741703  0.57483401  1
  F  F3  1  0.25000000  0.21258301  0.42516600  1
  F  F4  1  0.25000000  0.36211001  0.72422000  1
  F  F5  1  0.75000000  0.63789002  0.27578001  1
  O  O6  1  0.75000000  0.01544800  0.03089600  1
  Cu  Cu7  1  0.25000000  0.98455204  0.96910401  1
  Cu  Cu8  1  0.75000000  0.88788703  0.77577401  1
  F  F9  1  0.25000000  0.11211300  0.22422600  1
  Cu  Cu10  1  0.75000000  0.07904000  0.15808000  1
  O  O11  1  0.25000000  0.92096004  0.84192001  1
  Cu  Cu12  1  0.75000000  0.71221303  0.42442601  1
  Cu  Cu13  1  0.25000000  0.28778701  0.57557400  1
