# generated using pymatgen
data_Lu3Se7
_symmetry_space_group_name_H-M   'P 1'
_cell_length_a   6.35824013
_cell_length_b   9.92841244
_cell_length_c   9.92886162
_cell_angle_alpha   119.99850464
_cell_angle_beta   90.00000000
_cell_angle_gamma   90.00000000
_symmetry_Int_Tables_number   1
_chemical_formula_structural   Lu3Se7
_chemical_formula_sum   'Lu6 Se14'
_cell_volume   542.81691058
_cell_formula_units_Z   2
loop_
 _symmetry_equiv_pos_site_id
 _symmetry_equiv_pos_as_xyz
  1  'x, y, z'
loop_
 _atom_site_type_symbol
 _atom_site_label
 _atom_site_symmetry_multiplicity
 _atom_site_fract_x
 _atom_site_fract_y
 _atom_site_fract_z
 _atom_site_occupancy
  Se  Se0  1  0.46421599  0.66666665  0.33333336  1
  Se  Se1  1  0.96421598  0.33333333  0.66666667  1
  Se  Se2  1  0.25065099  0.87463098  0.74926202  1
  Se  Se3  1  0.25064999  0.87462398  0.12534603  1
  Se  Se4  1  0.25064999  0.25072199  0.12534601  1
  Se  Se5  1  0.75065098  0.12536900  0.25073800  1
  Se  Se6  1  0.75064998  0.12537600  0.87465399  1
  Se  Se7  1  0.75064998  0.74927798  0.87465402  1
  Se  Se8  1  0.43557699  0.46065599  0.92131200  1
  Se  Se9  1  0.43553099  0.46068399  0.53934301  1
  Se  Se10  1  0.43553099  0.07865900  0.53934299  1
  Se  Se11  1  0.93557698  0.53934399  0.07868802  1
  Se  Se12  1  0.93553098  0.53931599  0.46065702  1
  Se  Se13  1  0.93553098  0.92134098  0.46065703  1
  Lu  Lu14  1  0.19009100  0.18820800  0.37641600  1
  Lu  Lu15  1  0.19005100  0.18819900  0.81180599  1
  Lu  Lu16  1  0.19005100  0.62360699  0.81180601  1
  Lu  Lu17  1  0.69009099  0.81179198  0.62358402  1
  Lu  Lu18  1  0.69005099  0.81180098  0.18819403  1
  Lu  Lu19  1  0.69005099  0.37639299  0.18819401  1
