# generated using pymatgen
data_CsInSe2
_symmetry_space_group_name_H-M   'P 1'
_cell_length_a   4.34196615
_cell_length_b   4.34196615
_cell_length_c   7.77665377
_cell_angle_alpha   106.21047974
_cell_angle_beta   106.21047974
_cell_angle_gamma   90.00000000
_symmetry_Int_Tables_number   1
_chemical_formula_structural   CsInSe2
_chemical_formula_sum   'Cs1 In1 Se2'
_cell_volume   134.70098645
_cell_formula_units_Z   1
loop_
 _symmetry_equiv_pos_site_id
 _symmetry_equiv_pos_as_xyz
  1  'x, y, z'
loop_
 _atom_site_type_symbol
 _atom_site_label
 _atom_site_symmetry_multiplicity
 _atom_site_fract_x
 _atom_site_fract_y
 _atom_site_fract_z
 _atom_site_occupancy
  Cs  Cs0  1  0.00000000  0.00000000  0.00000000  1
  In  In1  1  0.74999998  0.24999999  0.50000002  1
  Se  Se2  1  0.35544699  0.35544699  0.71089401  1
  Se  Se3  1  0.64455299  0.64455298  0.28910602  1
