# generated using pymatgen
data_Ga4SiO9
_symmetry_space_group_name_H-M   'P 1'
_cell_length_a   4.53948116
_cell_length_b   4.53948212
_cell_length_c   8.59994221
_cell_angle_alpha   89.99999237
_cell_angle_beta   89.99999237
_cell_angle_gamma   90.00000000
_symmetry_Int_Tables_number   1
_chemical_formula_structural   Ga4SiO9
_chemical_formula_sum   'Ga4 Si1 O9'
_cell_volume   177.21809368
_cell_formula_units_Z   1
loop_
 _symmetry_equiv_pos_site_id
 _symmetry_equiv_pos_as_xyz
  1  'x, y, z'
loop_
 _atom_site_type_symbol
 _atom_site_label
 _atom_site_symmetry_multiplicity
 _atom_site_fract_x
 _atom_site_fract_y
 _atom_site_fract_z
 _atom_site_occupancy
  O  O0  1  0.49999998  0.49999999  -0.00000001  1
  Ga  Ga1  1  0.00000000  0.00000000  0.49999999  1
  O  O2  1  0.00000000  0.49999999  0.24999999  1
  Ga  Ga3  1  0.49999998  0.00000000  0.74999998  1
  O  O4  1  0.00000000  0.00000000  0.00000100  1
  Si  Si5  1  0.49999998  0.49999999  0.49999898  1
  O  O6  1  0.23817599  0.18315800  0.89170297  1
  O  O7  1  0.73817497  0.68315898  0.39170598  1
  O  O8  1  0.31684099  0.73817598  0.60829698  1
  Ga  Ga9  1  0.81684097  0.23817499  0.10829399  1
  O  O10  1  0.76182397  0.81684098  0.89170296  1
  O  O11  1  0.26182499  0.31683999  0.39170599  1
  O  O12  1  0.68315798  0.26182399  0.60829698  1
  Ga  Ga13  1  0.18315899  0.76182498  0.10829399  1
