# generated using pymatgen
data_Lu4(Ge3Ir)3
_symmetry_space_group_name_H-M   'P 1'
_cell_length_a   4.35084391
_cell_length_b   8.80624199
_cell_length_c   9.54992104
_cell_angle_alpha   117.45575714
_cell_angle_beta   103.16727448
_cell_angle_gamma   90.00000000
_symmetry_Int_Tables_number   1
_chemical_formula_structural   Lu4(Ge3Ir)3
_chemical_formula_sum   'Lu4 Ge9 Ir3'
_cell_volume   313.80805167
_cell_formula_units_Z   1
loop_
 _symmetry_equiv_pos_site_id
 _symmetry_equiv_pos_as_xyz
  1  'x, y, z'
loop_
 _atom_site_type_symbol
 _atom_site_label
 _atom_site_symmetry_multiplicity
 _atom_site_fract_x
 _atom_site_fract_y
 _atom_site_fract_z
 _atom_site_occupancy
  Lu  Lu0  1  0.20273999  0.70273998  0.40547998  1
  Lu  Lu1  1  -0.00000001  0.28001099  -0.00000002  1
  Lu  Lu2  1  -0.00000002  0.71998898  -0.00000004  1
  Lu  Lu3  1  0.79726001  0.29725999  0.59452001  1
  Ge  Ge4  1  0.57457101  0.07457100  0.14914200  1
  Ge  Ge5  1  0.42542898  0.92542897  0.85085798  1
  Ge  Ge6  1  0.42501900  0.42501899  0.85003801  1
  Ge  Ge7  1  0.19914699  0.35066799  0.39829400  1
  Ge  Ge8  1  0.57498100  0.57498098  0.14996197  1
  Ge  Ge9  1  0.19914700  0.04762600  0.39829401  1
  Ge  Ge10  1  0.80085300  0.64933198  0.60170599  1
  Ge  Ge11  1  0.80085299  0.95237397  0.60170597  1
  Ir  Ir12  1  0.64793800  0.39666199  0.29587599  1
  Ir  Ir13  1  0.35206199  0.60333798  0.70412399  1
  Ir  Ir14  1  0.64793799  0.89921398  0.29587596  1
  Ge  Ge15  1  0.35206200  0.10078600  0.70412402  1
