# generated using pymatgen
data_La4Mg2RuO13
_symmetry_space_group_name_H-M   'P 1'
_cell_length_a   5.46482801
_cell_length_b   5.78589487
_cell_length_c   7.77623081
_cell_angle_alpha   90.00000000
_cell_angle_beta   90.53786469
_cell_angle_gamma   90.00000000
_symmetry_Int_Tables_number   1
_chemical_formula_structural   La4Mg2RuO13
_chemical_formula_sum   'La4 Mg2 Ru1 O13'
_cell_volume   245.86518901
_cell_formula_units_Z   1
loop_
 _symmetry_equiv_pos_site_id
 _symmetry_equiv_pos_as_xyz
  1  'x, y, z'
loop_
 _atom_site_type_symbol
 _atom_site_label
 _atom_site_symmetry_multiplicity
 _atom_site_fract_x
 _atom_site_fract_y
 _atom_site_fract_z
 _atom_site_occupancy
  La  La0  1  0.98262900  0.56744001  0.25108396  1
  La  La1  1  0.01737100  0.43256001  0.74891600  1
  La  La2  1  0.51737100  0.06744000  0.24891598  1
  La  La3  1  0.48262900  0.93256002  0.75108398  1
  Mg  Mg4  1  0.00000000  0.00000000  0.50000000  1
  Mg  Mg5  1  0.50000000  0.50000001  -0.00000002  1
  O  O6  1  0.00000000  0.00000000  0.00000000  1
  Ru  Ru7  1  0.50000000  0.50000001  0.49999998  1
  O  O8  1  0.81521400  0.29090501  0.05285397  1
  O  O9  1  0.18478600  0.70909502  0.94714599  1
  O  O10  1  0.68478600  0.79090502  0.44714597  1
  O  O11  1  0.31521400  0.20909500  0.55285399  1
  O  O12  1  0.70148200  0.81095002  0.04614497  1
  O  O13  1  0.29851800  0.18905000  0.95385498  1
  O  O14  1  0.79851800  0.31095001  0.45385497  1
  O  O15  1  0.20148200  0.68905002  0.54614499  1
  O  O16  1  0.09690200  0.96978402  0.24637900  1
  O  O17  1  0.90309800  0.03021600  0.75362096  1
  O  O18  1  0.40309800  0.46978401  0.25362098  1
  O  O19  1  0.59690200  0.53021601  0.74637897  1
