# generated using pymatgen
data_La2WN4
_symmetry_space_group_name_H-M   'P 1'
_cell_length_a   3.86531305
_cell_length_b   3.86531305
_cell_length_c   6.85889196
_cell_angle_alpha   106.36610413
_cell_angle_beta   106.36610413
_cell_angle_gamma   90.00000763
_symmetry_Int_Tables_number   1
_chemical_formula_structural   La2WN4
_chemical_formula_sum   'La2 W1 N4'
_cell_volume   93.98850284
_cell_formula_units_Z   1
loop_
 _symmetry_equiv_pos_site_id
 _symmetry_equiv_pos_as_xyz
  1  'x, y, z'
loop_
 _atom_site_type_symbol
 _atom_site_label
 _atom_site_symmetry_multiplicity
 _atom_site_fract_x
 _atom_site_fract_y
 _atom_site_fract_z
 _atom_site_occupancy
  La  La0  1  0.64381398  0.64381498  0.28762799  1
  La  La1  1  0.35618599  0.35618499  0.71237199  1
  W  W2  1  0.00000000  0.00000000  0.00000000  1
  N  N3  1  0.84358398  0.84358298  0.68716699  1
  N  N4  1  0.15641600  0.15641700  0.31283300  1
  N  N5  1  0.50000000  0.00000100  0.00000100  1
  N  N6  1  -0.00000002  0.49999899  -0.00000000  1
