# generated using pymatgen
data_NaMn5O8
_symmetry_space_group_name_H-M   'P 1'
_cell_length_a   3.09545994
_cell_length_b   5.18938589
_cell_length_c   10.11168766
_cell_angle_alpha   90.00000000
_cell_angle_beta   90.00000000
_cell_angle_gamma   107.35247040
_symmetry_Int_Tables_number   1
_chemical_formula_structural   NaMn5O8
_chemical_formula_sum   'Na1 Mn5 O8'
_cell_volume   155.03698165
_cell_formula_units_Z   1
loop_
 _symmetry_equiv_pos_site_id
 _symmetry_equiv_pos_as_xyz
  1  'x, y, z'
loop_
 _atom_site_type_symbol
 _atom_site_label
 _atom_site_symmetry_multiplicity
 _atom_site_fract_x
 _atom_site_fract_y
 _atom_site_fract_z
 _atom_site_occupancy
  Na  Na0  1  0.38563393  0.77126801  0.25000001  1
  Mn  Mn1  1  0.61436599  0.22873200  0.75000003  1
  Mn  Mn2  1  0.86781795  0.73563601  0.93007203  1
  Mn  Mn3  1  0.13218198  0.26436400  0.06992800  1
  Mn  Mn4  1  0.86781795  0.73563601  0.56992802  1
  Mn  Mn5  1  0.13218198  0.26436400  0.43007201  1
  O  O6  1  0.23158496  0.46317001  0.60684102  1
  O  O7  1  0.76841496  0.53683001  0.39315901  1
  O  O8  1  0.76841496  0.53683001  0.10684100  1
  O  O9  1  0.23158496  0.46317001  0.89315903  1
  O  O10  1  0.93323894  0.86647802  0.75000003  1
  O  O11  1  0.06676099  0.13352200  0.25000001  1
  O  O12  1  0.49999991  1.00000002  -0.00000000  1
  O  O13  1  0.49999991  1.00000002  0.50000002  1
