# generated using pymatgen
data_Al2Si2H4O9
_symmetry_space_group_name_H-M   'P 1'
_cell_length_a   5.21745157
_cell_length_b   5.21745157
_cell_length_c   7.13750935
_cell_angle_alpha   90.92481232
_cell_angle_beta   90.92481232
_cell_angle_gamma   119.61166382
_symmetry_Int_Tables_number   1
_chemical_formula_structural   Al2Si2H4O9
_chemical_formula_sum   'Al2 Si2 H4 O9'
_cell_volume   168.83271347
_cell_formula_units_Z   1
loop_
 _symmetry_equiv_pos_site_id
 _symmetry_equiv_pos_as_xyz
  1  'x, y, z'
loop_
 _atom_site_type_symbol
 _atom_site_label
 _atom_site_symmetry_multiplicity
 _atom_site_fract_x
 _atom_site_fract_y
 _atom_site_fract_z
 _atom_site_occupancy
  Al  Al0  1  0.65885991  0.98788193  0.51775994  1
  Al  Al1  1  0.98788192  0.65885996  0.51775994  1
  Si  Si2  1  0.67800295  0.33668698  0.12908696  1
  Si  Si3  1  0.33668694  0.67800296  0.12908696  1
  H  H4  1  0.11668399  0.11668399  0.35425800  1
  H  H5  1  0.60380194  0.60380196  0.76032497  1
  H  H6  1  0.34149791  0.98696493  0.77861896  1
  H  H7  1  0.98696495  0.34149798  0.77861896  1
  O  O8  1  0.49250099  0.00331100  0.03391898  1
  O  O9  1  0.00331096  0.49250097  0.03391898  1
  O  O10  1  0.50586995  0.50586997  0.05148396  1
  O  O11  1  0.32495994  0.70264095  0.35495496  1
  O  O12  1  0.70264096  0.32495998  0.35495496  1
  O  O13  1  0.93230790  0.93230794  0.36462593  1
  O  O14  1  0.33048992  0.94658294  0.64382996  1
  O  O15  1  0.94658295  0.33048998  0.64382996  1
  O  O16  1  0.71765492  0.71765495  0.65536595  1
