# generated using pymatgen
data_Li3Co2TeO6
_symmetry_space_group_name_H-M   'P 1'
_cell_length_a   5.22494459
_cell_length_b   5.25657988
_cell_length_c   5.31395102
_cell_angle_alpha   60.37313843
_cell_angle_beta   81.35751343
_cell_angle_gamma   72.39541626
_symmetry_Int_Tables_number   1
_chemical_formula_structural   Li3Co2TeO6
_chemical_formula_sum   'Li3 Co2 Te1 O6'
_cell_volume   120.92675762
_cell_formula_units_Z   1
loop_
 _symmetry_equiv_pos_site_id
 _symmetry_equiv_pos_as_xyz
  1  'x, y, z'
loop_
 _atom_site_type_symbol
 _atom_site_label
 _atom_site_symmetry_multiplicity
 _atom_site_fract_x
 _atom_site_fract_y
 _atom_site_fract_z
 _atom_site_occupancy
  Li  Li0  1  0.50001201  0.19192100  0.61595999  1
  Li  Li1  1  0.50000001  0.49999099  0.00001800  1
  Li  Li2  1  0.49998701  0.80807498  0.38404898  1
  Te  Te3  1  0.99999902  0.99999598  0.00000901  1
  Co  Co4  1  0.00000400  0.33387199  0.33223498  1
  Co  Co5  1  0.00000199  0.66617499  0.66766596  1
  O  O6  1  0.76304202  0.70649398  0.99967098  1
  O  O7  1  0.23154400  0.56271999  0.36260198  1
  O  O8  1  0.23173400  0.92488198  0.63765196  1
  O  O9  1  0.76844802  0.43725699  0.63740300  1
  O  O10  1  0.76827102  0.07513800  0.36235202  1
  O  O11  1  0.23695800  0.29347799  0.00038500  1
