# generated using pymatgen
data_CsThN
_symmetry_space_group_name_H-M   'P 1'
_cell_length_a   4.10546780
_cell_length_b   4.33406115
_cell_length_c   4.33396530
_cell_angle_alpha   120.00128937
_cell_angle_beta   90.00000000
_cell_angle_gamma   90.00000000
_symmetry_Int_Tables_number   1
_chemical_formula_structural   CsThN
_chemical_formula_sum   'Cs1 Th1 N1'
_cell_volume   66.78333500
_cell_formula_units_Z   1
loop_
 _symmetry_equiv_pos_site_id
 _symmetry_equiv_pos_as_xyz
  1  'x, y, z'
loop_
 _atom_site_type_symbol
 _atom_site_label
 _atom_site_symmetry_multiplicity
 _atom_site_fract_x
 _atom_site_fract_y
 _atom_site_fract_z
 _atom_site_occupancy
  Cs  Cs0  1  0.00000000  0.99999497  0.00000301  1
  N  N1  1  0.50000002  0.66666665  0.33337269  1
  Th  Th2  1  0.50000002  0.33333332  0.66666670  1
