# generated using pymatgen
data_Cs8H5S6N
_symmetry_space_group_name_H-M   'P 1'
_cell_length_a   8.56121540
_cell_length_b   8.56121540
_cell_length_c   8.56121540
_cell_angle_alpha   109.47122192
_cell_angle_beta   109.47122192
_cell_angle_gamma   109.47122192
_symmetry_Int_Tables_number   1
_chemical_formula_structural   Cs8H5S6N
_chemical_formula_sum   'Cs8 H5 S6 N1'
_cell_volume   483.04140702
_cell_formula_units_Z   1
loop_
 _symmetry_equiv_pos_site_id
 _symmetry_equiv_pos_as_xyz
  1  'x, y, z'
loop_
 _atom_site_type_symbol
 _atom_site_label
 _atom_site_symmetry_multiplicity
 _atom_site_fract_x
 _atom_site_fract_y
 _atom_site_fract_z
 _atom_site_occupancy
  Cs  Cs0  1  0.60176007  1.00000004  1.00000007  1
  Cs  Cs1  1  1.00000004  0.50000002  0.10176005  1
  Cs  Cs2  1  0.50000004  0.60176002  0.50000004  1
  Cs  Cs3  1  0.10176000  0.00000000  0.00000000  1
  Cs  Cs4  1  0.89824006  0.89824003  0.39824007  1
  Cs  Cs5  1  1.00000004  0.50000002  0.60176005  1
  Cs  Cs6  1  0.39824003  0.39824001  0.89824003  1
  Cs  Cs7  1  0.50000001  0.10176000  0.50000002  1
  S  S8  1  0.75000005  0.69574603  0.94574605  1
  S  S9  1  0.25000005  0.80425403  0.55425405  1
  S  S10  1  0.80425401  0.05425400  0.75000002  1
  S  S11  1  0.55425402  0.30425401  0.25000003  1
  H  H12  1  0.69574603  0.44574602  0.25000004  1
  H  H13  1  0.94574602  0.19574601  0.75000003  1
  S  S14  1  0.05425402  0.25000001  0.30425401  1
  N  N15  1  0.25000006  0.94574603  0.69574606  1
  H  H16  1  0.44574605  0.75000003  0.19574605  1
  H  H17  1  0.75000004  0.55425402  0.80425405  1
  S  S18  1  0.30425405  0.75000003  0.05425405  1
  H  H19  1  0.19574602  0.25000001  0.44574602  1
