# generated using pymatgen
data_Mo3(SBr)2
_symmetry_space_group_name_H-M   'P 1'
_cell_length_a   3.35575390
_cell_length_b   6.18588400
_cell_length_c   6.81853914
_cell_angle_alpha   115.54867554
_cell_angle_beta   104.24541473
_cell_angle_gamma   90.00000000
_symmetry_Int_Tables_number   1
_chemical_formula_structural   Mo3(SBr)2
_chemical_formula_sum   'Mo3 S2 Br2'
_cell_volume   122.85967223
_cell_formula_units_Z   1
loop_
 _symmetry_equiv_pos_site_id
 _symmetry_equiv_pos_as_xyz
  1  'x, y, z'
loop_
 _atom_site_type_symbol
 _atom_site_label
 _atom_site_symmetry_multiplicity
 _atom_site_fract_x
 _atom_site_fract_y
 _atom_site_fract_z
 _atom_site_occupancy
  Mo  Mo0  1  0.25499700  0.31539699  0.50999397  1
  Mo  Mo1  1  0.74500300  0.68460297  0.49000595  1
  Mo  Mo2  1  0.00000000  0.00000000  0.00000000  1
  S  S3  1  0.10498499  0.44318198  0.20996997  1
  S  S4  1  0.89501501  0.55681798  0.79002995  1
  Br  Br5  1  0.36040901  0.02503800  0.72081798  1
  Br  Br6  1  0.63959099  0.97496196  0.27918195  1
