# generated using pymatgen
data_Tb3In6Bi3O
_symmetry_space_group_name_H-M   'P 1'
_cell_length_a   4.47494411
_cell_length_b   4.47494411
_cell_length_c   16.12574577
_cell_angle_alpha   90.00000000
_cell_angle_beta   90.00000000
_cell_angle_gamma   90.00000000
_symmetry_Int_Tables_number   1
_chemical_formula_structural   Tb3In6Bi3O
_chemical_formula_sum   'Tb3 In6 Bi3 O1'
_cell_volume   322.92007208
_cell_formula_units_Z   1
loop_
 _symmetry_equiv_pos_site_id
 _symmetry_equiv_pos_as_xyz
  1  'x, y, z'
loop_
 _atom_site_type_symbol
 _atom_site_label
 _atom_site_symmetry_multiplicity
 _atom_site_fract_x
 _atom_site_fract_y
 _atom_site_fract_z
 _atom_site_occupancy
  Tb  Tb0  1  0.49999999  0.49999999  0.33210000  1
  In  In1  1  0.00000000  0.00000000  0.83417701  1
  Tb  Tb2  1  0.00000000  0.00000000  0.16582300  1
  Tb  Tb3  1  0.49999999  0.49999999  0.66790001  1
  In  In4  1  0.49999999  0.00000000  0.00000000  1
  Bi  Bi5  1  0.00000000  0.49999999  0.50000001  1
  In  In6  1  0.00000000  0.49999999  -0.00000000  1
  In  In7  1  0.49999999  0.00000000  0.50000001  1
  Bi  Bi8  1  0.49999999  0.49999999  0.13114500  1
  In  In9  1  0.00000000  0.00000000  0.63085701  1
  Bi  Bi10  1  0.00000000  0.00000000  0.36914301  1
  In  In11  1  0.49999999  0.49999999  0.86885501  1
  O  O12  1  0.00000000  0.00000000  0.00000000  1
