# generated using pymatgen
data_Ho2(GaCo)5
_symmetry_space_group_name_H-M   'P 1'
_cell_length_a   4.00493813
_cell_length_b   5.06978416
_cell_length_c   8.79404163
_cell_angle_alpha   90.00000000
_cell_angle_beta   90.00000000
_cell_angle_gamma   90.00000000
_symmetry_Int_Tables_number   1
_chemical_formula_structural   Ho2(GaCo)5
_chemical_formula_sum   'Ho2 Ga5 Co5'
_cell_volume   178.55573293
_cell_formula_units_Z   1
loop_
 _symmetry_equiv_pos_site_id
 _symmetry_equiv_pos_as_xyz
  1  'x, y, z'
loop_
 _atom_site_type_symbol
 _atom_site_label
 _atom_site_symmetry_multiplicity
 _atom_site_fract_x
 _atom_site_fract_y
 _atom_site_fract_z
 _atom_site_occupancy
  Ho  Ho0  1  0.00000000  0.49999998  -0.00000000  1
  Ho  Ho1  1  0.00000000  0.00000000  0.50000002  1
  Ga  Ga2  1  0.00000000  0.49999998  0.33306701  1
  Ga  Ga3  1  0.00000000  0.00000000  0.83170503  1
  Ga  Ga4  1  0.00000000  0.00000000  0.16829501  1
  Ga  Ga5  1  0.00000000  0.49999998  0.66693303  1
  Ga  Ga6  1  0.49999998  0.00000000  0.00000000  1
  Co  Co7  1  0.49999998  0.49999998  0.50000002  1
  Co  Co8  1  0.49999998  0.75037298  0.25092401  1
  Co  Co9  1  0.49999998  0.24962699  0.74907603  1
  Co  Co10  1  0.49999998  0.24962699  0.25092401  1
  Co  Co11  1  0.49999998  0.75037298  0.74907603  1
