# generated using pymatgen
data_NdGe2
_symmetry_space_group_name_H-M   'P 1'
_cell_length_a   3.82898402
_cell_length_b   4.76914024
_cell_length_c   8.28047085
_cell_angle_alpha   89.99266815
_cell_angle_beta   90.00000000
_cell_angle_gamma   90.00000000
_symmetry_Int_Tables_number   1
_chemical_formula_structural   NdGe2
_chemical_formula_sum   'Nd2 Ge4'
_cell_volume   151.20936054
_cell_formula_units_Z   2
loop_
 _symmetry_equiv_pos_site_id
 _symmetry_equiv_pos_as_xyz
  1  'x, y, z'
loop_
 _atom_site_type_symbol
 _atom_site_label
 _atom_site_symmetry_multiplicity
 _atom_site_fract_x
 _atom_site_fract_y
 _atom_site_fract_z
 _atom_site_occupancy
  Nd  Nd0  1  0.00000000  0.99998196  0.02825200  1
  Nd  Nd1  1  0.00000000  0.50005898  0.48492098  1
  Ge  Ge2  1  0.50000000  0.49995998  0.83615997  1
  Ge  Ge3  1  0.50000000  0.49994598  0.18152399  1
  Ge  Ge4  1  0.50000000  0.99999296  0.64422797  1
  Ge  Ge5  1  0.50000000  0.99986096  0.32491499  1
