# generated using pymatgen
data_Ba4CdBi2WO12
_symmetry_space_group_name_H-M   'P 1'
_cell_length_a   5.88859272
_cell_length_b   5.88859272
_cell_length_c   10.20739079
_cell_angle_alpha   73.23496246
_cell_angle_beta   73.23496246
_cell_angle_gamma   59.99999237
_symmetry_Int_Tables_number   1
_chemical_formula_structural   Ba4CdBi2WO12
_chemical_formula_sum   'Ba4 Cd1 Bi2 W1 O12'
_cell_volume   289.02465316
_cell_formula_units_Z   1
loop_
 _symmetry_equiv_pos_site_id
 _symmetry_equiv_pos_as_xyz
  1  'x, y, z'
loop_
 _atom_site_type_symbol
 _atom_site_label
 _atom_site_symmetry_multiplicity
 _atom_site_fract_x
 _atom_site_fract_y
 _atom_site_fract_z
 _atom_site_occupancy
  Ba  Ba0  1  0.37502402  0.37502400  0.87492803  1
  Ba  Ba1  1  0.87499905  0.87499900  0.37500300  1
  Ba  Ba2  1  0.12518301  0.12518300  0.62445102  1
  Ba  Ba3  1  0.62481503  0.62481500  0.12555499  1
  Bi  Bi4  1  0.75011804  0.75011800  0.74964601  1
  Cd  Cd5  1  0.24988701  0.24988700  0.25033900  1
  Bi  Bi6  1  0.99978305  0.99978300  0.00065098  1
  W  W7  1  0.50022703  0.50022700  0.49931901  1
  O  O8  1  0.88392903  0.34800100  0.88414102  1
  O  O9  1  0.38385904  0.84864300  0.38363900  1
  O  O10  1  0.15082202  0.61705900  0.61506002  1
  O  O11  1  0.65251502  0.11514500  0.11719500  1
  O  O12  1  0.88392905  0.88392900  0.88414102  1
  O  O13  1  0.38385902  0.38385900  0.38363901  1
  O  O14  1  0.61705902  0.15082200  0.61506002  1
  O  O15  1  0.11514502  0.65251500  0.11719500  1
  O  O16  1  0.34800104  0.88392900  0.88414102  1
  O  O17  1  0.84864303  0.38385900  0.38363900  1
  O  O18  1  0.61705903  0.61705900  0.61506001  1
  O  O19  1  0.11514501  0.11514500  0.11719500  1
