# generated using pymatgen
data_CdPS2
_symmetry_space_group_name_H-M   'P 1'
_cell_length_a   3.05096412
_cell_length_b   3.05096459
_cell_length_c   12.89461803
_cell_angle_alpha   90.00000000
_cell_angle_beta   90.00000000
_cell_angle_gamma   119.99999237
_symmetry_Int_Tables_number   1
_chemical_formula_structural   CdPS2
_chemical_formula_sum   'Cd2 P2 S4'
_cell_volume   103.94734822
_cell_formula_units_Z   2
loop_
 _symmetry_equiv_pos_site_id
 _symmetry_equiv_pos_as_xyz
  1  'x, y, z'
loop_
 _atom_site_type_symbol
 _atom_site_label
 _atom_site_symmetry_multiplicity
 _atom_site_fract_x
 _atom_site_fract_y
 _atom_site_fract_z
 _atom_site_occupancy
  S  S0  1  0.66666663  0.33333333  0.59165700  1
  S  S1  1  0.33333330  0.66666665  0.40834300  1
  S  S2  1  0.33333330  0.66666665  0.09165700  1
  S  S3  1  0.66666663  0.33333333  0.90834300  1
  Cd  Cd4  1  0.66666663  0.33333333  0.25000000  1
  Cd  Cd5  1  0.33333330  0.66666665  0.75000000  1
  P  P6  1  0.00000000  0.00000000  0.50000000  1
  P  P7  1  0.00000000  0.00000000  0.00000000  1
