# generated using pymatgen
data_Ba2HgAs
_symmetry_space_group_name_H-M   'P 1'
_cell_length_a   5.52619219
_cell_length_b   5.54284334
_cell_length_c   5.52619219
_cell_angle_alpha   119.90067291
_cell_angle_beta   90.00000000
_cell_angle_gamma   119.90067291
_symmetry_Int_Tables_number   1
_chemical_formula_structural   Ba2HgAs
_chemical_formula_sum   'Ba2 Hg1 As1'
_cell_volume   120.05172727
_cell_formula_units_Z   1
loop_
 _symmetry_equiv_pos_site_id
 _symmetry_equiv_pos_as_xyz
  1  'x, y, z'
loop_
 _atom_site_type_symbol
 _atom_site_label
 _atom_site_symmetry_multiplicity
 _atom_site_fract_x
 _atom_site_fract_y
 _atom_site_fract_z
 _atom_site_occupancy
  Hg  Hg0  1  0.00000000  0.00000000  0.00000000  1
  As  As1  1  0.49999998  0.00000000  0.49999998  1
  Ba  Ba2  1  0.24999896  0.49999896  0.74999894  1
  Ba  Ba3  1  0.74999994  0.49999896  0.24999996  1
