# generated using pymatgen
data_Cu2Ag3H3(OF4)2
_symmetry_space_group_name_H-M   'P 1'
_cell_length_a   5.85592222
_cell_length_b   5.85590935
_cell_length_c   7.81793737
_cell_angle_alpha   68.58818817
_cell_angle_beta   68.58807373
_cell_angle_gamma   69.55815125
_symmetry_Int_Tables_number   1
_chemical_formula_structural   Cu2Ag3H3(OF4)2
_chemical_formula_sum   'Cu2 Ag3 H3 O2 F8'
_cell_volume   225.03070324
_cell_formula_units_Z   1
loop_
 _symmetry_equiv_pos_site_id
 _symmetry_equiv_pos_as_xyz
  1  'x, y, z'
loop_
 _atom_site_type_symbol
 _atom_site_label
 _atom_site_symmetry_multiplicity
 _atom_site_fract_x
 _atom_site_fract_y
 _atom_site_fract_z
 _atom_site_occupancy
  Ag  Ag0  1  0.50144297  0.49855402  0.49999905  1
  Ag  Ag1  1  0.50430593  0.99298004  0.99941707  1
  Ag  Ag2  1  0.00702796  0.49569002  0.00058802  1
  Cu  Cu3  1  0.08898300  0.08336600  0.70543302  1
  Cu  Cu4  1  0.91663195  0.91101604  0.29456608  1
  H  H5  1  0.33160498  0.31565401  0.21957203  1
  H  H6  1  0.68434596  0.66839503  0.78043007  1
  H  H7  1  0.50927597  0.49074802  0.99999205  1
  F  F8  1  0.24345899  0.24158701  0.47412603  1
  F  F9  1  0.75840995  0.75653803  0.52587307  1
  F  F10  1  0.17696699  0.16962701  0.87384503  1
  F  F11  1  0.83037095  0.82303204  0.12615307  1
  O  O12  1  0.36577398  0.34989602  0.07975303  1
  O  O13  1  0.65010196  0.63422103  0.92025007  1
  F  F14  1  0.75147100  0.18115901  0.73726505  1
  F  F15  1  0.18898595  0.74599603  0.73679605  1
  F  F16  1  0.25400194  0.81101004  0.26320505  1
  F  F17  1  0.81883699  0.24852901  0.26273605  1
