# generated using pymatgen
data_Ca2Lu2Mn5O11
_symmetry_space_group_name_H-M   'P 1'
_cell_length_a   5.32699299
_cell_length_b   5.76151800
_cell_length_c   7.62304735
_cell_angle_alpha   90.00000000
_cell_angle_beta   90.76898956
_cell_angle_gamma   90.00000000
_symmetry_Int_Tables_number   1
_chemical_formula_structural   Ca2Lu2Mn5O11
_chemical_formula_sum   'Ca2 Lu2 Mn5 O11'
_cell_volume   233.94218885
_cell_formula_units_Z   1
loop_
 _symmetry_equiv_pos_site_id
 _symmetry_equiv_pos_as_xyz
  1  'x, y, z'
loop_
 _atom_site_type_symbol
 _atom_site_label
 _atom_site_symmetry_multiplicity
 _atom_site_fract_x
 _atom_site_fract_y
 _atom_site_fract_z
 _atom_site_occupancy
  Mn  Mn0  1  0.50000000  0.50000000  -0.00000000  1
  Mn  Mn1  1  0.00000000  0.00000000  0.50000001  1
  Ca  Ca2  1  0.51965100  0.92041200  0.24831600  1
  Ca  Ca3  1  0.48034900  0.07958800  0.75168402  1
  Lu  Lu4  1  0.98034900  0.42041200  0.25168400  1
  Lu  Lu5  1  0.01965100  0.57958800  0.74831602  1
  Mn  Mn6  1  0.50000000  0.50000000  0.50000001  1
  Mn  Mn7  1  0.00000000  0.00000000  0.00000000  1
  O  O8  1  0.38269800  0.54234700  0.25484700  1
  O  O9  1  0.61730200  0.45765300  0.74515302  1
  O  O10  1  0.11730200  0.04234700  0.24515301  1
  Mn  Mn11  1  0.88269800  0.95765300  0.75484701  1
  O  O12  1  0.67240000  0.20491200  0.43785501  1
  O  O13  1  0.32760000  0.79508800  0.56214501  1
  O  O14  1  0.82760000  0.70491200  0.06214499  1
  O  O15  1  0.17240000  0.29508800  0.93785503  1
  O  O16  1  0.80514000  0.67916100  0.44433001  1
  O  O17  1  0.19486000  0.32083900  0.55567001  1
  O  O18  1  0.69486000  0.17916100  0.05567000  1
  O  O19  1  0.30514000  0.82083900  0.94433003  1
