# generated using pymatgen
data_Bi3(OF)2
_symmetry_space_group_name_H-M   'P 1'
_cell_length_a   6.96725607
_cell_length_b   6.96725607
_cell_length_c   6.96725607
_cell_angle_alpha   60.00000000
_cell_angle_beta   60.00000000
_cell_angle_gamma   60.00000000
_symmetry_Int_Tables_number   1
_chemical_formula_structural   Bi3(OF)2
_chemical_formula_sum   'Bi6 O4 F4'
_cell_volume   239.14996400
_cell_formula_units_Z   2
loop_
 _symmetry_equiv_pos_site_id
 _symmetry_equiv_pos_as_xyz
  1  'x, y, z'
loop_
 _atom_site_type_symbol
 _atom_site_label
 _atom_site_symmetry_multiplicity
 _atom_site_fract_x
 _atom_site_fract_y
 _atom_site_fract_z
 _atom_site_occupancy
  Bi  Bi0  1  0.25000000  0.25000000  0.25000000  1
  Bi  Bi1  1  0.50000000  0.50000000  0.50000000  1
  Bi  Bi2  1  0.37500000  0.87500000  0.87500000  1
  Bi  Bi3  1  0.87500000  0.87500000  0.37500000  1
  Bi  Bi4  1  0.87500000  0.87500000  0.87500000  1
  Bi  Bi5  1  0.87500000  0.37500000  0.87500000  1
  F  F6  1  0.64747600  0.11750800  0.11750800  1
  O  O7  1  0.63249200  0.63249200  0.10252400  1
  O  O8  1  0.63249200  0.63249200  0.63249200  1
  O  O9  1  0.63249200  0.10252400  0.63249200  1
  F  F10  1  0.11750800  0.11750800  0.11750800  1
  F  F11  1  0.11750800  0.64747600  0.11750800  1
  F  F12  1  0.11750800  0.11750800  0.64747600  1
  O  O13  1  0.10252400  0.63249200  0.63249200  1
