# generated using pymatgen
data_Na3LiV3F13
_symmetry_space_group_name_H-M   'P 1'
_cell_length_a   7.28592634
_cell_length_b   7.28592634
_cell_length_c   7.28592634
_cell_angle_alpha   60.00000000
_cell_angle_beta   60.00000000
_cell_angle_gamma   60.00000000
_symmetry_Int_Tables_number   1
_chemical_formula_structural   Na3LiV3F13
_chemical_formula_sum   'Na3 Li1 V3 F13'
_cell_volume   273.48866500
_cell_formula_units_Z   1
loop_
 _symmetry_equiv_pos_site_id
 _symmetry_equiv_pos_as_xyz
  1  'x, y, z'
loop_
 _atom_site_type_symbol
 _atom_site_label
 _atom_site_symmetry_multiplicity
 _atom_site_fract_x
 _atom_site_fract_y
 _atom_site_fract_z
 _atom_site_occupancy
  Na  Na0  1  0.37500001  0.87500001  0.87500001  1
  Na  Na1  1  0.87500001  0.87500001  0.37500001  1
  F  F2  1  0.87500001  0.87500001  0.87500001  1
  Na  Na3  1  0.87500001  0.37500001  0.87500001  1
  Li  Li4  1  0.37500001  0.87500001  0.37500001  1
  V  V5  1  0.87500001  0.37500001  0.37500001  1
  V  V6  1  0.37500001  0.37500001  0.37500001  1
  V  V7  1  0.37500001  0.37500001  0.87500001  1
  F  F8  1  0.03371300  0.46628701  0.03371300  1
  F  F9  1  0.71628701  0.71628701  0.28371300  1
  F  F10  1  0.28371300  0.71628701  0.28371300  1
  F  F11  1  0.46628701  0.03371300  0.03371300  1
  F  F12  1  0.03371300  0.46628701  0.46628701  1
  F  F13  1  0.46628701  0.46628701  0.03371300  1
  F  F14  1  0.71628701  0.28371300  0.28371300  1
  F  F15  1  0.28371300  0.71628701  0.71628701  1
  F  F16  1  0.28371300  0.28371300  0.71628701  1
  F  F17  1  0.46628701  0.03371300  0.46628701  1
  F  F18  1  0.03371300  0.03371300  0.46628701  1
  F  F19  1  0.71628701  0.28371300  0.71628701  1
