# generated using pymatgen
data_CsGa5F12
_symmetry_space_group_name_H-M   'P 1'
_cell_length_a   7.45973063
_cell_length_b   7.45973063
_cell_length_c   7.45973063
_cell_angle_alpha   60.00000000
_cell_angle_beta   60.00000000
_cell_angle_gamma   60.00000000
_symmetry_Int_Tables_number   1
_chemical_formula_structural   CsGa5F12
_chemical_formula_sum   'Cs1 Ga5 F12'
_cell_volume   293.53131326
_cell_formula_units_Z   1
loop_
 _symmetry_equiv_pos_site_id
 _symmetry_equiv_pos_as_xyz
  1  'x, y, z'
loop_
 _atom_site_type_symbol
 _atom_site_label
 _atom_site_symmetry_multiplicity
 _atom_site_fract_x
 _atom_site_fract_y
 _atom_site_fract_z
 _atom_site_occupancy
  Cs  Cs0  1  0.49999999  0.49999999  0.49999999  1
  Ga  Ga1  1  0.24999999  0.24999999  0.24999999  1
  Ga  Ga2  1  0.87499998  0.87499998  0.37499999  1
  Ga  Ga3  1  0.87499998  0.87499998  0.87499998  1
  Ga  Ga4  1  0.87499998  0.37499999  0.87499998  1
  Ga  Ga5  1  0.37499999  0.87499998  0.87499998  1
  F  F6  1  0.19331300  0.80668698  0.19331300  1
  F  F7  1  0.80668698  0.19331300  0.80668698  1
  F  F8  1  0.19331300  0.19331300  0.80668698  1
  F  F9  1  0.80668698  0.80668698  0.19331300  1
  F  F10  1  0.19331300  0.80668698  0.80668698  1
  F  F11  1  0.80668698  0.19331300  0.19331300  1
  F  F12  1  0.55668699  0.94331298  0.55668699  1
  F  F13  1  0.94331298  0.55668699  0.94331298  1
  F  F14  1  0.55668699  0.55668699  0.94331298  1
  F  F15  1  0.94331298  0.94331298  0.55668699  1
  F  F16  1  0.55668699  0.94331298  0.94331298  1
  F  F17  1  0.94331298  0.55668699  0.55668699  1
