# generated using pymatgen
data_P15W
_symmetry_space_group_name_H-M   'P 1'
_cell_length_a   6.36542988
_cell_length_b   6.58449984
_cell_length_c   7.79934311
_cell_angle_alpha   90.00000000
_cell_angle_beta   90.00000000
_cell_angle_gamma   90.00000000
_symmetry_Int_Tables_number   1
_chemical_formula_structural   P15W
_chemical_formula_sum   'P15 W1'
_cell_volume   326.89520914
_cell_formula_units_Z   1
loop_
 _symmetry_equiv_pos_site_id
 _symmetry_equiv_pos_as_xyz
  1  'x, y, z'
loop_
 _atom_site_type_symbol
 _atom_site_label
 _atom_site_symmetry_multiplicity
 _atom_site_fract_x
 _atom_site_fract_y
 _atom_site_fract_z
 _atom_site_occupancy
  P  P0  1  0.02220900  0.16746200  0.25056400  1
  P  P1  1  0.52220901  0.83253802  0.24943600  1
  P  P2  1  0.02220900  0.16746200  0.74943599  1
  P  P3  1  0.52220901  0.83253802  0.75056399  1
  W  W4  1  0.52611501  0.34985901  0.00000000  1
  P  P5  1  0.02611500  0.65014102  0.49999999  1
  P  P6  1  0.01795100  0.67364402  -0.00000000  1
  P  P7  1  0.51795101  0.32635601  0.49999999  1
  P  P8  1  0.38374801  0.15808300  0.72976299  1
  P  P9  1  0.88374802  0.84191702  0.22976300  1
  P  P10  1  0.38374801  0.15808300  0.27023700  1
  P  P11  1  0.93147202  0.33682901  0.00000000  1
  P  P12  1  0.43147201  0.66317102  0.49999999  1
  P  P13  1  0.87454602  0.28592701  0.49999999  1
  P  P14  1  0.37454601  0.71407302  -0.00000000  1
  P  P15  1  0.88374802  0.84191702  0.77023699  1
