# generated using pymatgen
data_Hg2Au
_symmetry_space_group_name_H-M   'P 1'
_cell_length_a   4.40131521
_cell_length_b   4.40131569
_cell_length_c   6.85984707
_cell_angle_alpha   89.99998474
_cell_angle_beta   90.00000000
_cell_angle_gamma   120.00000763
_symmetry_Int_Tables_number   1
_chemical_formula_structural   Hg2Au
_chemical_formula_sum   'Hg2 Au1'
_cell_volume   115.08269534
_cell_formula_units_Z   1
loop_
 _symmetry_equiv_pos_site_id
 _symmetry_equiv_pos_as_xyz
  1  'x, y, z'
loop_
 _atom_site_type_symbol
 _atom_site_label
 _atom_site_symmetry_multiplicity
 _atom_site_fract_x
 _atom_site_fract_y
 _atom_site_fract_z
 _atom_site_occupancy
  Au  Au0  1  0.00000000  0.00000000  0.49999999  1
  Hg  Hg1  1  0.33333336  0.66666667  0.74134598  1
  Hg  Hg2  1  0.66666667  0.33333333  0.25865399  1
