# generated using pymatgen
data_NaLi2AgF6
_symmetry_space_group_name_H-M   'P 1'
_cell_length_a   5.49255610
_cell_length_b   6.05625200
_cell_length_c   5.63750362
_cell_angle_alpha   109.58760071
_cell_angle_beta   90.00000000
_cell_angle_gamma   116.96599579
_symmetry_Int_Tables_number   1
_chemical_formula_structural   NaLi2AgF6
_chemical_formula_sum   'Na1 Li2 Ag1 F6'
_cell_volume   154.86439627
_cell_formula_units_Z   1
loop_
 _symmetry_equiv_pos_site_id
 _symmetry_equiv_pos_as_xyz
  1  'x, y, z'
loop_
 _atom_site_type_symbol
 _atom_site_label
 _atom_site_symmetry_multiplicity
 _atom_site_fract_x
 _atom_site_fract_y
 _atom_site_fract_z
 _atom_site_occupancy
  Na  Na0  1  0.49999997  1.00000002  0.49999997  1
  Li  Li1  1  0.76841298  0.53682601  0.39964898  1
  Li  Li2  1  0.23158699  0.46317401  0.60035098  1
  Ag  Ag3  1  0.00000000  0.00000000  0.00000000  1
  F  F4  1  0.82323797  0.64647601  0.14665198  1
  F  F5  1  0.17676199  0.35352401  0.85334798  1
  F  F6  1  0.87837798  0.25575900  0.35091699  1
  F  F7  1  0.62261897  0.74424101  0.64908297  1
  F  F8  1  0.12162198  0.74424101  0.64908297  1
  F  F9  1  0.37738099  0.25575900  0.35091699  1
