# generated using pymatgen
data_Ga
_symmetry_space_group_name_H-M   'P 1'
_cell_length_a   5.81355810
_cell_length_b   8.48803234
_cell_length_c   8.48803139
_cell_angle_alpha   120.00000000
_cell_angle_beta   90.00000000
_cell_angle_gamma   90.00000000
_symmetry_Int_Tables_number   1
_chemical_formula_structural   Ga
_chemical_formula_sum   Ga18
_cell_volume   362.73265226
_cell_formula_units_Z   18
loop_
 _symmetry_equiv_pos_site_id
 _symmetry_equiv_pos_as_xyz
  1  'x, y, z'
loop_
 _atom_site_type_symbol
 _atom_site_label
 _atom_site_symmetry_multiplicity
 _atom_site_fract_x
 _atom_site_fract_y
 _atom_site_fract_z
 _atom_site_occupancy
  Ga  Ga0  1  0.00000000  0.33333332  0.66666668  1
  Ga  Ga1  1  0.99999998  0.66666663  0.33333333  1
  Ga  Ga2  1  0.49999999  0.66666663  0.33333333  1
  Ga  Ga3  1  0.49999999  0.33333332  0.66666668  1
  Ga  Ga4  1  0.25000000  0.22029599  1.00000003  1
  Ga  Ga5  1  0.25000000  0.77970396  0.77970401  1
  Ga  Ga6  1  0.25000000  0.99999995  0.22029599  1
  Ga  Ga7  1  0.74999999  0.77970396  1.00000002  1
  Ga  Ga8  1  0.74999999  0.22029599  0.22029600  1
  Ga  Ga9  1  0.74999999  0.99999995  0.77970401  1
  Ga  Ga10  1  0.25000000  0.59480697  1.00000002  1
  Ga  Ga11  1  0.25000000  0.40519298  0.40519301  1
  Ga  Ga12  1  0.25000000  0.99999995  0.59480700  1
  Ga  Ga13  1  0.74999999  0.40519298  1.00000003  1
  Ga  Ga14  1  0.74999999  0.59480697  0.59480701  1
  Ga  Ga15  1  0.74999999  0.99999995  0.40519299  1
  Ga  Ga16  1  0.00000000  0.00000000  0.00000000  1
  Ga  Ga17  1  0.49999999  0.00000000  -0.00000000  1
