# generated using pymatgen
data_Ga2SiO4
_symmetry_space_group_name_H-M   'P 1'
_cell_length_a   5.23229599
_cell_length_b   5.23229599
_cell_length_c   9.33915043
_cell_angle_alpha   90.00000000
_cell_angle_beta   90.00000000
_cell_angle_gamma   120.00000000
_symmetry_Int_Tables_number   1
_chemical_formula_structural   Ga2SiO4
_chemical_formula_sum   'Ga4 Si2 O8'
_cell_volume   221.42293872
_cell_formula_units_Z   2
loop_
 _symmetry_equiv_pos_site_id
 _symmetry_equiv_pos_as_xyz
  1  'x, y, z'
loop_
 _atom_site_type_symbol
 _atom_site_label
 _atom_site_symmetry_multiplicity
 _atom_site_fract_x
 _atom_site_fract_y
 _atom_site_fract_z
 _atom_site_occupancy
  Ga  Ga0  1  0.00000000  0.00000000  0.80187696  1
  Ga  Ga1  1  0.00000000  0.00000000  0.30187699  1
  Ga  Ga2  1  0.66666666  0.33333332  0.86472296  1
  Ga  Ga3  1  0.33333332  0.66666663  0.36472298  1
  Si  Si4  1  0.66666666  0.33333332  0.23470299  1
  Si  Si5  1  0.33333332  0.66666663  0.73470297  1
  O  O6  1  0.97001599  0.34655998  0.29564299  1
  O  O7  1  0.65343998  0.62345597  0.29564299  1
  O  O8  1  0.66666666  0.33333332  0.06148000  1
  O  O9  1  0.62345597  0.97001595  0.79564296  1
  O  O10  1  0.37654400  0.02998400  0.29564299  1
  O  O11  1  0.33333332  0.66666663  0.56147997  1
  O  O12  1  0.34655999  0.37654398  0.79564296  1
  O  O13  1  0.02998398  0.65343996  0.79564296  1
