# generated using pymatgen
data_Ba(BiO2)2
_symmetry_space_group_name_H-M   'P 1'
_cell_length_a   5.86460924
_cell_length_b   5.86460924
_cell_length_c   10.09137630
_cell_angle_alpha   90.00000000
_cell_angle_beta   90.00000000
_cell_angle_gamma   117.98766327
_symmetry_Int_Tables_number   1
_chemical_formula_structural   Ba(BiO2)2
_chemical_formula_sum   'Ba2 Bi4 O8'
_cell_volume   306.48780340
_cell_formula_units_Z   2
loop_
 _symmetry_equiv_pos_site_id
 _symmetry_equiv_pos_as_xyz
  1  'x, y, z'
loop_
 _atom_site_type_symbol
 _atom_site_label
 _atom_site_symmetry_multiplicity
 _atom_site_fract_x
 _atom_site_fract_y
 _atom_site_fract_z
 _atom_site_occupancy
  Ba  Ba0  1  0.49999995  0.49999997  0.24999999  1
  Ba  Ba1  1  0.49999995  0.49999997  0.74999998  1
  Bi  Bi2  1  0.23542494  0.76903995  0.49999998  1
  Bi  Bi3  1  0.76457496  0.23095999  0.49999998  1
  Bi  Bi4  1  0.23095994  0.76457495  -0.00000000  1
  Bi  Bi5  1  0.76903996  0.23542499  -0.00000000  1
  O  O6  1  0.19580597  0.35293098  0.49999998  1
  O  O7  1  0.80419394  0.64706896  0.49999998  1
  O  O8  1  0.64706893  0.80419395  -0.00000000  1
  O  O9  1  0.35293098  0.19580599  -0.00000000  1
  O  O10  1  -0.00000003  0.49999997  0.17307299  1
  O  O11  1  0.49999999  0.00000000  0.32692699  1
  O  O12  1  -0.00000003  0.49999997  0.82692698  1
  O  O13  1  0.49999999  0.00000000  0.67307298  1
