# generated using pymatgen
data_Ho2Ge7
_symmetry_space_group_name_H-M   'P 1'
_cell_length_a   4.05952978
_cell_length_b   4.07533503
_cell_length_c   11.14728737
_cell_angle_alpha   90.00000000
_cell_angle_beta   100.49128723
_cell_angle_gamma   90.00000000
_symmetry_Int_Tables_number   1
_chemical_formula_structural   Ho2Ge7
_chemical_formula_sum   'Ho2 Ge7'
_cell_volume   181.33707390
_cell_formula_units_Z   1
loop_
 _symmetry_equiv_pos_site_id
 _symmetry_equiv_pos_as_xyz
  1  'x, y, z'
loop_
 _atom_site_type_symbol
 _atom_site_label
 _atom_site_symmetry_multiplicity
 _atom_site_fract_x
 _atom_site_fract_y
 _atom_site_fract_z
 _atom_site_occupancy
  Ho  Ho0  1  0.77810104  0.50000000  0.55620201  1
  Ho  Ho1  1  0.11690001  0.50000000  0.23380000  1
  Ge  Ge2  1  0.49293403  0.50000000  0.98586702  1
  Ge  Ge3  1  0.37870002  0.50000000  0.75740001  1
  Ge  Ge4  1  0.99214905  0.00000000  0.98429702  1
  Ge  Ge5  1  0.87743405  0.00000000  0.75486901  1
  Ge  Ge6  1  0.67014604  0.00000000  0.34029301  1
  Ge  Ge7  1  0.24078601  0.00000000  0.48157301  1
  Ge  Ge8  1  0.55984903  0.00000000  0.11969900  1
