# generated using pymatgen
data_BaEuP4
_symmetry_space_group_name_H-M   'P 1'
_cell_length_a   3.98707700
_cell_length_b   4.06116915
_cell_length_c   7.03454876
_cell_angle_alpha   90.03562927
_cell_angle_beta   90.00000000
_cell_angle_gamma   90.00000000
_symmetry_Int_Tables_number   1
_chemical_formula_structural   BaEuP4
_chemical_formula_sum   'Ba1 Eu1 P4'
_cell_volume   113.90475684
_cell_formula_units_Z   1
loop_
 _symmetry_equiv_pos_site_id
 _symmetry_equiv_pos_as_xyz
  1  'x, y, z'
loop_
 _atom_site_type_symbol
 _atom_site_label
 _atom_site_symmetry_multiplicity
 _atom_site_fract_x
 _atom_site_fract_y
 _atom_site_fract_z
 _atom_site_occupancy
  Ba  Ba0  1  0.00000000  0.99994395  0.00335703  1
  Eu  Eu1  1  0.00000000  0.49985198  0.49650401  1
  P  P2  1  0.50000000  0.50010598  0.83538501  1
  P  P3  1  0.50000000  0.00011200  0.33224300  1
  P  P4  1  0.50000000  0.49990398  0.17282801  1
  P  P5  1  0.50000000  0.99988195  0.65968403  1
