# generated using pymatgen
data_MgGeO3
_symmetry_space_group_name_H-M   'P 1'
_cell_length_a   5.07771683
_cell_length_b   5.07771683
_cell_length_c   7.26816559
_cell_angle_alpha   69.67270660
_cell_angle_beta   69.67270660
_cell_angle_gamma   89.12112427
_symmetry_Int_Tables_number   1
_chemical_formula_structural   MgGeO3
_chemical_formula_sum   'Mg2 Ge2 O6'
_cell_volume   163.59603745
_cell_formula_units_Z   2
loop_
 _symmetry_equiv_pos_site_id
 _symmetry_equiv_pos_as_xyz
  1  'x, y, z'
loop_
 _atom_site_type_symbol
 _atom_site_label
 _atom_site_symmetry_multiplicity
 _atom_site_fract_x
 _atom_site_fract_y
 _atom_site_fract_z
 _atom_site_occupancy
  Mg  Mg0  1  0.00000002  0.50000002  0.49999999  1
  Mg  Mg1  1  0.50000002  0.00000000  0.50000000  1
  Ge  Ge2  1  0.66652804  0.66652802  0.15560198  1
  Ge  Ge3  1  0.33347202  0.33347201  0.84439799  1
  O  O4  1  0.43461102  0.04395900  0.77996500  1
  O  O5  1  0.04395901  0.43461102  0.77996499  1
  O  O6  1  0.61075504  0.61075502  0.63471498  1
  O  O7  1  0.56538905  0.95604104  0.22003498  1
  O  O8  1  0.38924502  0.38924501  0.36528499  1
  O  O9  1  0.95604105  0.56538902  0.22003498  1
