# generated using pymatgen
data_MoF5
_symmetry_space_group_name_H-M   'P 1'
_cell_length_a   3.57084203
_cell_length_b   4.80145502
_cell_length_c   4.85961676
_cell_angle_alpha   89.99919891
_cell_angle_beta   83.33893585
_cell_angle_gamma   89.99970245
_symmetry_Int_Tables_number   1
_chemical_formula_structural   MoF5
_chemical_formula_sum   'Mo1 F5'
_cell_volume   82.75685312
_cell_formula_units_Z   1
loop_
 _symmetry_equiv_pos_site_id
 _symmetry_equiv_pos_as_xyz
  1  'x, y, z'
loop_
 _atom_site_type_symbol
 _atom_site_label
 _atom_site_symmetry_multiplicity
 _atom_site_fract_x
 _atom_site_fract_y
 _atom_site_fract_z
 _atom_site_occupancy
  F  F0  1  0.00000000  0.00000000  0.00000000  1
  Mo  Mo1  1  0.49999998  0.50000000  0.50000102  1
  F  F2  1  0.45414600  0.20066100  0.79724101  1
  F  F3  1  0.04584596  0.70066200  0.70276205  1
  F  F4  1  0.95415400  0.29933700  0.29723798  1
  F  F5  1  0.54585397  0.79933900  0.20275803  1
