# generated using pymatgen
data_TbSi2Os3
_symmetry_space_group_name_H-M   'P 1'
_cell_length_a   3.73701596
_cell_length_b   5.35878992
_cell_length_c   5.35878992
_cell_angle_alpha   120.00000000
_cell_angle_beta   90.00000000
_cell_angle_gamma   90.00000000
_symmetry_Int_Tables_number   1
_chemical_formula_structural   TbSi2Os3
_chemical_formula_sum   'Tb1 Si2 Os3'
_cell_volume   92.93708537
_cell_formula_units_Z   1
loop_
 _symmetry_equiv_pos_site_id
 _symmetry_equiv_pos_as_xyz
  1  'x, y, z'
loop_
 _atom_site_type_symbol
 _atom_site_label
 _atom_site_symmetry_multiplicity
 _atom_site_fract_x
 _atom_site_fract_y
 _atom_site_fract_z
 _atom_site_occupancy
  Tb  Tb0  1  0.00000000  0.00000000  0.00000000  1
  Si  Si1  1  0.00000000  0.33333333  0.66666664  1
  Si  Si2  1  1.00000001  0.66666667  0.33333330  1
  Os  Os3  1  0.50000001  0.50000000  -0.00000001  1
  Os  Os4  1  0.50000001  0.50000000  0.49999997  1
  Os  Os5  1  0.50000001  0.00000000  0.49999998  1
