# generated using pymatgen
data_Tb8Ga5
_symmetry_space_group_name_H-M   'P 1'
_cell_length_a   7.31557798
_cell_length_b   7.31557798
_cell_length_c   7.31557798
_cell_angle_alpha   90.00000000
_cell_angle_beta   90.00000000
_cell_angle_gamma   90.00000000
_symmetry_Int_Tables_number   1
_chemical_formula_structural   Tb8Ga5
_chemical_formula_sum   'Tb8 Ga5'
_cell_volume   391.51277061
_cell_formula_units_Z   1
loop_
 _symmetry_equiv_pos_site_id
 _symmetry_equiv_pos_as_xyz
  1  'x, y, z'
loop_
 _atom_site_type_symbol
 _atom_site_label
 _atom_site_symmetry_multiplicity
 _atom_site_fract_x
 _atom_site_fract_y
 _atom_site_fract_z
 _atom_site_occupancy
  Tb  Tb0  1  0.25110000  0.25110000  0.74890000  1
  Tb  Tb1  1  0.25110000  0.74890000  0.25110000  1
  Tb  Tb2  1  0.74890000  0.25110000  0.25110000  1
  Tb  Tb3  1  0.74890000  0.74890000  0.74890000  1
  Tb  Tb4  1  0.74890000  0.74890000  0.25110000  1
  Tb  Tb5  1  0.74890000  0.25110000  0.74890000  1
  Tb  Tb6  1  0.25110000  0.74890000  0.74890000  1
  Tb  Tb7  1  0.25110000  0.25110000  0.25110000  1
  Ga  Ga8  1  0.00000000  0.00000000  0.00000000  1
  Ga  Ga9  1  0.50000000  0.50000000  -0.00000000  1
  Ga  Ga10  1  0.50000000  0.00000000  0.50000000  1
  Ga  Ga11  1  0.00000000  0.50000000  0.50000000  1
  Ga  Ga12  1  0.50000000  0.50000000  0.50000000  1
