# generated using pymatgen
data_Cs4WCl10O
_symmetry_space_group_name_H-M   'P 1'
_cell_length_a   6.48398018
_cell_length_b   6.97146654
_cell_length_c   12.51321888
_cell_angle_alpha   100.38861847
_cell_angle_beta   90.00000000
_cell_angle_gamma   117.71261597
_symmetry_Int_Tables_number   1
_chemical_formula_structural   Cs4WCl10O
_chemical_formula_sum   'Cs4 W1 Cl10 O1'
_cell_volume   490.25222908
_cell_formula_units_Z   1
loop_
 _symmetry_equiv_pos_site_id
 _symmetry_equiv_pos_as_xyz
  1  'x, y, z'
loop_
 _atom_site_type_symbol
 _atom_site_label
 _atom_site_symmetry_multiplicity
 _atom_site_fract_x
 _atom_site_fract_y
 _atom_site_fract_z
 _atom_site_occupancy
  W  W0  1  0.49999996  0.49999997  0.49999998  1
  O  O1  1  -0.00000003  0.49999997  -0.00000001  1
  Cs  Cs2  1  0.11857900  0.00000000  0.74999999  1
  Cs  Cs3  1  0.88142098  0.00000000  0.25000000  1
  Cl  Cl4  1  0.53717093  0.83830695  0.60375597  1
  Cl  Cl5  1  0.46282898  0.16169299  0.39624399  1
  Cl  Cl6  1  0.69886397  0.16169299  0.89624399  1
  Cs  Cs7  1  0.30113594  0.83830695  0.10375598  1
  Cl  Cl8  1  0.62958496  0.42817097  0.65927198  1
  Cl  Cl9  1  0.37041495  0.57182896  0.34072798  1
  Cl  Cl10  1  0.20141396  0.57182896  0.84072798  1
  Cl  Cl11  1  0.79858595  0.42817097  0.15927199  1
  Cl  Cl12  1  0.20461398  0.30989698  0.04025399  1
  Cs  Cs13  1  0.79538594  0.69010295  0.95974597  1
  Cl  Cl14  1  0.89471693  0.69010295  0.45974598  1
  Cl  Cl15  1  0.10528298  0.30989698  0.54025399  1
