# generated using pymatgen
data_Kr
_symmetry_space_group_name_H-M   'P 1'
_cell_length_a   4.35714817
_cell_length_b   4.51628256
_cell_length_c   7.36809778
_cell_angle_alpha   90.00000000
_cell_angle_beta   90.00000000
_cell_angle_gamma   118.84109497
_symmetry_Int_Tables_number   1
_chemical_formula_structural   Kr
_chemical_formula_sum   Kr2
_cell_volume   127.00579766
_cell_formula_units_Z   2
loop_
 _symmetry_equiv_pos_site_id
 _symmetry_equiv_pos_as_xyz
  1  'x, y, z'
loop_
 _atom_site_type_symbol
 _atom_site_label
 _atom_site_symmetry_multiplicity
 _atom_site_fract_x
 _atom_site_fract_y
 _atom_site_fract_z
 _atom_site_occupancy
  Kr  Kr0  1  0.35078194  0.70156400  0.25000001  1
  Kr  Kr1  1  0.64921796  0.29843600  0.75000002  1
