# generated using pymatgen
data_Ga
_symmetry_space_group_name_H-M   'P 1'
_cell_length_a   3.52656507
_cell_length_b   6.51519394
_cell_length_c   8.82210064
_cell_angle_alpha   90.00000000
_cell_angle_beta   90.00000000
_cell_angle_gamma   90.00000000
_symmetry_Int_Tables_number   1
_chemical_formula_structural   Ga
_chemical_formula_sum   Ga12
_cell_volume   202.69883747
_cell_formula_units_Z   12
loop_
 _symmetry_equiv_pos_site_id
 _symmetry_equiv_pos_as_xyz
  1  'x, y, z'
loop_
 _atom_site_type_symbol
 _atom_site_label
 _atom_site_symmetry_multiplicity
 _atom_site_fract_x
 _atom_site_fract_y
 _atom_site_fract_z
 _atom_site_occupancy
  Ga  Ga0  1  0.24999999  0.27963300  0.83690403  1
  Ga  Ga1  1  0.74999998  0.72036701  0.16309601  1
  Ga  Ga2  1  0.24999999  0.77963301  0.66309603  1
  Ga  Ga3  1  0.74999998  0.22036700  0.33690401  1
  Ga  Ga4  1  0.24999999  0.90348001  0.35645901  1
  Ga  Ga5  1  0.74999998  0.09652000  0.64354103  1
  Ga  Ga6  1  0.24999999  0.40348000  0.14354101  1
  Ga  Ga7  1  0.74999998  0.59652001  0.85645904  1
  Ga  Ga8  1  0.74999998  0.61026801  0.46084002  1
  Ga  Ga9  1  0.24999999  0.38973200  0.53916002  1
  Ga  Ga10  1  0.74999998  0.11026800  0.03916000  1
  Ga  Ga11  1  0.24999999  0.88973201  0.96084004  1
