# generated using pymatgen
data_BaMgBNCl2
_symmetry_space_group_name_H-M   'P 1'
_cell_length_a   3.81318212
_cell_length_b   3.81318212
_cell_length_c   5.82374954
_cell_angle_alpha   109.10995483
_cell_angle_beta   109.10995483
_cell_angle_gamma   90.00000000
_symmetry_Int_Tables_number   1
_chemical_formula_structural   BaMgBNCl2
_chemical_formula_sum   'Ba1 Mg1 B1 N1 Cl2'
_cell_volume   75.05681272
_cell_formula_units_Z   1
loop_
 _symmetry_equiv_pos_site_id
 _symmetry_equiv_pos_as_xyz
  1  'x, y, z'
loop_
 _atom_site_type_symbol
 _atom_site_label
 _atom_site_symmetry_multiplicity
 _atom_site_fract_x
 _atom_site_fract_y
 _atom_site_fract_z
 _atom_site_occupancy
  Ba  Ba0  1  0.00000000  0.00000000  0.00000000  1
  Mg  Mg1  1  0.35512401  0.35512400  0.71024805  1
  B  B2  1  0.64487602  0.64487599  0.28975206  1
  Cl  Cl3  1  0.25000003  0.74999999  0.50000006  1
  Cl  Cl4  1  0.75000000  0.25000000  0.50000005  1
  N  N5  1  0.50000001  0.50000000  0.00000004  1
