# generated using pymatgen
data_MoS
_symmetry_space_group_name_H-M   'P 1'
_cell_length_a   3.37109399
_cell_length_b   3.37109494
_cell_length_c   13.33129978
_cell_angle_alpha   90.00000000
_cell_angle_beta   90.00000000
_cell_angle_gamma   119.99999237
_symmetry_Int_Tables_number   1
_chemical_formula_structural   MoS
_chemical_formula_sum   'Mo4 S4'
_cell_volume   131.20337440
_cell_formula_units_Z   4
loop_
 _symmetry_equiv_pos_site_id
 _symmetry_equiv_pos_as_xyz
  1  'x, y, z'
loop_
 _atom_site_type_symbol
 _atom_site_label
 _atom_site_symmetry_multiplicity
 _atom_site_fract_x
 _atom_site_fract_y
 _atom_site_fract_z
 _atom_site_occupancy
  Mo  Mo0  1  0.66666667  0.33333332  0.75398401  1
  Mo  Mo1  1  0.33333334  0.66666665  0.25398400  1
  Mo  Mo2  1  0.66666667  0.33333332  0.53617701  1
  S  S3  1  0.33333334  0.66666665  0.03617700  1
  Mo  Mo4  1  0.66666667  0.33333332  0.13362700  1
  S  S5  1  0.33333334  0.66666665  0.87021201  1
  S  S6  1  0.33333334  0.66666665  0.63362701  1
  S  S7  1  0.66666667  0.33333332  0.37021201  1
