# generated using pymatgen
data_LuB2Rh3
_symmetry_space_group_name_H-M   'P 1'
_cell_length_a   3.02532792
_cell_length_b   5.05890417
_cell_length_c   5.05890369
_cell_angle_alpha   120.00000000
_cell_angle_beta   90.00000000
_cell_angle_gamma   90.00000000
_symmetry_Int_Tables_number   1
_chemical_formula_structural   LuB2Rh3
_chemical_formula_sum   'Lu1 B2 Rh3'
_cell_volume   67.05265085
_cell_formula_units_Z   1
loop_
 _symmetry_equiv_pos_site_id
 _symmetry_equiv_pos_as_xyz
  1  'x, y, z'
loop_
 _atom_site_type_symbol
 _atom_site_label
 _atom_site_symmetry_multiplicity
 _atom_site_fract_x
 _atom_site_fract_y
 _atom_site_fract_z
 _atom_site_occupancy
  Lu  Lu0  1  0.00000000  0.00000000  0.00000000  1
  Rh  Rh1  1  0.50000001  0.49999997  0.49999998  1
  Rh  Rh2  1  0.50000001  0.49999997  -0.00000002  1
  Rh  Rh3  1  0.50000001  0.00000000  0.50000000  1
  B  B4  1  -0.00000000  0.66666663  0.33333330  1
  B  B5  1  -0.00000000  0.33333331  0.66666665  1
