# generated using pymatgen
data_NbMo7P4
_symmetry_space_group_name_H-M   'P 1'
_cell_length_a   3.85230899
_cell_length_b   6.38985920
_cell_length_c   7.46001577
_cell_angle_alpha   90.00000000
_cell_angle_beta   90.00000000
_cell_angle_gamma   90.00000000
_symmetry_Int_Tables_number   1
_chemical_formula_structural   NbMo7P4
_chemical_formula_sum   'Nb1 Mo7 P4'
_cell_volume   183.63360003
_cell_formula_units_Z   1
loop_
 _symmetry_equiv_pos_site_id
 _symmetry_equiv_pos_as_xyz
  1  'x, y, z'
loop_
 _atom_site_type_symbol
 _atom_site_label
 _atom_site_symmetry_multiplicity
 _atom_site_fract_x
 _atom_site_fract_y
 _atom_site_fract_z
 _atom_site_occupancy
  Nb  Nb0  1  0.75000000  0.03092200  0.68150902  1
  Mo  Mo1  1  0.25000000  0.96907797  0.31849101  1
  Mo  Mo2  1  0.25000000  0.46907799  0.18150901  1
  Mo  Mo3  1  0.75000000  0.53092198  0.81849102  1
  P  P4  1  0.25000000  0.25065799  0.87803403  1
  P  P5  1  0.75000000  0.74934198  0.12196600  1
  P  P6  1  0.25000000  0.75065798  0.62196602  1
  P  P7  1  0.75000000  0.24934199  0.37803401  1
  Mo  Mo8  1  0.75000000  0.14401800  0.06375400  1
  Mo  Mo9  1  0.25000000  0.85598197  0.93624603  1
  Mo  Mo10  1  0.25000000  0.35598199  0.56375402  1
  Mo  Mo11  1  0.75000000  0.64401798  0.43624601  1
