# generated using pymatgen
data_Te3Mo2
_symmetry_space_group_name_H-M   'P 1'
_cell_length_a   4.04388237
_cell_length_b   4.04388237
_cell_length_c   16.47339439
_cell_angle_alpha   82.94974518
_cell_angle_beta   82.94974518
_cell_angle_gamma   59.99999237
_symmetry_Int_Tables_number   1
_chemical_formula_structural   Te3Mo2
_chemical_formula_sum   'Te6 Mo4'
_cell_volume   230.94285701
_cell_formula_units_Z   2
loop_
 _symmetry_equiv_pos_site_id
 _symmetry_equiv_pos_as_xyz
  1  'x, y, z'
loop_
 _atom_site_type_symbol
 _atom_site_label
 _atom_site_symmetry_multiplicity
 _atom_site_fract_x
 _atom_site_fract_y
 _atom_site_fract_z
 _atom_site_occupancy
  Te  Te0  1  0.59821701  0.59821701  0.20534902  1
  Te  Te1  1  0.20081800  0.20081800  0.39754601  1
  Te  Te2  1  0.79918202  0.79918202  0.60245403  1
  Mo  Mo3  1  0.40178301  0.40178301  0.79465103  1
  Te  Te4  1  0.00000000  0.00000000  0.00000000  1
  Te  Te5  1  0.70145902  0.70145902  0.89562304  1
  Mo  Mo6  1  0.50000001  0.50000001  0.50000002  1
  Te  Te7  1  0.10035800  0.10035800  0.69892602  1
  Mo  Mo8  1  0.29854101  0.29854101  0.10437701  1
  Mo  Mo9  1  0.89964202  0.89964202  0.30107403  1
