# generated using pymatgen
data_Nd3Ge8
_symmetry_space_group_name_H-M   'P 1'
_cell_length_a   4.09862423
_cell_length_b   4.22306585
_cell_length_c   12.69671917
_cell_angle_alpha   99.57307434
_cell_angle_beta   99.28844452
_cell_angle_gamma   90.00000000
_symmetry_Int_Tables_number   1
_chemical_formula_structural   Nd3Ge8
_chemical_formula_sum   'Nd3 Ge8'
_cell_volume   213.78135718
_cell_formula_units_Z   1
loop_
 _symmetry_equiv_pos_site_id
 _symmetry_equiv_pos_as_xyz
  1  'x, y, z'
loop_
 _atom_site_type_symbol
 _atom_site_label
 _atom_site_symmetry_multiplicity
 _atom_site_fract_x
 _atom_site_fract_y
 _atom_site_fract_z
 _atom_site_occupancy
  Nd  Nd0  1  0.00000000  0.00000000  0.00000000  1
  Nd  Nd1  1  0.85379094  0.35379101  0.70758200  1
  Nd  Nd2  1  0.14620898  0.64620902  0.29241800  1
  Ge  Ge3  1  0.69623495  0.19623501  0.39247000  1
  Ge  Ge4  1  0.30376497  0.80376502  0.60753000  1
  Ge  Ge5  1  0.45156796  0.45156801  0.90313601  1
  Ge  Ge6  1  0.54843196  0.54843202  0.09686399  1
  Ge  Ge7  1  0.59735096  0.09735100  0.19470199  1
  Ge  Ge8  1  0.40264896  0.90264903  0.80529801  1
  Ge  Ge9  1  0.24947198  0.24947201  0.49894401  1
  Ge  Ge10  1  0.75052794  0.75052802  0.50105599  1
