# generated using pymatgen
data_PrGe3Os
_symmetry_space_group_name_H-M   'P 1'
_cell_length_a   4.31132698
_cell_length_b   4.31132698
_cell_length_c   6.11454868
_cell_angle_alpha   110.64316559
_cell_angle_beta   110.64315033
_cell_angle_gamma   90.00000000
_symmetry_Int_Tables_number   1
_chemical_formula_structural   PrGe3Os
_chemical_formula_sum   'Pr1 Ge3 Os1'
_cell_volume   98.52086347
_cell_formula_units_Z   1
loop_
 _symmetry_equiv_pos_site_id
 _symmetry_equiv_pos_as_xyz
  1  'x, y, z'
loop_
 _atom_site_type_symbol
 _atom_site_label
 _atom_site_symmetry_multiplicity
 _atom_site_fract_x
 _atom_site_fract_y
 _atom_site_fract_z
 _atom_site_occupancy
  Pr  Pr0  1  0.98350698  0.98350702  0.96701396  1
  Ge  Ge1  1  0.74654399  0.24654400  0.49308796  1
  Ge  Ge2  1  0.24654399  0.74654402  0.49308800  1
  Ge  Ge3  1  0.39674899  0.39674901  0.79349797  1
  Os  Os4  1  0.62665599  0.62665501  0.25331099  1
