# generated using pymatgen
data_Zn(HN)2
_symmetry_space_group_name_H-M   'P 1'
_cell_length_a   3.18588996
_cell_length_b   3.18589020
_cell_length_c   4.78161812
_cell_angle_alpha   90.00000000
_cell_angle_beta   90.00000000
_cell_angle_gamma   120.00000000
_symmetry_Int_Tables_number   1
_chemical_formula_structural   Zn(HN)2
_chemical_formula_sum   'Zn1 H2 N2'
_cell_volume   42.03074568
_cell_formula_units_Z   1
loop_
 _symmetry_equiv_pos_site_id
 _symmetry_equiv_pos_as_xyz
  1  'x, y, z'
loop_
 _atom_site_type_symbol
 _atom_site_label
 _atom_site_symmetry_multiplicity
 _atom_site_fract_x
 _atom_site_fract_y
 _atom_site_fract_z
 _atom_site_occupancy
  Zn  Zn0  1  0.00000000  0.00000000  0.00000000  1
  H  H1  1  0.33333338  0.66666670  0.42130099  1
  N  N2  1  0.66666669  0.33333335  0.57869899  1
  N  N3  1  0.33333338  0.66666670  0.21822399  1
  H  H4  1  0.66666669  0.33333335  0.78177598  1
