# generated using pymatgen
data_TbGa
_symmetry_space_group_name_H-M   'P 1'
_cell_length_a   6.25362492
_cell_length_b   7.96827221
_cell_length_c   7.96827221
_cell_angle_alpha   60.00000000
_cell_angle_beta   90.00000000
_cell_angle_gamma   90.00000000
_symmetry_Int_Tables_number   1
_chemical_formula_structural   TbGa
_chemical_formula_sum   'Tb6 Ga6'
_cell_volume   343.86722566
_cell_formula_units_Z   6
loop_
 _symmetry_equiv_pos_site_id
 _symmetry_equiv_pos_as_xyz
  1  'x, y, z'
loop_
 _atom_site_type_symbol
 _atom_site_label
 _atom_site_symmetry_multiplicity
 _atom_site_fract_x
 _atom_site_fract_y
 _atom_site_fract_z
 _atom_site_occupancy
  Tb  Tb0  1  0.00000000  0.00000000  0.31461799  1
  Tb  Tb1  1  1.00000001  0.31461799  0.68538198  1
  Tb  Tb2  1  -0.00000000  0.68538198  0.99999998  1
  Tb  Tb3  1  0.50000001  0.00000000  0.64682998  1
  Tb  Tb4  1  0.50000001  0.64682998  0.35316999  1
  Tb  Tb5  1  0.50000001  0.35316999  -0.00000000  1
  Ga  Ga6  1  0.28994100  0.00000000  -0.00000000  1
  Ga  Ga7  1  0.71005901  0.00000000  -0.00000000  1
  Ga  Ga8  1  0.22215700  0.33333332  0.33333332  1
  Ga  Ga9  1  0.77784301  0.33333332  0.33333332  1
  Ga  Ga10  1  0.22215700  0.66666665  0.66666665  1
  Ga  Ga11  1  0.77784301  0.66666665  0.66666665  1
