# generated using pymatgen
data_HoCo3
_symmetry_space_group_name_H-M   'P 1'
_cell_length_a   5.06052160
_cell_length_b   5.06052160
_cell_length_c   8.52890682
_cell_angle_alpha   72.74237061
_cell_angle_beta   72.74237061
_cell_angle_gamma   60.00000763
_symmetry_Int_Tables_number   1
_chemical_formula_structural   HoCo3
_chemical_formula_sum   'Ho3 Co9'
_cell_volume   177.70879154
_cell_formula_units_Z   3
loop_
 _symmetry_equiv_pos_site_id
 _symmetry_equiv_pos_as_xyz
  1  'x, y, z'
loop_
 _atom_site_type_symbol
 _atom_site_label
 _atom_site_symmetry_multiplicity
 _atom_site_fract_x
 _atom_site_fract_y
 _atom_site_fract_z
 _atom_site_occupancy
  Ho  Ho0  1  0.85809197  0.85809197  0.42572503  1
  Ho  Ho1  1  0.14190799  0.14190799  0.57427499  1
  Ho  Ho2  1  0.00000000  0.00000000  0.00000000  1
  Co  Co3  1  0.41826798  0.91782597  0.24563902  1
  Co  Co4  1  0.41826798  0.41826798  0.24563901  1
  Co  Co5  1  0.91782597  0.41826798  0.24563902  1
  Co  Co6  1  0.58173198  0.08217400  0.75436099  1
  Co  Co7  1  0.58173198  0.58173198  0.75436100  1
  Co  Co8  1  0.08217400  0.58173198  0.75436099  1
  Co  Co9  1  0.66730697  0.66730698  0.99807900  1
  Co  Co10  1  0.33269299  0.33269299  0.00192101  1
  Co  Co11  1  0.49999998  0.49999998  0.50000001  1
