# generated using pymatgen
data_MoPWS6
_symmetry_space_group_name_H-M   'P 1'
_cell_length_a   3.29268599
_cell_length_b   5.18558502
_cell_length_c   7.73342085
_cell_angle_alpha   91.27633667
_cell_angle_beta   90.00000000
_cell_angle_gamma   108.51086426
_symmetry_Int_Tables_number   1
_chemical_formula_structural   MoPWS6
_chemical_formula_sum   'Mo1 P1 W1 S6'
_cell_volume   125.17825499
_cell_formula_units_Z   1
loop_
 _symmetry_equiv_pos_site_id
 _symmetry_equiv_pos_as_xyz
  1  'x, y, z'
loop_
 _atom_site_type_symbol
 _atom_site_label
 _atom_site_symmetry_multiplicity
 _atom_site_fract_x
 _atom_site_fract_y
 _atom_site_fract_z
 _atom_site_occupancy
  S  S0  1  0.44476694  0.88953403  0.75928598  1
  S  S1  1  0.55523299  0.11046600  0.24071400  1
  S  S2  1  0.13726498  0.27453001  0.54745599  1
  S  S3  1  0.86273495  0.72547002  0.45254399  1
  S  S4  1  0.13917598  0.27835201  0.94420899  1
  S  S5  1  0.86082395  0.72164802  0.05579099  1
  W  W6  1  0.74871797  0.49743601  0.75203899  1
  Mo  Mo7  1  0.25128196  0.50256401  0.24796099  1
  P  P8  1  0.50000000  0.00000000  0.50000000  1
