# generated using pymatgen
data_SrCa2Ga6O11
_symmetry_space_group_name_H-M   'P 1'
_cell_length_a   5.40664577
_cell_length_b   5.54239273
_cell_length_c   7.61607981
_cell_angle_alpha   90.00000000
_cell_angle_beta   90.00000000
_cell_angle_gamma   89.81546783
_symmetry_Int_Tables_number   1
_chemical_formula_structural   SrCa2Ga6O11
_chemical_formula_sum   'Sr1 Ca2 Ga6 O11'
_cell_volume   228.22039212
_cell_formula_units_Z   1
loop_
 _symmetry_equiv_pos_site_id
 _symmetry_equiv_pos_as_xyz
  1  'x, y, z'
loop_
 _atom_site_type_symbol
 _atom_site_label
 _atom_site_symmetry_multiplicity
 _atom_site_fract_x
 _atom_site_fract_y
 _atom_site_fract_z
 _atom_site_occupancy
  Sr  Sr0  1  0.01073300  0.04587300  0.50000001  1
  Ca  Ca1  1  0.51086999  0.45296000  1.00000003  1
  Ca  Ca2  1  0.48499499  0.55258200  0.50000001  1
  Ga  Ga3  1  0.98320499  0.94258500  1.00000003  1
  Ga  Ga4  1  0.99978301  0.49667000  0.24862101  1
  Ga  Ga5  1  0.49884602  0.00267700  0.75138702  1
  Ga  Ga6  1  0.99978301  0.49667000  0.75137902  1
  Ga  Ga7  1  0.49884602  0.00267700  0.24861301  1
  O  O8  1  0.90929201  0.47596300  0.50000001  1
  O  O9  1  0.58503897  0.97542700  0.50000001  1
  Ga  Ga10  1  0.08688597  0.53362700  0.00000000  1
  O  O11  1  0.39794902  0.02431600  1.00000003  1
  O  O12  1  0.79578702  0.20407900  0.19877801  1
  O  O13  1  0.71393199  0.71483500  0.79871602  1
  O  O14  1  0.21294896  0.78687500  0.70449002  1
  O  O15  1  0.29421999  0.29319700  0.29564601  1
  O  O16  1  0.21294896  0.78687500  0.29551001  1
  O  O17  1  0.29421999  0.29319700  0.70435402  1
  O  O18  1  0.79578702  0.20407900  0.80122202  1
  O  O19  1  0.71393199  0.71483500  0.20128401  1
