# generated using pymatgen
data_Li2P3O7
_symmetry_space_group_name_H-M   'P 1'
_cell_length_a   5.24396801
_cell_length_b   5.25249147
_cell_length_c   6.38644218
_cell_angle_alpha   86.32131958
_cell_angle_beta   73.21033478
_cell_angle_gamma   68.82666016
_symmetry_Int_Tables_number   1
_chemical_formula_structural   Li2P3O7
_chemical_formula_sum   'Li2 P3 O7'
_cell_volume   156.88082949
_cell_formula_units_Z   1
loop_
 _symmetry_equiv_pos_site_id
 _symmetry_equiv_pos_as_xyz
  1  'x, y, z'
loop_
 _atom_site_type_symbol
 _atom_site_label
 _atom_site_symmetry_multiplicity
 _atom_site_fract_x
 _atom_site_fract_y
 _atom_site_fract_z
 _atom_site_occupancy
  Li  Li0  1  0.25620699  0.20293600  0.70700500  1
  Li  Li1  1  0.74379297  0.79706398  0.29299503  1
  P  P2  1  0.86831997  0.82536098  0.77162002  1
  P  P3  1  0.13167999  0.17463900  0.22838000  1
  O  O4  1  0.13381698  0.58500399  0.64726502  1
  O  O5  1  0.35538700  0.09764100  0.36681200  1
  O  O6  1  0.94553600  0.07867400  0.78345899  1
  O  O7  1  0.72869697  0.74432699  0.99893002  1
  O  O8  1  0.27130299  0.25567299  0.00107001  1
  P  P9  1  0.05446397  0.92132598  0.21654103  1
  O  O10  1  0.64461297  0.90235898  0.63318803  1
  O  O11  1  0.86618298  0.41499599  0.35273501  1
