# generated using pymatgen
data_Cs3P2AuO8
_symmetry_space_group_name_H-M   'P 1'
_cell_length_a   5.65804958
_cell_length_b   5.65805006
_cell_length_c   8.29642010
_cell_angle_alpha   90.00000000
_cell_angle_beta   90.00000000
_cell_angle_gamma   120.00000763
_symmetry_Int_Tables_number   1
_chemical_formula_structural   Cs3P2AuO8
_chemical_formula_sum   'Cs3 P2 Au1 O8'
_cell_volume   230.01431633
_cell_formula_units_Z   1
loop_
 _symmetry_equiv_pos_site_id
 _symmetry_equiv_pos_as_xyz
  1  'x, y, z'
loop_
 _atom_site_type_symbol
 _atom_site_label
 _atom_site_symmetry_multiplicity
 _atom_site_fract_x
 _atom_site_fract_y
 _atom_site_fract_z
 _atom_site_occupancy
  Cs  Cs0  1  0.00000000  0.00000000  0.49999999  1
  Cs  Cs1  1  0.66666665  0.33333333  0.74036999  1
  Cs  Cs2  1  0.33333332  0.66666665  0.25963000  1
  Au  Au3  1  0.00000000  0.00000000  0.00000000  1
  P  P4  1  0.66666665  0.33333333  0.21622700  1
  P  P5  1  0.33333332  0.66666665  0.78377299  1
  O  O6  1  0.36603999  0.18302000  0.15208000  1
  O  O7  1  0.81697998  0.18302000  0.15208000  1
  O  O8  1  0.81697997  0.63395998  0.15208000  1
  O  O9  1  0.63395997  0.81697998  0.84791999  1
  O  O10  1  0.18301998  0.81697998  0.84791999  1
  O  O11  1  0.18301999  0.36603999  0.84791999  1
  O  O12  1  0.66666665  0.33333333  0.40063200  1
  O  O13  1  0.33333332  0.66666665  0.59936799  1
