# generated using pymatgen
data_CoMo2P3
_symmetry_space_group_name_H-M   'P 1'
_cell_length_a   4.54565811
_cell_length_b   4.54565859
_cell_length_c   7.40105295
_cell_angle_alpha   90.00000000
_cell_angle_beta   90.00000000
_cell_angle_gamma   119.99999237
_symmetry_Int_Tables_number   1
_chemical_formula_structural   CoMo2P3
_chemical_formula_sum   'Co2 Mo4 P6'
_cell_volume   132.43956905
_cell_formula_units_Z   2
loop_
 _symmetry_equiv_pos_site_id
 _symmetry_equiv_pos_as_xyz
  1  'x, y, z'
loop_
 _atom_site_type_symbol
 _atom_site_label
 _atom_site_symmetry_multiplicity
 _atom_site_fract_x
 _atom_site_fract_y
 _atom_site_fract_z
 _atom_site_occupancy
  Mo  Mo0  1  0.66666663  0.33333332  0.07132800  1
  Mo  Mo1  1  0.33333328  0.66666665  0.92867201  1
  P  P2  1  0.00000000  0.00000000  0.50000000  1
  P  P3  1  0.00000000  0.00000000  0.00000000  1
  P  P4  1  0.34182498  0.17091199  0.74677800  1
  P  P5  1  0.82908694  0.65817398  0.74677800  1
  Co  Co6  1  0.82908697  0.17091199  0.74677800  1
  P  P7  1  0.65817493  0.82908797  0.25322200  1
  Co  Co8  1  0.17091297  0.34182599  0.25322200  1
  P  P9  1  0.17091294  0.82908797  0.25322200  1
  Mo  Mo10  1  0.33333328  0.66666665  0.56090200  1
  Mo  Mo11  1  0.66666663  0.33333332  0.43909800  1
