# generated using pymatgen
data_TbCoGe
_symmetry_space_group_name_H-M   'P 1'
_cell_length_a   3.98989010
_cell_length_b   3.98988986
_cell_length_c   16.22742271
_cell_angle_alpha   90.00000000
_cell_angle_beta   90.00000000
_cell_angle_gamma   120.00000000
_symmetry_Int_Tables_number   1
_chemical_formula_structural   TbCoGe
_chemical_formula_sum   'Tb4 Co4 Ge4'
_cell_volume   223.71856326
_cell_formula_units_Z   4
loop_
 _symmetry_equiv_pos_site_id
 _symmetry_equiv_pos_as_xyz
  1  'x, y, z'
loop_
 _atom_site_type_symbol
 _atom_site_label
 _atom_site_symmetry_multiplicity
 _atom_site_fract_x
 _atom_site_fract_y
 _atom_site_fract_z
 _atom_site_occupancy
  Tb  Tb0  1  0.00000000  0.00000000  0.50000001  1
  Tb  Tb1  1  0.00000000  0.00000000  0.00000000  1
  Tb  Tb2  1  0.00000000  0.00000000  0.75000001  1
  Tb  Tb3  1  0.00000000  0.00000000  0.25000000  1
  Co  Co4  1  0.66666664  0.33333334  0.62631001  1
  Co  Co5  1  0.33333332  0.66666667  0.37369001  1
  Ge  Ge6  1  0.33333332  0.66666667  0.12631000  1
  Ge  Ge7  1  0.66666664  0.33333334  0.87369002  1
  Co  Co8  1  0.66666664  0.33333334  0.12497800  1
  Co  Co9  1  0.33333332  0.66666667  0.87502202  1
  Ge  Ge10  1  0.33333332  0.66666667  0.62497801  1
  Ge  Ge11  1  0.66666664  0.33333334  0.37502201  1
