# generated using pymatgen
data_Cr3(AgSe2)2
_symmetry_space_group_name_H-M   'P 1'
_cell_length_a   3.18295193
_cell_length_b   6.49961042
_cell_length_c   6.49961042
_cell_angle_alpha   86.56276703
_cell_angle_beta   75.82660675
_cell_angle_gamma   75.82660675
_symmetry_Int_Tables_number   1
_chemical_formula_structural   Cr3(AgSe2)2
_chemical_formula_sum   'Cr3 Ag2 Se4'
_cell_volume   126.40182956
_cell_formula_units_Z   1
loop_
 _symmetry_equiv_pos_site_id
 _symmetry_equiv_pos_as_xyz
  1  'x, y, z'
loop_
 _atom_site_type_symbol
 _atom_site_label
 _atom_site_symmetry_multiplicity
 _atom_site_fract_x
 _atom_site_fract_y
 _atom_site_fract_z
 _atom_site_occupancy
  Cr  Cr0  1  -0.00000002  0.34436800  0.65563199  1
  Cr  Cr1  1  -0.00000004  0.65563200  0.34436798  1
  Se  Se2  1  0.34436797  0.65563200  0.65563197  1
  Se  Se3  1  0.65563200  0.34436800  0.34436798  1
  Ag  Ag4  1  0.00000000  0.00000000  0.00000000  1
  Ag  Ag5  1  0.67028498  0.65943000  0.99999996  1
  Se  Se6  1  0.32971499  0.34057000  0.99999998  1
  Se  Se7  1  0.32971495  1.00000000  0.34056996  1
  Cr  Cr8  1  0.67028496  1.00000000  0.65942995  1
