# generated using pymatgen
data_Cd2Te3
_symmetry_space_group_name_H-M   'P 1'
_cell_length_a   4.07397127
_cell_length_b   4.07397127
_cell_length_c   16.80297852
_cell_angle_alpha   83.03704834
_cell_angle_beta   83.03704834
_cell_angle_gamma   60.00000763
_symmetry_Int_Tables_number   1
_chemical_formula_structural   Cd2Te3
_chemical_formula_sum   'Cd4 Te6'
_cell_volume   239.14189183
_cell_formula_units_Z   2
loop_
 _symmetry_equiv_pos_site_id
 _symmetry_equiv_pos_as_xyz
  1  'x, y, z'
loop_
 _atom_site_type_symbol
 _atom_site_label
 _atom_site_symmetry_multiplicity
 _atom_site_fract_x
 _atom_site_fract_y
 _atom_site_fract_z
 _atom_site_occupancy
  Te  Te0  1  0.60017699  0.60017703  0.19946902  1
  Te  Te1  1  0.00000000  0.00000000  0.00000000  1
  Cd  Cd2  1  0.39982299  0.39982302  0.80053104  1
  Te  Te3  1  0.20180900  0.20180901  0.39457302  1
  Te  Te4  1  0.79819099  0.79819104  0.60542705  1
  Cd  Cd5  1  0.49999999  0.50000003  0.50000003  1
  Te  Te6  1  0.09931400  0.09931401  0.70205803  1
  Te  Te7  1  0.69997099  0.69997104  0.90008706  1
  Cd  Cd8  1  0.30002899  0.30002902  0.09991301  1
  Cd  Cd9  1  0.90068598  0.90068605  0.29794204  1
