# generated using pymatgen
data_Rb3BaNaZn2F13
_symmetry_space_group_name_H-M   'P 1'
_cell_length_a   6.14933205
_cell_length_b   6.20640278
_cell_length_c   8.69010067
_cell_angle_alpha   90.51944733
_cell_angle_beta   90.00000000
_cell_angle_gamma   90.00000000
_symmetry_Int_Tables_number   1
_chemical_formula_structural   Rb3BaNaZn2F13
_chemical_formula_sum   'Rb3 Ba1 Na1 Zn2 F13'
_cell_volume   331.64607377
_cell_formula_units_Z   1
loop_
 _symmetry_equiv_pos_site_id
 _symmetry_equiv_pos_as_xyz
  1  'x, y, z'
loop_
 _atom_site_type_symbol
 _atom_site_label
 _atom_site_symmetry_multiplicity
 _atom_site_fract_x
 _atom_site_fract_y
 _atom_site_fract_z
 _atom_site_occupancy
  Ba  Ba0  1  0.49056600  0.99400304  0.25200601  1
  Rb  Rb1  1  0.00943400  0.49400302  0.75200604  1
  Rb  Rb2  1  0.99056599  0.50599702  0.24799401  1
  Rb  Rb3  1  0.50943400  0.00599700  0.74799404  1
  F  F4  1  0.00000000  0.00000000  0.00000000  1
  Na  Na5  1  0.50000000  0.50000002  0.50000002  1
  Zn  Zn6  1  0.50000000  0.50000002  1.00000005  1
  Zn  Zn7  1  0.00000000  0.00000000  0.50000003  1
  F  F8  1  0.00564800  0.06896400  0.27286101  1
  F  F9  1  0.25607600  0.71319303  0.03774600  1
  F  F10  1  0.71825999  0.73854003  0.03679600  1
  F  F11  1  0.75607599  0.78680703  0.46225402  1
  F  F12  1  0.21826000  0.76146003  0.46320402  1
  F  F13  1  0.78173999  0.23854001  0.53679603  1
  F  F14  1  0.99435199  0.93103603  0.72713904  1
  F  F15  1  0.74392399  0.28680701  0.96225405  1
  F  F16  1  0.24392400  0.21319301  0.53774603  1
  F  F17  1  0.49435200  0.56896402  0.77286104  1
  F  F18  1  0.28174000  0.26146001  0.96320405  1
  F  F19  1  0.50564800  0.43103602  0.22713901  1
