# generated using pymatgen
data_Bi3Mo
_symmetry_space_group_name_H-M   'P 1'
_cell_length_a   4.33119202
_cell_length_b   8.96464443
_cell_length_c   11.54035664
_cell_angle_alpha   90.00000000
_cell_angle_beta   90.00000000
_cell_angle_gamma   90.00000000
_symmetry_Int_Tables_number   1
_chemical_formula_structural   Bi3Mo
_chemical_formula_sum   'Bi12 Mo4'
_cell_volume   448.08430973
_cell_formula_units_Z   4
loop_
 _symmetry_equiv_pos_site_id
 _symmetry_equiv_pos_as_xyz
  1  'x, y, z'
loop_
 _atom_site_type_symbol
 _atom_site_label
 _atom_site_symmetry_multiplicity
 _atom_site_fract_x
 _atom_site_fract_y
 _atom_site_fract_z
 _atom_site_occupancy
  Bi  Bi0  1  0.25000000  0.89957496  0.08951100  1
  Bi  Bi1  1  0.25000000  0.30291999  0.11342900  1
  Bi  Bi2  1  0.75000000  0.59696797  0.17710101  1
  Bi  Bi3  1  0.75000000  0.09696800  0.32289901  1
  Bi  Bi4  1  0.75000000  0.60042497  0.58951102  1
  Bi  Bi5  1  0.25000000  0.90303196  0.67710102  1
  Bi  Bi6  1  0.25000000  0.80291996  0.38657101  1
  Bi  Bi7  1  0.25000000  0.39957498  0.41048901  1
  Bi  Bi8  1  0.25000000  0.40303198  0.82289903  1
  Bi  Bi9  1  0.75000000  0.19707999  0.61342902  1
  Bi  Bi10  1  0.75000000  0.10042500  0.91048903  1
  Bi  Bi11  1  0.75000000  0.69707997  0.88657103  1
  Mo  Mo12  1  0.25000000  0.10196200  0.48036202  1
  Mo  Mo13  1  0.25000000  0.60196197  0.01963800  1
  Mo  Mo14  1  0.75000000  0.39803798  0.98036203  1
  Mo  Mo15  1  0.75000000  0.89803796  0.51963802  1
