# generated using pymatgen
data_CsHF3
_symmetry_space_group_name_H-M   'P 1'
_cell_length_a   4.64538193
_cell_length_b   4.64538193
_cell_length_c   11.87757301
_cell_angle_alpha   90.00000000
_cell_angle_beta   90.00000000
_cell_angle_gamma   90.00000000
_symmetry_Int_Tables_number   1
_chemical_formula_structural   CsHF3
_chemical_formula_sum   'Cs4 H4 F12'
_cell_volume   256.31295690
_cell_formula_units_Z   4
loop_
 _symmetry_equiv_pos_site_id
 _symmetry_equiv_pos_as_xyz
  1  'x, y, z'
loop_
 _atom_site_type_symbol
 _atom_site_label
 _atom_site_symmetry_multiplicity
 _atom_site_fract_x
 _atom_site_fract_y
 _atom_site_fract_z
 _atom_site_occupancy
  Cs  Cs0  1  0.00000000  0.50000001  0.81196300  1
  Cs  Cs1  1  0.50000001  0.00000000  0.18803700  1
  F  F2  1  0.17934700  0.00000000  0.62718700  1
  F  F3  1  0.82065301  0.00000000  0.62718700  1
  F  F4  1  0.50000001  0.67934701  0.62718700  1
  F  F5  1  0.50000001  0.32065301  0.62718700  1
  F  F6  1  0.32065301  0.50000001  0.37281300  1
  F  F7  1  0.67934701  0.50000001  0.37281300  1
  F  F8  1  0.00000000  0.82065301  0.37281300  1
  F  F9  1  0.00000000  0.17934700  0.37281300  1
  F  F10  1  0.50000001  0.00000000  0.48989700  1
  F  F11  1  0.00000000  0.50000001  0.51010300  1
  Cs  Cs12  1  0.50000001  0.00000000  0.90529900  1
  Cs  Cs13  1  0.00000000  0.50000001  0.09470100  1
  H  H14  1  0.00000000  0.00000000  0.67673900  1
  H  H15  1  0.50000001  0.50000001  0.67673900  1
  H  H16  1  0.50000001  0.50000001  0.32326100  1
  F  F17  1  0.00000000  0.00000000  0.32326100  1
  H  H18  1  0.50000001  0.00000000  0.57174000  1
  F  F19  1  0.00000000  0.50000001  0.42826000  1
