# generated using pymatgen
data_BaBi3O4
_symmetry_space_group_name_H-M   'P 1'
_cell_length_a   6.76878119
_cell_length_b   6.76878119
_cell_length_c   6.76878119
_cell_angle_alpha   90.00000000
_cell_angle_beta   90.00000000
_cell_angle_gamma   90.00000000
_symmetry_Int_Tables_number   1
_chemical_formula_structural   BaBi3O4
_chemical_formula_sum   'Ba2 Bi6 O8'
_cell_volume   310.12117771
_cell_formula_units_Z   2
loop_
 _symmetry_equiv_pos_site_id
 _symmetry_equiv_pos_as_xyz
  1  'x, y, z'
loop_
 _atom_site_type_symbol
 _atom_site_label
 _atom_site_symmetry_multiplicity
 _atom_site_fract_x
 _atom_site_fract_y
 _atom_site_fract_z
 _atom_site_occupancy
  Ba  Ba0  1  0.49999999  0.49999999  0.49999999  1
  Ba  Ba1  1  0.00000000  0.00000000  0.00000000  1
  Bi  Bi2  1  0.74999998  0.00000000  0.49999999  1
  Bi  Bi3  1  0.49999999  0.74999998  -0.00000000  1
  Bi  Bi4  1  0.00000000  0.49999999  0.74999998  1
  Bi  Bi5  1  0.00000000  0.49999999  0.24999999  1
  Bi  Bi6  1  0.24999999  0.00000000  0.49999999  1
  Bi  Bi7  1  0.49999999  0.24999999  -0.00000000  1
  O  O8  1  0.74999998  0.24999999  0.24999999  1
  O  O9  1  0.24999999  0.24999999  0.74999998  1
  O  O10  1  0.24999999  0.74999998  0.24999999  1
  O  O11  1  0.74999998  0.74999998  0.74999998  1
  O  O12  1  0.24999999  0.74999998  0.74999998  1
  O  O13  1  0.74999998  0.74999998  0.24999999  1
  O  O14  1  0.24999999  0.24999999  0.24999999  1
  O  O15  1  0.74999998  0.24999999  0.74999998  1
