# generated using pymatgen
data_RbBa2TbLuF15
_symmetry_space_group_name_H-M   'P 1'
_cell_length_a   7.40237999
_cell_length_b   8.20922375
_cell_length_c   8.49343204
_cell_angle_alpha   118.73161316
_cell_angle_beta   90.00000000
_cell_angle_gamma   116.79871368
_symmetry_Int_Tables_number   1
_chemical_formula_structural   RbBa2TbLuF15
_chemical_formula_sum   'Rb1 Ba2 Tb1 Lu1 F15'
_cell_volume   388.17698264
_cell_formula_units_Z   1
loop_
 _symmetry_equiv_pos_site_id
 _symmetry_equiv_pos_as_xyz
  1  'x, y, z'
loop_
 _atom_site_type_symbol
 _atom_site_label
 _atom_site_symmetry_multiplicity
 _atom_site_fract_x
 _atom_site_fract_y
 _atom_site_fract_z
 _atom_site_occupancy
  Ba  Ba0  1  0.15725201  0.33971202  0.61862400  1
  Ba  Ba1  1  0.81754003  0.66028803  0.88137600  1
  F  F2  1  0.84274803  0.66028803  0.38137602  1
  Rb  Rb3  1  0.18246001  0.33971202  0.11862401  1
  Lu  Lu4  1  0.53190500  0.00000000  0.74999998  1
  Tb  Tb5  1  0.46809500  0.00000000  0.24999999  1
  F  F6  1  0.44612801  0.13661401  0.07844200  1
  F  F7  1  0.30951404  0.86338605  0.42155802  1
  F  F8  1  0.55387204  0.86338605  0.92155801  1
  F  F9  1  0.69048601  0.13661401  0.57844199  1
  F  F10  1  0.40359001  0.20730801  0.78744099  1
  F  F11  1  0.19628203  0.79269204  0.71255901  1
  F  F12  1  0.59641003  0.79269204  0.21255903  1
  F  F13  1  0.80371801  0.20730801  0.28744100  1
  F  F14  1  0.45456403  0.67609904  0.52898301  1
  F  F15  1  0.77846501  0.32390102  0.97101699  1
  F  F16  1  0.54543601  0.32390102  0.47101700  1
  F  F17  1  0.22153503  0.67609904  0.02898303  1
  F  F18  1  0.83308300  0.00000000  0.74999998  1
  F  F19  1  0.16691700  0.00000000  0.24999999  1
