# generated using pymatgen
data_BaSr5(GaN3)2
_symmetry_space_group_name_H-M   'P 1'
_cell_length_a   5.09638214
_cell_length_b   7.50813007
_cell_length_c   7.50813055
_cell_angle_alpha   120.00000000
_cell_angle_beta   90.00000000
_cell_angle_gamma   90.00000000
_symmetry_Int_Tables_number   1
_chemical_formula_structural   BaSr5(GaN3)2
_chemical_formula_sum   'Ba1 Sr5 Ga2 N6'
_cell_volume   248.80334807
_cell_formula_units_Z   1
loop_
 _symmetry_equiv_pos_site_id
 _symmetry_equiv_pos_as_xyz
  1  'x, y, z'
loop_
 _atom_site_type_symbol
 _atom_site_label
 _atom_site_symmetry_multiplicity
 _atom_site_fract_x
 _atom_site_fract_y
 _atom_site_fract_z
 _atom_site_occupancy
  Ba  Ba0  1  0.74999998  0.10271400  0.75197801  1
  Sr  Sr1  1  0.74999998  0.24802200  0.35073601  1
  Sr  Sr2  1  0.74999998  0.64926401  0.89728604  1
  Sr  Sr3  1  0.24999999  0.89728601  0.24802205  1
  Sr  Sr4  1  0.24999999  0.75197801  0.64926404  1
  Sr  Sr5  1  0.24999999  0.35073601  0.10271402  1
  Ga  Ga6  1  0.24999999  0.33333334  0.66666669  1
  Ga  Ga7  1  0.74999998  0.66666668  0.33333337  1
  N  N8  1  0.24999999  0.11437300  0.72009101  1
  N  N9  1  0.24999999  0.27990800  0.39428102  1
  N  N10  1  0.24999999  0.60571801  0.88562604  1
  N  N11  1  0.74999998  0.88562701  0.27990905  1
  N  N12  1  0.74999998  0.72009201  0.60571904  1
  N  N13  1  0.74999998  0.39428201  0.11437402  1
