# generated using pymatgen
data_Mg5Ga
_symmetry_space_group_name_H-M   'P 1'
_cell_length_a   5.43302727
_cell_length_b   5.43302727
_cell_length_c   5.77662897
_cell_angle_alpha   61.94886398
_cell_angle_beta   61.94886398
_cell_angle_gamma   59.99998856
_symmetry_Int_Tables_number   1
_chemical_formula_structural   Mg5Ga
_chemical_formula_sum   'Mg5 Ga1'
_cell_volume   124.00150657
_cell_formula_units_Z   1
loop_
 _symmetry_equiv_pos_site_id
 _symmetry_equiv_pos_as_xyz
  1  'x, y, z'
loop_
 _atom_site_type_symbol
 _atom_site_label
 _atom_site_symmetry_multiplicity
 _atom_site_fract_x
 _atom_site_fract_y
 _atom_site_fract_z
 _atom_site_occupancy
  Mg  Mg0  1  0.00000001  0.33031398  0.00000000  1
  Ga  Ga1  1  0.66968597  0.00000000  0.00000001  1
  Mg  Mg2  1  0.49999998  0.49999997  0.49999999  1
  Mg  Mg3  1  0.33031399  0.66968596  0.00000001  1
  Mg  Mg4  1  0.83466497  0.83466495  0.49600500  1
  Mg  Mg5  1  0.16533499  0.16533499  0.50399499  1
