# generated using pymatgen
data_Na(GeO3)2
_symmetry_space_group_name_H-M   'P 1'
_cell_length_a   3.69811511
_cell_length_b   5.55490112
_cell_length_c   7.26699114
_cell_angle_alpha   102.04773712
_cell_angle_beta   90.00000000
_cell_angle_gamma   109.44303131
_symmetry_Int_Tables_number   1
_chemical_formula_structural   Na(GeO3)2
_chemical_formula_sum   'Na1 Ge2 O6'
_cell_volume   137.27829480
_cell_formula_units_Z   1
loop_
 _symmetry_equiv_pos_site_id
 _symmetry_equiv_pos_as_xyz
  1  'x, y, z'
loop_
 _atom_site_type_symbol
 _atom_site_label
 _atom_site_symmetry_multiplicity
 _atom_site_fract_x
 _atom_site_fract_y
 _atom_site_fract_z
 _atom_site_occupancy
  Na  Na0  1  0.00000000  0.00000000  0.00000000  1
  Ge  Ge1  1  0.24128496  0.48256799  0.67240802  1
  Ge  Ge2  1  0.75871494  0.51743199  0.32759201  1
  O  O3  1  0.75564194  0.51128499  0.60331102  1
  O  O4  1  0.24435796  0.48871499  0.39668801  1
  O  O5  1  0.36789594  0.73579299  0.86732902  1
  O  O6  1  0.10054398  0.20108700  0.74130801  1
  O  O7  1  0.63210396  0.26420699  0.13267001  1
  O  O8  1  0.89945592  0.79891298  0.25869102  1
