# generated using pymatgen
data_HoGa2
_symmetry_space_group_name_H-M   'P 1'
_cell_length_a   4.06811190
_cell_length_b   7.49939394
_cell_length_c   7.49939442
_cell_angle_alpha   120.00000000
_cell_angle_beta   90.00000000
_cell_angle_gamma   90.00000000
_symmetry_Int_Tables_number   1
_chemical_formula_structural   HoGa2
_chemical_formula_sum   'Ho3 Ga6'
_cell_volume   198.14169979
_cell_formula_units_Z   3
loop_
 _symmetry_equiv_pos_site_id
 _symmetry_equiv_pos_as_xyz
  1  'x, y, z'
loop_
 _atom_site_type_symbol
 _atom_site_label
 _atom_site_symmetry_multiplicity
 _atom_site_fract_x
 _atom_site_fract_y
 _atom_site_fract_z
 _atom_site_occupancy
  Ho  Ho0  1  -0.00000000  0.59366101  0.00000001  1
  Ho  Ho1  1  1.00000003  0.40633901  0.40633900  1
  Ho  Ho2  1  1.00000003  1.00000002  0.59366101  1
  Ga  Ga3  1  0.50000001  0.00000000  0.26019199  1
  Ga  Ga4  1  0.50000001  0.26019201  0.00000001  1
  Ga  Ga5  1  0.50000001  0.73980801  0.73980800  1
  Ga  Ga6  1  0.50000001  0.33333334  0.66666666  1
  Ga  Ga7  1  0.00000000  0.00000000  0.00000000  1
  Ga  Ga8  1  0.50000001  0.66666668  0.33333334  1
