# generated using pymatgen
data_Li8WO6
_symmetry_space_group_name_H-M   'P 1'
_cell_length_a   5.52276945
_cell_length_b   5.52276945
_cell_length_c   6.07849646
_cell_angle_alpha   62.98090363
_cell_angle_beta   62.98090363
_cell_angle_gamma   60.00000763
_symmetry_Int_Tables_number   1
_chemical_formula_structural   Li8WO6
_chemical_formula_sum   'Li8 W1 O6'
_cell_volume   136.69697440
_cell_formula_units_Z   1
loop_
 _symmetry_equiv_pos_site_id
 _symmetry_equiv_pos_as_xyz
  1  'x, y, z'
loop_
 _atom_site_type_symbol
 _atom_site_label
 _atom_site_symmetry_multiplicity
 _atom_site_fract_x
 _atom_site_fract_y
 _atom_site_fract_z
 _atom_site_occupancy
  Li  Li0  1  0.10120901  0.76355899  0.64182702  1
  Li  Li1  1  0.50659501  0.89879099  0.35817301  1
  Li  Li2  1  0.23644100  0.50659499  0.35817301  1
  Li  Li3  1  0.65577000  0.65576999  0.03269000  1
  Li  Li4  1  0.34423000  0.34423000  0.96731004  1
  Li  Li5  1  0.76355900  0.49340499  0.64182702  1
  Li  Li6  1  0.49340500  0.10120900  0.64182702  1
  Li  Li7  1  0.89879100  0.23644100  0.35817301  1
  W  W8  1  0.00000000  0.00000000  0.00000000  1
  O  O9  1  0.23114801  0.90640399  0.24484901  1
  O  O10  1  0.38240101  0.76885199  0.75515103  1
  O  O11  1  0.09359600  0.38240100  0.75515103  1
  O  O12  1  0.90640400  0.61759899  0.24484901  1
  O  O13  1  0.61759900  0.23114800  0.24484901  1
  O  O14  1  0.76885199  0.09359600  0.75515103  1
