# generated using pymatgen
data_LiH2F7
_symmetry_space_group_name_H-M   'P 1'
_cell_length_a   4.87221146
_cell_length_b   4.87221146
_cell_length_c   6.08540916
_cell_angle_alpha   66.40187836
_cell_angle_beta   66.40187836
_cell_angle_gamma   60.00000763
_symmetry_Int_Tables_number   1
_chemical_formula_structural   LiH2F7
_chemical_formula_sum   'Li1 H2 F7'
_cell_volume   110.93640695
_cell_formula_units_Z   1
loop_
 _symmetry_equiv_pos_site_id
 _symmetry_equiv_pos_as_xyz
  1  'x, y, z'
loop_
 _atom_site_type_symbol
 _atom_site_label
 _atom_site_symmetry_multiplicity
 _atom_site_fract_x
 _atom_site_fract_y
 _atom_site_fract_z
 _atom_site_occupancy
  F  F0  1  0.00000000  0.00000000  0.00000000  1
  Li  Li1  1  0.49999998  0.49999999  0.50000005  1
  H  H2  1  0.24298299  0.24298300  0.27105102  1
  H  H3  1  0.75701697  0.75701699  0.72894908  1
  F  F4  1  0.49198499  0.27745500  0.26802604  1
  F  F5  1  0.27745498  0.96253399  0.26802607  1
  F  F6  1  0.96253397  0.49198499  0.26802607  1
  F  F7  1  0.50801498  0.72254499  0.73197406  1
  F  F8  1  0.72254499  0.03746600  0.73197404  1
  F  F9  1  0.03746599  0.50801499  0.73197403  1
