# generated using pymatgen
data_Ba3(MgGa2)2
_symmetry_space_group_name_H-M   'P 1'
_cell_length_a   5.77137184
_cell_length_b   8.62975597
_cell_length_c   11.28352451
_cell_angle_alpha   112.48274231
_cell_angle_beta   104.81763458
_cell_angle_gamma   90.00000000
_symmetry_Int_Tables_number   1
_chemical_formula_structural   Ba3(MgGa2)2
_chemical_formula_sum   'Ba6 Mg4 Ga8'
_cell_volume   498.98225042
_cell_formula_units_Z   2
loop_
 _symmetry_equiv_pos_site_id
 _symmetry_equiv_pos_as_xyz
  1  'x, y, z'
loop_
 _atom_site_type_symbol
 _atom_site_label
 _atom_site_symmetry_multiplicity
 _atom_site_fract_x
 _atom_site_fract_y
 _atom_site_fract_z
 _atom_site_occupancy
  Ba  Ba0  1  0.75000001  0.87551799  0.49999997  1
  Ba  Ba1  1  0.25000000  0.12448200  0.49999999  1
  Ba  Ba2  1  0.41430900  0.53777199  0.82861897  1
  Ba  Ba3  1  0.91431001  0.79084699  0.82861997  1
  Ba  Ba4  1  0.58569101  0.46222800  0.17138098  1
  Ba  Ba5  1  0.08569000  0.20915300  0.17137999  1
  Mg  Mg6  1  0.75000001  0.41757500  0.49999998  1
  Mg  Mg7  1  0.25000000  0.58242499  0.49999998  1
  Ga  Ga8  1  0.85606302  0.31854700  0.71212498  1
  Ga  Ga9  1  0.14393699  0.68145299  0.28787498  1
  Ga  Ga10  1  -0.00000001  0.50000000  -0.00000001  1
  Ga  Ga11  1  0.35606199  0.89357799  0.71212397  1
  Ga  Ga12  1  0.81520501  0.81520499  0.13040998  1
  Ga  Ga13  1  0.64393801  0.10642200  0.28787599  1
  Ga  Ga14  1  0.18479500  0.18479500  0.86958998  1
  Mg  Mg15  1  0.31520500  0.81520499  0.13040998  1
  Ga  Ga16  1  0.50000001  0.00000000  -0.00000000  1
  Mg  Mg17  1  0.68479501  0.18479500  0.86958998  1
