# generated using pymatgen
data_Li4V5F11
_symmetry_space_group_name_H-M   'P 1'
_cell_length_a   5.20531321
_cell_length_b   5.55136251
_cell_length_c   9.03442764
_cell_angle_alpha   105.37294006
_cell_angle_beta   90.95135498
_cell_angle_gamma   117.41378021
_symmetry_Int_Tables_number   1
_chemical_formula_structural   Li4V5F11
_chemical_formula_sum   'Li4 V5 F11'
_cell_volume   220.50448247
_cell_formula_units_Z   1
loop_
 _symmetry_equiv_pos_site_id
 _symmetry_equiv_pos_as_xyz
  1  'x, y, z'
loop_
 _atom_site_type_symbol
 _atom_site_label
 _atom_site_symmetry_multiplicity
 _atom_site_fract_x
 _atom_site_fract_y
 _atom_site_fract_z
 _atom_site_occupancy
  Li  Li0  1  0.32427600  0.64273602  0.11465699  1
  Li  Li1  1  0.82422902  0.64269102  0.61465895  1
  Li  Li2  1  0.06515200  0.14111601  0.36681998  1
  V  V3  1  0.56504302  0.14117201  0.86683495  1
  V  V4  1  0.26116800  0.51773702  0.76115097  1
  Li  Li5  1  0.76119802  0.51777002  0.26118597  1
  V  V6  1  0.01305900  0.02367800  0.01227700  1
  V  V7  1  0.51313802  0.02369900  0.51229596  1
  F  F8  1  0.51165602  0.29641901  0.40670897  1
  F  F9  1  0.01145999  0.29641001  0.90678797  1
  F  F10  1  0.03952598  0.81066203  0.14404201  1
  F  F11  1  0.53932301  0.81074903  0.64415197  1
  F  F12  1  0.60256201  0.80964503  0.31976598  1
  F  F13  1  0.10251799  0.80944303  0.81983998  1
  F  F14  1  0.56952401  0.80640303  0.95551095  1
  V  V15  1  0.06963899  0.80632403  0.45546899  1
  F  F16  1  0.95559704  0.30775801  0.56816195  1
  F  F17  1  0.45561401  0.30774901  0.06816898  1
  F  F18  1  0.98740904  0.30850101  0.20669196  1
  F  F19  1  0.48743401  0.30852701  0.70672496  1
