# generated using pymatgen
data_MnF2
_symmetry_space_group_name_H-M   'P 1'
_cell_length_a   3.07522798
_cell_length_b   4.81254196
_cell_length_c   14.26241779
_cell_angle_alpha   93.96598816
_cell_angle_beta   90.00000000
_cell_angle_gamma   90.00000000
_symmetry_Int_Tables_number   1
_chemical_formula_structural   MnF2
_chemical_formula_sum   'Mn6 F12'
_cell_volume   210.57351215
_cell_formula_units_Z   6
loop_
 _symmetry_equiv_pos_site_id
 _symmetry_equiv_pos_as_xyz
  1  'x, y, z'
loop_
 _atom_site_type_symbol
 _atom_site_label
 _atom_site_symmetry_multiplicity
 _atom_site_fract_x
 _atom_site_fract_y
 _atom_site_fract_z
 _atom_site_occupancy
  Mn  Mn0  1  1.00000001  0.90700801  0.83525298  1
  Mn  Mn1  1  0.00000000  0.09299200  0.16474700  1
  Mn  Mn2  1  0.00000000  0.00000000  0.49999999  1
  Mn  Mn3  1  0.50000000  0.50000000  -0.00000000  1
  Mn  Mn4  1  0.50000000  0.54506300  0.33342799  1
  Mn  Mn5  1  0.50000000  0.45493700  0.66657198  1
  F  F6  1  0.50000000  0.24821300  0.10328100  1
  F  F7  1  0.00000000  0.27959800  0.60055599  1
  F  F8  1  0.00000000  0.36319300  0.26765299  1
  F  F9  1  0.00000000  0.72040201  0.39944399  1
  F  F10  1  0.00000000  0.63680700  0.73234698  1
  F  F11  1  0.50000000  0.75178701  0.89671898  1
  F  F12  1  0.50000000  0.19932300  0.43598099  1
  F  F13  1  0.50000000  0.12123600  0.77529798  1
  F  F14  1  1.00000001  0.25813200  0.93591198  1
  F  F15  1  0.00000000  0.74186801  0.06408800  1
  F  F16  1  0.50000000  0.87876401  0.22470199  1
  F  F17  1  0.50000000  0.80067701  0.56401899  1
