# generated using pymatgen
data_BaCu2H2(SO5)2
_symmetry_space_group_name_H-M   'P 1'
_cell_length_a   5.63226128
_cell_length_b   5.63226128
_cell_length_c   7.68704462
_cell_angle_alpha   99.13893890
_cell_angle_beta   107.69859314
_cell_angle_gamma   111.61122894
_symmetry_Int_Tables_number   1
_chemical_formula_structural   BaCu2H2(SO5)2
_chemical_formula_sum   'Ba1 Cu2 H2 S2 O10'
_cell_volume   205.63670484
_cell_formula_units_Z   1
loop_
 _symmetry_equiv_pos_site_id
 _symmetry_equiv_pos_as_xyz
  1  'x, y, z'
loop_
 _atom_site_type_symbol
 _atom_site_label
 _atom_site_symmetry_multiplicity
 _atom_site_fract_x
 _atom_site_fract_y
 _atom_site_fract_z
 _atom_site_occupancy
  Ba  Ba0  1  1.00000004  0.50000001  0.50000004  1
  Cu  Cu1  1  0.50000000  0.00000000  0.00000002  1
  Cu  Cu2  1  0.00000004  0.50000001  0.00000002  1
  H  H3  1  0.50653803  0.30464301  0.81118101  1
  H  H4  1  0.49346206  0.69535702  0.18881904  1
  S  S5  1  0.20725601  0.07536300  0.28261900  1
  S  S6  1  0.79274408  0.92463703  0.71738105  1
  O  O7  1  0.01102601  0.17552901  0.18655500  1
  O  O8  1  0.54481707  0.83531902  0.77423703  1
  O  O9  1  0.06108206  0.77058002  0.22576303  1
  O  O10  1  0.61583403  0.33043701  0.94627101  1
  O  O11  1  0.31214202  0.17916401  0.49130601  1
  O  O12  1  0.68785807  0.82083602  0.50869405  1
  O  O13  1  0.38416605  0.66956302  0.05372904  1
  O  O14  1  0.93891802  0.22942001  0.77423702  1
  O  O15  1  0.45518302  0.16468100  0.22576302  1
  O  O16  1  0.98897407  0.82447102  0.81344505  1
