# generated using pymatgen
data_Ba5In(WO6)2
_symmetry_space_group_name_H-M   'P 1'
_cell_length_a   6.00025177
_cell_length_b   6.00434160
_cell_length_c   10.38782024
_cell_angle_alpha   73.28364563
_cell_angle_beta   73.21562958
_cell_angle_gamma   60.02709961
_symmetry_Int_Tables_number   1
_chemical_formula_structural   Ba5In(WO6)2
_chemical_formula_sum   'Ba5 In1 W2 O12'
_cell_volume   305.71258793
_cell_formula_units_Z   1
loop_
 _symmetry_equiv_pos_site_id
 _symmetry_equiv_pos_as_xyz
  1  'x, y, z'
loop_
 _atom_site_type_symbol
 _atom_site_label
 _atom_site_symmetry_multiplicity
 _atom_site_fract_x
 _atom_site_fract_y
 _atom_site_fract_z
 _atom_site_occupancy
  Ba  Ba0  1  0.62454003  0.62445003  0.12657997  1
  Ba  Ba1  1  0.12541701  0.12555901  0.62340401  1
  Ba  Ba2  1  0.37421402  0.37513302  0.87459200  1
  Ba  Ba3  1  0.87614804  0.87481404  0.37552496  1
  Ba  Ba4  1  0.99953405  0.99968805  0.00132994  1
  In  In5  1  0.50043102  0.50029103  0.49869599  1
  W  W6  1  0.24906001  0.24946901  0.25180999  1
  W  W7  1  0.75091003  0.75056804  0.74816098  1
  O  O8  1  0.12862900  0.60694903  0.13496899  1
  O  O9  1  0.63437103  0.10351801  0.62819499  1
  O  O10  1  0.86760604  0.39492802  0.86786498  1
  O  O11  1  0.36932301  0.89470305  0.36893698  1
  O  O12  1  0.32796501  0.38746202  0.37878799  1
  O  O13  1  0.83841804  0.87873605  0.87771298  1
  O  O14  1  0.66666670  0.62703203  0.61593398  1
  O  O15  1  0.16197501  0.12110601  0.12275700  1
  O  O16  1  0.88483305  0.34861802  0.35855997  1
  O  O17  1  0.38597401  0.85786104  0.85778199  1
  O  O18  1  0.61874703  0.13678701  0.14793098  1
  O  O19  1  0.11521700  0.64232803  0.64047200  1
