# generated using pymatgen
data_Mo7P9
_symmetry_space_group_name_H-M   'P 1'
_cell_length_a   3.39243603
_cell_length_b   5.89411926
_cell_length_c   12.45024776
_cell_angle_alpha   102.22186279
_cell_angle_beta   90.00000000
_cell_angle_gamma   106.72518158
_symmetry_Int_Tables_number   1
_chemical_formula_structural   Mo7P9
_chemical_formula_sum   'Mo7 P9'
_cell_volume   232.51871840
_cell_formula_units_Z   1
loop_
 _symmetry_equiv_pos_site_id
 _symmetry_equiv_pos_as_xyz
  1  'x, y, z'
loop_
 _atom_site_type_symbol
 _atom_site_label
 _atom_site_symmetry_multiplicity
 _atom_site_fract_x
 _atom_site_fract_y
 _atom_site_fract_z
 _atom_site_occupancy
  P  P0  1  0.54838900  0.09677800  0.28996499  1
  P  P1  1  0.45092105  0.90184198  0.71015397  1
  P  P2  1  0.24017602  0.48035199  0.87149297  1
  P  P3  1  0.15005202  0.30010399  0.56417298  1
  P  P4  1  0.84903403  0.69806798  0.43838398  1
  P  P5  1  0.00127300  0.00254600  0.99678698  1
  P  P6  1  0.76249102  0.52498199  0.12669099  1
  Mo  Mo7  1  0.19042802  0.38085599  0.39793398  1
  Mo  Mo8  1  0.80667303  0.61334599  0.60330898  1
  P  P9  1  0.09247901  0.18495800  0.71576398  1
  P  P10  1  0.90265804  0.80531598  0.27984398  1
  Mo  Mo11  1  0.12501201  0.25002399  0.16116499  1
  Mo  Mo12  1  0.87698003  0.75395998  0.83852297  1
  Mo  Mo13  1  0.37211904  0.74423798  0.05880198  1
  Mo  Mo14  1  0.63456601  0.26913199  0.95375598  1
  Mo  Mo15  1  0.49675005  0.99349998  0.49325597  1
