# generated using pymatgen
data_Ga
_symmetry_space_group_name_H-M   'P 1'
_cell_length_a   6.36500216
_cell_length_b   7.00207806
_cell_length_c   9.55935478
_cell_angle_alpha   90.00000000
_cell_angle_beta   90.00000000
_cell_angle_gamma   90.00000000
_symmetry_Int_Tables_number   1
_chemical_formula_structural   Ga
_chemical_formula_sum   Ga20
_cell_volume   426.04363653
_cell_formula_units_Z   20
loop_
 _symmetry_equiv_pos_site_id
 _symmetry_equiv_pos_as_xyz
  1  'x, y, z'
loop_
 _atom_site_type_symbol
 _atom_site_label
 _atom_site_symmetry_multiplicity
 _atom_site_fract_x
 _atom_site_fract_y
 _atom_site_fract_z
 _atom_site_occupancy
  Ga  Ga0  1  0.04194400  0.60417100  0.25000001  1
  Ga  Ga1  1  0.45805599  0.10417100  0.25000001  1
  Ga  Ga2  1  0.95805598  0.39582900  0.75000002  1
  Ga  Ga3  1  0.54194399  0.89582899  0.75000002  1
  Ga  Ga4  1  0.49999999  0.50000000  0.50000001  1
  Ga  Ga5  1  0.49999999  0.50000000  -0.00000000  1
  Ga  Ga6  1  0.00000000  0.00000000  0.50000001  1
  Ga  Ga7  1  0.00000000  0.00000000  0.00000000  1
  Ga  Ga8  1  0.17344500  0.31737900  0.07081400  1
  Ga  Ga9  1  0.32655499  0.81737899  0.07081400  1
  Ga  Ga10  1  0.67344498  0.18262100  0.57081401  1
  Ga  Ga11  1  0.82655498  0.68262099  0.92918602  1
  Ga  Ga12  1  0.64462798  0.45349200  0.25000001  1
  Ga  Ga13  1  0.35537199  0.54650800  0.75000002  1
  Ga  Ga14  1  0.82655498  0.68262099  0.57081401  1
  Ga  Ga15  1  0.17344500  0.31737900  0.42918601  1
  Ga  Ga16  1  0.32655499  0.81737899  0.42918601  1
  Ga  Ga17  1  0.67344498  0.18262100  0.92918602  1
  Ga  Ga18  1  0.14462800  0.04650800  0.75000002  1
  Ga  Ga19  1  0.85537198  0.95349199  0.25000001  1
