# generated using pymatgen
data_Lu3CoGe3
_symmetry_space_group_name_H-M   'P 1'
_cell_length_a   4.13176584
_cell_length_b   5.59886551
_cell_length_c   12.66946030
_cell_angle_alpha   84.96994019
_cell_angle_beta   80.61544037
_cell_angle_gamma   68.34712219
_symmetry_Int_Tables_number   1
_chemical_formula_structural   Lu3CoGe3
_chemical_formula_sum   'Lu6 Co2 Ge6'
_cell_volume   268.63721087
_cell_formula_units_Z   2
loop_
 _symmetry_equiv_pos_site_id
 _symmetry_equiv_pos_as_xyz
  1  'x, y, z'
loop_
 _atom_site_type_symbol
 _atom_site_label
 _atom_site_symmetry_multiplicity
 _atom_site_fract_x
 _atom_site_fract_y
 _atom_site_fract_z
 _atom_site_occupancy
  Lu  Lu0  1  0.74845899  0.73298898  0.77009301  1
  Lu  Lu1  1  0.25154099  0.26701099  0.22990700  1
  Lu  Lu2  1  0.52382900  0.33184199  0.62050001  1
  Lu  Lu3  1  0.47617098  0.66815798  0.37950001  1
  Lu  Lu4  1  0.39887300  0.28306499  0.91918901  1
  Lu  Lu5  1  0.60112698  0.71693498  0.08081101  1
  Ge  Ge6  1  0.75314403  0.07827700  0.41543500  1
  Co  Co7  1  0.24685595  0.92172298  0.58456502  1
  Co  Co8  1  0.14397899  0.25543599  0.45660601  1
  Ge  Ge9  1  0.85602099  0.74456398  0.54339401  1
  Ge  Ge10  1  0.11401895  0.84738898  0.92457302  1
  Ge  Ge11  1  0.88598103  0.15261100  0.07542700  1
  Ge  Ge12  1  0.05483499  0.13244000  0.75789001  1
  Ge  Ge13  1  0.94516499  0.86755998  0.24211001  1
