# generated using pymatgen
data_Mg3Ga17
_symmetry_space_group_name_H-M   'P 1'
_cell_length_a   6.61255121
_cell_length_b   7.24026680
_cell_length_c   7.24026680
_cell_angle_alpha   90.00000000
_cell_angle_beta   90.00000000
_cell_angle_gamma   90.00000000
_symmetry_Int_Tables_number   1
_chemical_formula_structural   Mg3Ga17
_chemical_formula_sum   'Mg3 Ga17'
_cell_volume   346.63961092
_cell_formula_units_Z   1
loop_
 _symmetry_equiv_pos_site_id
 _symmetry_equiv_pos_as_xyz
  1  'x, y, z'
loop_
 _atom_site_type_symbol
 _atom_site_label
 _atom_site_symmetry_multiplicity
 _atom_site_fract_x
 _atom_site_fract_y
 _atom_site_fract_z
 _atom_site_occupancy
  Ga  Ga0  1  0.24999999  0.32042201  0.82042202  1
  Ga  Ga1  1  0.24999999  0.67957802  0.17957800  1
  Ga  Ga2  1  0.74999998  0.17957800  0.32042201  1
  Ga  Ga3  1  0.74999998  0.82042202  0.67957802  1
  Ga  Ga4  1  0.24999999  0.83873802  0.66126202  1
  Ga  Ga5  1  0.24999999  0.16126200  0.33873801  1
  Ga  Ga6  1  0.74999998  0.66126202  0.16126200  1
  Ga  Ga7  1  0.74999998  0.33873801  0.83873802  1
  Ga  Ga8  1  0.00000000  0.00000000  0.00000000  1
  Mg  Mg9  1  0.49999998  0.50000001  0.50000001  1
  Mg  Mg10  1  0.49999998  0.00000000  0.00000000  1
  Mg  Mg11  1  0.00000000  0.50000001  0.50000001  1
  Ga  Ga12  1  0.97609497  0.12481500  0.62455002  1
  Ga  Ga13  1  0.97609497  0.87518502  0.37545001  1
  Ga  Ga14  1  0.47609498  0.37518501  0.12455000  1
  Ga  Ga15  1  0.47609498  0.62481502  0.87545002  1
  Ga  Ga16  1  0.52390498  0.87545002  0.37518501  1
  Ga  Ga17  1  0.52390498  0.12455000  0.62481502  1
  Ga  Ga18  1  0.02390500  0.62455002  0.87518502  1
  Ga  Ga19  1  0.02390500  0.37545001  0.12481500  1
