# generated using pymatgen
data_BaHg11
_symmetry_space_group_name_H-M   'P 1'
_cell_length_a   7.43996525
_cell_length_b   7.43996525
_cell_length_c   9.75840282
_cell_angle_alpha   67.59146881
_cell_angle_beta   67.59146881
_cell_angle_gamma   60.00000763
_symmetry_Int_Tables_number   1
_chemical_formula_structural   BaHg11
_chemical_formula_sum   'Ba1 Hg11'
_cell_volume   420.03312673
_cell_formula_units_Z   1
loop_
 _symmetry_equiv_pos_site_id
 _symmetry_equiv_pos_as_xyz
  1  'x, y, z'
loop_
 _atom_site_type_symbol
 _atom_site_label
 _atom_site_symmetry_multiplicity
 _atom_site_fract_x
 _atom_site_fract_y
 _atom_site_fract_z
 _atom_site_occupancy
  Ba  Ba0  1  0.78262299  0.78262299  0.65213102  1
  Hg  Hg1  1  0.21737700  0.21737700  0.34786901  1
  Hg  Hg2  1  0.00000000  0.00000000  0.00000000  1
  Hg  Hg3  1  0.73422099  0.29788700  0.67000502  1
  Hg  Hg4  1  0.29788699  0.73422099  0.67000502  1
  Hg  Hg5  1  0.29788700  0.29788700  0.67000501  1
  Hg  Hg6  1  0.49999999  0.49999999  0.00000001  1
  Hg  Hg7  1  -0.00000000  0.49999999  0.00000001  1
  Hg  Hg8  1  0.49999999  0.00000000  0.00000001  1
  Hg  Hg9  1  0.26577900  0.70211299  0.32999501  1
  Hg  Hg10  1  0.70211299  0.70211299  0.32999502  1
  Hg  Hg11  1  0.70211299  0.26577900  0.32999501  1
