# generated using pymatgen
data_B2Mo3
_symmetry_space_group_name_H-M   'P 1'
_cell_length_a   3.21678495
_cell_length_b   7.31841707
_cell_length_c   9.35885906
_cell_angle_alpha   89.86049652
_cell_angle_beta   90.00000000
_cell_angle_gamma   90.00000000
_symmetry_Int_Tables_number   1
_chemical_formula_structural   B2Mo3
_chemical_formula_sum   'B8 Mo12'
_cell_volume   220.32349118
_cell_formula_units_Z   4
loop_
 _symmetry_equiv_pos_site_id
 _symmetry_equiv_pos_as_xyz
  1  'x, y, z'
loop_
 _atom_site_type_symbol
 _atom_site_label
 _atom_site_symmetry_multiplicity
 _atom_site_fract_x
 _atom_site_fract_y
 _atom_site_fract_z
 _atom_site_occupancy
  Mo  Mo0  1  0.50000001  0.32185100  0.12899600  1
  Mo  Mo1  1  0.50000001  0.67767399  0.87040098  1
  Mo  Mo2  1  0.00000000  0.82309399  0.37216300  1
  Mo  Mo3  1  0.00000000  0.18523100  0.63036998  1
  Mo  Mo4  1  0.50000001  0.07215700  0.86078297  1
  Mo  Mo5  1  0.50000001  0.93104499  0.13461300  1
  Mo  Mo6  1  0.00000000  0.56906299  0.63493998  1
  Mo  Mo7  1  0.00000000  0.42812500  0.36610199  1
  B  B8  1  0.50000001  0.38208900  0.53984299  1
  B  B9  1  0.50000001  0.60886799  0.46346299  1
  B  B10  1  0.00000000  0.89054299  0.96023698  1
  B  B11  1  0.00000000  0.11068300  0.03713400  1
  B  B12  1  0.50000001  0.37245800  0.72928198  1
  B  B13  1  0.50000001  0.61775799  0.26950500  1
  B  B14  1  0.00000000  0.88389899  0.76561598  1
  B  B15  1  0.00000000  0.11957100  0.23409099  1
  Mo  Mo16  1  0.50000001  0.87359099  0.60934299  1
  Mo  Mo17  1  0.50000001  0.13454700  0.39613699  1
  Mo  Mo18  1  0.00000000  0.36417300  0.88742497  1
  Mo  Mo19  1  0.00000000  0.63357899  0.10955500  1
