# generated using pymatgen
data_Hf2Ge
_symmetry_space_group_name_H-M   'P 1'
_cell_length_a   5.24044323
_cell_length_b   6.42549419
_cell_length_c   6.42549419
_cell_angle_alpha   90.00000000
_cell_angle_beta   90.00000000
_cell_angle_gamma   90.00000000
_symmetry_Int_Tables_number   1
_chemical_formula_structural   Hf2Ge
_chemical_formula_sum   'Hf8 Ge4'
_cell_volume   216.36205195
_cell_formula_units_Z   4
loop_
 _symmetry_equiv_pos_site_id
 _symmetry_equiv_pos_as_xyz
  1  'x, y, z'
loop_
 _atom_site_type_symbol
 _atom_site_label
 _atom_site_symmetry_multiplicity
 _atom_site_fract_x
 _atom_site_fract_y
 _atom_site_fract_z
 _atom_site_occupancy
  Hf  Hf0  1  0.49999998  0.15762000  0.66208998  1
  Hf  Hf1  1  0.49999998  0.84237997  0.33790999  1
  Hf  Hf2  1  0.49999998  0.66208998  0.84237997  1
  Hf  Hf3  1  0.49999998  0.33790999  0.15762000  1
  Hf  Hf4  1  0.99999996  0.15762000  0.33790999  1
  Hf  Hf5  1  0.00000000  0.84237997  0.66208998  1
  Hf  Hf6  1  0.99999996  0.66208998  0.15762000  1
  Hf  Hf7  1  0.99999996  0.33790999  0.84237997  1
  Ge  Ge8  1  0.24999999  0.00000000  0.00000000  1
  Ge  Ge9  1  0.74999997  0.00000000  -0.00000000  1
  Ge  Ge10  1  0.24999999  0.49999998  0.49999998  1
  Ge  Ge11  1  0.74999997  0.49999998  0.49999998  1
