# generated using pymatgen
data_Ho2Al3Cu
_symmetry_space_group_name_H-M   'P 1'
_cell_length_a   5.36908865
_cell_length_b   5.36908865
_cell_length_c   5.36908865
_cell_angle_alpha   60.00000000
_cell_angle_beta   60.00000000
_cell_angle_gamma   60.00000000
_symmetry_Int_Tables_number   1
_chemical_formula_structural   Ho2Al3Cu
_chemical_formula_sum   'Ho2 Al3 Cu1'
_cell_volume   109.44268175
_cell_formula_units_Z   1
loop_
 _symmetry_equiv_pos_site_id
 _symmetry_equiv_pos_as_xyz
  1  'x, y, z'
loop_
 _atom_site_type_symbol
 _atom_site_label
 _atom_site_symmetry_multiplicity
 _atom_site_fract_x
 _atom_site_fract_y
 _atom_site_fract_z
 _atom_site_occupancy
  Ho  Ho0  1  0.75000000  0.75000000  0.75000000  1
  Ho  Ho1  1  0.00000000  0.00000000  0.00000000  1
  Al  Al2  1  0.37484900  0.87545500  0.37484800  1
  Al  Al3  1  0.37484900  0.37484800  0.37484800  1
  Al  Al4  1  0.37484900  0.37484800  0.87545500  1
  Cu  Cu5  1  0.87545600  0.37484800  0.37484800  1
