# generated using pymatgen
data_AlCo15C
_symmetry_space_group_name_H-M   'P 1'
_cell_length_a   3.67037892
_cell_length_b   3.67037892
_cell_length_c   14.04846096
_cell_angle_alpha   90.00000000
_cell_angle_beta   90.00000000
_cell_angle_gamma   90.00000000
_symmetry_Int_Tables_number   1
_chemical_formula_structural   AlCo15C
_chemical_formula_sum   'Al1 Co15 C1'
_cell_volume   189.25639080
_cell_formula_units_Z   1
loop_
 _symmetry_equiv_pos_site_id
 _symmetry_equiv_pos_as_xyz
  1  'x, y, z'
loop_
 _atom_site_type_symbol
 _atom_site_label
 _atom_site_symmetry_multiplicity
 _atom_site_fract_x
 _atom_site_fract_y
 _atom_site_fract_z
 _atom_site_occupancy
  Al  Al0  1  0.00000000  0.00000000  0.86160900  1
  Co  Co1  1  0.00000000  0.00000000  0.13839100  1
  Co  Co2  1  0.00000000  0.00000000  0.37827800  1
  Co  Co3  1  0.00000000  0.00000000  0.62172200  1
  Co  Co4  1  0.50000001  0.50000001  0.86842100  1
  Co  Co5  1  0.50000001  0.50000001  0.13157900  1
  Co  Co6  1  0.50000001  0.50000001  0.37517400  1
  Co  Co7  1  0.50000001  0.50000001  0.62482600  1
  Co  Co8  1  0.50000001  0.00000000  0.00000000  1
  Co  Co9  1  0.50000001  0.00000000  0.25477900  1
  Co  Co10  1  0.50000001  0.00000000  0.50000000  1
  Co  Co11  1  0.50000001  0.00000000  0.74522100  1
  Co  Co12  1  0.00000000  0.50000001  -0.00000000  1
  Co  Co13  1  0.00000000  0.50000001  0.25477900  1
  Co  Co14  1  0.00000000  0.50000001  0.50000000  1
  Co  Co15  1  0.00000000  0.50000001  0.74522100  1
  C  C16  1  0.50000001  0.50000001  -0.00000000  1
