# generated using pymatgen
data_LiCoCuMoClO11
_symmetry_space_group_name_H-M   'P 1'
_cell_length_a   6.52287340
_cell_length_b   6.52287340
_cell_length_c   6.52287340
_cell_angle_alpha   60.00000000
_cell_angle_beta   60.00000000
_cell_angle_gamma   60.00000000
_symmetry_Int_Tables_number   1
_chemical_formula_structural   LiCoCuMoClO11
_chemical_formula_sum   'Li1 Co1 Cu1 Mo1 Cl1 O11'
_cell_volume   196.24646889
_cell_formula_units_Z   1
loop_
 _symmetry_equiv_pos_site_id
 _symmetry_equiv_pos_as_xyz
  1  'x, y, z'
loop_
 _atom_site_type_symbol
 _atom_site_label
 _atom_site_symmetry_multiplicity
 _atom_site_fract_x
 _atom_site_fract_y
 _atom_site_fract_z
 _atom_site_occupancy
  O  O0  1  0.00000000  0.00000000  0.00000000  1
  O  O1  1  0.50000000  0.50000000  -0.00000000  1
  Cu  Cu2  1  0.50000000  1.00000000  0.50000000  1
  O  O3  1  0.50000000  0.00000000  1.00000000  1
  O  O4  1  0.00000000  0.00000000  0.50000000  1
  O  O5  1  -0.00000000  0.50000000  1.00000000  1
  O  O6  1  -0.00000000  0.50000000  0.50000000  1
  Cl  Cl7  1  0.50000000  0.50000000  0.50000000  1
  O  O8  1  0.85747000  0.42758800  0.85747100  1
  O  O9  1  0.85747000  0.85747100  0.85747100  1
  O  O10  1  0.85747000  0.85747100  0.42758800  1
  Li  Li11  1  0.14253000  0.14252900  0.14252900  1
  O  O12  1  0.42758700  0.85747100  0.85747100  1
  O  O13  1  0.57241300  0.14252900  0.14252900  1
  Mo  Mo14  1  0.14253000  0.57241200  0.14252900  1
  Co  Co15  1  0.14253000  0.14252900  0.57241200  1
