# generated using pymatgen
data_Ga8B
_symmetry_space_group_name_H-M   'P 1'
_cell_length_a   6.64694214
_cell_length_b   6.71594524
_cell_length_c   6.96574211
_cell_angle_alpha   89.94474030
_cell_angle_beta   89.88834381
_cell_angle_gamma   60.33930206
_symmetry_Int_Tables_number   1
_chemical_formula_structural   Ga8B
_chemical_formula_sum   'Ga16 B2'
_cell_volume   270.20972788
_cell_formula_units_Z   2
loop_
 _symmetry_equiv_pos_site_id
 _symmetry_equiv_pos_as_xyz
  1  'x, y, z'
loop_
 _atom_site_type_symbol
 _atom_site_label
 _atom_site_symmetry_multiplicity
 _atom_site_fract_x
 _atom_site_fract_y
 _atom_site_fract_z
 _atom_site_occupancy
  Ga  Ga0  1  0.64124099  0.68503102  0.00254599  1
  Ga  Ga1  1  0.67372799  0.68503102  0.49745400  1
  Ga  Ga2  1  0.32627199  0.31496901  0.50254601  1
  Ga  Ga3  1  0.35875899  0.31496901  0.99745402  1
  B  B4  1  0.95199698  0.09600600  0.25000005  1
  B  B5  1  0.04800300  0.90399403  0.74999996  1
  Ga  Ga6  1  0.12621300  0.80554503  0.04439796  1
  Ga  Ga7  1  0.06824200  0.80554503  0.45560196  1
  Ga  Ga8  1  0.87378698  0.19445501  0.95560205  1
  Ga  Ga9  1  0.93175798  0.19445501  0.54439805  1
  Ga  Ga10  1  0.00268900  0.61748502  0.77181498  1
  Ga  Ga11  1  0.37982599  0.61748502  0.72818499  1
  Ga  Ga12  1  0.72564198  0.97412803  0.22172798  1
  Ga  Ga13  1  0.30022999  0.97412803  0.27827196  1
  Ga  Ga14  1  0.27435799  0.02587200  0.77827203  1
  Ga  Ga15  1  0.69976999  0.02587200  0.72172805  1
  Ga  Ga16  1  0.62017399  0.38251501  0.27181501  1
  Ga  Ga17  1  0.99731098  0.38251501  0.22818503  1
