# generated using pymatgen
data_NdCoGe3
_symmetry_space_group_name_H-M   'P 1'
_cell_length_a   4.34115791
_cell_length_b   4.34115791
_cell_length_c   5.84696817
_cell_angle_alpha   111.79158783
_cell_angle_beta   111.79158783
_cell_angle_gamma   90.00000000
_symmetry_Int_Tables_number   1
_chemical_formula_structural   NdCoGe3
_chemical_formula_sum   'Nd1 Co1 Ge3'
_cell_volume   93.78284938
_cell_formula_units_Z   1
loop_
 _symmetry_equiv_pos_site_id
 _symmetry_equiv_pos_as_xyz
  1  'x, y, z'
loop_
 _atom_site_type_symbol
 _atom_site_label
 _atom_site_symmetry_multiplicity
 _atom_site_fract_x
 _atom_site_fract_y
 _atom_site_fract_z
 _atom_site_occupancy
  Nd  Nd0  1  0.00067400  0.00067400  0.00134800  1
  Co  Co1  1  0.34201899  0.34201900  0.68403795  1
  Ge  Ge2  1  0.24896397  0.74896400  0.49792794  1
  Ge  Ge3  1  0.74896399  0.24896400  0.49792795  1
  Ge  Ge4  1  0.57297898  0.57297900  0.14595795  1
