# generated using pymatgen
data_Ga9S5
_symmetry_space_group_name_H-M   'P 1'
_cell_length_a   7.06502056
_cell_length_b   7.06502056
_cell_length_c   7.06502056
_cell_angle_alpha   60.00000000
_cell_angle_beta   60.00000000
_cell_angle_gamma   60.00000000
_symmetry_Int_Tables_number   1
_chemical_formula_structural   Ga9S5
_chemical_formula_sum   'Ga9 S5'
_cell_volume   249.35914059
_cell_formula_units_Z   1
loop_
 _symmetry_equiv_pos_site_id
 _symmetry_equiv_pos_as_xyz
  1  'x, y, z'
loop_
 _atom_site_type_symbol
 _atom_site_label
 _atom_site_symmetry_multiplicity
 _atom_site_fract_x
 _atom_site_fract_y
 _atom_site_fract_z
 _atom_site_occupancy
  Ga  Ga0  1  0.50000000  0.50000000  0.50000000  1
  Ga  Ga1  1  0.87500001  0.37500000  0.87500001  1
  Ga  Ga2  1  0.37500000  0.87500001  0.87500001  1
  Ga  Ga3  1  0.87500001  0.87500001  0.87500001  1
  S  S4  1  0.25000000  0.25000000  0.25000000  1
  Ga  Ga5  1  0.87500001  0.87500001  0.37500000  1
  Ga  Ga6  1  0.65204201  0.11598600  0.11598600  1
  Ga  Ga7  1  0.11598700  0.65204101  0.11598600  1
  S  S8  1  0.09795800  0.63401401  0.63401401  1
  S  S9  1  0.63401301  0.09795900  0.63401401  1
  Ga  Ga10  1  0.11598700  0.11598600  0.11598600  1
  S  S11  1  0.63401301  0.63401401  0.63401401  1
  S  S12  1  0.63401301  0.63401401  0.09795900  1
  Ga  Ga13  1  0.11598700  0.11598600  0.65204101  1
