# generated using pymatgen
data_F2
_symmetry_space_group_name_H-M   'P 1'
_cell_length_a   3.63699484
_cell_length_b   3.63699484
_cell_length_c   8.94945431
_cell_angle_alpha   78.27606964
_cell_angle_beta   78.27606964
_cell_angle_gamma   59.99998856
_symmetry_Int_Tables_number   1
_chemical_formula_structural   F2
_chemical_formula_sum   F4
_cell_volume   99.65900528
_cell_formula_units_Z   2
loop_
 _symmetry_equiv_pos_site_id
 _symmetry_equiv_pos_as_xyz
  1  'x, y, z'
loop_
 _atom_site_type_symbol
 _atom_site_label
 _atom_site_symmetry_multiplicity
 _atom_site_fract_x
 _atom_site_fract_y
 _atom_site_fract_z
 _atom_site_occupancy
  F  F0  1  0.95275600  0.95275595  0.14173201  1
  F  F1  1  0.04724400  0.04724400  0.85826796  1
  F  F2  1  0.24476400  0.24476399  0.26570799  1
  F  F3  1  0.75523600  0.75523596  0.73429198  1
