# generated using pymatgen
data_CoBMo2
_symmetry_space_group_name_H-M   'P 1'
_cell_length_a   2.90939593
_cell_length_b   4.88769770
_cell_length_c   7.21217203
_cell_angle_alpha   90.00000000
_cell_angle_beta   90.00000000
_cell_angle_gamma   107.31497192
_symmetry_Int_Tables_number   1
_chemical_formula_structural   CoBMo2
_chemical_formula_sum   'Co2 B2 Mo4'
_cell_volume   97.91121916
_cell_formula_units_Z   2
loop_
 _symmetry_equiv_pos_site_id
 _symmetry_equiv_pos_as_xyz
  1  'x, y, z'
loop_
 _atom_site_type_symbol
 _atom_site_label
 _atom_site_symmetry_multiplicity
 _atom_site_fract_x
 _atom_site_fract_y
 _atom_site_fract_z
 _atom_site_occupancy
  Co  Co0  1  0.42513095  0.85026196  -0.00000000  1
  Mo  Mo1  1  0.13193798  0.26387599  0.81788200  1
  Co  Co2  1  0.86308497  0.72616997  0.69570700  1
  Mo  Mo3  1  0.13193798  0.26387599  0.18211800  1
  Mo  Mo4  1  0.86308497  0.72616997  0.30429300  1
  Mo  Mo5  1  0.57280300  0.14560599  0.50000000  1
  B  B6  1  0.75522298  0.51044598  -0.00000000  1
  B  B7  1  0.25679597  0.51359198  0.50000000  1
