# generated using pymatgen
data_Ho6Ga11Pd
_symmetry_space_group_name_H-M   'P 1'
_cell_length_a   4.36988211
_cell_length_b   7.60927010
_cell_length_c   11.22420597
_cell_angle_alpha   109.81394958
_cell_angle_beta   101.22505188
_cell_angle_gamma   90.00000000
_symmetry_Int_Tables_number   1
_chemical_formula_structural   Ho6Ga11Pd
_chemical_formula_sum   'Ho6 Ga11 Pd1'
_cell_volume   343.52889400
_cell_formula_units_Z   1
loop_
 _symmetry_equiv_pos_site_id
 _symmetry_equiv_pos_as_xyz
  1  'x, y, z'
loop_
 _atom_site_type_symbol
 _atom_site_label
 _atom_site_symmetry_multiplicity
 _atom_site_fract_x
 _atom_site_fract_y
 _atom_site_fract_z
 _atom_site_occupancy
  Ho  Ho0  1  -0.00000001  0.46567100  0.00000001  1
  Ho  Ho1  1  0.33297597  0.79713000  0.66595202  1
  Ho  Ho2  1  0.66702397  0.13117800  0.33404799  1
  Ho  Ho3  1  0.49999998  0.04845800  -0.00000001  1
  Ho  Ho4  1  0.16653798  0.70866300  0.33307602  1
  Ho  Ho5  1  0.83346196  0.37558700  0.66692400  1
  Ga  Ga6  1  0.06574298  0.91410200  0.13148602  1
  Ga  Ga7  1  0.93425695  0.78261600  0.86851401  1
  Pd  Pd8  1  0.23702098  0.39612200  0.47404201  1
  Ga  Ga9  1  0.76297795  0.92207900  0.52595701  1
  Ga  Ga10  1  0.40793298  0.25356500  0.81586601  1
  Ga  Ga11  1  0.59206697  0.43769900  0.18413400  1
  Ga  Ga12  1  0.10507499  0.27952000  0.21015001  1
  Ga  Ga13  1  0.89492597  0.06937100  0.78985100  1
  Ga  Ga14  1  0.26814199  0.09982400  0.53628401  1
  Ga  Ga15  1  0.73185796  0.56354000  0.46371600  1
  Ga  Ga16  1  0.42743597  0.60595400  0.85487202  1
  Ga  Ga17  1  0.57256396  0.75108200  0.14512800  1
