# generated using pymatgen
data_Li2CoSiO4
_symmetry_space_group_name_H-M   'P 1'
_cell_length_a   5.43368053
_cell_length_b   5.43368053
_cell_length_c   6.47183514
_cell_angle_alpha   90.65167236
_cell_angle_beta   90.65167236
_cell_angle_gamma   92.68069458
_symmetry_Int_Tables_number   1
_chemical_formula_structural   Li2CoSiO4
_chemical_formula_sum   'Li4 Co2 Si2 O8'
_cell_volume   190.84517779
_cell_formula_units_Z   2
loop_
 _symmetry_equiv_pos_site_id
 _symmetry_equiv_pos_as_xyz
  1  'x, y, z'
loop_
 _atom_site_type_symbol
 _atom_site_label
 _atom_site_symmetry_multiplicity
 _atom_site_fract_x
 _atom_site_fract_y
 _atom_site_fract_z
 _atom_site_occupancy
  Li  Li0  1  0.18225300  0.16645100  0.27971399  1
  Co  Co1  1  0.67435399  0.32564599  0.49999997  1
  Li  Li2  1  0.32371800  0.67628199  0.49999997  1
  Co  Co3  1  0.28927500  0.71072499  0.99999999  1
  Li  Li4  1  0.83354899  0.81774698  0.72028595  1
  Si  Si5  1  0.17906500  0.16320900  0.73512801  1
  Si  Si6  1  0.83679099  0.82093498  0.26487194  1
  Li  Li7  1  0.68192399  0.31807599  -0.00000004  1
  O  O8  1  0.31811200  0.29975299  0.54353999  1
  O  O9  1  0.26149900  0.30331799  0.96440601  1
  O  O10  1  0.13331901  0.79052498  0.25347597  1
  O  O11  1  0.80755599  0.12781800  0.28159797  1
  O  O12  1  0.20947501  0.86668098  0.74652398  1
  O  O13  1  0.87218199  0.19244400  0.71840198  1
  O  O14  1  0.70024699  0.68188799  0.45645996  1
  O  O15  1  0.69668199  0.73850099  0.03559394  1
