# generated using pymatgen
data_EuGa4
_symmetry_space_group_name_H-M   'P 1'
_cell_length_a   4.29440212
_cell_length_b   4.29440212
_cell_length_c   6.36078405
_cell_angle_alpha   109.72880554
_cell_angle_beta   109.72880554
_cell_angle_gamma   90.00000000
_symmetry_Int_Tables_number   1
_chemical_formula_structural   EuGa4
_chemical_formula_sum   'Eu1 Ga4'
_cell_volume   103.07454536
_cell_formula_units_Z   1
loop_
 _symmetry_equiv_pos_site_id
 _symmetry_equiv_pos_as_xyz
  1  'x, y, z'
loop_
 _atom_site_type_symbol
 _atom_site_label
 _atom_site_symmetry_multiplicity
 _atom_site_fract_x
 _atom_site_fract_y
 _atom_site_fract_z
 _atom_site_occupancy
  Eu  Eu0  1  0.00000000  0.00000000  0.00000000  1
  Ga  Ga1  1  0.74999995  0.24999999  0.49999996  1
  Ga  Ga2  1  0.24999995  0.74999996  0.49999996  1
  Ga  Ga3  1  0.61430094  0.61430097  0.22860194  1
  Ga  Ga4  1  0.38569896  0.38569898  0.77139798  1
