# generated using pymatgen
data_Pr3MoSe5
_symmetry_space_group_name_H-M   'P 1'
_cell_length_a   4.08227587
_cell_length_b   7.16536188
_cell_length_c   7.16536236
_cell_angle_alpha   120.00000000
_cell_angle_beta   90.00000000
_cell_angle_gamma   90.00000000
_symmetry_Int_Tables_number   1
_chemical_formula_structural   Pr3MoSe5
_chemical_formula_sum   'Pr3 Mo1 Se5'
_cell_volume   181.51364092
_cell_formula_units_Z   1
loop_
 _symmetry_equiv_pos_site_id
 _symmetry_equiv_pos_as_xyz
  1  'x, y, z'
loop_
 _atom_site_type_symbol
 _atom_site_label
 _atom_site_symmetry_multiplicity
 _atom_site_fract_x
 _atom_site_fract_y
 _atom_site_fract_z
 _atom_site_occupancy
  Pr  Pr0  1  0.50000002  0.58376702  0.00000002  1
  Pr  Pr1  1  0.50000002  0.41623302  0.41623302  1
  Pr  Pr2  1  0.50000002  1.00000004  0.58376704  1
  Mo  Mo3  1  1.00000003  0.00000000  0.23695900  1
  Se  Se4  1  0.00000000  0.23695901  0.00000001  1
  Se  Se5  1  0.00000000  0.76304103  0.76304104  1
  Se  Se6  1  1.00000003  0.33333335  0.66666669  1
  Se  Se7  1  0.50000002  0.00000000  -0.00000000  1
  Se  Se8  1  1.00000003  0.66666669  0.33333336  1
