# generated using pymatgen
data_SiO2
_symmetry_space_group_name_H-M   'P 1'
_cell_length_a   4.92662001
_cell_length_b   7.05544758
_cell_length_c   7.15015602
_cell_angle_alpha   114.06211853
_cell_angle_beta   104.07312775
_cell_angle_gamma   102.22579193
_symmetry_Int_Tables_number   1
_chemical_formula_structural   SiO2
_chemical_formula_sum   'Si4 O8'
_cell_volume   206.11970888
_cell_formula_units_Z   4
loop_
 _symmetry_equiv_pos_site_id
 _symmetry_equiv_pos_as_xyz
  1  'x, y, z'
loop_
 _atom_site_type_symbol
 _atom_site_label
 _atom_site_symmetry_multiplicity
 _atom_site_fract_x
 _atom_site_fract_y
 _atom_site_fract_z
 _atom_site_occupancy
  Si  Si0  1  0.81529199  0.15989001  0.28382896  1
  Si  Si1  1  0.43703900  0.14444801  0.52882497  1
  Si  Si2  1  0.81702800  0.56930902  0.63200196  1
  Si  Si3  1  0.45159501  0.87231703  0.77243497  1
  O  O4  1  0.67474800  0.39702502  0.71308696  1
  O  O5  1  0.60991400  0.72017003  0.62867997  1
  O  O6  1  0.81143500  0.41484002  0.38426696  1
  O  O7  1  0.16399701  0.72619703  0.79122498  1
  O  O8  1  0.69666099  0.04518900  0.01817997  1
  O  O9  1  0.33672500  0.00697400  0.64957697  1
  O  O10  1  0.60364299  0.02446400  0.36676797  1
  O  O11  1  0.15071300  0.16211901  0.37597598  1
