# generated using pymatgen
data_LiCrO2
_symmetry_space_group_name_H-M   'P 1'
_cell_length_a   2.94485593
_cell_length_b   5.89687395
_cell_length_c   6.61118746
_cell_angle_alpha   102.90235138
_cell_angle_beta   102.86870575
_cell_angle_gamma   90.00000000
_symmetry_Int_Tables_number   1
_chemical_formula_structural   LiCrO2
_chemical_formula_sum   'Li3 Cr3 O6'
_cell_volume   108.94730125
_cell_formula_units_Z   3
loop_
 _symmetry_equiv_pos_site_id
 _symmetry_equiv_pos_as_xyz
  1  'x, y, z'
loop_
 _atom_site_type_symbol
 _atom_site_label
 _atom_site_symmetry_multiplicity
 _atom_site_fract_x
 _atom_site_fract_y
 _atom_site_fract_z
 _atom_site_occupancy
  Li  Li0  1  0.00000000  0.00000000  0.00000000  1
  Li  Li1  1  0.33597700  0.66457397  0.67195394  1
  Li  Li2  1  0.66402302  0.33542598  0.32804598  1
  Cr  Cr3  1  0.33425701  0.17279799  0.66851397  1
  Cr  Cr4  1  0.66574301  0.82720196  0.33148595  1
  Cr  Cr5  1  -0.00000000  0.49999998  -0.00000003  1
  O  O6  1  0.83310802  0.40006598  0.66621597  1
  O  O7  1  0.17310001  0.06521100  0.34619999  1
  O  O8  1  0.16689200  0.59993397  0.33378396  1
  O  O9  1  0.50825501  0.74414097  0.01650996  1
  O  O10  1  0.49174501  0.25585899  0.98348996  1
  O  O11  1  0.82690002  0.93478896  0.65379994  1
