# generated using pymatgen
data_Li3(CoO2)5
_symmetry_space_group_name_H-M   'P 1'
_cell_length_a   5.02856398
_cell_length_b   5.26543331
_cell_length_c   7.44476366
_cell_angle_alpha   108.86127472
_cell_angle_beta   99.67487335
_cell_angle_gamma   102.50923157
_symmetry_Int_Tables_number   1
_chemical_formula_structural   Li3(CoO2)5
_chemical_formula_sum   'Li3 Co5 O10'
_cell_volume   175.95571854
_cell_formula_units_Z   1
loop_
 _symmetry_equiv_pos_site_id
 _symmetry_equiv_pos_as_xyz
  1  'x, y, z'
loop_
 _atom_site_type_symbol
 _atom_site_label
 _atom_site_symmetry_multiplicity
 _atom_site_fract_x
 _atom_site_fract_y
 _atom_site_fract_z
 _atom_site_occupancy
  Li  Li0  1  0.21549010  0.91220007  0.40450704  1
  Li  Li1  1  0.50000006  0.50000004  0.50000004  1
  Li  Li2  1  0.78451003  0.08780001  0.59549303  1
  Co  Co3  1  0.11181207  0.69325105  0.69364903  1
  Co  Co4  1  0.88818805  0.30674902  0.30635104  1
  Co  Co5  1  0.00000005  0.50000004  0.00000002  1
  Co  Co6  1  0.69721211  0.88245306  0.90302306  1
  Co  Co7  1  0.30278802  0.11754701  0.09697701  1
  O  O8  1  0.05180701  0.04096500  0.83456500  1
  O  O9  1  0.31849808  0.73357505  0.95303804  1
  O  O10  1  0.10934304  0.33080702  0.54549602  1
  O  O11  1  0.21110805  0.46921803  0.22722702  1
  O  O12  1  0.44529110  0.85749806  0.65768105  1
  O  O13  1  0.55470903  0.14250201  0.34231902  1
  O  O14  1  0.78889207  0.53078204  0.77277305  1
  O  O15  1  0.89065709  0.66919305  0.45450406  1
  O  O16  1  0.68150204  0.26642502  0.04696203  1
  O  O17  1  0.94819312  0.95903507  0.16543507  1
