# generated using pymatgen
data_HoNi4B
_symmetry_space_group_name_H-M   'P 1'
_cell_length_a   5.08989239
_cell_length_b   5.08989239
_cell_length_c   7.02300787
_cell_angle_alpha   90.00000000
_cell_angle_beta   90.00000000
_cell_angle_gamma   120.00000000
_symmetry_Int_Tables_number   1
_chemical_formula_structural   HoNi4B
_chemical_formula_sum   'Ho2 Ni8 B2'
_cell_volume   157.56907574
_cell_formula_units_Z   2
loop_
 _symmetry_equiv_pos_site_id
 _symmetry_equiv_pos_as_xyz
  1  'x, y, z'
loop_
 _atom_site_type_symbol
 _atom_site_label
 _atom_site_symmetry_multiplicity
 _atom_site_fract_x
 _atom_site_fract_y
 _atom_site_fract_z
 _atom_site_occupancy
  Ho  Ho0  1  0.00000000  0.00000000  0.00000000  1
  Ho  Ho1  1  0.00000000  0.00000000  0.50000001  1
  Ni  Ni2  1  0.33333329  0.66666662  -0.00000000  1
  Ni  Ni3  1  0.66666662  0.33333331  -0.00000000  1
  Ni  Ni4  1  0.49999998  0.00000000  0.29415901  1
  Ni  Ni5  1  0.49999996  0.49999997  0.29415901  1
  Ni  Ni6  1  -0.00000003  0.49999997  0.29415901  1
  Ni  Ni7  1  0.49999998  0.00000000  0.70584101  1
  Ni  Ni8  1  0.49999996  0.49999997  0.70584101  1
  Ni  Ni9  1  -0.00000003  0.49999997  0.70584101  1
  B  B10  1  0.33333329  0.66666662  0.50000001  1
  B  B11  1  0.66666662  0.33333331  0.50000001  1
