# generated using pymatgen
data_Cs4Na2CoCuF12
_symmetry_space_group_name_H-M   'P 1'
_cell_length_a   5.82887697
_cell_length_b   6.06382418
_cell_length_c   8.33515930
_cell_angle_alpha   90.00000000
_cell_angle_beta   90.00000000
_cell_angle_gamma   90.00000000
_symmetry_Int_Tables_number   1
_chemical_formula_structural   Cs4Na2CoCuF12
_chemical_formula_sum   'Cs4 Na2 Co1 Cu1 F12'
_cell_volume   294.60858194
_cell_formula_units_Z   1
loop_
 _symmetry_equiv_pos_site_id
 _symmetry_equiv_pos_as_xyz
  1  'x, y, z'
loop_
 _atom_site_type_symbol
 _atom_site_label
 _atom_site_symmetry_multiplicity
 _atom_site_fract_x
 _atom_site_fract_y
 _atom_site_fract_z
 _atom_site_occupancy
  Cs  Cs0  1  0.50000000  0.79020398  0.76396397  1
  Cs  Cs1  1  0.50000000  0.79020398  0.23603599  1
  Cs  Cs2  1  0.00000000  0.20979599  0.73603597  1
  Cs  Cs3  1  0.00000000  0.20979599  0.26396399  1
  Na  Na4  1  0.00000000  0.72605598  0.49999998  1
  Na  Na5  1  0.50000000  0.27394399  -0.00000000  1
  Cu  Cu6  1  0.50000000  0.23728299  0.49999998  1
  Co  Co7  1  0.00000000  0.76271698  -0.00000000  1
  F  F8  1  0.50000000  0.21908599  0.73303797  1
  F  F9  1  0.50000000  0.21908599  0.26696199  1
  F  F10  1  0.00000000  0.78091398  0.76696197  1
  F  F11  1  0.00000000  0.78091398  0.23303799  1
  F  F12  1  0.73374700  0.00174700  0.49999998  1
  F  F13  1  0.26625300  0.00174700  0.49999998  1
  F  F14  1  0.74276700  0.45101699  0.49999998  1
  F  F15  1  0.25723300  0.45101699  0.49999998  1
  F  F16  1  0.24276700  0.54898298  -0.00000000  1
  F  F17  1  0.75723300  0.54898298  -0.00000000  1
  F  F18  1  0.76625300  0.99825297  -0.00000000  1
  F  F19  1  0.23374700  0.99825297  -0.00000000  1
