# generated using pymatgen
data_Cs9Hg7
_symmetry_space_group_name_H-M   'P 1'
_cell_length_a   7.37740803
_cell_length_b   9.47153950
_cell_length_c   10.90274143
_cell_angle_alpha   90.00000000
_cell_angle_beta   90.00000000
_cell_angle_gamma   112.92036438
_symmetry_Int_Tables_number   1
_chemical_formula_structural   Cs9Hg7
_chemical_formula_sum   'Cs9 Hg7'
_cell_volume   701.68453309
_cell_formula_units_Z   1
loop_
 _symmetry_equiv_pos_site_id
 _symmetry_equiv_pos_as_xyz
  1  'x, y, z'
loop_
 _atom_site_type_symbol
 _atom_site_label
 _atom_site_symmetry_multiplicity
 _atom_site_fract_x
 _atom_site_fract_y
 _atom_site_fract_z
 _atom_site_occupancy
  Cs  Cs0  1  0.76812896  0.53625797  0.74999997  1
  Cs  Cs1  1  0.23187097  0.46374198  0.24999999  1
  Cs  Cs2  1  0.38821195  0.77642396  0.94579196  1
  Cs  Cs3  1  0.61178798  0.22357599  0.05420800  1
  Cs  Cs4  1  0.61178798  0.22357599  0.44579198  1
  Cs  Cs5  1  0.38821195  0.77642396  0.55420798  1
  Cs  Cs6  1  0.00000000  0.00000000  0.00000000  1
  Hg  Hg7  1  0.00000000  0.00000000  0.49999998  1
  Cs  Cs8  1  0.82202399  0.08424200  0.74999997  1
  Cs  Cs9  1  0.17797594  0.91575795  0.24999999  1
  Hg  Hg10  1  0.26221799  0.08424200  0.74999997  1
  Hg  Hg11  1  0.73778194  0.91575795  0.24999999  1
  Hg  Hg12  1  0.16798298  0.33596598  0.89200296  1
  Hg  Hg13  1  0.83201696  0.66403397  0.10799700  1
  Hg  Hg14  1  0.83201696  0.66403397  0.39200298  1
  Hg  Hg15  1  0.16798298  0.33596598  0.60799698  1
