# generated using pymatgen
data_MgGa5CoS7
_symmetry_space_group_name_H-M   'P 1'
_cell_length_a   7.30652809
_cell_length_b   7.30750084
_cell_length_c   7.30856895
_cell_angle_alpha   60.17903137
_cell_angle_beta   60.16933823
_cell_angle_gamma   60.14872360
_symmetry_Int_Tables_number   1
_chemical_formula_structural   MgGa5CoS7
_chemical_formula_sum   'Mg1 Ga5 Co1 S7'
_cell_volume   276.96443599
_cell_formula_units_Z   1
loop_
 _symmetry_equiv_pos_site_id
 _symmetry_equiv_pos_as_xyz
  1  'x, y, z'
loop_
 _atom_site_type_symbol
 _atom_site_label
 _atom_site_symmetry_multiplicity
 _atom_site_fract_x
 _atom_site_fract_y
 _atom_site_fract_z
 _atom_site_occupancy
  Ga  Ga0  1  0.87314375  0.87320071  0.87298823  1
  Ga  Ga1  1  0.12687551  0.12684790  0.12697431  1
  Ga  Ga2  1  0.49991852  0.50005937  0.50003000  1
  Ga  Ga3  1  0.00005387  0.49994202  0.49999683  1
  Mg  Mg4  1  0.49991028  0.99996107  0.50004783  1
  Ga  Ga5  1  0.49988811  0.50003444  0.00003144  1
  S  S6  1  0.73707580  0.73720591  0.73702959  1
  S  S7  1  0.71734903  0.26281835  0.26277599  1
  S  S8  1  0.26295717  0.26279810  0.71709756  1
  S  S9  1  0.26292887  0.71714188  0.26291592  1
  S  S10  1  0.73708146  0.73716808  0.28287004  1
  S  S11  1  0.73695476  0.28284676  0.73719447  1
  Co  Co12  1  0.26311929  0.26280721  0.26284841  1
  S  S13  1  0.28274406  0.73717239  0.73719501  1
