# generated using pymatgen
data_Cd4GaTe5
_symmetry_space_group_name_H-M   'P 1'
_cell_length_a   4.59673452
_cell_length_b   4.59673452
_cell_length_c   18.91932678
_cell_angle_alpha   83.02233124
_cell_angle_beta   83.02233124
_cell_angle_gamma   59.99999619
_symmetry_Int_Tables_number   1
_chemical_formula_structural   Cd4GaTe5
_chemical_formula_sum   'Cd4 Ga1 Te5'
_cell_volume   342.78330575
_cell_formula_units_Z   1
loop_
 _symmetry_equiv_pos_site_id
 _symmetry_equiv_pos_as_xyz
  1  'x, y, z'
loop_
 _atom_site_type_symbol
 _atom_site_label
 _atom_site_symmetry_multiplicity
 _atom_site_fract_x
 _atom_site_fract_y
 _atom_site_fract_z
 _atom_site_occupancy
  Te  Te0  1  0.99501797  0.99501795  0.01494599  1
  Te  Te1  1  0.60492198  0.60492197  0.18523399  1
  Te  Te2  1  0.20233699  0.20233699  0.39298899  1
  Cd  Cd3  1  0.79993498  0.79993496  0.60019498  1
  Cd  Cd4  1  0.39747099  0.39747098  0.80758698  1
  Cd  Cd5  1  0.55381299  0.55381297  0.33856099  1
  Cd  Cd6  1  0.15139400  0.15139399  0.54581799  1
  Te  Te7  1  0.74905598  0.74905596  0.75283198  1
  Te  Te8  1  0.34669399  0.34669398  0.95991798  1
  Ga  Ga9  1  0.94935897  0.94935895  0.15192299  1
