# generated using pymatgen
data_BaLiZrN3
_symmetry_space_group_name_H-M   'P 1'
_cell_length_a   3.03266096
_cell_length_b   5.53091812
_cell_length_c   5.53091764
_cell_angle_alpha   120.00000000
_cell_angle_beta   90.00000000
_cell_angle_gamma   90.00000000
_symmetry_Int_Tables_number   1
_chemical_formula_structural   BaLiZrN3
_chemical_formula_sum   'Ba1 Li1 Zr1 N3'
_cell_volume   80.34316083
_cell_formula_units_Z   1
loop_
 _symmetry_equiv_pos_site_id
 _symmetry_equiv_pos_as_xyz
  1  'x, y, z'
loop_
 _atom_site_type_symbol
 _atom_site_label
 _atom_site_symmetry_multiplicity
 _atom_site_fract_x
 _atom_site_fract_y
 _atom_site_fract_z
 _atom_site_occupancy
  Ba  Ba0  1  0.00000000  0.00000000  0.00000000  1
  Zr  Zr1  1  1.00000001  0.66666663  0.33333329  1
  Li  Li2  1  0.00000000  0.33333332  0.66666664  1
  N  N3  1  0.50000001  0.49999998  0.49999997  1
  N  N4  1  0.50000001  0.49999998  -0.00000003  1
  N  N5  1  0.50000001  0.99999995  0.49999994  1
