# generated using pymatgen
data_B4Mo
_symmetry_space_group_name_H-M   'P 1'
_cell_length_a   2.77525806
_cell_length_b   4.62835884
_cell_length_c   7.25337076
_cell_angle_alpha   90.00000000
_cell_angle_beta   90.00000000
_cell_angle_gamma   90.00000000
_symmetry_Int_Tables_number   1
_chemical_formula_structural   B4Mo
_chemical_formula_sum   'B8 Mo2'
_cell_volume   93.16875100
_cell_formula_units_Z   2
loop_
 _symmetry_equiv_pos_site_id
 _symmetry_equiv_pos_as_xyz
  1  'x, y, z'
loop_
 _atom_site_type_symbol
 _atom_site_label
 _atom_site_symmetry_multiplicity
 _atom_site_fract_x
 _atom_site_fract_y
 _atom_site_fract_z
 _atom_site_occupancy
  Mo  Mo0  1  0.49999999  0.50000002  0.50000002  1
  Mo  Mo1  1  0.00000000  0.00000000  0.00000000  1
  B  B2  1  0.49999999  0.88465503  0.72970302  1
  B  B3  1  0.49999999  0.11534500  0.27029701  1
  B  B4  1  0.00000000  0.61534502  0.22970301  1
  B  B5  1  0.00000000  0.38465501  0.77029703  1
  B  B6  1  0.49999999  0.78435603  0.22006901  1
  B  B7  1  0.49999999  0.21564401  0.77993103  1
  B  B8  1  0.00000000  0.71564402  0.72006902  1
  B  B9  1  0.00000000  0.28435601  0.27993101  1
