# generated using pymatgen
data_Er2Si4Mo3
_symmetry_space_group_name_H-M   'P 1'
_cell_length_a   6.74778318
_cell_length_b   6.92245579
_cell_length_c   6.86123514
_cell_angle_alpha   90.00000000
_cell_angle_beta   71.14818573
_cell_angle_gamma   90.00000000
_symmetry_Int_Tables_number   1
_chemical_formula_structural   Er2Si4Mo3
_chemical_formula_sum   'Er4 Si8 Mo6'
_cell_volume   303.30447205
_cell_formula_units_Z   2
loop_
 _symmetry_equiv_pos_site_id
 _symmetry_equiv_pos_as_xyz
  1  'x, y, z'
loop_
 _atom_site_type_symbol
 _atom_site_label
 _atom_site_symmetry_multiplicity
 _atom_site_fract_x
 _atom_site_fract_y
 _atom_site_fract_z
 _atom_site_occupancy
  Er  Er0  1  0.56071597  0.33116901  0.80939805  1
  Er  Er1  1  0.93928396  0.83116903  0.19060206  1
  Er  Er2  1  0.43928398  0.66883102  0.19060203  1
  Er  Er3  1  0.06071600  0.16883101  0.80939803  1
  Si  Si4  1  0.86895996  0.54453602  0.90921407  1
  Si  Si5  1  0.63103997  0.04453600  0.09078604  1
  Si  Si6  1  0.13103999  0.45546401  0.09078601  1
  Si  Si7  1  0.36895998  0.95546403  0.90921405  1
  Si  Si8  1  0.87071896  0.13207600  0.49508906  1
  Si  Si9  1  0.62928097  0.63207602  0.50491105  1
  Si  Si10  1  0.12928099  0.86792403  0.50491102  1
  Si  Si11  1  0.37071898  0.36792401  0.49508903  1
  Mo  Mo12  1  0.00000000  0.50000002  0.50000002  1
  Mo  Mo13  1  0.49999998  0.00000000  0.50000004  1
  Mo  Mo14  1  0.75024397  0.83736203  0.75104406  1
  Mo  Mo15  1  0.74975597  0.33736201  0.24895605  1
  Mo  Mo16  1  0.24975599  0.16263800  0.24895602  1
  Mo  Mo17  1  0.25024399  0.66263802  0.75104404  1
