# generated using pymatgen
data_Cs2AlF4
_symmetry_space_group_name_H-M   'P 1'
_cell_length_a   6.42738199
_cell_length_b   7.28569460
_cell_length_c   8.03918934
_cell_angle_alpha   113.07418823
_cell_angle_beta   90.00000000
_cell_angle_gamma   116.17383575
_symmetry_Int_Tables_number   1
_chemical_formula_structural   Cs2AlF4
_chemical_formula_sum   'Cs4 Al2 F8'
_cell_volume   303.93785121
_cell_formula_units_Z   2
loop_
 _symmetry_equiv_pos_site_id
 _symmetry_equiv_pos_as_xyz
  1  'x, y, z'
loop_
 _atom_site_type_symbol
 _atom_site_label
 _atom_site_symmetry_multiplicity
 _atom_site_fract_x
 _atom_site_fract_y
 _atom_site_fract_z
 _atom_site_occupancy
  Cs  Cs0  1  0.84353804  0.68707602  0.25210597  1
  Cs  Cs1  1  0.15646202  0.31292401  0.74789400  1
  Cs  Cs2  1  0.48665605  0.97331202  0.76153997  1
  Cs  Cs3  1  0.51334400  0.02668800  0.23846000  1
  Al  Al4  1  0.17600402  0.35200801  0.22488399  1
  Al  Al5  1  0.82399604  0.64799202  0.77511598  1
  F  F6  1  0.37148702  0.28628001  0.08245599  1
  F  F7  1  0.08520704  0.71372002  0.91754398  1
  F  F8  1  0.62851304  0.71372002  0.91754398  1
  F  F9  1  0.91479302  0.28628001  0.08245599  1
  F  F10  1  0.67356002  0.34712001  0.62790999  1
  F  F11  1  0.32644004  0.65288002  0.37208998  1
  F  F12  1  0.09433201  0.18866400  0.35584100  1
  F  F13  1  0.90566804  0.81133602  0.64415897  1
