# generated using pymatgen
data_TaCoGe
_symmetry_space_group_name_H-M   'P 1'
_cell_length_a   4.86531210
_cell_length_b   4.86531210
_cell_length_c   7.94601822
_cell_angle_alpha   90.00000000
_cell_angle_beta   90.00000000
_cell_angle_gamma   120.00000000
_symmetry_Int_Tables_number   1
_chemical_formula_structural   TaCoGe
_chemical_formula_sum   'Ta4 Co4 Ge4'
_cell_volume   162.89269077
_cell_formula_units_Z   4
loop_
 _symmetry_equiv_pos_site_id
 _symmetry_equiv_pos_as_xyz
  1  'x, y, z'
loop_
 _atom_site_type_symbol
 _atom_site_label
 _atom_site_symmetry_multiplicity
 _atom_site_fract_x
 _atom_site_fract_y
 _atom_site_fract_z
 _atom_site_occupancy
  Ta  Ta0  1  0.33333334  0.66666669  0.56542498  1
  Ta  Ta1  1  0.66666666  0.33333334  0.43457499  1
  Ta  Ta2  1  0.66666666  0.33333334  0.05888700  1
  Ta  Ta3  1  0.33333334  0.66666669  0.94111297  1
  Ge  Ge4  1  0.00000000  0.00000000  0.49999999  1
  Ge  Ge5  1  0.00000000  0.00000000  0.00000000  1
  Co  Co6  1  0.33640100  0.16820000  0.75469098  1
  Co  Co7  1  0.83179900  0.66359802  0.75469098  1
  Ge  Ge8  1  0.83179899  0.16820000  0.75469098  1
  Ge  Ge9  1  0.66359901  0.83180002  0.24530899  1
  Co  Co10  1  0.16820100  0.33640201  0.24530899  1
  Co  Co11  1  0.16820102  0.83180002  0.24530899  1
