# generated using pymatgen
data_NaGe3
_symmetry_space_group_name_H-M   'P 1'
_cell_length_a   5.20408106
_cell_length_b   5.20408106
_cell_length_c   5.96858454
_cell_angle_alpha   64.58843994
_cell_angle_beta   64.58843994
_cell_angle_gamma   89.43017578
_symmetry_Int_Tables_number   1
_chemical_formula_structural   NaGe3
_chemical_formula_sum   'Na2 Ge6'
_cell_volume   128.83745530
_cell_formula_units_Z   2
loop_
 _symmetry_equiv_pos_site_id
 _symmetry_equiv_pos_as_xyz
  1  'x, y, z'
loop_
 _atom_site_type_symbol
 _atom_site_label
 _atom_site_symmetry_multiplicity
 _atom_site_fract_x
 _atom_site_fract_y
 _atom_site_fract_z
 _atom_site_occupancy
  Ge  Ge0  1  0.37336498  0.62663499  0.75000003  1
  Ge  Ge1  1  0.62663499  0.37336499  0.25000002  1
  Na  Na2  1  0.11567598  0.88432399  0.25000003  1
  Na  Na3  1  0.88432399  0.11567600  0.75000003  1
  Ge  Ge4  1  0.70610998  0.86543999  0.24584703  1
  Ge  Ge5  1  0.13455999  0.29389000  0.25415301  1
  Ge  Ge6  1  0.86543998  0.70610999  0.74584704  1
  Ge  Ge7  1  0.29388999  0.13456000  0.75415302  1
