# generated using pymatgen
data_Ba(Lu3Se4)2
_symmetry_space_group_name_H-M   'P 1'
_cell_length_a   3.70617294
_cell_length_b   10.74702644
_cell_length_c   10.74702549
_cell_angle_alpha   120.00000000
_cell_angle_beta   90.00000000
_cell_angle_gamma   90.00000000
_symmetry_Int_Tables_number   1
_chemical_formula_structural   Ba(Lu3Se4)2
_chemical_formula_sum   'Ba1 Lu6 Se8'
_cell_volume   370.70881170
_cell_formula_units_Z   1
loop_
 _symmetry_equiv_pos_site_id
 _symmetry_equiv_pos_as_xyz
  1  'x, y, z'
loop_
 _atom_site_type_symbol
 _atom_site_label
 _atom_site_symmetry_multiplicity
 _atom_site_fract_x
 _atom_site_fract_y
 _atom_site_fract_z
 _atom_site_occupancy
  Ba  Ba0  1  0.50000001  0.00000000  -0.00000000  1
  Lu  Lu1  1  0.74906401  0.48939697  0.38808199  1
  Lu  Lu2  1  0.74906401  0.61191797  0.10131498  1
  Lu  Lu3  1  0.74906401  0.89868495  0.51060298  1
  Lu  Lu4  1  0.25093600  0.51060297  0.61191799  1
  Lu  Lu5  1  0.25093600  0.38808198  0.89868499  1
  Lu  Lu6  1  0.25093600  0.10131499  0.48939700  1
  Se  Se7  1  0.75180401  0.33274498  0.06146199  1
  Se  Se8  1  0.75180401  0.93853795  0.27128297  1
  Se  Se9  1  0.75180401  0.72871696  0.66725498  1
  Se  Se10  1  0.24819600  0.66725496  0.93853799  1
  Se  Se11  1  0.24819600  0.06146200  0.72871700  1
  Se  Se12  1  0.24819600  0.27128298  0.33274499  1
  Se  Se13  1  0.75032701  0.33333331  0.66666666  1
  Se  Se14  1  0.24967300  0.66666663  0.33333332  1
