# generated using pymatgen
data_Ba2UMo2P11
_symmetry_space_group_name_H-M   'P 1'
_cell_length_a   4.23955202
_cell_length_b   8.59626961
_cell_length_c   9.14824390
_cell_angle_alpha   118.02337646
_cell_angle_beta   103.39800262
_cell_angle_gamma   90.00000000
_symmetry_Int_Tables_number   1
_chemical_formula_structural   Ba2UMo2P11
_chemical_formula_sum   'Ba2 U1 Mo2 P11'
_cell_volume   283.99220183
_cell_formula_units_Z   1
loop_
 _symmetry_equiv_pos_site_id
 _symmetry_equiv_pos_as_xyz
  1  'x, y, z'
loop_
 _atom_site_type_symbol
 _atom_site_label
 _atom_site_symmetry_multiplicity
 _atom_site_fract_x
 _atom_site_fract_y
 _atom_site_fract_z
 _atom_site_occupancy
  Ba  Ba0  1  0.50000003  0.74116306  0.00000005  1
  U  U1  1  0.29414401  0.29414402  0.58828800  1
  Ba  Ba2  1  0.50000001  0.25883702  0.00000002  1
  P  P3  1  0.70585602  0.70585605  0.41171204  1
  Mo  Mo4  1  0.14872201  0.40097503  0.29744402  1
  Mo  Mo5  1  0.85127700  0.10353001  0.70255499  1
  P  P6  1  0.14872303  0.89647007  0.29744505  1
  P  P7  1  0.85127802  0.59902505  0.70255602  1
  P  P8  1  0.30519704  0.96116407  0.61039305  1
  P  P9  1  0.69480401  0.35077103  0.38960801  1
  P  P10  1  0.08474900  0.08474901  0.16949800  1
  P  P11  1  0.30519602  0.64922905  0.61039203  1
  P  P12  1  0.91525103  0.91525107  0.83050204  1
  P  P13  1  0.07820302  0.57820304  0.15640603  1
  P  P14  1  0.92179701  0.42179703  0.84359401  1
  P  P15  1  0.69480300  0.03883600  0.38960699  1
