# generated using pymatgen
data_Ho4NiSe5
_symmetry_space_group_name_H-M   'P 1'
_cell_length_a   4.06307220
_cell_length_b   4.06307173
_cell_length_c   14.16822147
_cell_angle_alpha   90.00000000
_cell_angle_beta   90.00000000
_cell_angle_gamma   120.00000763
_symmetry_Int_Tables_number   1
_chemical_formula_structural   Ho4NiSe5
_chemical_formula_sum   'Ho4 Ni1 Se5'
_cell_volume   202.56059535
_cell_formula_units_Z   1
loop_
 _symmetry_equiv_pos_site_id
 _symmetry_equiv_pos_as_xyz
  1  'x, y, z'
loop_
 _atom_site_type_symbol
 _atom_site_label
 _atom_site_symmetry_multiplicity
 _atom_site_fract_x
 _atom_site_fract_y
 _atom_site_fract_z
 _atom_site_occupancy
  Ho  Ho0  1  0.66666666  0.33333333  0.61733698  1
  Ho  Ho1  1  0.33333337  0.66666666  0.38266299  1
  Ho  Ho2  1  0.33333337  0.66666666  0.11733700  1
  Ho  Ho3  1  0.66666666  0.33333333  0.88266297  1
  Ni  Ni4  1  0.00000000  0.00000000  0.74999997  1
  Se  Se5  1  0.00000000  0.00000000  0.24999999  1
  Se  Se6  1  0.00000000  0.00000000  0.49999998  1
  Se  Se7  1  0.00000000  0.00000000  0.00000000  1
  Se  Se8  1  0.66666666  0.33333333  0.24999999  1
  Se  Se9  1  0.33333337  0.66666666  0.74999997  1
