# generated using pymatgen
data_La5InGe10
_symmetry_space_group_name_H-M   'P 1'
_cell_length_a   6.88186979
_cell_length_b   8.30813980
_cell_length_c   8.85578823
_cell_angle_alpha   62.02542877
_cell_angle_beta   73.35636902
_cell_angle_gamma   90.00000000
_symmetry_Int_Tables_number   1
_chemical_formula_structural   La5InGe10
_chemical_formula_sum   'La5 In1 Ge10'
_cell_volume   423.00264815
_cell_formula_units_Z   1
loop_
 _symmetry_equiv_pos_site_id
 _symmetry_equiv_pos_as_xyz
  1  'x, y, z'
loop_
 _atom_site_type_symbol
 _atom_site_label
 _atom_site_symmetry_multiplicity
 _atom_site_fract_x
 _atom_site_fract_y
 _atom_site_fract_z
 _atom_site_occupancy
  Ge  Ge0  1  0.75000001  0.12307200  -0.00000000  1
  Ge  Ge1  1  0.25000000  0.87692802  0.00000001  1
  La  La2  1  0.73394301  0.62377601  0.50092299  1
  La  La3  1  0.76605701  0.12469900  0.49907698  1
  La  La4  1  0.26605700  0.37622401  0.49907699  1
  La  La5  1  0.23394300  0.87530102  0.50092299  1
  La  La6  1  0.75000001  0.62479501  0.00000000  1
  In  In7  1  0.25000000  0.37520501  0.99999997  1
  Ge  Ge8  1  0.50213501  0.19980000  0.80765097  1
  Ge  Ge9  1  0.99786502  0.00745200  0.19234799  1
  Ge  Ge10  1  0.49786501  0.80020001  0.19234800  1
  Ge  Ge11  1  0.00213500  0.99254802  0.80765199  1
  Ge  Ge12  1  0.96333602  0.44492501  0.78831697  1
  Ge  Ge13  1  0.53666401  0.23324200  0.21168299  1
  Ge  Ge14  1  0.03666400  0.55507501  0.21168300  1
  Ge  Ge15  1  0.46333601  0.76675801  0.78831698  1
