# generated using pymatgen
data_Cr3AgSe8
_symmetry_space_group_name_H-M   'P 1'
_cell_length_a   6.12153292
_cell_length_b   6.12153292
_cell_length_c   6.12153292
_cell_angle_alpha   90.00000000
_cell_angle_beta   90.00000000
_cell_angle_gamma   90.00000000
_symmetry_Int_Tables_number   1
_chemical_formula_structural   Cr3AgSe8
_chemical_formula_sum   'Cr3 Ag1 Se8'
_cell_volume   229.39321461
_cell_formula_units_Z   1
loop_
 _symmetry_equiv_pos_site_id
 _symmetry_equiv_pos_as_xyz
  1  'x, y, z'
loop_
 _atom_site_type_symbol
 _atom_site_label
 _atom_site_symmetry_multiplicity
 _atom_site_fract_x
 _atom_site_fract_y
 _atom_site_fract_z
 _atom_site_occupancy
  Se  Se0  1  0.99049301  0.99049301  0.99049301  1
  Cr  Cr1  1  0.50950701  0.00950700  0.49049301  1
  Cr  Cr2  1  0.49049301  0.50950701  0.00950700  1
  Cr  Cr3  1  0.00950700  0.49049301  0.50950701  1
  Se  Se4  1  0.36865400  0.13134600  0.86865401  1
  Se  Se5  1  0.86865401  0.36865400  0.13134600  1
  Ag  Ag6  1  0.63134601  0.63134601  0.63134601  1
  Se  Se7  1  0.13134600  0.86865401  0.36865400  1
  Se  Se8  1  0.87535101  0.12464900  0.62464901  1
  Se  Se9  1  0.12464900  0.62464901  0.87535101  1
  Se  Se10  1  0.62464901  0.87535101  0.12464900  1
  Se  Se11  1  0.37535101  0.37535101  0.37535101  1
