# generated using pymatgen
data_In8GaPt3
_symmetry_space_group_name_H-M   'P 1'
_cell_length_a   6.70437813
_cell_length_b   7.45833158
_cell_length_c   6.70437813
_cell_angle_alpha   116.70876312
_cell_angle_beta   90.00000000
_cell_angle_gamma   116.70876312
_symmetry_Int_Tables_number   1
_chemical_formula_structural   In8GaPt3
_chemical_formula_sum   'In8 Ga1 Pt3'
_cell_volume   258.80595593
_cell_formula_units_Z   1
loop_
 _symmetry_equiv_pos_site_id
 _symmetry_equiv_pos_as_xyz
  1  'x, y, z'
loop_
 _atom_site_type_symbol
 _atom_site_label
 _atom_site_symmetry_multiplicity
 _atom_site_fract_x
 _atom_site_fract_y
 _atom_site_fract_z
 _atom_site_occupancy
  Ga  Ga0  1  0.49999999  0.00000000  0.49999999  1
  Pt  Pt1  1  0.00000000  0.00000000  0.00000000  1
  In  In2  1  0.79610899  0.27226399  0.29610900  1
  In  In3  1  0.97615498  0.27226399  0.79610899  1
  In  In4  1  0.29610900  0.27226399  0.47615499  1
  In  In5  1  0.70389099  0.72773598  0.52384499  1
  In  In6  1  0.02384500  0.72773598  0.20389100  1
  In  In7  1  0.20389100  0.72773598  0.70389099  1
  In  In8  1  0.52384499  0.72773598  0.02384500  1
  In  In9  1  0.47615499  0.27226399  0.97615498  1
  Pt  Pt10  1  0.25000000  0.49999999  0.25000000  1
  Pt  Pt11  1  0.74999999  0.49999999  0.74999999  1
