# generated using pymatgen
data_Cs2Ge5Te6
_symmetry_space_group_name_H-M   'P 1'
_cell_length_a   4.03226805
_cell_length_b   7.72513628
_cell_length_c   14.06283283
_cell_angle_alpha   78.02301025
_cell_angle_beta   81.75732422
_cell_angle_gamma   74.87156677
_symmetry_Int_Tables_number   1
_chemical_formula_structural   Cs2Ge5Te6
_chemical_formula_sum   'Cs2 Ge5 Te6'
_cell_volume   411.81774683
_cell_formula_units_Z   1
loop_
 _symmetry_equiv_pos_site_id
 _symmetry_equiv_pos_as_xyz
  1  'x, y, z'
loop_
 _atom_site_type_symbol
 _atom_site_label
 _atom_site_symmetry_multiplicity
 _atom_site_fract_x
 _atom_site_fract_y
 _atom_site_fract_z
 _atom_site_occupancy
  Te  Te0  1  0.61416101  0.44960300  0.32207499  1
  Te  Te1  1  0.92467601  0.59763600  0.55301198  1
  Te  Te2  1  0.23128903  0.74874400  0.78867796  1
  Te  Te3  1  0.95964799  0.25342100  0.82728298  1
  Te  Te4  1  0.64584999  0.11334000  0.59495999  1
  Cs  Cs5  1  0.33492803  0.95664700  0.37349697  1
  Cs  Cs6  1  0.03519903  0.82169300  0.10790898  1
  Ge  Ge7  1  0.49692099  0.00532500  0.00083300  1
  Ge  Ge8  1  0.80610399  0.12809600  0.25969600  1
  Ge  Ge9  1  0.12260501  0.29112800  0.46366198  1
  Ge  Ge10  1  0.45109801  0.41966600  0.67813798  1
  Ge  Ge11  1  0.76904001  0.56534800  0.89657197  1
  Te  Te12  1  0.30308201  0.31785000  0.07598599  1
