# generated using pymatgen
data_MgAlF4
_symmetry_space_group_name_H-M   'P 1'
_cell_length_a   4.65740585
_cell_length_b   4.96613169
_cell_length_c   5.75123978
_cell_angle_alpha   90.00000000
_cell_angle_beta   90.00000000
_cell_angle_gamma   89.88048553
_symmetry_Int_Tables_number   1
_chemical_formula_structural   MgAlF4
_chemical_formula_sum   'Mg2 Al2 F8'
_cell_volume   133.02180779
_cell_formula_units_Z   2
loop_
 _symmetry_equiv_pos_site_id
 _symmetry_equiv_pos_as_xyz
  1  'x, y, z'
loop_
 _atom_site_type_symbol
 _atom_site_label
 _atom_site_symmetry_multiplicity
 _atom_site_fract_x
 _atom_site_fract_y
 _atom_site_fract_z
 _atom_site_occupancy
  Mg  Mg0  1  0.50000001  0.75000003  0.66038003  1
  Mg  Mg1  1  0.50000001  0.25000001  0.33962001  1
  Al  Al2  1  -0.00000000  0.25000001  0.81890603  1
  Al  Al3  1  -0.00000001  0.75000003  0.18109401  1
  F  F4  1  0.25870200  0.90368703  0.37753501  1
  F  F5  1  0.74129802  0.59631302  0.37753501  1
  F  F6  1  0.74129802  0.09631300  0.62246502  1
  F  F7  1  0.25870201  0.40368701  0.62246502  1
  F  F8  1  0.22015300  0.93202903  0.89066803  1
  F  F9  1  0.77984702  0.56797102  0.89066803  1
  F  F10  1  0.77984702  0.06797100  0.10933200  1
  F  F11  1  0.22015300  0.43202902  0.10933200  1
