# generated using pymatgen
data_InGe
_symmetry_space_group_name_H-M   'P 1'
_cell_length_a   4.01199389
_cell_length_b   7.68603611
_cell_length_c   11.19914436
_cell_angle_alpha   90.00000000
_cell_angle_beta   90.00000000
_cell_angle_gamma   90.00000000
_symmetry_Int_Tables_number   1
_chemical_formula_structural   InGe
_chemical_formula_sum   'In8 Ge8'
_cell_volume   345.34050989
_cell_formula_units_Z   8
loop_
 _symmetry_equiv_pos_site_id
 _symmetry_equiv_pos_as_xyz
  1  'x, y, z'
loop_
 _atom_site_type_symbol
 _atom_site_label
 _atom_site_symmetry_multiplicity
 _atom_site_fract_x
 _atom_site_fract_y
 _atom_site_fract_z
 _atom_site_occupancy
  Ge  Ge0  1  0.50000001  0.56925299  0.16820799  1
  Ge  Ge1  1  0.50000001  0.43074699  0.83179197  1
  Ge  Ge2  1  0.50000001  0.93074699  0.66820798  1
  Ge  Ge3  1  0.50000001  0.06925300  0.33179199  1
  Ge  Ge4  1  0.00000000  0.49999999  0.49999998  1
  Ge  Ge5  1  0.00000000  0.00000000  0.00000000  1
  In  In6  1  0.00000000  0.00000000  0.49999998  1
  Ge  Ge7  1  0.00000000  0.49999999  -0.00000000  1
  Ge  Ge8  1  0.00000000  0.84893399  0.20690899  1
  In  In9  1  0.00000000  0.15106600  0.79309097  1
  In  In10  1  0.00000000  0.65106599  0.70690898  1
  In  In11  1  0.00000000  0.34893400  0.29309099  1
  In  In12  1  0.50000001  0.69206899  0.42450699  1
  In  In13  1  0.50000001  0.30793100  0.57549298  1
  In  In14  1  0.50000001  0.80793099  0.92450697  1
  In  In15  1  0.50000001  0.19206900  0.07549300  1
