# generated using pymatgen
data_LuCoP
_symmetry_space_group_name_H-M   'P 1'
_cell_length_a   3.70796800
_cell_length_b   3.70796847
_cell_length_c   7.13466787
_cell_angle_alpha   90.00000000
_cell_angle_beta   90.00000000
_cell_angle_gamma   119.99999237
_symmetry_Int_Tables_number   1
_chemical_formula_structural   LuCoP
_chemical_formula_sum   'Lu2 Co2 P2'
_cell_volume   84.95255326
_cell_formula_units_Z   2
loop_
 _symmetry_equiv_pos_site_id
 _symmetry_equiv_pos_as_xyz
  1  'x, y, z'
loop_
 _atom_site_type_symbol
 _atom_site_label
 _atom_site_symmetry_multiplicity
 _atom_site_fract_x
 _atom_site_fract_y
 _atom_site_fract_z
 _atom_site_occupancy
  Lu  Lu0  1  0.00000000  0.00000000  0.00000000  1
  Lu  Lu1  1  0.00000000  0.00000000  0.50000001  1
  Co  Co2  1  0.66666664  0.33333332  0.75000001  1
  Co  Co3  1  0.33333328  0.66666664  0.25000000  1
  P  P4  1  0.66666664  0.33333332  0.25000000  1
  P  P5  1  0.33333328  0.66666664  0.75000001  1
