# generated using pymatgen
data_TbGa2
_symmetry_space_group_name_H-M   'P 1'
_cell_length_a   4.32602596
_cell_length_b   7.16770411
_cell_length_c   7.67363405
_cell_angle_alpha   90.00000000
_cell_angle_beta   90.00000000
_cell_angle_gamma   90.00000000
_symmetry_Int_Tables_number   1
_chemical_formula_structural   TbGa2
_chemical_formula_sum   'Tb4 Ga8'
_cell_volume   237.94154350
_cell_formula_units_Z   4
loop_
 _symmetry_equiv_pos_site_id
 _symmetry_equiv_pos_as_xyz
  1  'x, y, z'
loop_
 _atom_site_type_symbol
 _atom_site_label
 _atom_site_symmetry_multiplicity
 _atom_site_fract_x
 _atom_site_fract_y
 _atom_site_fract_z
 _atom_site_occupancy
  Tb  Tb0  1  0.25000000  0.00292300  0.30705400  1
  Tb  Tb1  1  0.25000000  0.50292299  0.19294600  1
  Tb  Tb2  1  0.75000001  0.99707699  0.69294600  1
  Tb  Tb3  1  0.75000001  0.49707699  0.80705399  1
  Ga  Ga4  1  0.25000000  0.29543600  0.60138600  1
  Ga  Ga5  1  0.25000000  0.79543599  0.89861399  1
  Ga  Ga6  1  0.75000001  0.70456399  0.39861400  1
  Ga  Ga7  1  0.75000001  0.20456400  0.10138600  1
  Ga  Ga8  1  0.25000000  0.16645700  0.92756299  1
  Ga  Ga9  1  0.25000000  0.66645699  0.57243700  1
  Ga  Ga10  1  0.75000001  0.83354299  0.07243700  1
  Ga  Ga11  1  0.75000001  0.33354300  0.42756300  1
