# generated using pymatgen
data_BaCe3Ga16
_symmetry_space_group_name_H-M   'P 1'
_cell_length_a   6.16345978
_cell_length_b   8.55106735
_cell_length_c   8.55106735
_cell_angle_alpha   74.29132843
_cell_angle_beta   68.87577057
_cell_angle_gamma   68.87577057
_symmetry_Int_Tables_number   1
_chemical_formula_structural   BaCe3Ga16
_chemical_formula_sum   'Ba1 Ce3 Ga16'
_cell_volume   386.96917875
_cell_formula_units_Z   1
loop_
 _symmetry_equiv_pos_site_id
 _symmetry_equiv_pos_as_xyz
  1  'x, y, z'
loop_
 _atom_site_type_symbol
 _atom_site_label
 _atom_site_symmetry_multiplicity
 _atom_site_fract_x
 _atom_site_fract_y
 _atom_site_fract_z
 _atom_site_occupancy
  Ba  Ba0  1  0.86822801  0.36287201  0.90067301  1
  Ce  Ce1  1  0.36822694  0.90067401  0.36287206  1
  Ce  Ce2  1  0.13177195  0.63712801  0.09932705  1
  Ce  Ce3  1  0.63177302  0.09932600  0.63712799  1
  Ga  Ga4  1  0.52291796  0.72708201  0.72708205  1
  Ga  Ga5  1  0.02291793  0.72708201  0.72708207  1
  Ga  Ga6  1  0.75000004  0.00000000  0.99999999  1
  Ga  Ga7  1  0.39848898  0.44426001  0.75876203  1
  Ga  Ga8  1  0.60151098  0.55574001  0.24123803  1
  Ga  Ga9  1  0.97708203  0.27291800  0.27291799  1
  Ga  Ga10  1  0.89848898  0.75876201  0.44426003  1
  Ga  Ga11  1  0.47708200  0.27291800  0.27291801  1
  Ga  Ga12  1  0.10151098  0.24123800  0.55574002  1
  Ga  Ga13  1  0.24999992  1.00000002  1.00000008  1
  Ga  Ga14  1  0.64025797  0.74955801  0.96992605  1
  Ga  Ga15  1  0.85974204  0.03007400  0.25044197  1
  Ga  Ga16  1  0.35974200  0.25044200  0.03007401  1
  Ga  Ga17  1  0.14025792  0.96992602  0.74955808  1
  Ga  Ga18  1  0.24999997  0.50000001  0.50000004  1
  Ga  Ga19  1  0.74999999  0.50000001  0.50000002  1
