# generated using pymatgen
data_Cs3I13N
_symmetry_space_group_name_H-M   'P 1'
_cell_length_a   7.21828699
_cell_length_b   9.83583069
_cell_length_c   9.83583069
_cell_angle_alpha   105.51863098
_cell_angle_beta   106.51865387
_cell_angle_gamma   106.51866150
_symmetry_Int_Tables_number   1
_chemical_formula_structural   Cs3I13N
_chemical_formula_sum   'Cs3 I13 N1'
_cell_volume   593.97388631
_cell_formula_units_Z   1
loop_
 _symmetry_equiv_pos_site_id
 _symmetry_equiv_pos_as_xyz
  1  'x, y, z'
loop_
 _atom_site_type_symbol
 _atom_site_label
 _atom_site_symmetry_multiplicity
 _atom_site_fract_x
 _atom_site_fract_y
 _atom_site_fract_z
 _atom_site_occupancy
  I  I0  1  0.00000000  0.00000000  0.00000000  1
  I  I1  1  0.66072599  0.03155400  0.33887698  1
  N  N2  1  0.00000004  0.49999999  0.50000000  1
  I  I3  1  0.33927407  0.96844599  0.66112300  1
  I  I4  1  0.33927405  0.66112299  0.96844598  1
  I  I5  1  0.66072602  0.33887700  0.03155399  1
  I  I6  1  0.98012805  0.83333899  0.58550898  1
  I  I7  1  0.68644600  0.11710700  0.71068798  1
  I  I8  1  0.68644605  0.71068799  0.11710700  1
  Cs  Cs9  1  0.49999999  0.00000000  -0.00000001  1
  I  I10  1  0.31355406  0.88289299  0.28931200  1
  I  I11  1  0.98012803  0.58550899  0.83333897  1
  I  I12  1  0.36558704  0.63055599  0.63055599  1
  I  I13  1  0.63441302  0.36944400  0.36944399  1
  Cs  Cs14  1  0.01987203  0.41449100  0.16666100  1
  I  I15  1  0.31355402  0.28931200  0.88289298  1
  Cs  Cs16  1  0.01987201  0.16666100  0.41449099  1
