# generated using pymatgen
data_HoGa2
_symmetry_space_group_name_H-M   'P 1'
_cell_length_a   4.48754406
_cell_length_b   4.48754501
_cell_length_c   6.87932205
_cell_angle_alpha   90.00000000
_cell_angle_beta   90.00000000
_cell_angle_gamma   119.99999237
_symmetry_Int_Tables_number   1
_chemical_formula_structural   HoGa2
_chemical_formula_sum   'Ho2 Ga4'
_cell_volume   119.97585396
_cell_formula_units_Z   2
loop_
 _symmetry_equiv_pos_site_id
 _symmetry_equiv_pos_as_xyz
  1  'x, y, z'
loop_
 _atom_site_type_symbol
 _atom_site_label
 _atom_site_symmetry_multiplicity
 _atom_site_fract_x
 _atom_site_fract_y
 _atom_site_fract_z
 _atom_site_occupancy
  Ho  Ho0  1  0.00000000  0.00000000  0.50000000  1
  Ho  Ho1  1  0.00000000  0.00000000  0.00000000  1
  Ga  Ga2  1  0.66666665  0.33333331  0.74999999  1
  Ga  Ga3  1  0.33333330  0.66666662  0.25000000  1
  Ga  Ga4  1  0.66666665  0.33333331  0.25000000  1
  Ga  Ga5  1  0.33333330  0.66666662  0.74999999  1
