# generated using pymatgen
data_LiCr5O8
_symmetry_space_group_name_H-M   'P 1'
_cell_length_a   5.91885900
_cell_length_b   5.91883993
_cell_length_c   5.91927767
_cell_angle_alpha   61.97042084
_cell_angle_beta   61.20473862
_cell_angle_gamma   92.77024841
_symmetry_Int_Tables_number   1
_chemical_formula_structural   LiCr5O8
_chemical_formula_sum   'Li1 Cr5 O8'
_cell_volume   149.95723460
_cell_formula_units_Z   1
loop_
 _symmetry_equiv_pos_site_id
 _symmetry_equiv_pos_as_xyz
  1  'x, y, z'
loop_
 _atom_site_type_symbol
 _atom_site_label
 _atom_site_symmetry_multiplicity
 _atom_site_fract_x
 _atom_site_fract_y
 _atom_site_fract_z
 _atom_site_occupancy
  Li  Li0  1  0.12500304  0.37500002  0.24999196  1
  Cr  Cr1  1  0.62499202  0.37499102  0.75000698  1
  Cr  Cr2  1  0.62498102  0.37500302  0.25001597  1
  Cr  Cr3  1  0.62501008  0.87498706  0.74998992  1
  Cr  Cr4  1  0.25333608  0.75332505  0.50000493  1
  Cr  Cr5  1  0.99675708  0.99677907  0.00000490  1
  O  O6  1  0.84108304  0.61989104  0.77875695  1
  O  O7  1  0.37749805  0.59691104  0.78051095  1
  O  O8  1  0.87246699  0.15304401  0.71946700  1
  O  O9  1  0.40898800  0.13009101  0.72119800  1
  O  O10  1  0.39865206  0.61984104  0.22123694  1
  O  O11  1  0.37742601  0.15800601  0.21948799  1
  O  O12  1  0.87251704  0.59194104  0.28052295  1
  O  O13  1  0.85128899  0.13019001  0.27880400  1
