# generated using pymatgen
data_P3Os
_symmetry_space_group_name_H-M   'P 1'
_cell_length_a   7.12090445
_cell_length_b   7.12090445
_cell_length_c   7.12090445
_cell_angle_alpha   109.47122192
_cell_angle_beta   109.47122192
_cell_angle_gamma   109.47122192
_symmetry_Int_Tables_number   1
_chemical_formula_structural   P3Os
_chemical_formula_sum   'P12 Os4'
_cell_volume   277.96080627
_cell_formula_units_Z   4
loop_
 _symmetry_equiv_pos_site_id
 _symmetry_equiv_pos_as_xyz
  1  'x, y, z'
loop_
 _atom_site_type_symbol
 _atom_site_label
 _atom_site_symmetry_multiplicity
 _atom_site_fract_x
 _atom_site_fract_y
 _atom_site_fract_z
 _atom_site_occupancy
  P  P0  1  0.49922000  0.13489500  0.36432501  1
  P  P1  1  0.50078005  0.86510501  0.63567504  1
  P  P2  1  0.22943005  0.86510501  0.36432504  1
  P  P3  1  0.77057000  0.13489500  0.63567501  1
  P  P4  1  0.13489504  0.63567501  0.77057002  1
  P  P5  1  0.86510501  0.36432501  0.22943004  1
  P  P6  1  0.86510503  0.63567501  0.50078004  1
  P  P7  1  0.13489502  0.36432501  0.49922001  1
  P  P8  1  0.36432501  0.22943000  0.86510500  1
  P  P9  1  0.63567504  0.77057001  0.13489505  1
  P  P10  1  0.36432503  0.49922001  0.13489503  1
  P  P11  1  0.63567502  0.50078001  0.86510502  1
  Os  Os12  1  0.49999999  0.00000000  0.00000001  1
  Os  Os13  1  0.00000000  0.00000000  0.49999999  1
  Os  Os14  1  0.00000003  0.50000001  0.00000003  1
  Os  Os15  1  0.50000002  0.50000001  0.50000003  1
