# generated using pymatgen
data_NaLiVF6
_symmetry_space_group_name_H-M   'P 1'
_cell_length_a   5.16532612
_cell_length_b   5.16532564
_cell_length_c   10.35333061
_cell_angle_alpha   90.00000000
_cell_angle_beta   90.00000000
_cell_angle_gamma   120.00000000
_symmetry_Int_Tables_number   1
_chemical_formula_structural   NaLiVF6
_chemical_formula_sum   'Na2 Li2 V2 F12'
_cell_volume   239.22478166
_cell_formula_units_Z   2
loop_
 _symmetry_equiv_pos_site_id
 _symmetry_equiv_pos_as_xyz
  1  'x, y, z'
loop_
 _atom_site_type_symbol
 _atom_site_label
 _atom_site_symmetry_multiplicity
 _atom_site_fract_x
 _atom_site_fract_y
 _atom_site_fract_z
 _atom_site_occupancy
  Na  Na0  1  0.00000000  0.00000000  0.00000000  1
  Na  Na1  1  0.00000000  0.00000000  0.50000002  1
  Li  Li2  1  0.66666663  0.33333332  0.75000003  1
  Li  Li3  1  0.33333329  0.66666663  0.25000001  1
  V  V4  1  0.33333329  0.66666663  0.75000003  1
  V  V5  1  0.66666663  0.33333332  0.25000001  1
  F  F6  1  0.61351195  0.64564397  0.85141003  1
  F  F7  1  0.38648799  0.03213200  0.35141001  1
  F  F8  1  0.64564395  0.61351197  0.35141001  1
  F  F9  1  0.96786796  0.35435598  0.35141001  1
  F  F10  1  0.03213196  0.64564397  0.64859002  1
  F  F11  1  0.03213198  0.38648798  0.85141003  1
  F  F12  1  0.35435593  0.96786795  0.85141003  1
  F  F13  1  0.35435597  0.38648798  0.64859002  1
  F  F14  1  0.96786794  0.61351197  0.14859001  1
  F  F15  1  0.61351193  0.96786795  0.64859002  1
  F  F16  1  0.38648797  0.35435598  0.14859001  1
  F  F17  1  0.64564398  0.03213200  0.14859001  1
