# generated using pymatgen
data_Cs3Sb2Br9
_symmetry_space_group_name_H-M   'P 1'
_cell_length_a   8.04158020
_cell_length_b   8.04157925
_cell_length_c   9.84161186
_cell_angle_alpha   90.00000000
_cell_angle_beta   90.00000000
_cell_angle_gamma   120.00000000
_symmetry_Int_Tables_number   1
_chemical_formula_structural   Cs3Sb2Br9
_chemical_formula_sum   'Cs3 Sb2 Br9'
_cell_volume   551.16243295
_cell_formula_units_Z   1
loop_
 _symmetry_equiv_pos_site_id
 _symmetry_equiv_pos_as_xyz
  1  'x, y, z'
loop_
 _atom_site_type_symbol
 _atom_site_label
 _atom_site_symmetry_multiplicity
 _atom_site_fract_x
 _atom_site_fract_y
 _atom_site_fract_z
 _atom_site_occupancy
  Cs  Cs0  1  0.66666664  0.33333334  0.33615700  1
  Cs  Cs1  1  0.33333330  0.66666667  0.66384301  1
  Cs  Cs2  1  0.00000000  0.00000000  0.00000000  1
  Sb  Sb3  1  0.66666664  0.33333334  0.81158201  1
  Sb  Sb4  1  0.33333330  0.66666667  0.18841800  1
  Br  Br5  1  0.49999997  0.50000001  1.00000001  1
  Br  Br6  1  0.99999995  0.50000001  -0.00000000  1
  Br  Br7  1  0.49999999  0.00000000  0.00000000  1
  Br  Br8  1  0.83392395  0.66784801  0.67417201  1
  Br  Br9  1  0.16607598  0.33215200  0.32582800  1
  Br  Br10  1  0.83392397  0.16607600  0.67417201  1
  Br  Br11  1  0.16607596  0.83392401  0.32582800  1
  Br  Br12  1  0.33215199  0.16607600  0.67417201  1
  Br  Br13  1  0.66784795  0.83392401  0.32582800  1
