# generated using pymatgen
data_Tb4Br5
_symmetry_space_group_name_H-M   'P 1'
_cell_length_a   4.14815378
_cell_length_b   8.30526161
_cell_length_c   8.30526257
_cell_angle_alpha   120.00000000
_cell_angle_beta   90.00000000
_cell_angle_gamma   90.00000000
_symmetry_Int_Tables_number   1
_chemical_formula_structural   Tb4Br5
_chemical_formula_sum   'Tb4 Br5'
_cell_volume   247.79478610
_cell_formula_units_Z   1
loop_
 _symmetry_equiv_pos_site_id
 _symmetry_equiv_pos_as_xyz
  1  'x, y, z'
loop_
 _atom_site_type_symbol
 _atom_site_label
 _atom_site_symmetry_multiplicity
 _atom_site_fract_x
 _atom_site_fract_y
 _atom_site_fract_z
 _atom_site_occupancy
  Br  Br0  1  1.00000005  0.77053404  0.77053396  1
  Br  Br1  1  0.50000003  0.00000000  0.61086897  1
  Br  Br2  1  0.50000003  0.61086903  0.00000001  1
  Br  Br3  1  1.00000005  0.22946601  0.00000000  1
  Tb  Tb4  1  0.00000000  1.00000005  0.22946600  1
  Br  Br5  1  0.50000003  0.38913102  0.38913098  1
  Tb  Tb6  1  0.50000003  0.00000000  -0.00000000  1
  Tb  Tb7  1  1.00000005  0.66666670  0.33333332  1
  Tb  Tb8  1  1.00000005  0.33333335  0.66666663  1
