# generated using pymatgen
data_In2BiS4
_symmetry_space_group_name_H-M   'P 1'
_cell_length_a   3.76420403
_cell_length_b   6.99893808
_cell_length_c   12.24448776
_cell_angle_alpha   90.00000000
_cell_angle_beta   90.00000000
_cell_angle_gamma   90.00000000
_symmetry_Int_Tables_number   1
_chemical_formula_structural   In2BiS4
_chemical_formula_sum   'In4 Bi2 S8'
_cell_volume   322.58630634
_cell_formula_units_Z   2
loop_
 _symmetry_equiv_pos_site_id
 _symmetry_equiv_pos_as_xyz
  1  'x, y, z'
loop_
 _atom_site_type_symbol
 _atom_site_label
 _atom_site_symmetry_multiplicity
 _atom_site_fract_x
 _atom_site_fract_y
 _atom_site_fract_z
 _atom_site_occupancy
  Bi  Bi0  1  0.00000000  0.41694600  0.31797301  1
  Bi  Bi1  1  0.00000000  0.58305399  0.68202701  1
  In  In2  1  0.00000000  0.91694599  0.18202700  1
  In  In3  1  0.00000000  0.08305400  0.81797302  1
  In  In4  1  0.50000000  0.00000000  0.50000001  1
  In  In5  1  0.50000000  0.49999999  -0.00000000  1
  S  S6  1  0.00000000  0.26206700  0.04225400  1
  S  S7  1  0.50000000  0.87668099  0.69588901  1
  S  S8  1  0.50000000  0.12331900  0.30411101  1
  S  S9  1  0.50000000  0.37668100  0.80411102  1
  S  S10  1  0.50000000  0.62331899  0.19588900  1
  S  S11  1  0.00000000  0.76206699  0.45774601  1
  S  S12  1  0.00000000  0.23793300  0.54225401  1
  S  S13  1  0.00000000  0.73793299  0.95774602  1
