# generated using pymatgen
data_KHg2Cl7
_symmetry_space_group_name_H-M   'P 1'
_cell_length_a   7.42975044
_cell_length_b   7.42975044
_cell_length_c   7.42975044
_cell_angle_alpha   60.00000000
_cell_angle_beta   60.00000000
_cell_angle_gamma   60.00000000
_symmetry_Int_Tables_number   1
_chemical_formula_structural   KHg2Cl7
_chemical_formula_sum   'K1 Hg2 Cl7'
_cell_volume   290.00646643
_cell_formula_units_Z   1
loop_
 _symmetry_equiv_pos_site_id
 _symmetry_equiv_pos_as_xyz
  1  'x, y, z'
loop_
 _atom_site_type_symbol
 _atom_site_label
 _atom_site_symmetry_multiplicity
 _atom_site_fract_x
 _atom_site_fract_y
 _atom_site_fract_z
 _atom_site_occupancy
  Cl  Cl0  1  0.75846201  0.24153800  0.75846201  1
  Cl  Cl1  1  0.24153800  0.75846201  0.75846201  1
  Cl  Cl2  1  0.75846201  0.24153800  0.24153800  1
  Cl  Cl3  1  0.75846201  0.75846201  0.24153800  1
  Cl  Cl4  1  0.24153800  0.24153800  0.75846201  1
  Cl  Cl5  1  0.24153800  0.75846201  0.24153800  1
  K  K6  1  0.75000001  0.75000001  0.75000001  1
  Hg  Hg7  1  0.25000000  0.25000000  0.25000000  1
  Cl  Cl8  1  0.00000000  0.00000000  0.00000000  1
  Hg  Hg9  1  0.50000001  0.50000001  0.50000001  1
