# generated using pymatgen
data_HoCo4B
_symmetry_space_group_name_H-M   'P 1'
_cell_length_a   4.99899578
_cell_length_b   5.01463127
_cell_length_c   6.84280109
_cell_angle_alpha   90.00000000
_cell_angle_beta   90.00000000
_cell_angle_gamma   119.89691162
_symmetry_Int_Tables_number   1
_chemical_formula_structural   HoCo4B
_chemical_formula_sum   'Ho2 Co8 B2'
_cell_volume   148.70875081
_cell_formula_units_Z   2
loop_
 _symmetry_equiv_pos_site_id
 _symmetry_equiv_pos_as_xyz
  1  'x, y, z'
loop_
 _atom_site_type_symbol
 _atom_site_label
 _atom_site_symmetry_multiplicity
 _atom_site_fract_x
 _atom_site_fract_y
 _atom_site_fract_z
 _atom_site_occupancy
  Ho  Ho0  1  0.00000000  0.00000000  0.00284700  1
  Ho  Ho1  1  0.00000000  0.00000000  0.49405199  1
  Co  Co2  1  0.49999999  0.49999997  0.71394499  1
  Co  Co3  1  -0.00000003  0.49999997  0.71394499  1
  Co  Co4  1  0.33226098  0.66452196  0.00314000  1
  Co  Co5  1  0.66773901  0.33547798  0.00314000  1
  Co  Co6  1  0.50000002  0.00000000  0.28637400  1
  Co  Co7  1  0.49999999  0.49999997  0.28768100  1
  Co  Co8  1  -0.00000003  0.49999997  0.28768100  1
  Co  Co9  1  0.50000002  0.00000000  0.71259499  1
  B  B10  1  0.33474498  0.66948996  0.49716599  1
  B  B11  1  0.66525501  0.33050998  0.49716599  1
