# generated using pymatgen
data_NdB4
_symmetry_space_group_name_H-M   'P 1'
_cell_length_a   4.11995792
_cell_length_b   7.23841715
_cell_length_c   7.23841715
_cell_angle_alpha   90.00000000
_cell_angle_beta   90.00000000
_cell_angle_gamma   90.00000000
_symmetry_Int_Tables_number   1
_chemical_formula_structural   NdB4
_chemical_formula_sum   'Nd4 B16'
_cell_volume   215.86388864
_cell_formula_units_Z   4
loop_
 _symmetry_equiv_pos_site_id
 _symmetry_equiv_pos_as_xyz
  1  'x, y, z'
loop_
 _atom_site_type_symbol
 _atom_site_label
 _atom_site_symmetry_multiplicity
 _atom_site_fract_x
 _atom_site_fract_y
 _atom_site_fract_z
 _atom_site_occupancy
  Nd  Nd0  1  0.00000000  0.18285300  0.68285299  1
  Nd  Nd1  1  0.00000000  0.68285299  0.81714698  1
  Nd  Nd2  1  0.00000000  0.31714699  0.18285300  1
  Nd  Nd3  1  0.00000000  0.81714698  0.31714699  1
  B  B4  1  0.50000001  0.91198898  0.58801099  1
  B  B5  1  0.50000001  0.58801099  0.08801100  1
  B  B6  1  0.50000001  0.41198899  0.91198898  1
  B  B7  1  0.50000001  0.08801100  0.41198899  1
  B  B8  1  0.50000001  0.03887000  0.17422000  1
  B  B9  1  0.50000001  0.17422000  0.96112998  1
  B  B10  1  0.50000001  0.82577998  0.03887000  1
  B  B11  1  0.50000001  0.96112998  0.82577998  1
  B  B12  1  0.50000001  0.46112999  0.67421999  1
  B  B13  1  0.50000001  0.53886999  0.32577999  1
  B  B14  1  0.50000001  0.67421999  0.53886999  1
  B  B15  1  0.50000001  0.32577999  0.46112999  1
  B  B16  1  0.20479600  0.00000000  0.00000000  1
  B  B17  1  0.79520401  0.49999999  0.49999999  1
  B  B18  1  0.79520401  0.00000000  0.00000000  1
  B  B19  1  0.20479600  0.49999999  0.49999999  1
