# generated using pymatgen
data_BP11Os2
_symmetry_space_group_name_H-M   'P 1'
_cell_length_a   5.28090620
_cell_length_b   5.58346510
_cell_length_c   6.99267578
_cell_angle_alpha   90.00000000
_cell_angle_beta   112.18526459
_cell_angle_gamma   90.00000000
_symmetry_Int_Tables_number   1
_chemical_formula_structural   BP11Os2
_chemical_formula_sum   'B1 P11 Os2'
_cell_volume   190.92003382
_cell_formula_units_Z   1
loop_
 _symmetry_equiv_pos_site_id
 _symmetry_equiv_pos_as_xyz
  1  'x, y, z'
loop_
 _atom_site_type_symbol
 _atom_site_label
 _atom_site_symmetry_multiplicity
 _atom_site_fract_x
 _atom_site_fract_y
 _atom_site_fract_z
 _atom_site_occupancy
  P  P0  1  0.63866997  0.98339598  0.27733999  1
  P  P1  1  0.36132998  0.01660400  0.72265999  1
  Os  Os2  1  0.86132996  0.48339599  0.72265998  1
  Os  Os3  1  0.13866999  0.51660399  0.27734000  1
  P  P4  1  0.00000000  0.00000000  0.00000000  1
  B  B5  1  0.49999998  0.49999999  -0.00000000  1
  P  P6  1  0.81403497  0.06853200  0.62806999  1
  P  P7  1  0.18596499  0.93146798  0.37192999  1
  P  P8  1  0.68596497  0.56853199  0.37192999  1
  P  P9  1  0.31403499  0.43146799  0.62806999  1
  P  P10  1  0.23489199  0.74999999  0.96978399  1
  P  P11  1  0.26510799  0.25000000  0.03021600  1
  P  P12  1  0.73489197  0.74999999  0.96978398  1
  P  P13  1  0.76510797  0.25000000  0.03021599  1
