# generated using pymatgen
data_Ta4Mn5Ge3
_symmetry_space_group_name_H-M   'P 1'
_cell_length_a   4.84230804
_cell_length_b   4.84230804
_cell_length_c   8.04265118
_cell_angle_alpha   90.00000000
_cell_angle_beta   90.00000000
_cell_angle_gamma   120.00000000
_symmetry_Int_Tables_number   1
_chemical_formula_structural   Ta4Mn5Ge3
_chemical_formula_sum   'Ta4 Mn5 Ge3'
_cell_volume   163.31824039
_cell_formula_units_Z   1
loop_
 _symmetry_equiv_pos_site_id
 _symmetry_equiv_pos_as_xyz
  1  'x, y, z'
loop_
 _atom_site_type_symbol
 _atom_site_label
 _atom_site_symmetry_multiplicity
 _atom_site_fract_x
 _atom_site_fract_y
 _atom_site_fract_z
 _atom_site_occupancy
  Ta  Ta0  1  0.33333335  0.66666670  0.43076299  1
  Ta  Ta1  1  0.66666667  0.33333335  0.56923699  1
  Ta  Ta2  1  0.66666667  0.33333335  0.94110598  1
  Ta  Ta3  1  0.33333335  0.66666670  0.05889400  1
  Mn  Mn4  1  0.17124001  0.34248002  0.75930898  1
  Mn  Mn5  1  0.17124002  0.82875904  0.75930898  1
  Mn  Mn6  1  0.65751902  0.82875904  0.75930898  1
  Mn  Mn7  1  0.82876001  0.65752003  0.24069099  1
  Ge  Ge8  1  0.82876000  0.17124101  0.24069099  1
  Mn  Mn9  1  0.34248100  0.17124101  0.24069099  1
  Ge  Ge10  1  0.00000000  0.00000000  0.49999999  1
  Ge  Ge11  1  0.00000000  0.00000000  0.00000000  1
