# generated using pymatgen
data_CuAgP2O4F3
_symmetry_space_group_name_H-M   'P 1'
_cell_length_a   4.59361219
_cell_length_b   5.37343502
_cell_length_c   5.39013195
_cell_angle_alpha   101.32334137
_cell_angle_beta   101.00133514
_cell_angle_gamma   101.02882385
_symmetry_Int_Tables_number   1
_chemical_formula_structural   CuAgP2O4F3
_chemical_formula_sum   'Cu1 Ag1 P2 O4 F3'
_cell_volume   124.39016235
_cell_formula_units_Z   1
loop_
 _symmetry_equiv_pos_site_id
 _symmetry_equiv_pos_as_xyz
  1  'x, y, z'
loop_
 _atom_site_type_symbol
 _atom_site_label
 _atom_site_symmetry_multiplicity
 _atom_site_fract_x
 _atom_site_fract_y
 _atom_site_fract_z
 _atom_site_occupancy
  Ag  Ag0  1  0.27318902  0.72013401  0.90284305  1
  Cu  Cu1  1  0.27153100  0.09242200  0.51866701  1
  P  P2  1  0.68521702  0.59813701  0.41738701  1
  P  P3  1  0.86898101  0.19058900  0.00586497  1
  O  O4  1  0.49572101  0.46118501  0.58064202  1
  F  F5  1  0.04292601  0.35185801  0.85693204  1
  O  O6  1  0.51006802  0.74695501  0.25626402  1
  O  O7  1  0.99261502  0.78126901  0.58593401  1
  F  F8  1  0.55690200  0.02547900  0.82890601  1
  F  F9  1  0.05923600  0.02444600  0.14060300  1
  O  O10  1  0.78351401  0.37132601  0.23885799  1
