# generated using pymatgen
data_Ho(CoB)2
_symmetry_space_group_name_H-M   'P 1'
_cell_length_a   3.54476190
_cell_length_b   3.54476190
_cell_length_c   5.28930044
_cell_angle_alpha   109.57788849
_cell_angle_beta   109.57788849
_cell_angle_gamma   90.00000000
_symmetry_Int_Tables_number   1
_chemical_formula_structural   Ho(CoB)2
_chemical_formula_sum   'Ho1 Co2 B2'
_cell_volume   58.52538189
_cell_formula_units_Z   1
loop_
 _symmetry_equiv_pos_site_id
 _symmetry_equiv_pos_as_xyz
  1  'x, y, z'
loop_
 _atom_site_type_symbol
 _atom_site_label
 _atom_site_symmetry_multiplicity
 _atom_site_fract_x
 _atom_site_fract_y
 _atom_site_fract_z
 _atom_site_occupancy
  Ho  Ho0  1  0.00000000  0.00000000  0.00000000  1
  Co  Co1  1  0.75000002  0.25000001  0.50000000  1
  Co  Co2  1  0.25000001  0.75000002  0.50000000  1
  B  B3  1  0.35095101  0.35095101  0.70190199  1
  B  B4  1  0.64904902  0.64904902  0.29809800  1
