# generated using pymatgen
data_TbGe
_symmetry_space_group_name_H-M   'P 1'
_cell_length_a   3.99975491
_cell_length_b   4.30867577
_cell_length_c   5.76939440
_cell_angle_alpha   68.07405090
_cell_angle_beta   90.00000000
_cell_angle_gamma   90.00000000
_symmetry_Int_Tables_number   1
_chemical_formula_structural   TbGe
_chemical_formula_sum   'Tb2 Ge2'
_cell_volume   92.23582556
_cell_formula_units_Z   2
loop_
 _symmetry_equiv_pos_site_id
 _symmetry_equiv_pos_as_xyz
  1  'x, y, z'
loop_
 _atom_site_type_symbol
 _atom_site_label
 _atom_site_symmetry_multiplicity
 _atom_site_fract_x
 _atom_site_fract_y
 _atom_site_fract_z
 _atom_site_occupancy
  Ge  Ge0  1  0.25000001  0.86093603  0.27812803  1
  Ge  Ge1  1  0.75000002  0.13906401  0.72187200  1
  Tb  Tb2  1  0.25000001  0.57860602  0.84278801  1
  Tb  Tb3  1  0.75000002  0.42139402  0.15721201  1
