# generated using pymatgen
data_ZnMo7S8
_symmetry_space_group_name_H-M   'P 1'
_cell_length_a   5.69150114
_cell_length_b   5.69150114
_cell_length_c   5.69150114
_cell_angle_alpha   90.00000000
_cell_angle_beta   90.00000000
_cell_angle_gamma   90.00000000
_symmetry_Int_Tables_number   1
_chemical_formula_structural   ZnMo7S8
_chemical_formula_sum   'Zn1 Mo7 S8'
_cell_volume   184.36585070
_cell_formula_units_Z   1
loop_
 _symmetry_equiv_pos_site_id
 _symmetry_equiv_pos_as_xyz
  1  'x, y, z'
loop_
 _atom_site_type_symbol
 _atom_site_label
 _atom_site_symmetry_multiplicity
 _atom_site_fract_x
 _atom_site_fract_y
 _atom_site_fract_z
 _atom_site_occupancy
  Mo  Mo0  1  0.49999999  0.49999999  0.49999999  1
  Mo  Mo1  1  0.49999999  0.00000000  0.49999999  1
  Mo  Mo2  1  0.49999999  0.49999999  -0.00000000  1
  Mo  Mo3  1  0.00000000  0.49999999  0.49999999  1
  Mo  Mo4  1  0.49999999  0.00000000  0.00000000  1
  Mo  Mo5  1  0.00000000  0.00000000  0.49999999  1
  Mo  Mo6  1  0.00000000  0.49999999  -0.00000000  1
  S  S7  1  0.24947699  0.24947699  0.24947699  1
  S  S8  1  0.24947699  0.75052298  0.24947699  1
  S  S9  1  0.24947699  0.24947699  0.75052298  1
  S  S10  1  0.75052298  0.24947699  0.24947699  1
  S  S11  1  0.75052298  0.75052298  0.24947699  1
  S  S12  1  0.24947699  0.75052298  0.75052298  1
  S  S13  1  0.75052298  0.24947699  0.75052298  1
  S  S14  1  0.75052298  0.75052298  0.75052298  1
  Zn  Zn15  1  0.00000000  0.00000000  0.00000000  1
