# generated using pymatgen
data_Li2AgF6
_symmetry_space_group_name_H-M   'P 1'
_cell_length_a   5.10137892
_cell_length_b   5.35242224
_cell_length_c   9.20584393
_cell_angle_alpha   90.00000000
_cell_angle_beta   90.00000000
_cell_angle_gamma   90.00000000
_symmetry_Int_Tables_number   1
_chemical_formula_structural   Li2AgF6
_chemical_formula_sum   'Li4 Ag2 F12'
_cell_volume   251.36311927
_cell_formula_units_Z   2
loop_
 _symmetry_equiv_pos_site_id
 _symmetry_equiv_pos_as_xyz
  1  'x, y, z'
loop_
 _atom_site_type_symbol
 _atom_site_label
 _atom_site_symmetry_multiplicity
 _atom_site_fract_x
 _atom_site_fract_y
 _atom_site_fract_z
 _atom_site_occupancy
  Ag  Ag0  1  0.50000001  0.49999998  0.52492900  1
  Ag  Ag1  1  0.00000000  0.00000000  0.47507100  1
  Li  Li2  1  0.00000000  0.49999998  0.25998100  1
  Li  Li3  1  0.50000001  0.00000000  0.74001901  1
  Li  Li4  1  0.00000000  0.49999998  0.80698101  1
  Li  Li5  1  0.50000001  0.00000000  0.19301900  1
  F  F6  1  0.22056000  0.32600799  0.39686000  1
  F  F7  1  0.77944001  0.67399197  0.39686000  1
  F  F8  1  0.73719001  0.67937597  0.70586301  1
  F  F9  1  0.27944000  0.82600796  0.60314000  1
  F  F10  1  0.65690201  0.78757297  0.07982900  1
  F  F11  1  0.84309801  0.28757299  0.92017101  1
  F  F12  1  0.26281000  0.32062399  0.70586301  1
  F  F13  1  0.72056001  0.17399199  0.60314000  1
  F  F14  1  0.23719000  0.82062396  0.29413700  1
  F  F15  1  0.76281001  0.17937599  0.29413700  1
  F  F16  1  0.15690200  0.71242697  0.92017101  1
  F  F17  1  0.34309801  0.21242699  0.07982900  1
