# generated using pymatgen
data_Cd3Te2
_symmetry_space_group_name_H-M   'P 1'
_cell_length_a   4.12554216
_cell_length_b   4.12554216
_cell_length_c   16.81997108
_cell_angle_alpha   82.95560455
_cell_angle_beta   82.95560455
_cell_angle_gamma   60.00000000
_symmetry_Int_Tables_number   1
_chemical_formula_structural   Cd3Te2
_chemical_formula_sum   'Cd6 Te4'
_cell_volume   245.42517306
_cell_formula_units_Z   2
loop_
 _symmetry_equiv_pos_site_id
 _symmetry_equiv_pos_as_xyz
  1  'x, y, z'
loop_
 _atom_site_type_symbol
 _atom_site_label
 _atom_site_symmetry_multiplicity
 _atom_site_fract_x
 _atom_site_fract_y
 _atom_site_fract_z
 _atom_site_occupancy
  Te  Te0  1  0.00000000  0.00000000  0.00000000  1
  Te  Te1  1  0.59977200  0.59977198  0.20068399  1
  Cd  Cd2  1  0.20004300  0.20004299  0.39987098  1
  Cd  Cd3  1  0.79995700  0.79995697  0.60012897  1
  Cd  Cd4  1  0.40022800  0.40022799  0.79931596  1
  Te  Te5  1  0.70134100  0.70134098  0.89597695  1
  Te  Te6  1  0.10010700  0.10010700  0.69967896  1
  Cd  Cd7  1  0.50000000  0.49999998  0.49999997  1
  Cd  Cd8  1  0.29865900  0.29865899  0.10402299  1
  Cd  Cd9  1  0.89989300  0.89989297  0.30032098  1
