# generated using pymatgen
data_Ga5O7
_symmetry_space_group_name_H-M   'P 1'
_cell_length_a   5.98109674
_cell_length_b   5.98109674
_cell_length_c   5.98109674
_cell_angle_alpha   60.00000000
_cell_angle_beta   60.00000000
_cell_angle_gamma   60.00000000
_symmetry_Int_Tables_number   1
_chemical_formula_structural   Ga5O7
_chemical_formula_sum   'Ga5 O7'
_cell_volume   151.29601309
_cell_formula_units_Z   1
loop_
 _symmetry_equiv_pos_site_id
 _symmetry_equiv_pos_as_xyz
  1  'x, y, z'
loop_
 _atom_site_type_symbol
 _atom_site_label
 _atom_site_symmetry_multiplicity
 _atom_site_fract_x
 _atom_site_fract_y
 _atom_site_fract_z
 _atom_site_occupancy
  Ga  Ga0  1  0.62643699  0.62643599  0.12069100  1
  Ga  Ga1  1  0.62643699  0.62643599  0.62643599  1
  Ga  Ga2  1  0.12069200  0.62643599  0.62643599  1
  Ga  Ga3  1  0.62643699  0.12069100  0.62643599  1
  Ga  Ga4  1  0.00000000  0.00000000  0.00000000  1
  O  O5  1  0.74999999  0.74999999  0.74999999  1
  O  O6  1  0.76395699  0.76395699  0.23604300  1
  O  O7  1  0.76395699  0.23604300  0.76395699  1
  O  O8  1  0.76395699  0.23604300  0.23604300  1
  O  O9  1  0.23604300  0.76395699  0.23604300  1
  O  O10  1  0.23604300  0.76395699  0.76395699  1
  O  O11  1  0.23604300  0.23604300  0.76395699  1
