# generated using pymatgen
data_Li3VF6
_symmetry_space_group_name_H-M   'P 1'
_cell_length_a   5.23750210
_cell_length_b   5.59024763
_cell_length_c   7.67119551
_cell_angle_alpha   84.81912994
_cell_angle_beta   89.93667603
_cell_angle_gamma   89.93621826
_symmetry_Int_Tables_number   1
_chemical_formula_structural   Li3VF6
_chemical_formula_sum   'Li6 V2 F12'
_cell_volume   223.68657409
_cell_formula_units_Z   2
loop_
 _symmetry_equiv_pos_site_id
 _symmetry_equiv_pos_as_xyz
  1  'x, y, z'
loop_
 _atom_site_type_symbol
 _atom_site_label
 _atom_site_symmetry_multiplicity
 _atom_site_fract_x
 _atom_site_fract_y
 _atom_site_fract_z
 _atom_site_occupancy
  Li  Li0  1  0.49863399  0.00644700  0.74889101  1
  Li  Li1  1  0.50068899  0.00054500  0.25205199  1
  Li  Li2  1  0.99780598  0.49730199  0.74776797  1
  Li  Li3  1  0.00139500  0.50274399  0.25570498  1
  V  V4  1  0.49805399  0.42665799  0.97342399  1
  V  V5  1  0.49921399  0.44256799  0.47174398  1
  Li  Li6  1  0.00209299  0.94337598  0.46340597  1
  Li  Li7  1  0.00211199  0.92684598  0.96388598  1
  F  F8  1  0.19444399  0.22440299  0.88255801  1
  F  F9  1  0.31847099  0.09406300  0.51180600  1
  F  F10  1  0.37327799  0.40063799  0.20703898  1
  F  F11  1  0.69411898  0.71804398  0.38716696  1
  F  F12  1  0.17952099  0.59296299  0.51192998  1
  F  F13  1  0.13209399  0.89785398  0.20900696  1
  F  F14  1  0.82262098  0.58772199  0.01493495  1
  F  F15  1  0.31408499  0.72341798  0.88690998  1
  F  F16  1  0.86940298  0.89997598  0.70381795  1
  F  F17  1  0.67294099  0.09163900  0.01453498  1
  F  F18  1  0.62480098  0.39918499  0.70535998  1
  F  F19  1  0.80422498  0.21881199  0.38565998  1
