# generated using pymatgen
data_HoMnO2
_symmetry_space_group_name_H-M   'P 1'
_cell_length_a   3.41379309
_cell_length_b   5.34285021
_cell_length_c   11.30943584
_cell_angle_alpha   90.00000000
_cell_angle_beta   90.00000000
_cell_angle_gamma   90.00000000
_symmetry_Int_Tables_number   1
_chemical_formula_structural   HoMnO2
_chemical_formula_sum   'Ho4 Mn4 O8'
_cell_volume   206.27715570
_cell_formula_units_Z   4
loop_
 _symmetry_equiv_pos_site_id
 _symmetry_equiv_pos_as_xyz
  1  'x, y, z'
loop_
 _atom_site_type_symbol
 _atom_site_label
 _atom_site_symmetry_multiplicity
 _atom_site_fract_x
 _atom_site_fract_y
 _atom_site_fract_z
 _atom_site_occupancy
  Mn  Mn0  1  0.24999999  0.09731200  0.56628501  1
  Mn  Mn1  1  0.74999998  0.90268796  0.43371501  1
  Mn  Mn2  1  0.74999998  0.59731198  0.93371501  1
  Mn  Mn3  1  0.24999999  0.40268798  0.06628500  1
  Ho  Ho4  1  0.24999999  0.45370398  0.35945000  1
  Ho  Ho5  1  0.74999998  0.54629598  0.64055001  1
  Ho  Ho6  1  0.74999998  0.95370396  0.14055000  1
  Ho  Ho7  1  0.24999999  0.04629600  0.85945001  1
  O  O8  1  0.24999999  0.30736199  0.70526201  1
  O  O9  1  0.74999998  0.69263797  0.29473800  1
  O  O10  1  0.74999998  0.80736197  0.79473801  1
  O  O11  1  0.24999999  0.19263799  0.20526200  1
  O  O12  1  0.24999999  0.75819397  0.02661100  1
  O  O13  1  0.74999998  0.24180599  0.97338901  1
  O  O14  1  0.74999998  0.25819399  0.47338901  1
  O  O15  1  0.24999999  0.74180597  0.52661101  1
