# generated using pymatgen
data_Ba6MoO7
_symmetry_space_group_name_H-M   'P 1'
_cell_length_a   8.04596424
_cell_length_b   8.04596424
_cell_length_c   8.04596424
_cell_angle_alpha   60.00000000
_cell_angle_beta   60.00000000
_cell_angle_gamma   60.00000000
_symmetry_Int_Tables_number   1
_chemical_formula_structural   Ba6MoO7
_chemical_formula_sum   'Ba6 Mo1 O7'
_cell_volume   368.31490683
_cell_formula_units_Z   1
loop_
 _symmetry_equiv_pos_site_id
 _symmetry_equiv_pos_as_xyz
  1  'x, y, z'
loop_
 _atom_site_type_symbol
 _atom_site_label
 _atom_site_symmetry_multiplicity
 _atom_site_fract_x
 _atom_site_fract_y
 _atom_site_fract_z
 _atom_site_occupancy
  Ba  Ba0  1  0.37500001  0.37500001  0.37500001  1
  Ba  Ba1  1  0.37500001  0.87500002  0.37500001  1
  Ba  Ba2  1  0.37500001  0.37500001  0.87500002  1
  Ba  Ba3  1  0.87500002  0.37500001  0.37500001  1
  Ba  Ba4  1  0.00000000  0.00000000  0.00000000  1
  Ba  Ba5  1  0.75000002  0.75000002  0.75000002  1
  O  O6  1  0.13555400  0.62148201  0.62148201  1
  O  O7  1  0.62148201  0.62148201  0.13555400  1
  O  O8  1  0.62148201  0.62148201  0.62148201  1
  O  O9  1  0.62148201  0.13555400  0.62148201  1
  O  O10  1  0.12851800  0.61444601  0.12851800  1
  Mo  Mo11  1  0.12851800  0.12851800  0.12851800  1
  O  O12  1  0.12851800  0.12851800  0.61444601  1
  O  O13  1  0.61444601  0.12851800  0.12851800  1
