# generated using pymatgen
data_Ga2P
_symmetry_space_group_name_H-M   'P 1'
_cell_length_a   3.72795391
_cell_length_b   3.72795486
_cell_length_c   15.33345604
_cell_angle_alpha   90.00000000
_cell_angle_beta   90.00000000
_cell_angle_gamma   119.99999237
_symmetry_Int_Tables_number   1
_chemical_formula_structural   Ga2P
_chemical_formula_sum   'Ga6 P3'
_cell_volume   184.54908554
_cell_formula_units_Z   3
loop_
 _symmetry_equiv_pos_site_id
 _symmetry_equiv_pos_as_xyz
  1  'x, y, z'
loop_
 _atom_site_type_symbol
 _atom_site_label
 _atom_site_symmetry_multiplicity
 _atom_site_fract_x
 _atom_site_fract_y
 _atom_site_fract_z
 _atom_site_occupancy
  Ga  Ga0  1  0.33333336  0.66666669  0.59810100  1
  Ga  Ga1  1  0.66666669  0.33333335  0.40189900  1
  P  P2  1  0.33333336  0.66666669  0.17139600  1
  P  P3  1  0.66666669  0.33333335  0.82860400  1
  Ga  Ga4  1  0.00000000  0.00000000  0.50000000  1
  Ga  Ga5  1  0.33333336  0.66666669  0.31689000  1
  P  P6  1  0.66666669  0.33333335  0.68311000  1
  Ga  Ga7  1  0.33333336  0.66666669  0.89410800  1
  Ga  Ga8  1  0.66666669  0.33333335  0.10589200  1
