# generated using pymatgen
data_BaSe2
_symmetry_space_group_name_H-M   'P 1'
_cell_length_a   4.57998419
_cell_length_b   9.26867294
_cell_length_c   9.26924610
_cell_angle_alpha   90.00000000
_cell_angle_beta   90.00000000
_cell_angle_gamma   90.00000000
_symmetry_Int_Tables_number   1
_chemical_formula_structural   BaSe2
_chemical_formula_sum   'Ba4 Se8'
_cell_volume   393.48297783
_cell_formula_units_Z   4
loop_
 _symmetry_equiv_pos_site_id
 _symmetry_equiv_pos_as_xyz
  1  'x, y, z'
loop_
 _atom_site_type_symbol
 _atom_site_label
 _atom_site_symmetry_multiplicity
 _atom_site_fract_x
 _atom_site_fract_y
 _atom_site_fract_z
 _atom_site_occupancy
  Ba  Ba0  1  0.97510896  0.75000000  0.72670799  1
  Ba  Ba1  1  0.02489100  0.25000000  0.72670799  1
  Ba  Ba2  1  0.49999998  0.00000000  0.27292500  1
  Ba  Ba3  1  0.49999998  0.50000000  0.27292500  1
  Se  Se4  1  0.00000000  0.00000000  0.00127200  1
  Se  Se5  1  0.00000000  0.50000000  0.00127200  1
  Se  Se6  1  0.43388498  0.75000000  0.99962599  1
  Se  Se7  1  0.56611498  0.25000000  0.99962599  1
  Se  Se8  1  0.99384896  0.75000000  0.36660900  1
  Se  Se9  1  0.00615100  0.25000000  0.36660900  1
  Se  Se10  1  0.49999998  0.00000000  0.63332399  1
  Se  Se11  1  0.49999998  0.50000000  0.63332399  1
