# generated using pymatgen
data_BaMo3F15
_symmetry_space_group_name_H-M   'P 1'
_cell_length_a   3.94930601
_cell_length_b   3.94930601
_cell_length_c   16.75051498
_cell_angle_alpha   96.77011871
_cell_angle_beta   96.77011871
_cell_angle_gamma   90.00000000
_symmetry_Int_Tables_number   1
_chemical_formula_structural   BaMo3F15
_chemical_formula_sum   'Ba1 Mo3 F15'
_cell_volume   257.60176013
_cell_formula_units_Z   1
loop_
 _symmetry_equiv_pos_site_id
 _symmetry_equiv_pos_as_xyz
  1  'x, y, z'
loop_
 _atom_site_type_symbol
 _atom_site_label
 _atom_site_symmetry_multiplicity
 _atom_site_fract_x
 _atom_site_fract_y
 _atom_site_fract_z
 _atom_site_occupancy
  Ba  Ba0  1  0.94034397  0.94034298  0.88068697  1
  Mo  Mo1  1  0.49914399  0.49914299  0.99828697  1
  Mo  Mo2  1  0.62861798  0.62861698  0.25723499  1
  Mo  Mo3  1  0.37270999  0.37270899  0.74541898  1
  F  F4  1  0.21237999  0.21237999  0.42475999  1
  F  F5  1  0.78667298  0.78667198  0.57334498  1
  F  F6  1  0.05757000  0.05757100  0.11514100  1
  F  F7  1  0.55987098  0.55987099  0.11974199  1
  F  F8  1  0.43961899  0.43961799  0.87923697  1
  F  F9  1  0.24986099  0.74986098  0.49972198  1
  F  F10  1  0.74986098  0.24986099  0.49972198  1
  F  F11  1  0.12179499  0.62179398  0.24358899  1
  F  F12  1  0.38070499  0.88070598  0.76141098  1
  F  F13  1  0.88070498  0.38070599  0.76141098  1
  F  F14  1  0.62179498  0.12179400  0.24358899  1
  F  F15  1  0.68627198  0.68627198  0.37254399  1
  F  F16  1  0.31517299  0.31517299  0.63034598  1
  F  F17  1  0.99845297  0.49845299  0.99690597  1
  F  F18  1  0.49845298  0.99845298  0.99690597  1
