# generated using pymatgen
data_Li2PF5
_symmetry_space_group_name_H-M   'P 1'
_cell_length_a   5.16741610
_cell_length_b   5.28773451
_cell_length_c   7.25549507
_cell_angle_alpha   107.10388947
_cell_angle_beta   108.75991058
_cell_angle_gamma   98.38948059
_symmetry_Int_Tables_number   1
_chemical_formula_structural   Li2PF5
_chemical_formula_sum   'Li4 P2 F10'
_cell_volume   172.96392507
_cell_formula_units_Z   2
loop_
 _symmetry_equiv_pos_site_id
 _symmetry_equiv_pos_as_xyz
  1  'x, y, z'
loop_
 _atom_site_type_symbol
 _atom_site_label
 _atom_site_symmetry_multiplicity
 _atom_site_fract_x
 _atom_site_fract_y
 _atom_site_fract_z
 _atom_site_occupancy
  Li  Li0  1  0.28246899  0.12853799  0.71738501  1
  Li  Li1  1  0.71753093  0.87146195  0.28261497  1
  Li  Li2  1  -0.00000003  0.49999997  0.49999999  1
  Li  Li3  1  -0.00000003  0.49999997  -0.00000002  1
  P  P4  1  0.32235698  0.14863099  0.26132000  1
  P  P5  1  0.67764293  0.85136895  0.73867998  1
  F  F6  1  0.63294897  0.26082599  0.42351799  1
  F  F7  1  0.36705095  0.73917396  0.57648198  1
  F  F8  1  0.30453194  0.84137596  0.15373497  1
  F  F9  1  0.69546797  0.15862399  0.84626500  1
  F  F10  1  0.26300298  0.29607698  0.10494299  1
  F  F11  1  0.73699694  0.70392296  0.89505699  1
  F  F12  1  0.11318599  0.16775999  0.37813000  1
  F  F13  1  0.88681393  0.83223996  0.62186997  1
  F  F14  1  0.13079997  0.43897198  0.76670300  1
  F  F15  1  0.86919994  0.56102797  0.23329697  1
