# generated using pymatgen
data_HoCo3Si2
_symmetry_space_group_name_H-M   'P 1'
_cell_length_a   3.95192599
_cell_length_b   4.82828999
_cell_length_c   4.82828999
_cell_angle_alpha   60.00000000
_cell_angle_beta   90.00000000
_cell_angle_gamma   90.00000000
_symmetry_Int_Tables_number   1
_chemical_formula_structural   HoCo3Si2
_chemical_formula_sum   'Ho1 Co3 Si2'
_cell_volume   79.78589596
_cell_formula_units_Z   1
loop_
 _symmetry_equiv_pos_site_id
 _symmetry_equiv_pos_as_xyz
  1  'x, y, z'
loop_
 _atom_site_type_symbol
 _atom_site_label
 _atom_site_symmetry_multiplicity
 _atom_site_fract_x
 _atom_site_fract_y
 _atom_site_fract_z
 _atom_site_occupancy
  Ho  Ho0  1  0.00000000  0.00000000  0.00000000  1
  Si  Si1  1  1.00000000  0.33333334  0.33333334  1
  Si  Si2  1  1.00000000  0.66666668  0.66666668  1
  Co  Co3  1  0.50000000  0.00000000  0.50000002  1
  Co  Co4  1  0.50000000  0.50000001  -0.00000001  1
  Co  Co5  1  0.50000000  0.50000001  0.50000001  1
