# generated using pymatgen
data_Lu2Au
_symmetry_space_group_name_H-M   'P 1'
_cell_length_a   3.81183910
_cell_length_b   4.02960396
_cell_length_c   4.02960443
_cell_angle_alpha   60.00000381
_cell_angle_beta   90.00000000
_cell_angle_gamma   90.00000000
_symmetry_Int_Tables_number   1
_chemical_formula_structural   Lu2Au
_chemical_formula_sum   'Lu2 Au1'
_cell_volume   53.60311023
_cell_formula_units_Z   1
loop_
 _symmetry_equiv_pos_site_id
 _symmetry_equiv_pos_as_xyz
  1  'x, y, z'
loop_
 _atom_site_type_symbol
 _atom_site_label
 _atom_site_symmetry_multiplicity
 _atom_site_fract_x
 _atom_site_fract_y
 _atom_site_fract_z
 _atom_site_occupancy
  Au  Au0  1  0.49999999  0.33333334  0.33333334  1
  Lu  Lu1  1  0.00000000  0.66666667  0.66666667  1
  Lu  Lu2  1  0.00000000  0.00000000  0.00000000  1
