# generated using pymatgen
data_SrGaO3
_symmetry_space_group_name_H-M   'P 1'
_cell_length_a   3.88002896
_cell_length_b   3.88002896
_cell_length_c   7.60354996
_cell_angle_alpha   90.00000000
_cell_angle_beta   90.00000000
_cell_angle_gamma   90.00000000
_symmetry_Int_Tables_number   1
_chemical_formula_structural   SrGaO3
_chemical_formula_sum   'Sr2 Ga2 O6'
_cell_volume   114.46859141
_cell_formula_units_Z   2
loop_
 _symmetry_equiv_pos_site_id
 _symmetry_equiv_pos_as_xyz
  1  'x, y, z'
loop_
 _atom_site_type_symbol
 _atom_site_label
 _atom_site_symmetry_multiplicity
 _atom_site_fract_x
 _atom_site_fract_y
 _atom_site_fract_z
 _atom_site_occupancy
  O  O0  1  0.00000000  0.00000000  0.24878300  1
  O  O1  1  0.00000000  0.00000000  0.75121700  1
  O  O2  1  0.00000000  0.50000000  0.00000000  1
  O  O3  1  0.00000000  0.50000000  0.50000000  1
  O  O4  1  0.50000000  0.00000000  0.00000000  1
  O  O5  1  0.50000000  0.00000000  0.50000000  1
  Sr  Sr6  1  0.50000000  0.50000000  0.25150200  1
  Sr  Sr7  1  0.50000000  0.50000000  0.74849800  1
  Ga  Ga8  1  0.00000000  0.00000000  0.50000000  1
  Ga  Ga9  1  0.00000000  0.00000000  0.00000000  1
