# generated using pymatgen
data_Ba5Pr2WO12
_symmetry_space_group_name_H-M   'P 1'
_cell_length_a   6.38677931
_cell_length_b   6.38677931
_cell_length_c   11.09355259
_cell_angle_alpha   73.27011871
_cell_angle_beta   73.27011871
_cell_angle_gamma   60.00000763
_symmetry_Int_Tables_number   1
_chemical_formula_structural   Ba5Pr2WO12
_chemical_formula_sum   'Ba5 Pr2 W1 O12'
_cell_volume   369.60844469
_cell_formula_units_Z   1
loop_
 _symmetry_equiv_pos_site_id
 _symmetry_equiv_pos_as_xyz
  1  'x, y, z'
loop_
 _atom_site_type_symbol
 _atom_site_label
 _atom_site_symmetry_multiplicity
 _atom_site_fract_x
 _atom_site_fract_y
 _atom_site_fract_z
 _atom_site_occupancy
  Ba  Ba0  1  0.71844205  0.71844200  0.84467398  1
  Ba  Ba1  1  0.28155802  0.28155800  0.15532599  1
  Ba  Ba2  1  0.87201306  0.87201300  0.38396098  1
  Ba  Ba3  1  0.12798701  0.12798700  0.61603899  1
  Pr  Pr4  1  0.40278003  0.40278000  0.79165999  1
  Pr  Pr5  1  0.59722004  0.59722000  0.20833999  1
  Ba  Ba6  1  0.00000000  0.00000000  0.00000000  1
  W  W7  1  0.50000003  0.50000000  0.49999999  1
  O  O8  1  0.18552601  0.18552600  0.88958899  1
  O  O9  1  0.18552604  0.73935900  0.88958898  1
  O  O10  1  0.73935903  0.18552600  0.88958899  1
  O  O11  1  0.26064104  0.81447400  0.11041099  1
  O  O12  1  0.81447406  0.81447400  0.11041098  1
  O  O13  1  0.81447403  0.26064100  0.11041099  1
  O  O14  1  0.39551803  0.39551800  0.38374299  1
  O  O15  1  0.39551805  0.82522100  0.38374299  1
  O  O16  1  0.60448202  0.17477900  0.61625699  1
  O  O17  1  0.60448204  0.60448200  0.61625698  1
  O  O18  1  0.17477903  0.60448200  0.61625699  1
  O  O19  1  0.82522104  0.39551800  0.38374299  1
