# generated using pymatgen
data_BaCoO3
_symmetry_space_group_name_H-M   'P 1'
_cell_length_a   5.68111277
_cell_length_b   5.68361330
_cell_length_c   5.69141197
_cell_angle_alpha   119.87852478
_cell_angle_beta   90.07791138
_cell_angle_gamma   119.93788147
_symmetry_Int_Tables_number   1
_chemical_formula_structural   BaCoO3
_chemical_formula_sum   'Ba2 Co2 O6'
_cell_volume   130.21786018
_cell_formula_units_Z   2
loop_
 _symmetry_equiv_pos_site_id
 _symmetry_equiv_pos_as_xyz
  1  'x, y, z'
loop_
 _atom_site_type_symbol
 _atom_site_label
 _atom_site_symmetry_multiplicity
 _atom_site_fract_x
 _atom_site_fract_y
 _atom_site_fract_z
 _atom_site_occupancy
  Ba  Ba0  1  0.75038004  0.50062406  0.25107509  1
  Ba  Ba1  1  0.24962006  0.49937606  0.74892508  1
  Co  Co2  1  0.49999998  0.00000000  0.50000003  1
  Co  Co3  1  0.00000000  0.00000000  0.00000000  1
  O  O4  1  0.24156405  0.48335006  0.24166607  1
  O  O5  1  0.75843604  0.51665006  0.75833411  1
  O  O6  1  0.75774010  0.99979512  0.75760515  1
  O  O7  1  0.24225899  0.00020400  0.24239502  1
  O  O8  1  0.75818197  0.00024800  0.24199004  1
  O  O9  1  0.24181812  0.99975212  0.75800913  1
