# generated using pymatgen
data_TbGe
_symmetry_space_group_name_H-M   'P 1'
_cell_length_a   3.90748596
_cell_length_b   4.69501114
_cell_length_c   5.84133816
_cell_angle_alpha   90.00000000
_cell_angle_beta   109.54021454
_cell_angle_gamma   90.00000000
_symmetry_Int_Tables_number   1
_chemical_formula_structural   TbGe
_chemical_formula_sum   'Tb2 Ge2'
_cell_volume   100.99151573
_cell_formula_units_Z   2
loop_
 _symmetry_equiv_pos_site_id
 _symmetry_equiv_pos_as_xyz
  1  'x, y, z'
loop_
 _atom_site_type_symbol
 _atom_site_label
 _atom_site_symmetry_multiplicity
 _atom_site_fract_x
 _atom_site_fract_y
 _atom_site_fract_z
 _atom_site_occupancy
  Ge  Ge0  1  0.86349701  0.74999998  0.72699403  1
  Ge  Ge1  1  0.13650300  0.24999999  0.27300601  1
  Tb  Tb2  1  0.58616601  0.74999998  0.17233201  1
  Tb  Tb3  1  0.41383401  0.24999999  0.82766803  1
