# generated using pymatgen
data_Tb3MgSi5
_symmetry_space_group_name_H-M   'P 1'
_cell_length_a   3.74988103
_cell_length_b   7.37591219
_cell_length_c   7.37591171
_cell_angle_alpha   120.00000000
_cell_angle_beta   90.00000000
_cell_angle_gamma   90.00000000
_symmetry_Int_Tables_number   1
_chemical_formula_structural   Tb3MgSi5
_chemical_formula_sum   'Tb3 Mg1 Si5'
_cell_volume   176.67681782
_cell_formula_units_Z   1
loop_
 _symmetry_equiv_pos_site_id
 _symmetry_equiv_pos_as_xyz
  1  'x, y, z'
loop_
 _atom_site_type_symbol
 _atom_site_label
 _atom_site_symmetry_multiplicity
 _atom_site_fract_x
 _atom_site_fract_y
 _atom_site_fract_z
 _atom_site_occupancy
  Tb  Tb0  1  0.50000000  0.00000000  0.60486001  1
  Tb  Tb1  1  0.50000000  0.60485998  1.00000001  1
  Tb  Tb2  1  0.50000000  0.39513999  0.39514000  1
  Mg  Mg3  1  0.00000000  0.73304398  0.73304400  1
  Si  Si4  1  0.99999999  0.26695599  1.00000002  1
  Si  Si5  1  0.99999999  0.00000000  0.26695600  1
  Si  Si6  1  0.00000000  0.33333332  0.66666667  1
  Si  Si7  1  0.00000000  0.66666664  0.33333333  1
  Si  Si8  1  0.50000000  0.00000000  -0.00000000  1
