# generated using pymatgen
data_BaSr3(Ga2O5)2
_symmetry_space_group_name_H-M   'P 1'
_cell_length_a   5.51834583
_cell_length_b   5.52897787
_cell_length_c   8.86035633
_cell_angle_alpha   108.18019104
_cell_angle_beta   108.14401245
_cell_angle_gamma   90.00000000
_symmetry_Int_Tables_number   1
_chemical_formula_structural   BaSr3(Ga2O5)2
_chemical_formula_sum   'Ba1 Sr3 Ga4 O10'
_cell_volume   242.65301779
_cell_formula_units_Z   1
loop_
 _symmetry_equiv_pos_site_id
 _symmetry_equiv_pos_as_xyz
  1  'x, y, z'
loop_
 _atom_site_type_symbol
 _atom_site_label
 _atom_site_symmetry_multiplicity
 _atom_site_fract_x
 _atom_site_fract_y
 _atom_site_fract_z
 _atom_site_occupancy
  Ba  Ba0  1  0.10409797  0.61368800  0.21871396  1
  Sr  Sr1  1  0.89590299  0.39497400  0.78128694  1
  Sr  Sr2  1  0.61461700  0.11368800  0.21871497  1
  Sr  Sr3  1  0.38538396  0.89497400  0.78128594  1
  Ga  Ga4  1  1.00000001  0.00522500  0.99999996  1
  Ga  Ga5  1  0.49999998  0.50522500  0.99999995  1
  Ga  Ga6  1  0.30642999  0.22417500  0.49999998  1
  Ga  Ga7  1  0.69356997  0.72417500  0.49999993  1
  O  O8  1  0.74326699  0.24781400  0.99089596  1
  O  O9  1  0.25673399  0.25691900  0.00910498  1
  O  O10  1  0.74762897  0.74781400  0.99089493  1
  O  O11  1  0.25237197  0.75691900  0.00910595  1
  O  O12  1  0.10656099  0.14931100  0.27680899  1
  O  O13  1  0.89343797  0.87250100  0.72318992  1
  O  O14  1  0.67024798  0.64931100  0.27680994  1
  O  O15  1  0.32975099  0.37250100  0.72318897  1
  O  O16  1  0.38910496  0.89939300  0.49999994  1
  O  O17  1  0.61089499  0.39939300  0.49999995  1
