# generated using pymatgen
data_CsHg3F6
_symmetry_space_group_name_H-M   'P 1'
_cell_length_a   6.61192083
_cell_length_b   6.61192083
_cell_length_c   6.61192083
_cell_angle_alpha   60.00000000
_cell_angle_beta   60.00000000
_cell_angle_gamma   60.00000000
_symmetry_Int_Tables_number   1
_chemical_formula_structural   CsHg3F6
_chemical_formula_sum   'Cs1 Hg3 F6'
_cell_volume   204.39390317
_cell_formula_units_Z   1
loop_
 _symmetry_equiv_pos_site_id
 _symmetry_equiv_pos_as_xyz
  1  'x, y, z'
loop_
 _atom_site_type_symbol
 _atom_site_label
 _atom_site_symmetry_multiplicity
 _atom_site_fract_x
 _atom_site_fract_y
 _atom_site_fract_z
 _atom_site_occupancy
  F  F0  1  0.76986699  0.23013300  0.76986699  1
  F  F1  1  0.23013300  0.76986699  0.76986699  1
  F  F2  1  0.76986699  0.23013300  0.23013300  1
  F  F3  1  0.76986699  0.76986699  0.23013300  1
  F  F4  1  0.23013300  0.23013300  0.76986699  1
  F  F5  1  0.23013300  0.76986699  0.23013300  1
  Hg  Hg6  1  0.74999999  0.74999999  0.74999999  1
  Hg  Hg7  1  0.25000000  0.25000000  0.25000000  1
  Hg  Hg8  1  0.49999999  0.49999999  0.49999999  1
  Cs  Cs9  1  0.00000000  0.00000000  0.00000000  1
