# generated using pymatgen
data_LuScO3
_symmetry_space_group_name_H-M   'P 1'
_cell_length_a   5.43629885
_cell_length_b   5.79930496
_cell_length_c   7.83743000
_cell_angle_alpha   90.00000000
_cell_angle_beta   90.00000000
_cell_angle_gamma   90.00000000
_symmetry_Int_Tables_number   1
_chemical_formula_structural   LuScO3
_chemical_formula_sum   'Lu4 Sc4 O12'
_cell_volume   247.08873451
_cell_formula_units_Z   4
loop_
 _symmetry_equiv_pos_site_id
 _symmetry_equiv_pos_as_xyz
  1  'x, y, z'
loop_
 _atom_site_type_symbol
 _atom_site_label
 _atom_site_symmetry_multiplicity
 _atom_site_fract_x
 _atom_site_fract_y
 _atom_site_fract_z
 _atom_site_occupancy
  Lu  Lu0  1  0.52010301  0.56863200  0.25000000  1
  Lu  Lu1  1  0.02010300  0.93136801  0.75000000  1
  Lu  Lu2  1  0.47989701  0.43136800  0.75000000  1
  Lu  Lu3  1  0.97989703  0.06863200  0.25000000  1
  Sc  Sc4  1  0.00000000  0.50000000  0.50000000  1
  Sc  Sc5  1  0.50000001  0.00000000  0.50000000  1
  Sc  Sc6  1  0.00000000  0.50000000  -0.00000000  1
  Sc  Sc7  1  0.50000001  0.00000000  -0.00000000  1
  O  O8  1  0.18925401  0.19352400  0.56038900  1
  O  O9  1  0.68925402  0.30647600  0.43961100  1
  O  O10  1  0.81074602  0.80647601  0.43961100  1
  O  O11  1  0.31074601  0.69352400  0.56038900  1
  O  O12  1  0.81074602  0.80647601  0.06038900  1
  O  O13  1  0.31074601  0.69352400  0.93961100  1
  O  O14  1  0.18925401  0.19352400  0.93961100  1
  O  O15  1  0.68925402  0.30647600  0.06038900  1
  O  O16  1  0.11859900  0.45401700  0.25000000  1
  O  O17  1  0.61859902  0.04598300  0.75000000  1
  O  O18  1  0.88140102  0.54598300  0.75000000  1
  O  O19  1  0.38140101  0.95401701  0.25000000  1
