# generated using pymatgen
data_LiCo7O12
_symmetry_space_group_name_H-M   'P 1'
_cell_length_a   5.10285091
_cell_length_b   5.10285139
_cell_length_c   9.64478302
_cell_angle_alpha   93.80112457
_cell_angle_beta   93.80112457
_cell_angle_gamma   116.27869415
_symmetry_Int_Tables_number   1
_chemical_formula_structural   LiCo7O12
_chemical_formula_sum   'Li1 Co7 O12'
_cell_volume   223.40321379
_cell_formula_units_Z   1
loop_
 _symmetry_equiv_pos_site_id
 _symmetry_equiv_pos_as_xyz
  1  'x, y, z'
loop_
 _atom_site_type_symbol
 _atom_site_label
 _atom_site_symmetry_multiplicity
 _atom_site_fract_x
 _atom_site_fract_y
 _atom_site_fract_z
 _atom_site_occupancy
  Li  Li0  1  0.07471296  0.92528695  0.75000001  1
  Co  Co1  1  0.92271604  0.07728400  0.25000003  1
  Co  Co2  1  0.58507301  0.41492698  0.25000002  1
  Co  Co3  1  0.41364099  0.58635897  0.75000002  1
  Co  Co4  1  0.00455997  0.51056997  0.50813101  1
  Co  Co5  1  0.48942997  0.99543995  0.99186902  1
  Co  Co6  1  0.74366902  0.25633099  0.75000002  1
  Co  Co7  1  0.25479997  0.74519996  0.25000001  1
  O  O8  1  0.69072702  0.17921099  0.37377802  1
  O  O9  1  0.25104201  0.06497300  0.14810501  1
  O  O10  1  0.82078902  0.30927298  0.12622203  1
  O  O11  1  0.46794501  0.28918199  0.85289902  1
  O  O12  1  0.04944599  0.26423899  0.65036100  1
  O  O13  1  0.71081801  0.53205497  0.64710103  1
  O  O14  1  0.25989299  0.42475198  0.34953201  1
  O  O15  1  0.93502700  0.74895796  0.35189503  1
  O  O16  1  0.57524799  0.74010696  0.15046802  1
  O  O17  1  0.19365397  0.67564397  0.88127501  1
  O  O18  1  0.73576099  0.95055395  0.84963903  1
  O  O19  1  0.32435597  0.80634596  0.61872502  1
