# generated using pymatgen
data_BiTe
_symmetry_space_group_name_H-M   'P 1'
_cell_length_a   4.42633009
_cell_length_b   4.42633057
_cell_length_c   10.98346424
_cell_angle_alpha   90.00000000
_cell_angle_beta   90.00000000
_cell_angle_gamma   119.99999237
_symmetry_Int_Tables_number   1
_chemical_formula_structural   BiTe
_chemical_formula_sum   'Bi3 Te3'
_cell_volume   186.36212254
_cell_formula_units_Z   3
loop_
 _symmetry_equiv_pos_site_id
 _symmetry_equiv_pos_as_xyz
  1  'x, y, z'
loop_
 _atom_site_type_symbol
 _atom_site_label
 _atom_site_symmetry_multiplicity
 _atom_site_fract_x
 _atom_site_fract_y
 _atom_site_fract_z
 _atom_site_occupancy
  Te  Te0  1  0.66666664  0.33333333  0.17286500  1
  Te  Te1  1  0.33333329  0.66666666  0.82713498  1
  Te  Te2  1  0.00000000  0.00000000  0.49999999  1
  Bi  Bi3  1  0.66666664  0.33333333  0.65190799  1
  Bi  Bi4  1  0.33333329  0.66666666  0.34809199  1
  Bi  Bi5  1  0.00000000  0.00000000  0.00000000  1
