# generated using pymatgen
data_NaCoPO5
_symmetry_space_group_name_H-M   'P 1'
_cell_length_a   5.56410503
_cell_length_b   5.56996489
_cell_length_c   7.22282076
_cell_angle_alpha   104.08396912
_cell_angle_beta   104.23013306
_cell_angle_gamma   105.66340637
_symmetry_Int_Tables_number   1
_chemical_formula_structural   NaCoPO5
_chemical_formula_sum   'Na2 Co2 P2 O10'
_cell_volume   197.08421887
_cell_formula_units_Z   2
loop_
 _symmetry_equiv_pos_site_id
 _symmetry_equiv_pos_as_xyz
  1  'x, y, z'
loop_
 _atom_site_type_symbol
 _atom_site_label
 _atom_site_symmetry_multiplicity
 _atom_site_fract_x
 _atom_site_fract_y
 _atom_site_fract_z
 _atom_site_occupancy
  Na  Na0  1  0.17282499  0.83795703  0.75525601  1
  Na  Na1  1  0.82717498  0.16204301  0.24474397  1
  Co  Co2  1  0.49999998  0.50000002  -0.00000002  1
  P  P3  1  0.17614399  0.81451903  0.24648400  1
  P  P4  1  0.82385598  0.18548101  0.75351599  1
  Co  Co5  1  0.49999998  0.50000002  0.49999999  1
  O  O6  1  0.23780999  0.10916000  0.40655800  1
  O  O7  1  0.12143699  0.25135201  0.91284502  1
  O  O8  1  0.76218997  0.89084003  0.59344198  1
  O  O9  1  0.87856297  0.74864803  0.08715496  1
  O  O10  1  0.57725398  0.42171401  0.24085198  1
  O  O11  1  0.42274598  0.57828602  0.75914800  1
  O  O12  1  0.61038899  0.18935401  0.87828600  1
  O  O13  1  0.17345599  0.60717202  0.37674700  1
  O  O14  1  0.38961098  0.81064603  0.12171398  1
  O  O15  1  0.82654398  0.39282801  0.62325298  1
