# generated using pymatgen
data_Na4CuGe3O8
_symmetry_space_group_name_H-M   'P 1'
_cell_length_a   5.42316484
_cell_length_b   5.69247484
_cell_length_c   7.21273232
_cell_angle_alpha   90.00000000
_cell_angle_beta   90.08616638
_cell_angle_gamma   90.00000000
_symmetry_Int_Tables_number   1
_chemical_formula_structural   Na4CuGe3O8
_chemical_formula_sum   'Na4 Cu1 Ge3 O8'
_cell_volume   222.66566240
_cell_formula_units_Z   1
loop_
 _symmetry_equiv_pos_site_id
 _symmetry_equiv_pos_as_xyz
  1  'x, y, z'
loop_
 _atom_site_type_symbol
 _atom_site_label
 _atom_site_symmetry_multiplicity
 _atom_site_fract_x
 _atom_site_fract_y
 _atom_site_fract_z
 _atom_site_occupancy
  Na  Na0  1  0.43934501  0.67288102  0.19349200  1
  Na  Na1  1  0.93934503  0.32711901  0.69349200  1
  Na  Na2  1  0.93634203  0.81871902  0.43892900  1
  Na  Na3  1  0.43634201  0.18128101  0.93892899  1
  Ge  Ge4  1  0.42527901  0.18603201  0.44401600  1
  Cu  Cu5  1  0.92527903  0.81396802  0.94401599  1
  Ge  Ge6  1  0.92199303  0.31324801  0.19114201  1
  Ge  Ge7  1  0.42199301  0.68675202  0.69114199  1
  O  O8  1  0.06625400  0.20479201  0.39544699  1
  O  O9  1  0.56625402  0.79520802  0.89544699  1
  O  O10  1  0.00127400  0.61577802  0.16288400  1
  O  O11  1  0.50127401  0.38422201  0.66288399  1
  O  O12  1  0.59670902  0.29054901  0.21930100  1
  O  O13  1  0.09670900  0.70945102  0.71930099  1
  O  O14  1  0.00709700  0.14961100  0.98991698  1
  O  O15  1  0.50709701  0.85038902  0.48991700  1
