# generated using pymatgen
data_BaSr3Mn4O11
_symmetry_space_group_name_H-M   'P 1'
_cell_length_a   5.54330206
_cell_length_b   6.80359745
_cell_length_c   6.80359745
_cell_angle_alpha   109.83367920
_cell_angle_beta   90.00000000
_cell_angle_gamma   90.00000000
_symmetry_Int_Tables_number   1
_chemical_formula_structural   BaSr3Mn4O11
_chemical_formula_sum   'Ba1 Sr3 Mn4 O11'
_cell_volume   241.37281923
_cell_formula_units_Z   1
loop_
 _symmetry_equiv_pos_site_id
 _symmetry_equiv_pos_as_xyz
  1  'x, y, z'
loop_
 _atom_site_type_symbol
 _atom_site_label
 _atom_site_symmetry_multiplicity
 _atom_site_fract_x
 _atom_site_fract_y
 _atom_site_fract_z
 _atom_site_occupancy
  Ba  Ba0  1  -0.00000000  0.74156899  0.25843097  1
  Sr  Sr1  1  -0.00000000  0.25843100  0.74156899  1
  Sr  Sr2  1  0.49999999  0.00000000  -0.00000000  1
  Sr  Sr3  1  0.49999999  0.49999999  0.49999998  1
  Mn  Mn4  1  0.49999999  0.49999999  -0.00000002  1
  Mn  Mn5  1  0.49999999  0.00000000  0.50000000  1
  Mn  Mn6  1  -0.00000000  0.74560199  0.74560197  1
  Mn  Mn7  1  -0.00000000  0.25439800  0.25439799  1
  O  O8  1  0.75990299  0.34141300  0.09892198  1
  O  O9  1  0.75990299  0.65858699  0.90107797  1
  O  O10  1  0.24009700  0.09892200  0.34141300  1
  O  O11  1  0.24009700  0.90107799  0.65858696  1
  O  O12  1  0.24009700  0.65858699  0.90107797  1
  O  O13  1  0.24009700  0.34141300  0.09892198  1
  O  O14  1  0.75990299  0.90107799  0.65858696  1
  O  O15  1  0.75990299  0.09892200  0.34141300  1
  O  O16  1  -0.00000000  0.49999999  0.49999998  1
  O  O17  1  0.49999999  0.27407700  0.72592299  1
  O  O18  1  0.49999999  0.72592299  0.27407697  1
