# generated using pymatgen
data_HoGaCo4
_symmetry_space_group_name_H-M   'P 1'
_cell_length_a   3.86976600
_cell_length_b   5.05941391
_cell_length_c   5.05941486
_cell_angle_alpha   60.00000381
_cell_angle_beta   90.00000000
_cell_angle_gamma   90.00000000
_symmetry_Int_Tables_number   1
_chemical_formula_structural   HoGaCo4
_chemical_formula_sum   'Ho1 Ga1 Co4'
_cell_volume   85.78588882
_cell_formula_units_Z   1
loop_
 _symmetry_equiv_pos_site_id
 _symmetry_equiv_pos_as_xyz
  1  'x, y, z'
loop_
 _atom_site_type_symbol
 _atom_site_label
 _atom_site_symmetry_multiplicity
 _atom_site_fract_x
 _atom_site_fract_y
 _atom_site_fract_z
 _atom_site_occupancy
  Ho  Ho0  1  0.00000000  0.00000000  0.00000000  1
  Co  Co1  1  -0.00000000  0.33333334  0.33333332  1
  Ga  Ga2  1  -0.00000000  0.66666669  0.66666664  1
  Co  Co3  1  0.50000000  0.49537702  0.49537598  1
  Co  Co4  1  0.50000000  0.49537702  0.00924598  1
  Co  Co5  1  0.50000000  0.00924700  0.49537600  1
