# generated using pymatgen
data_MgGa(PO3)2
_symmetry_space_group_name_H-M   'P 1'
_cell_length_a   5.51207209
_cell_length_b   7.30171919
_cell_length_c   7.30171919
_cell_angle_alpha   84.55887604
_cell_angle_beta   75.52611542
_cell_angle_gamma   75.52611542
_symmetry_Int_Tables_number   1
_chemical_formula_structural   MgGa(PO3)2
_chemical_formula_sum   'Mg2 Ga2 P4 O12'
_cell_volume   275.35430025
_cell_formula_units_Z   2
loop_
 _symmetry_equiv_pos_site_id
 _symmetry_equiv_pos_as_xyz
  1  'x, y, z'
loop_
 _atom_site_type_symbol
 _atom_site_label
 _atom_site_symmetry_multiplicity
 _atom_site_fract_x
 _atom_site_fract_y
 _atom_site_fract_z
 _atom_site_occupancy
  Ga  Ga0  1  0.75000007  0.72383801  0.27616206  1
  Ga  Ga1  1  0.25000003  0.27616200  0.72383804  1
  P  P2  1  0.21995803  0.37288301  0.18530302  1
  P  P3  1  0.28004207  0.81469701  0.62711705  1
  P  P4  1  0.71995803  0.18530300  0.37288305  1
  P  P5  1  0.78004206  0.62711701  0.81469707  1
  Mg  Mg6  1  0.25000007  0.86165901  0.13834103  1
  Mg  Mg7  1  0.75000003  0.13834100  0.86165906  1
  O  O8  1  0.45527503  0.29001700  0.29716103  1
  O  O9  1  0.04472505  0.70283901  0.70998303  1
  O  O10  1  0.54472506  0.70998301  0.70283906  1
  O  O11  1  0.95527504  0.29716100  0.29001706  1
  O  O12  1  0.11905405  0.60152901  0.21044802  1
  O  O13  1  0.38094607  0.78955201  0.39847104  1
  O  O14  1  0.88094605  0.39847101  0.78955207  1
  O  O15  1  0.61905403  0.21044800  0.60152905  1
  O  O16  1  0.82664409  0.96588001  0.31442106  1
  O  O17  1  0.67335607  0.68557901  0.03412004  1
  O  O18  1  0.32664403  0.31442100  0.96588005  1
  O  O19  1  0.17335601  0.03412000  0.68557903  1
