# generated using pymatgen
data_Au
_symmetry_space_group_name_H-M   'P 1'
_cell_length_a   5.26351786
_cell_length_b   5.30541325
_cell_length_c   5.62950516
_cell_angle_alpha   115.89740753
_cell_angle_beta   90.00000000
_cell_angle_gamma   119.73912048
_symmetry_Int_Tables_number   1
_chemical_formula_structural   Au
_chemical_formula_sum   Au6
_cell_volume   117.97399041
_cell_formula_units_Z   6
loop_
 _symmetry_equiv_pos_site_id
 _symmetry_equiv_pos_as_xyz
  1  'x, y, z'
loop_
 _atom_site_type_symbol
 _atom_site_label
 _atom_site_symmetry_multiplicity
 _atom_site_fract_x
 _atom_site_fract_y
 _atom_site_fract_z
 _atom_site_occupancy
  Au  Au0  1  0.65908002  0.00000000  0.99999997  1
  Au  Au1  1  0.16783299  0.32993497  0.50238998  1
  Au  Au2  1  0.83789799  0.67006495  0.49760997  1
  Au  Au3  1  0.00112196  0.67134795  0.00303698  1
  Au  Au4  1  0.32977399  0.32865197  0.99696296  1
  Au  Au5  1  0.50429401  0.00000000  0.49999999  1
