# generated using pymatgen
data_Ga11Ir
_symmetry_space_group_name_H-M   'P 1'
_cell_length_a   5.09623194
_cell_length_b   6.19482708
_cell_length_c   6.19482708
_cell_angle_alpha   90.00000000
_cell_angle_beta   90.00000000
_cell_angle_gamma   90.00000000
_symmetry_Int_Tables_number   1
_chemical_formula_structural   Ga11Ir
_chemical_formula_sum   'Ga11 Ir1'
_cell_volume   195.57239827
_cell_formula_units_Z   1
loop_
 _symmetry_equiv_pos_site_id
 _symmetry_equiv_pos_as_xyz
  1  'x, y, z'
loop_
 _atom_site_type_symbol
 _atom_site_label
 _atom_site_symmetry_multiplicity
 _atom_site_fract_x
 _atom_site_fract_y
 _atom_site_fract_z
 _atom_site_occupancy
  Ga  Ga0  1  1.00000001  0.15286400  0.33153800  1
  Ga  Ga1  1  0.00000000  0.33153800  0.84713599  1
  Ga  Ga2  1  0.00000000  0.84713599  0.66846199  1
  Ga  Ga3  1  0.50000001  0.66846199  0.84713599  1
  Ga  Ga4  1  0.50000001  0.15286400  0.66846199  1
  Ga  Ga5  1  0.50000001  0.84713599  0.33153800  1
  Ga  Ga6  1  0.00000000  0.66846199  0.15286400  1
  Ga  Ga7  1  0.50000001  0.33153800  0.15286400  1
  Ga  Ga8  1  0.75000001  0.00000000  -0.00000000  1
  Ga  Ga9  1  0.25000000  0.00000000  -0.00000000  1
  Ga  Ga10  1  0.75000001  0.49999999  0.49999999  1
  Ir  Ir11  1  0.25000000  0.49999999  0.49999999  1
