# generated using pymatgen
data_GaPI
_symmetry_space_group_name_H-M   'P 1'
_cell_length_a   3.19031596
_cell_length_b   3.19031549
_cell_length_c   17.43950272
_cell_angle_alpha   90.00000000
_cell_angle_beta   90.00000000
_cell_angle_gamma   120.00000763
_symmetry_Int_Tables_number   1
_chemical_formula_structural   GaPI
_chemical_formula_sum   'Ga1 P1 I1'
_cell_volume   153.72058334
_cell_formula_units_Z   1
loop_
 _symmetry_equiv_pos_site_id
 _symmetry_equiv_pos_as_xyz
  1  'x, y, z'
loop_
 _atom_site_type_symbol
 _atom_site_label
 _atom_site_symmetry_multiplicity
 _atom_site_fract_x
 _atom_site_fract_y
 _atom_site_fract_z
 _atom_site_occupancy
  Ga  Ga0  1  0.00000000  0.00000000  0.00000000  1
  I  I1  1  0.66666668  0.33333333  0.91026796  1
  P  P2  1  0.66666668  0.33333333  0.08973200  1
