# generated using pymatgen
data_NaMn6CdP6
_symmetry_space_group_name_H-M   'P 1'
_cell_length_a   6.77013206
_cell_length_b   6.77013206
_cell_length_c   7.53900099
_cell_angle_alpha   63.31998825
_cell_angle_beta   63.31998825
_cell_angle_gamma   59.99999619
_symmetry_Int_Tables_number   1
_chemical_formula_structural   NaMn6CdP6
_chemical_formula_sum   'Na1 Mn6 Cd1 P6'
_cell_volume   255.89028371
_cell_formula_units_Z   1
loop_
 _symmetry_equiv_pos_site_id
 _symmetry_equiv_pos_as_xyz
  1  'x, y, z'
loop_
 _atom_site_type_symbol
 _atom_site_label
 _atom_site_symmetry_multiplicity
 _atom_site_fract_x
 _atom_site_fract_y
 _atom_site_fract_z
 _atom_site_occupancy
  Na  Na0  1  0.66666667  0.66666669  0.00000001  1
  Cd  Cd1  1  0.33337400  0.33337401  0.99987802  1
  Mn  Mn2  1  0.45812699  0.78944603  0.62872902  1
  Mn  Mn3  1  0.12369799  0.45812702  0.62872902  1
  Mn  Mn4  1  0.78944602  0.12369800  0.62872902  1
  Mn  Mn5  1  0.21055398  0.87630204  0.37127102  1
  Mn  Mn6  1  0.87630201  0.54187302  0.37127102  1
  Mn  Mn7  1  0.54187301  0.21055401  0.37127101  1
  P  P8  1  0.91617202  0.24810501  0.25256001  1
  P  P9  1  0.24810499  0.58316302  0.25256001  1
  P  P10  1  0.58316299  0.91617204  0.25256002  1
  P  P11  1  0.41683701  0.08382800  0.74744002  1
  P  P12  1  0.75189501  0.41683702  0.74744002  1
  P  P13  1  0.08382798  0.75189503  0.74744002  1
