# generated using pymatgen
data_BaGe
_symmetry_space_group_name_H-M   'P 1'
_cell_length_a   5.03557920
_cell_length_b   6.52075481
_cell_length_c   8.47825909
_cell_angle_alpha   90.00000000
_cell_angle_beta   90.00000000
_cell_angle_gamma   90.00000000
_symmetry_Int_Tables_number   1
_chemical_formula_structural   BaGe
_chemical_formula_sum   'Ba4 Ge4'
_cell_volume   278.39022760
_cell_formula_units_Z   4
loop_
 _symmetry_equiv_pos_site_id
 _symmetry_equiv_pos_as_xyz
  1  'x, y, z'
loop_
 _atom_site_type_symbol
 _atom_site_label
 _atom_site_symmetry_multiplicity
 _atom_site_fract_x
 _atom_site_fract_y
 _atom_site_fract_z
 _atom_site_occupancy
  Ba  Ba0  1  0.24999999  0.86237802  0.68339899  1
  Ba  Ba1  1  0.24999999  0.63762202  0.18339900  1
  Ba  Ba2  1  0.74999997  0.13762200  0.31660100  1
  Ba  Ba3  1  0.74999997  0.36237801  0.81660099  1
  Ge  Ge4  1  0.24999999  0.36570401  0.53765499  1
  Ge  Ge5  1  0.74999997  0.86570402  0.96234499  1
  Ge  Ge6  1  0.24999999  0.13429600  0.03765500  1
  Ge  Ge7  1  0.74999997  0.63429602  0.46234500  1
