# generated using pymatgen
data_CsMgGa3O8
_symmetry_space_group_name_H-M   'P 1'
_cell_length_a   3.03898001
_cell_length_b   7.37441635
_cell_length_c   7.38981533
_cell_angle_alpha   87.51746368
_cell_angle_beta   78.37023163
_cell_angle_gamma   78.19834137
_symmetry_Int_Tables_number   1
_chemical_formula_structural   CsMgGa3O8
_chemical_formula_sum   'Cs1 Mg1 Ga3 O8'
_cell_volume   158.78179728
_cell_formula_units_Z   1
loop_
 _symmetry_equiv_pos_site_id
 _symmetry_equiv_pos_as_xyz
  1  'x, y, z'
loop_
 _atom_site_type_symbol
 _atom_site_label
 _atom_site_symmetry_multiplicity
 _atom_site_fract_x
 _atom_site_fract_y
 _atom_site_fract_z
 _atom_site_occupancy
  Cs  Cs0  1  0.07682500  0.99487600  0.99544097  1
  Ga  Ga1  1  0.82932701  0.49269900  0.83147596  1
  Ga  Ga2  1  0.65976801  0.19626900  0.48187197  1
  Mg  Mg3  1  0.32363201  0.81365500  0.50537498  1
  Ga  Ga4  1  0.17122700  0.51122100  0.18577799  1
  O  O5  1  0.35560301  0.63119000  0.70862597  1
  O  O6  1  0.68458001  0.37685100  0.29431697  1
  O  O7  1  0.99236701  0.69860200  0.36741796  1
  O  O8  1  0.06099400  0.29238500  0.62949598  1
  O  O9  1  0.36437201  0.36468900  0.95469497  1
  O  O10  1  0.68420101  0.63009000  0.05506798  1
  O  O11  1  0.74291801  0.94428400  0.62825596  1
  O  O12  1  0.31918500  0.05318900  0.36218198  1
