# generated using pymatgen
data_GaN
_symmetry_space_group_name_H-M   'P 1'
_cell_length_a   2.93287086
_cell_length_b   2.93287086
_cell_length_c   5.15592813
_cell_angle_alpha   90.00000000
_cell_angle_beta   90.00000000
_cell_angle_gamma   94.49291992
_symmetry_Int_Tables_number   1
_chemical_formula_structural   GaN
_chemical_formula_sum   'Ga2 N2'
_cell_volume   44.21362318
_cell_formula_units_Z   2
loop_
 _symmetry_equiv_pos_site_id
 _symmetry_equiv_pos_as_xyz
  1  'x, y, z'
loop_
 _atom_site_type_symbol
 _atom_site_label
 _atom_site_symmetry_multiplicity
 _atom_site_fract_x
 _atom_site_fract_y
 _atom_site_fract_z
 _atom_site_occupancy
  Ga  Ga0  1  0.49999999  0.00000000  0.49999999  1
  Ga  Ga1  1  0.00000002  0.49999999  -0.00000000  1
  N  N2  1  0.50000001  0.49999999  0.24999999  1
  N  N3  1  0.50000001  0.49999999  0.74999998  1
