# generated using pymatgen
data_Ba2GeAsHS8N
_symmetry_space_group_name_H-M   'P 1'
_cell_length_a   3.90498209
_cell_length_b   8.13882256
_cell_length_c   8.13882256
_cell_angle_alpha   109.09551239
_cell_angle_beta   90.00000000
_cell_angle_gamma   90.00000000
_symmetry_Int_Tables_number   1
_chemical_formula_structural   Ba2GeAsHS8N
_chemical_formula_sum   'Ba2 Ge1 As1 H1 S8 N1'
_cell_volume   244.43439308
_cell_formula_units_Z   1
loop_
 _symmetry_equiv_pos_site_id
 _symmetry_equiv_pos_as_xyz
  1  'x, y, z'
loop_
 _atom_site_type_symbol
 _atom_site_label
 _atom_site_symmetry_multiplicity
 _atom_site_fract_x
 _atom_site_fract_y
 _atom_site_fract_z
 _atom_site_occupancy
  S  S0  1  0.49999999  0.28733601  0.28733600  1
  S  S1  1  0.49999999  0.71266402  0.71266401  1
  S  S2  1  -0.00000000  0.13480200  0.86519802  1
  S  S3  1  -0.00000000  0.86519802  0.13480199  1
  N  N4  1  0.49999999  0.50000001  1.00000002  1
  S  S5  1  0.49999999  0.00000000  0.50000001  1
  S  S6  1  0.49999999  0.34680101  0.99483202  1
  S  S7  1  0.49999999  0.65319901  0.00516799  1
  H  H8  1  0.49999999  0.00516800  0.65319902  1
  S  S9  1  0.49999999  0.99483202  0.34680099  1
  Ge  Ge10  1  -0.00000000  0.15646600  0.15646600  1
  As  As11  1  -0.00000000  0.84353402  0.84353401  1
  Ba  Ba12  1  -0.00000000  0.37749201  0.62250801  1
  Ba  Ba13  1  0.99999998  0.62250801  0.37749200  1
