# generated using pymatgen
data_La2CuO4
_symmetry_space_group_name_H-M   'P 1'
_cell_length_a   5.43155384
_cell_length_b   5.65095806
_cell_length_c   6.54716778
_cell_angle_alpha   90.00000000
_cell_angle_beta   114.50683594
_cell_angle_gamma   90.00000000
_symmetry_Int_Tables_number   1
_chemical_formula_structural   La2CuO4
_chemical_formula_sum   'La4 Cu2 O8'
_cell_volume   182.85167142
_cell_formula_units_Z   2
loop_
 _symmetry_equiv_pos_site_id
 _symmetry_equiv_pos_as_xyz
  1  'x, y, z'
loop_
 _atom_site_type_symbol
 _atom_site_label
 _atom_site_symmetry_multiplicity
 _atom_site_fract_x
 _atom_site_fract_y
 _atom_site_fract_z
 _atom_site_occupancy
  La  La0  1  0.60294202  0.48063999  0.20588399  1
  La  La1  1  0.39705801  0.98063999  0.79411598  1
  La  La2  1  0.88815902  0.51859399  0.77631798  1
  La  La3  1  0.11184100  0.01859400  0.22368199  1
  Cu  Cu4  1  0.25038201  0.50217199  0.50076399  1
  Cu  Cu5  1  0.74961802  0.00217200  0.49923599  1
  O  O6  1  0.47976501  0.74857399  0.45503799  1
  O  O7  1  0.52023501  0.24857400  0.54496199  1
  O  O8  1  0.02472700  0.24857400  0.54496199  1
  O  O9  1  0.97527303  0.74857399  0.45503799  1
  O  O10  1  0.41793001  0.56622799  0.83585998  1
  O  O11  1  0.07725600  0.43521700  0.15451200  1
  O  O12  1  0.58207002  0.06622800  0.16413999  1
  O  O13  1  0.92274402  0.93521699  0.84548798  1
