# generated using pymatgen
data_Bi4F5
_symmetry_space_group_name_H-M   'P 1'
_cell_length_a   7.33273363
_cell_length_b   7.33273363
_cell_length_c   12.65508461
_cell_angle_alpha   99.78270721
_cell_angle_beta   99.78270721
_cell_angle_gamma   114.42613983
_symmetry_Int_Tables_number   1
_chemical_formula_structural   Bi4F5
_chemical_formula_sum   'Bi8 F10'
_cell_volume   588.25939794
_cell_formula_units_Z   2
loop_
 _symmetry_equiv_pos_site_id
 _symmetry_equiv_pos_as_xyz
  1  'x, y, z'
loop_
 _atom_site_type_symbol
 _atom_site_label
 _atom_site_symmetry_multiplicity
 _atom_site_fract_x
 _atom_site_fract_y
 _atom_site_fract_z
 _atom_site_occupancy
  Bi  Bi0  1  0.25682903  0.75682903  0.50000002  1
  Bi  Bi1  1  0.00682900  0.00682900  0.99999999  1
  Bi  Bi2  1  0.23341702  0.48832802  0.22043501  1
  Bi  Bi3  1  0.26789300  0.01298200  0.77956500  1
  Bi  Bi4  1  0.73832805  0.98341703  0.72043503  1
  F  F5  1  0.26298201  0.01789300  0.27956500  1
  F  F6  1  0.01967502  0.45795202  0.34747001  1
  F  F7  1  0.11048103  0.67220502  0.65253001  1
  F  F8  1  0.70795204  0.76967503  0.84747002  1
  Bi  Bi9  1  0.92220505  0.86048103  0.15253003  1
  F  F10  1  0.59831304  0.77596203  0.53176402  1
  Bi  Bi11  1  0.24419801  0.06654900  0.46823600  1
  F  F12  1  0.02596201  0.34831301  0.03176401  1
  Bi  Bi13  1  0.31654904  0.99419803  0.96823602  1
  F  F14  1  0.46845604  0.84482603  0.23808902  1
  F  F15  1  0.60673702  0.23036701  0.76191101  1
  F  F16  1  0.09482601  0.21845601  0.73808900  1
  F  F17  1  0.48036702  0.35673701  0.26191101  1
