# generated using pymatgen
data_CsF
_symmetry_space_group_name_H-M   'P 1'
_cell_length_a   4.25258875
_cell_length_b   4.25258875
_cell_length_c   8.02788353
_cell_angle_alpha   74.64114380
_cell_angle_beta   74.64114380
_cell_angle_gamma   59.99999237
_symmetry_Int_Tables_number   1
_chemical_formula_structural   CsF
_chemical_formula_sum   'Cs2 F2'
_cell_volume   119.70532218
_cell_formula_units_Z   2
loop_
 _symmetry_equiv_pos_site_id
 _symmetry_equiv_pos_as_xyz
  1  'x, y, z'
loop_
 _atom_site_type_symbol
 _atom_site_label
 _atom_site_symmetry_multiplicity
 _atom_site_fract_x
 _atom_site_fract_y
 _atom_site_fract_z
 _atom_site_occupancy
  Cs  Cs0  1  0.00000000  0.00000000  0.00000000  1
  Cs  Cs1  1  0.49999998  0.49999997  0.49999999  1
  F  F2  1  0.76846097  0.76846096  0.69461698  1
  F  F3  1  0.23153899  0.23153899  0.30538299  1
