# generated using pymatgen
data_MgInF6
_symmetry_space_group_name_H-M   'P 1'
_cell_length_a   5.23821545
_cell_length_b   5.23821545
_cell_length_c   5.67861652
_cell_angle_alpha   62.53396225
_cell_angle_beta   62.53396225
_cell_angle_gamma   60.00000763
_symmetry_Int_Tables_number   1
_chemical_formula_structural   MgInF6
_chemical_formula_sum   'Mg1 In1 F6'
_cell_volume   114.21075997
_cell_formula_units_Z   1
loop_
 _symmetry_equiv_pos_site_id
 _symmetry_equiv_pos_as_xyz
  1  'x, y, z'
loop_
 _atom_site_type_symbol
 _atom_site_label
 _atom_site_symmetry_multiplicity
 _atom_site_fract_x
 _atom_site_fract_y
 _atom_site_fract_z
 _atom_site_occupancy
  Mg  Mg0  1  0.49999999  0.49999999  0.49999997  1
  In  In1  1  0.00000000  0.00000000  0.00000000  1
  F  F2  1  0.74995799  0.11334100  0.75217998  1
  F  F3  1  0.38452098  0.74995799  0.75217997  1
  F  F4  1  0.11334099  0.38452099  0.75217999  1
  F  F5  1  0.61547899  0.25004200  0.24781998  1
  F  F6  1  0.88665898  0.61547899  0.24781996  1
  F  F7  1  0.25004199  0.88665899  0.24781997  1
