# generated using pymatgen
data_ScGa15Co3B
_symmetry_space_group_name_H-M   'P 1'
_cell_length_a   3.39401889
_cell_length_b   9.28296089
_cell_length_c   9.28296089
_cell_angle_alpha   90.00000000
_cell_angle_beta   90.00000000
_cell_angle_gamma   90.00000000
_symmetry_Int_Tables_number   1
_chemical_formula_structural   ScGa15Co3B
_chemical_formula_sum   'Sc1 Ga15 Co3 B1'
_cell_volume   292.47402142
_cell_formula_units_Z   1
loop_
 _symmetry_equiv_pos_site_id
 _symmetry_equiv_pos_as_xyz
  1  'x, y, z'
loop_
 _atom_site_type_symbol
 _atom_site_label
 _atom_site_symmetry_multiplicity
 _atom_site_fract_x
 _atom_site_fract_y
 _atom_site_fract_z
 _atom_site_occupancy
  Sc  Sc0  1  0.00000000  0.17587900  0.67587901  1
  Ga  Ga1  1  0.00000000  0.32412100  0.17587900  1
  Ga  Ga2  1  1.00000003  0.82412101  0.32412100  1
  Ga  Ga3  1  0.00000000  0.50000001  0.50000001  1
  Ga  Ga4  1  0.00000000  0.67587901  0.82412101  1
  Ga  Ga5  1  0.00000000  0.00000000  0.00000000  1
  B  B6  1  1.00000003  0.38072700  0.88072701  1
  Ga  Ga7  1  1.00000003  0.11927300  0.38072700  1
  Ga  Ga8  1  0.00000000  0.88072701  0.61927301  1
  Co  Co9  1  1.00000003  0.61927301  0.11927300  1
  Ga  Ga10  1  0.50000002  0.22003200  0.92737001  1
  Co  Co11  1  0.50000002  0.92737001  0.77996801  1
  Ga  Ga12  1  0.50000002  0.42737000  0.72003201  1
  Ga  Ga13  1  0.50000002  0.57263001  0.27996800  1
  Ga  Ga14  1  0.50000002  0.72003201  0.57263001  1
  Ga  Ga15  1  0.50000002  0.27996800  0.42737000  1
  Ga  Ga16  1  0.50000002  0.07263000  0.22003200  1
  Co  Co17  1  0.50000002  0.00000000  0.50000001  1
  Ga  Ga18  1  0.50000002  0.50000001  -0.00000000  1
  Ga  Ga19  1  0.50000002  0.77996801  0.07263000  1
