# generated using pymatgen
data_Ba5S5IBr3
_symmetry_space_group_name_H-M   'P 1'
_cell_length_a   8.59692860
_cell_length_b   8.59692860
_cell_length_c   8.59692860
_cell_angle_alpha   109.72842407
_cell_angle_beta   109.34277344
_cell_angle_gamma   109.34277344
_symmetry_Int_Tables_number   1
_chemical_formula_structural   Ba5S5IBr3
_chemical_formula_sum   'Ba5 S5 I1 Br3'
_cell_volume   489.10430748
_cell_formula_units_Z   1
loop_
 _symmetry_equiv_pos_site_id
 _symmetry_equiv_pos_as_xyz
  1  'x, y, z'
loop_
 _atom_site_type_symbol
 _atom_site_label
 _atom_site_symmetry_multiplicity
 _atom_site_fract_x
 _atom_site_fract_y
 _atom_site_fract_z
 _atom_site_occupancy
  Br  Br0  1  0.75604999  0.12268400  0.49141202  1
  S  S1  1  0.90131102  0.64131398  0.88706299  1
  I  I2  1  0.09868907  0.98575197  0.74000394  1
  S  S3  1  0.24395004  0.73536198  0.36663397  1
  S  S4  1  0.63127102  0.50858698  0.26463701  1
  S  S5  1  0.36872903  0.63336698  0.87731696  1
  Br  Br6  1  0.75425199  0.11293700  0.01424904  1
  S  S7  1  0.24574801  0.25999599  0.35868499  1
  Ba  Ba8  1  0.37366799  0.00591700  0.12154202  1
  Br  Br9  1  0.88437504  0.87845797  0.25212601  1
  Ba  Ba10  1  0.62633204  0.74787398  0.63224898  1
  Ba  Ba11  1  0.00000003  0.49999998  0.49999996  1
  Ba  Ba12  1  0.11562502  0.36775099  0.99408295  1
  Ba  Ba13  1  0.50000001  0.24999999  0.74999999  1
