# generated using pymatgen
data_Mg(GeO3)2
_symmetry_space_group_name_H-M   'P 1'
_cell_length_a   5.91721296
_cell_length_b   6.82917547
_cell_length_c   6.86529875
_cell_angle_alpha   83.62496948
_cell_angle_beta   74.53282166
_cell_angle_gamma   74.57968903
_symmetry_Int_Tables_number   1
_chemical_formula_structural   Mg(GeO3)2
_chemical_formula_sum   'Mg2 Ge4 O12'
_cell_volume   257.51144768
_cell_formula_units_Z   2
loop_
 _symmetry_equiv_pos_site_id
 _symmetry_equiv_pos_as_xyz
  1  'x, y, z'
loop_
 _atom_site_type_symbol
 _atom_site_label
 _atom_site_symmetry_multiplicity
 _atom_site_fract_x
 _atom_site_fract_y
 _atom_site_fract_z
 _atom_site_occupancy
  Ge  Ge0  1  0.25587493  0.79398701  0.61429699  1
  Ge  Ge1  1  0.24449496  0.38581000  0.20707600  1
  Ge  Ge2  1  0.75958392  0.61212600  0.79143800  1
  Ge  Ge3  1  0.74072895  0.20735900  0.38776001  1
  Mg  Mg4  1  0.24880693  0.91407001  0.08683600  1
  Mg  Mg5  1  0.75023096  0.08671200  0.91202101  1
  O  O6  1  0.64745091  0.80439901  0.95844400  1
  O  O7  1  0.85281896  0.03982100  0.19631402  1
  O  O8  1  0.77733694  0.38128500  0.90950900  1
  O  O9  1  0.72232996  0.09028400  0.61791601  1
  O  O10  1  0.13159893  0.96230001  0.80627698  1
  O  O11  1  0.36667497  0.19154900  0.04041201  1
  O  O12  1  0.55220093  0.65015400  0.63326400  1
  O  O13  1  0.94860793  0.36707900  0.34963002  1
  O  O14  1  0.05586495  0.62980100  0.64572699  1
  O  O15  1  0.44407095  0.35412000  0.37021900  1
  O  O16  1  0.27667192  0.91312701  0.38539699  1
  O  O17  1  0.22465195  0.61601800  0.08746300  1
