# generated using pymatgen
data_Ga
_symmetry_space_group_name_H-M   'P 1'
_cell_length_a   6.87119913
_cell_length_b   7.52802420
_cell_length_c   7.52802420
_cell_angle_alpha   90.00000000
_cell_angle_beta   90.00000000
_cell_angle_gamma   90.00000000
_symmetry_Int_Tables_number   1
_chemical_formula_structural   Ga
_chemical_formula_sum   Ga20
_cell_volume   389.39874499
_cell_formula_units_Z   20
loop_
 _symmetry_equiv_pos_site_id
 _symmetry_equiv_pos_as_xyz
  1  'x, y, z'
loop_
 _atom_site_type_symbol
 _atom_site_label
 _atom_site_symmetry_multiplicity
 _atom_site_fract_x
 _atom_site_fract_y
 _atom_site_fract_z
 _atom_site_occupancy
  Ga  Ga0  1  0.99999998  0.15865200  0.15865200  1
  Ga  Ga1  1  0.99999998  0.84134798  0.84134798  1
  Ga  Ga2  1  0.49999999  0.65865198  0.34134799  1
  Ga  Ga3  1  0.49999999  0.34134799  0.65865198  1
  Ga  Ga4  1  0.00000000  0.68598698  0.31401299  1
  Ga  Ga5  1  0.99999998  0.31401299  0.68598698  1
  Ga  Ga6  1  0.49999999  0.81401298  0.81401298  1
  Ga  Ga7  1  0.49999999  0.18598700  0.18598700  1
  Ga  Ga8  1  0.25000000  0.49999999  -0.00000000  1
  Ga  Ga9  1  0.74999999  0.49999999  -0.00000000  1
  Ga  Ga10  1  0.25000000  0.00000000  0.49999999  1
  Ga  Ga11  1  0.74999999  0.00000000  0.49999999  1
  Ga  Ga12  1  0.22280500  0.37162399  0.37162399  1
  Ga  Ga13  1  0.77719499  0.62837598  0.62837598  1
  Ga  Ga14  1  0.22280500  0.62837598  0.62837598  1
  Ga  Ga15  1  0.72280499  0.87162398  0.12837600  1
  Ga  Ga16  1  0.27719499  0.87162398  0.12837600  1
  Ga  Ga17  1  0.77719499  0.37162399  0.37162399  1
  Ga  Ga18  1  0.27719499  0.12837600  0.87162398  1
  Ga  Ga19  1  0.72280499  0.12837600  0.87162398  1
