# generated using pymatgen
data_Cr3O4
_symmetry_space_group_name_H-M   'P 1'
_cell_length_a   6.07719517
_cell_length_b   6.08560419
_cell_length_c   6.09711409
_cell_angle_alpha   119.49611664
_cell_angle_beta   119.69625854
_cell_angle_gamma   90.45951843
_symmetry_Int_Tables_number   1
_chemical_formula_structural   Cr3O4
_chemical_formula_sum   'Cr6 O8'
_cell_volume   160.74549925
_cell_formula_units_Z   2
loop_
 _symmetry_equiv_pos_site_id
 _symmetry_equiv_pos_as_xyz
  1  'x, y, z'
loop_
 _atom_site_type_symbol
 _atom_site_label
 _atom_site_symmetry_multiplicity
 _atom_site_fract_x
 _atom_site_fract_y
 _atom_site_fract_z
 _atom_site_occupancy
  O  O0  1  0.00048200  0.00030500  0.50047299  1
  O  O1  1  0.00021897  0.50006300  0.50074697  1
  O  O2  1  0.99945094  0.49966100  0.99905888  1
  O  O3  1  0.49975395  0.49907400  0.99907692  1
  O  O4  1  0.37464898  0.12413400  0.24947696  1
  O  O5  1  0.62491793  0.87533400  0.75000090  1
  Cr  Cr6  1  0.78523496  0.25726000  0.52499592  1
  O  O7  1  0.75973093  0.73772400  0.47391990  1
  O  O8  1  0.76317696  0.28514700  0.02919993  1
  Cr  Cr9  1  0.76228493  0.73790100  0.02245891  1
  Cr  Cr10  1  0.23866995  0.71555200  0.97321593  1
  Cr  Cr11  1  0.23865698  0.26513400  0.98116595  1
  Cr  Cr12  1  0.21454695  0.74026800  0.47240894  1
  Cr  Cr13  1  0.23822498  0.26244600  0.52379896  1
