# generated using pymatgen
data_GaTe2
_symmetry_space_group_name_H-M   'P 1'
_cell_length_a   6.56473684
_cell_length_b   6.56473684
_cell_length_c   6.56473684
_cell_angle_alpha   90.00000000
_cell_angle_beta   90.00000000
_cell_angle_gamma   90.00000000
_symmetry_Int_Tables_number   1
_chemical_formula_structural   GaTe2
_chemical_formula_sum   'Ga4 Te8'
_cell_volume   282.91238791
_cell_formula_units_Z   4
loop_
 _symmetry_equiv_pos_site_id
 _symmetry_equiv_pos_as_xyz
  1  'x, y, z'
loop_
 _atom_site_type_symbol
 _atom_site_label
 _atom_site_symmetry_multiplicity
 _atom_site_fract_x
 _atom_site_fract_y
 _atom_site_fract_z
 _atom_site_occupancy
  Te  Te0  1  0.37284401  0.37284401  0.37284401  1
  Te  Te1  1  0.12715600  0.62715601  0.87284402  1
  Te  Te2  1  0.87284402  0.12715600  0.62715601  1
  Te  Te3  1  0.62715601  0.87284402  0.12715600  1
  Ga  Ga4  1  0.62715601  0.62715601  0.62715601  1
  Te  Te5  1  0.87284402  0.37284401  0.12715600  1
  Te  Te6  1  0.12715600  0.87284402  0.37284401  1
  Te  Te7  1  0.37284401  0.12715600  0.87284402  1
  Te  Te8  1  0.00000000  0.00000000  0.00000000  1
  Ga  Ga9  1  0.50000001  0.00000000  0.50000001  1
  Ga  Ga10  1  0.50000001  0.50000001  -0.00000000  1
  Ga  Ga11  1  0.00000000  0.50000001  0.50000001  1
