# generated using pymatgen
data_Ba2Zn4P2NO
_symmetry_space_group_name_H-M   'P 1'
_cell_length_a   3.95928597
_cell_length_b   5.80737638
_cell_length_c   7.31729078
_cell_angle_alpha   90.00000000
_cell_angle_beta   90.00000000
_cell_angle_gamma   109.93075562
_symmetry_Int_Tables_number   1
_chemical_formula_structural   Ba2Zn4P2NO
_chemical_formula_sum   'Ba2 Zn4 P2 N1 O1'
_cell_volume   158.16983135
_cell_formula_units_Z   1
loop_
 _symmetry_equiv_pos_site_id
 _symmetry_equiv_pos_as_xyz
  1  'x, y, z'
loop_
 _atom_site_type_symbol
 _atom_site_label
 _atom_site_symmetry_multiplicity
 _atom_site_fract_x
 _atom_site_fract_y
 _atom_site_fract_z
 _atom_site_occupancy
  Ba  Ba0  1  0.45642200  0.91284397  0.75000002  1
  Ba  Ba1  1  0.54357800  0.08715600  0.25000001  1
  Zn  Zn2  1  0.17381500  0.34762999  0.93918303  1
  Zn  Zn3  1  0.82618500  0.65236998  0.06081700  1
  Zn  Zn4  1  0.82618500  0.65236998  0.43918301  1
  Zn  Zn5  1  0.17381500  0.34762999  0.56081702  1
  P  P6  1  0.73434200  0.46868398  0.75000002  1
  P  P7  1  0.26565800  0.53131598  0.25000001  1
  O  O8  1  0.00000000  0.00000000  0.00000000  1
  N  N9  1  0.00000000  0.00000000  0.50000001  1
