# generated using pymatgen
data_Ba(Ge2O5)2
_symmetry_space_group_name_H-M   'P 1'
_cell_length_a   3.71312499
_cell_length_b   6.16313982
_cell_length_c   9.80801868
_cell_angle_alpha   92.18423462
_cell_angle_beta   90.00000000
_cell_angle_gamma   107.53189087
_symmetry_Int_Tables_number   1
_chemical_formula_structural   Ba(Ge2O5)2
_chemical_formula_sum   'Ba1 Ge4 O10'
_cell_volume   213.85475044
_cell_formula_units_Z   1
loop_
 _symmetry_equiv_pos_site_id
 _symmetry_equiv_pos_as_xyz
  1  'x, y, z'
loop_
 _atom_site_type_symbol
 _atom_site_label
 _atom_site_symmetry_multiplicity
 _atom_site_fract_x
 _atom_site_fract_y
 _atom_site_fract_z
 _atom_site_occupancy
  Ba  Ba0  1  0.59419502  0.18838901  0.47583502  1
  Ge  Ge1  1  0.94005808  0.88011705  0.15402304  1
  Ge  Ge2  1  0.06075601  0.12151201  0.84610703  1
  Ge  Ge3  1  0.23728404  0.47456903  0.15661002  1
  Ge  Ge4  1  0.76408705  0.52817403  0.84451005  1
  O  O5  1  0.40449207  0.80898404  0.12617003  1
  O  O6  1  0.59579002  0.19158001  0.87425704  1
  O  O7  1  0.22319104  0.44638202  0.32180203  1
  O  O8  1  0.77144805  0.54289703  0.67977404  1
  O  O9  1  0.08188502  0.16377001  0.09426101  1
  O  O10  1  0.91623808  0.83247604  0.90399506  1
  O  O11  1  0.95948309  0.91896605  0.32021604  1
  O  O12  1  0.04456401  0.08912900  0.67950503  1
  O  O13  1  0.76449505  0.52898903  0.11068802  1
  O  O14  1  0.23553404  0.47106702  0.88854405  1
