# generated using pymatgen
data_BaLa3O6
_symmetry_space_group_name_H-M   'P 1'
_cell_length_a   5.90234709
_cell_length_b   6.85250902
_cell_length_c   8.39637947
_cell_angle_alpha   90.00000000
_cell_angle_beta   90.00000000
_cell_angle_gamma   90.00000000
_symmetry_Int_Tables_number   1
_chemical_formula_structural   BaLa3O6
_chemical_formula_sum   'Ba2 La6 O12'
_cell_volume   339.59901251
_cell_formula_units_Z   2
loop_
 _symmetry_equiv_pos_site_id
 _symmetry_equiv_pos_as_xyz
  1  'x, y, z'
loop_
 _atom_site_type_symbol
 _atom_site_label
 _atom_site_symmetry_multiplicity
 _atom_site_fract_x
 _atom_site_fract_y
 _atom_site_fract_z
 _atom_site_occupancy
  Ba  Ba0  1  0.56548299  0.37629900  0.74999996  1
  La  La1  1  0.43451699  0.62370100  0.24999999  1
  La  La2  1  0.06548300  0.12370100  0.24999999  1
  Ba  Ba3  1  0.93451699  0.87629900  0.74999996  1
  La  La4  1  0.00000000  0.50000000  -0.00000000  1
  La  La5  1  0.00000000  0.50000000  0.49999997  1
  La  La6  1  0.49999999  0.00000000  0.49999997  1
  La  La7  1  0.49999999  0.00000000  -0.00000000  1
  O  O8  1  0.83934799  0.18368300  0.55028597  1
  O  O9  1  0.16065200  0.81631700  0.05028600  1
  O  O10  1  0.33934799  0.31631700  0.05028600  1
  O  O11  1  0.66065199  0.68368300  0.55028597  1
  O  O12  1  0.83934799  0.18368300  0.94971395  1
  O  O13  1  0.16065200  0.81631700  0.44971397  1
  O  O14  1  0.33934799  0.31631700  0.44971397  1
  O  O15  1  0.66065199  0.68368300  0.94971395  1
  O  O16  1  0.85728999  0.46439900  0.24999999  1
  O  O17  1  0.14271000  0.53560100  0.74999996  1
  O  O18  1  0.35728999  0.03560100  0.74999996  1
  O  O19  1  0.64270999  0.96439900  0.24999999  1
