# generated using pymatgen
data_Ga
_symmetry_space_group_name_H-M   'P 1'
_cell_length_a   5.19658518
_cell_length_b   7.56019592
_cell_length_c   7.56019688
_cell_angle_alpha   119.99999237
_cell_angle_beta   90.00000000
_cell_angle_gamma   90.00000000
_symmetry_Int_Tables_number   1
_chemical_formula_structural   Ga
_chemical_formula_sum   Ga16
_cell_volume   257.22600397
_cell_formula_units_Z   16
loop_
 _symmetry_equiv_pos_site_id
 _symmetry_equiv_pos_as_xyz
  1  'x, y, z'
loop_
 _atom_site_type_symbol
 _atom_site_label
 _atom_site_symmetry_multiplicity
 _atom_site_fract_x
 _atom_site_fract_y
 _atom_site_fract_z
 _atom_site_occupancy
  Ga  Ga0  1  0.74999997  0.74466898  0.99999998  1
  Ga  Ga1  1  0.24999999  0.25533099  -0.00000002  1
  Ga  Ga2  1  0.74999997  0.25533099  0.25533099  1
  Ga  Ga3  1  0.24999999  0.74466898  0.74466897  1
  Ga  Ga4  1  0.74999997  0.99999998  0.74466895  1
  Ga  Ga5  1  0.24999999  0.99999998  0.25533094  1
  Ga  Ga6  1  0.00000000  0.33333333  0.66666666  1
  Ga  Ga7  1  0.00000000  0.66666665  0.33333330  1
  Ga  Ga8  1  0.49999998  0.66666665  0.33333330  1
  Ga  Ga9  1  0.49999998  0.33333333  0.66666666  1
  Ga  Ga10  1  0.74999997  0.38510699  -0.00000002  1
  Ga  Ga11  1  0.24999999  0.61489299  -0.00000004  1
  Ga  Ga12  1  0.74999997  0.61489299  0.61489298  1
  Ga  Ga13  1  0.24999999  0.38510699  0.38510698  1
  Ga  Ga14  1  0.74999997  0.99999998  0.38510695  1
  Ga  Ga15  1  0.24999999  0.99999998  0.61489295  1
