# generated using pymatgen
data_PW
_symmetry_space_group_name_H-M   'P 1'
_cell_length_a   3.33495259
_cell_length_b   5.88031387
_cell_length_c   5.88031387
_cell_angle_alpha   116.51244354
_cell_angle_beta   100.89713287
_cell_angle_gamma   100.89713287
_symmetry_Int_Tables_number   1
_chemical_formula_structural   PW
_chemical_formula_sum   'P3 W3'
_cell_volume   96.29775448
_cell_formula_units_Z   3
loop_
 _symmetry_equiv_pos_site_id
 _symmetry_equiv_pos_as_xyz
  1  'x, y, z'
loop_
 _atom_site_type_symbol
 _atom_site_label
 _atom_site_symmetry_multiplicity
 _atom_site_fract_x
 _atom_site_fract_y
 _atom_site_fract_z
 _atom_site_occupancy
  P  P0  1  0.99241397  1.00000000  0.25593699  1
  W  W1  1  0.73647698  0.74406300  0.74406299  1
  W  W2  1  0.99241397  0.25593700  -0.00000000  1
  P  P3  1  0.27563499  0.00000000  0.66021000  1
  P  P4  1  0.61542498  0.33979000  0.33979000  1
  W  W5  1  0.27563499  0.66021000  -0.00000001  1
