# generated using pymatgen
data_Cu4AgPClO4F
_symmetry_space_group_name_H-M   'P 1'
_cell_length_a   2.84139109
_cell_length_b   4.22382021
_cell_length_c   9.96367741
_cell_angle_alpha   90.00000000
_cell_angle_beta   90.00000000
_cell_angle_gamma   90.00000000
_symmetry_Int_Tables_number   1
_chemical_formula_structural   Cu4AgPClO4F
_chemical_formula_sum   'Cu4 Ag1 P1 Cl1 O4 F1'
_cell_volume   119.57932443
_cell_formula_units_Z   1
loop_
 _symmetry_equiv_pos_site_id
 _symmetry_equiv_pos_as_xyz
  1  'x, y, z'
loop_
 _atom_site_type_symbol
 _atom_site_label
 _atom_site_symmetry_multiplicity
 _atom_site_fract_x
 _atom_site_fract_y
 _atom_site_fract_z
 _atom_site_occupancy
  Ag  Ag0  1  0.24999999  0.21023299  0.55285798  1
  Cu  Cu1  1  0.24999999  0.28976699  0.05285800  1
  Cl  Cl2  1  0.74999998  0.78976696  0.44714198  1
  F  F3  1  0.74999998  0.71023296  0.94714196  1
  O  O4  1  0.24999999  0.72540096  0.71615097  1
  Cu  Cu5  1  0.24999999  0.77459896  0.21615099  1
  Cu  Cu6  1  0.74999998  0.27459899  0.28384899  1
  O  O7  1  0.74999998  0.22540099  0.78384897  1
  Cu  Cu8  1  0.24999999  0.43335598  0.85581897  1
  O  O9  1  0.24999999  0.06664400  0.35581899  1
  O  O10  1  0.74999998  0.56664397  0.14418099  1
  P  P11  1  0.74999998  0.93335595  0.64418097  1
