# generated using pymatgen
data_Cs3F
_symmetry_space_group_name_H-M   'P 1'
_cell_length_a   6.60406780
_cell_length_b   8.00802994
_cell_length_c   8.00803089
_cell_angle_alpha   60.00000381
_cell_angle_beta   90.00000000
_cell_angle_gamma   90.00000000
_symmetry_Int_Tables_number   1
_chemical_formula_structural   Cs3F
_chemical_formula_sum   'Cs6 F2'
_cell_volume   366.76982635
_cell_formula_units_Z   2
loop_
 _symmetry_equiv_pos_site_id
 _symmetry_equiv_pos_as_xyz
  1  'x, y, z'
loop_
 _atom_site_type_symbol
 _atom_site_label
 _atom_site_symmetry_multiplicity
 _atom_site_fract_x
 _atom_site_fract_y
 _atom_site_fract_z
 _atom_site_occupancy
  Cs  Cs0  1  0.00000000  0.00000000  0.00000000  1
  Cs  Cs1  1  0.50000001  0.00000000  0.00000000  1
  Cs  Cs2  1  0.75000002  0.00000000  0.69782397  1
  Cs  Cs3  1  0.25000001  0.69782399  0.99999998  1
  Cs  Cs4  1  0.25000001  0.30217600  0.69782398  1
  Cs  Cs5  1  0.75000002  0.69782399  0.30217601  1
  F  F6  1  0.75000002  0.30217600  0.00000001  1
  F  F7  1  0.25000001  0.00000000  0.30217599  1
