# generated using pymatgen
data_Ga
_symmetry_space_group_name_H-M   'P 1'
_cell_length_a   5.43335104
_cell_length_b   7.84062815
_cell_length_c   7.84062719
_cell_angle_alpha   119.99009705
_cell_angle_beta   89.99268341
_cell_angle_gamma   89.99268341
_symmetry_Int_Tables_number   1
_chemical_formula_structural   Ga
_chemical_formula_sum   Ga17
_cell_volume   289.29662918
_cell_formula_units_Z   17
loop_
 _symmetry_equiv_pos_site_id
 _symmetry_equiv_pos_as_xyz
  1  'x, y, z'
loop_
 _atom_site_type_symbol
 _atom_site_label
 _atom_site_symmetry_multiplicity
 _atom_site_fract_x
 _atom_site_fract_y
 _atom_site_fract_z
 _atom_site_occupancy
  Ga  Ga0  1  0.23010101  0.73597200  0.73597203  1
  Ga  Ga1  1  0.23008100  0.26422800  0.00018001  1
  Ga  Ga2  1  0.23008100  0.00018000  0.26422800  1
  Ga  Ga3  1  0.76995100  0.26409700  0.26409702  1
  Ga  Ga4  1  0.76991101  0.73599900  0.00018103  1
  Ga  Ga5  1  0.76991100  0.00018100  0.73599901  1
  Ga  Ga6  1  0.49998701  0.66671100  0.33337769  1
  Ga  Ga7  1  0.49998700  0.33333333  0.66671635  1
  Ga  Ga8  1  0.99998700  0.33307100  0.66640436  1
  Ga  Ga9  1  0.99998701  0.66641300  0.33307970  1
  Ga  Ga10  1  0.25540600  0.39074400  0.39074402  1
  Ga  Ga11  1  0.25535501  0.60887000  0.00013902  1
  Ga  Ga12  1  0.25535500  0.00013900  0.60887001  1
  Ga  Ga13  1  0.74453301  0.60877200  0.60877203  1
  Ga  Ga14  1  0.74466500  0.39100200  0.00009702  1
  Ga  Ga15  1  0.74466500  0.00009700  0.39100201  1
  Ga  Ga16  1  0.50003600  0.00019600  0.00019600  1
