# generated using pymatgen
data_Li4(WO2)5
_symmetry_space_group_name_H-M   'P 1'
_cell_length_a   5.15064955
_cell_length_b   5.16522121
_cell_length_c   8.05595493
_cell_angle_alpha   96.09089661
_cell_angle_beta   108.64354706
_cell_angle_gamma   70.61502075
_symmetry_Int_Tables_number   1
_chemical_formula_structural   Li4(WO2)5
_chemical_formula_sum   'Li4 W5 O10'
_cell_volume   191.56372047
_cell_formula_units_Z   1
loop_
 _symmetry_equiv_pos_site_id
 _symmetry_equiv_pos_as_xyz
  1  'x, y, z'
loop_
 _atom_site_type_symbol
 _atom_site_label
 _atom_site_symmetry_multiplicity
 _atom_site_fract_x
 _atom_site_fract_y
 _atom_site_fract_z
 _atom_site_occupancy
  Li  Li0  1  0.30163102  0.49999999  0.60326302  1
  W  W1  1  0.00246800  0.00000000  0.00493500  1
  Li  Li2  1  0.40275800  0.00000000  0.80551603  1
  Li  Li3  1  0.79551200  0.00000000  0.59102302  1
  Li  Li4  1  0.19852100  0.00000000  0.39704302  1
  W  W5  1  0.10209002  0.49999999  0.20418001  1
  W  W6  1  0.49954302  0.49999999  0.99908504  1
  W  W7  1  0.69878602  0.49999999  0.39757201  1
  W  W8  1  0.89918502  0.49999999  0.79836903  1
  O  O9  1  0.65698301  0.27129799  0.80987403  1
  O  O10  1  0.02111801  0.27071599  0.59672803  1
  O  O11  1  0.44889401  0.28067199  0.39863601  1
  O  O12  1  0.84674201  0.27804099  0.20048000  1
  O  O13  1  0.23237501  0.27585799  0.99378804  1
  O  O14  1  0.94974302  0.71932798  0.39863601  1
  O  O15  1  0.35373903  0.72195898  0.20048000  1
  O  O16  1  0.76141402  0.72414198  0.99378804  1
  O  O17  1  0.15289103  0.72870198  0.80987403  1
  O  O18  1  0.57561003  0.72928398  0.59672802  1
