# generated using pymatgen
data_Ba3Mg
_symmetry_space_group_name_H-M   'P 1'
_cell_length_a   5.88431787
_cell_length_b   5.88431787
_cell_length_c   7.25777721
_cell_angle_alpha   113.91495514
_cell_angle_beta   113.91495514
_cell_angle_gamma   90.00000000
_symmetry_Int_Tables_number   1
_chemical_formula_structural   Ba3Mg
_chemical_formula_sum   'Ba3 Mg1'
_cell_volume   205.90416529
_cell_formula_units_Z   1
loop_
 _symmetry_equiv_pos_site_id
 _symmetry_equiv_pos_as_xyz
  1  'x, y, z'
loop_
 _atom_site_type_symbol
 _atom_site_label
 _atom_site_symmetry_multiplicity
 _atom_site_fract_x
 _atom_site_fract_y
 _atom_site_fract_z
 _atom_site_occupancy
  Ba  Ba0  1  0.75000003  0.25000001  0.50000002  1
  Ba  Ba1  1  0.25000003  0.75000003  0.50000003  1
  Ba  Ba2  1  0.50000003  0.50000002  0.00000003  1
  Mg  Mg3  1  0.00000000  0.00000000  0.00000000  1
