# generated using pymatgen
data_TbCoGe3
_symmetry_space_group_name_H-M   'P 1'
_cell_length_a   4.04606485
_cell_length_b   4.08322001
_cell_length_c   10.95820522
_cell_angle_alpha   79.26255035
_cell_angle_beta   90.00000000
_cell_angle_gamma   90.00000000
_symmetry_Int_Tables_number   1
_chemical_formula_structural   TbCoGe3
_chemical_formula_sum   'Tb2 Co2 Ge6'
_cell_volume   177.87042090
_cell_formula_units_Z   2
loop_
 _symmetry_equiv_pos_site_id
 _symmetry_equiv_pos_as_xyz
  1  'x, y, z'
loop_
 _atom_site_type_symbol
 _atom_site_label
 _atom_site_symmetry_multiplicity
 _atom_site_fract_x
 _atom_site_fract_y
 _atom_site_fract_z
 _atom_site_occupancy
  Tb  Tb0  1  0.50000002  0.16898100  0.66203802  1
  Tb  Tb1  1  0.50000002  0.83101901  0.33796200  1
  Co  Co2  1  0.00000000  0.38839500  0.22321000  1
  Co  Co3  1  0.00000000  0.61160500  0.77679002  1
  Ge  Ge4  1  0.00000000  0.28289200  0.43421601  1
  Ge  Ge5  1  0.00000000  0.71710801  0.56578401  1
  Ge  Ge6  1  0.50000002  0.44258300  0.11483400  1
  Ge  Ge7  1  0.50000002  0.55741700  0.88516602  1
  Ge  Ge8  1  0.00000000  0.05770400  0.88459203  1
  Ge  Ge9  1  1.00000004  0.94229601  0.11540799  1
