# generated using pymatgen
data_TbGa3
_symmetry_space_group_name_H-M   'P 1'
_cell_length_a   4.57088089
_cell_length_b   6.30065393
_cell_length_c   6.30065441
_cell_angle_alpha   120.00000000
_cell_angle_beta   90.00000000
_cell_angle_gamma   90.00000000
_symmetry_Int_Tables_number   1
_chemical_formula_structural   TbGa3
_chemical_formula_sum   'Tb2 Ga6'
_cell_volume   157.14545399
_cell_formula_units_Z   2
loop_
 _symmetry_equiv_pos_site_id
 _symmetry_equiv_pos_as_xyz
  1  'x, y, z'
loop_
 _atom_site_type_symbol
 _atom_site_label
 _atom_site_symmetry_multiplicity
 _atom_site_fract_x
 _atom_site_fract_y
 _atom_site_fract_z
 _atom_site_occupancy
  Tb  Tb0  1  0.25000001  0.66666669  0.33333337  1
  Tb  Tb1  1  0.75000002  0.33333335  0.66666669  1
  Ga  Ga2  1  0.75000002  0.85209603  0.14790305  1
  Ga  Ga3  1  0.75000002  0.29580701  0.14790302  1
  Ga  Ga4  1  0.75000002  0.85209603  0.70419205  1
  Ga  Ga5  1  0.25000001  0.14790401  0.85209702  1
  Ga  Ga6  1  0.25000001  0.70419303  0.85209705  1
  Ga  Ga7  1  0.25000001  0.14790401  0.29580801  1
