# generated using pymatgen
data_CsMoS
_symmetry_space_group_name_H-M   'P 1'
_cell_length_a   3.43332791
_cell_length_b   3.43332767
_cell_length_c   6.39995003
_cell_angle_alpha   90.00000000
_cell_angle_beta   90.00000000
_cell_angle_gamma   120.00000000
_symmetry_Int_Tables_number   1
_chemical_formula_structural   CsMoS
_chemical_formula_sum   'Cs1 Mo1 S1'
_cell_volume   65.33377510
_cell_formula_units_Z   1
loop_
 _symmetry_equiv_pos_site_id
 _symmetry_equiv_pos_as_xyz
  1  'x, y, z'
loop_
 _atom_site_type_symbol
 _atom_site_label
 _atom_site_symmetry_multiplicity
 _atom_site_fract_x
 _atom_site_fract_y
 _atom_site_fract_z
 _atom_site_occupancy
  Mo  Mo0  1  0.33333331  0.66666667  0.98940300  1
  Cs  Cs1  1  0.66666667  0.33333334  0.25609200  1
  S  S2  1  0.00000000  0.00000000  0.75450500  1
