# generated using pymatgen
data_Ba4Mn3WO12
_symmetry_space_group_name_H-M   'P 1'
_cell_length_a   5.57918215
_cell_length_b   5.67150736
_cell_length_c   9.66100311
_cell_angle_alpha   106.54118347
_cell_angle_beta   90.00000000
_cell_angle_gamma   119.46294403
_symmetry_Int_Tables_number   1
_chemical_formula_structural   Ba4Mn3WO12
_chemical_formula_sum   'Ba4 Mn3 W1 O12'
_cell_volume   251.53064808
_cell_formula_units_Z   1
loop_
 _symmetry_equiv_pos_site_id
 _symmetry_equiv_pos_as_xyz
  1  'x, y, z'
loop_
 _atom_site_type_symbol
 _atom_site_label
 _atom_site_symmetry_multiplicity
 _atom_site_fract_x
 _atom_site_fract_y
 _atom_site_fract_z
 _atom_site_occupancy
  Ba  Ba0  1  0.13477299  0.26954601  0.37807401  1
  Ba  Ba1  1  0.63896597  0.27793201  0.87979701  1
  W  W2  1  0.50553699  0.01107400  0.50213600  1
  Mn  Mn3  1  0.77163496  0.54327001  0.25647301  1
  Mn  Mn4  1  0.27189498  0.54379001  0.75828701  1
  Mn  Mn5  1  0.00438000  0.00876000  0.00073200  1
  Ba  Ba6  1  0.43246196  0.86492402  0.14227901  1
  Ba  Ba7  1  0.93315495  0.86631002  0.64564401  1
  O  O8  1  0.86628795  0.73257602  0.12068001  1
  O  O9  1  0.60513398  0.21026800  0.36227801  1
  O  O10  1  0.36960597  0.73921202  0.62457601  1
  O  O11  1  0.10535499  0.21071000  0.86299401  1
  O  O12  1  0.11518497  0.73251702  0.87293001  1
  O  O13  1  0.84498397  0.21058800  0.11909900  1
  O  O14  1  0.61934696  0.73757502  0.37273501  1
  O  O15  1  0.34837698  0.21133100  0.62346101  1
  O  O16  1  0.61733196  0.73251702  0.87293001  1
  O  O17  1  0.36560398  0.21058800  0.11909900  1
  O  O18  1  0.11822797  0.73757502  0.37273501  1
  O  O19  1  0.86295397  0.21133100  0.62346101  1
