# generated using pymatgen
data_Ba4In3F12
_symmetry_space_group_name_H-M   'P 1'
_cell_length_a   4.28029394
_cell_length_b   4.28029394
_cell_length_c   16.71623993
_cell_angle_alpha   90.00000000
_cell_angle_beta   90.00000000
_cell_angle_gamma   90.00000000
_symmetry_Int_Tables_number   1
_chemical_formula_structural   Ba4In3F12
_chemical_formula_sum   'Ba4 In3 F12'
_cell_volume   306.25683135
_cell_formula_units_Z   1
loop_
 _symmetry_equiv_pos_site_id
 _symmetry_equiv_pos_as_xyz
  1  'x, y, z'
loop_
 _atom_site_type_symbol
 _atom_site_label
 _atom_site_symmetry_multiplicity
 _atom_site_fract_x
 _atom_site_fract_y
 _atom_site_fract_z
 _atom_site_occupancy
  Ba  Ba0  1  0.00000000  0.00000000  0.87988500  1
  F  F1  1  0.00000000  0.00000000  0.12011500  1
  Ba  Ba2  1  0.00000000  0.00000000  0.37391900  1
  Ba  Ba3  1  0.00000000  0.00000000  0.62608100  1
  In  In4  1  0.50000001  0.50000001  0.23925800  1
  In  In5  1  0.50000001  0.50000001  0.50000000  1
  In  In6  1  0.50000001  0.50000001  0.76074200  1
  F  F7  1  0.50000001  0.50000001  0.88509200  1
  F  F8  1  0.50000001  0.50000001  0.11490800  1
  F  F9  1  0.50000001  0.50000001  0.37094700  1
  F  F10  1  0.50000001  0.50000001  0.62905300  1
  F  F11  1  0.50000001  0.00000000  -0.00000000  1
  F  F12  1  0.50000001  0.00000000  0.24660100  1
  F  F13  1  0.50000001  0.00000000  0.50000000  1
  F  F14  1  0.50000001  0.00000000  0.75339900  1
  Ba  Ba15  1  0.00000000  0.50000001  -0.00000000  1
  F  F16  1  0.00000000  0.50000001  0.24660100  1
  F  F17  1  0.00000000  0.50000001  0.50000000  1
  F  F18  1  0.00000000  0.50000001  0.75339900  1
