# generated using pymatgen
data_BaLa3(CrS3)4
_symmetry_space_group_name_H-M   'P 1'
_cell_length_a   5.85010481
_cell_length_b   8.21465969
_cell_length_c   8.21465969
_cell_angle_alpha   93.07804871
_cell_angle_beta   110.14133453
_cell_angle_gamma   110.14133453
_symmetry_Int_Tables_number   1
_chemical_formula_structural   BaLa3(CrS3)4
_chemical_formula_sum   'Ba1 La3 Cr4 S12'
_cell_volume   341.25182841
_cell_formula_units_Z   1
loop_
 _symmetry_equiv_pos_site_id
 _symmetry_equiv_pos_as_xyz
  1  'x, y, z'
loop_
 _atom_site_type_symbol
 _atom_site_label
 _atom_site_symmetry_multiplicity
 _atom_site_fract_x
 _atom_site_fract_y
 _atom_site_fract_z
 _atom_site_occupancy
  Ba  Ba0  1  0.23403404  0.87082205  0.59769302  1
  La  La1  1  0.26596602  0.40230702  0.12917800  1
  La  La2  1  0.76596603  0.12917801  0.40230703  1
  La  La3  1  0.73403405  0.59769304  0.87082205  1
  Cr  Cr4  1  0.38374202  0.26000802  0.53681103  1
  S  S5  1  0.25000001  0.00343700  0.99656306  1
  S  S6  1  0.75000006  0.99656306  0.00343699  1
  Cr  Cr7  1  0.11625802  0.46318903  0.73999203  1
  Cr  Cr8  1  0.61625805  0.73999205  0.46318902  1
  Cr  Cr9  1  0.88374205  0.53681103  0.26000802  1
  S  S10  1  0.75000003  0.23053201  0.76946805  1
  S  S11  1  0.25000003  0.76946805  0.23053200  1
  S  S12  1  0.75000005  0.77899205  0.22100801  1
  S  S13  1  0.25000002  0.22100801  0.77899204  1
  S  S14  1  0.66703003  0.25837202  0.06872601  1
  S  S15  1  0.25000003  0.50610103  0.49389902  1
  S  S16  1  0.75000004  0.49389903  0.50610103  1
  S  S17  1  0.16703001  0.06872600  0.25837202  1
  S  S18  1  0.33297004  0.74162805  0.93127404  1
  S  S19  1  0.83297006  0.93127406  0.74162804  1
