# generated using pymatgen
data_Co3B
_symmetry_space_group_name_H-M   'P 1'
_cell_length_a   4.36349487
_cell_length_b   5.40616894
_cell_length_c   6.66140079
_cell_angle_alpha   90.00000000
_cell_angle_beta   90.00000000
_cell_angle_gamma   90.00000000
_symmetry_Int_Tables_number   1
_chemical_formula_structural   Co3B
_chemical_formula_sum   'Co12 B4'
_cell_volume   157.14104881
_cell_formula_units_Z   4
loop_
 _symmetry_equiv_pos_site_id
 _symmetry_equiv_pos_as_xyz
  1  'x, y, z'
loop_
 _atom_site_type_symbol
 _atom_site_label
 _atom_site_symmetry_multiplicity
 _atom_site_fract_x
 _atom_site_fract_y
 _atom_site_fract_z
 _atom_site_occupancy
  Co  Co0  1  0.61799002  0.97987101  0.25000001  1
  Co  Co1  1  0.64855602  0.67581401  0.55602402  1
  Co  Co2  1  0.64855602  0.67581401  0.94397603  1
  Co  Co3  1  0.85144402  0.17581400  0.55602402  1
  Co  Co4  1  0.85144402  0.17581400  0.94397603  1
  Co  Co5  1  0.88201003  0.47987101  0.25000001  1
  Co  Co6  1  0.11799000  0.52012901  0.75000002  1
  Co  Co7  1  0.14855600  0.82418601  0.05602400  1
  Co  Co8  1  0.14855600  0.82418601  0.44397601  1
  Co  Co9  1  0.35144401  0.32418600  0.05602400  1
  Co  Co10  1  0.35144401  0.32418600  0.44397601  1
  Co  Co11  1  0.38201001  0.02012900  0.75000002  1
  B  B12  1  0.57450902  0.38197200  0.75000002  1
  B  B13  1  0.92549103  0.88197201  0.75000002  1
  B  B14  1  0.07450900  0.11802800  0.25000001  1
  B  B15  1  0.42549101  0.61802801  0.25000001  1
