# generated using pymatgen
data_Li2GaSi2O9
_symmetry_space_group_name_H-M   'P 1'
_cell_length_a   5.08473206
_cell_length_b   5.21301508
_cell_length_c   6.73169136
_cell_angle_alpha   90.00000000
_cell_angle_beta   89.69966125
_cell_angle_gamma   90.00000000
_symmetry_Int_Tables_number   1
_chemical_formula_structural   Li2GaSi2O9
_chemical_formula_sum   'Li2 Ga1 Si2 O9'
_cell_volume   178.43304330
_cell_formula_units_Z   1
loop_
 _symmetry_equiv_pos_site_id
 _symmetry_equiv_pos_as_xyz
  1  'x, y, z'
loop_
 _atom_site_type_symbol
 _atom_site_label
 _atom_site_symmetry_multiplicity
 _atom_site_fract_x
 _atom_site_fract_y
 _atom_site_fract_z
 _atom_site_occupancy
  Li  Li0  1  0.51128399  0.68108799  0.99704104  1
  Li  Li1  1  0.01128400  0.31891200  0.49704101  1
  O  O2  1  0.01453400  0.32211500  0.99505702  1
  Ga  Ga3  1  0.51453399  0.67788499  0.49505703  1
  Si  Si4  1  0.01426100  0.81462299  0.74721501  1
  Si  Si5  1  0.51426099  0.18537700  0.24721502  1
  O  O6  1  0.89782899  0.66399299  0.94412605  1
  O  O7  1  0.95397899  0.12373500  0.76059405  1
  O  O8  1  0.33414400  0.76167799  0.73568503  1
  O  O9  1  0.87925199  0.68339599  0.55008804  1
  O  O10  1  0.39782900  0.33600699  0.44412602  1
  O  O11  1  0.45397899  0.87626499  0.26059402  1
  O  O12  1  0.83414399  0.23832200  0.23568503  1
  O  O13  1  0.37925200  0.31660400  0.05008801  1
