# generated using pymatgen
data_Tb(Mo3Se4)2
_symmetry_space_group_name_H-M   'P 1'
_cell_length_a   6.84111977
_cell_length_b   6.84111977
_cell_length_c   6.84112072
_cell_angle_alpha   89.14999390
_cell_angle_beta   89.14999390
_cell_angle_gamma   89.14999390
_symmetry_Int_Tables_number   1
_chemical_formula_structural   Tb(Mo3Se4)2
_chemical_formula_sum   'Tb1 Mo6 Se8'
_cell_volume   320.06607789
_cell_formula_units_Z   1
loop_
 _symmetry_equiv_pos_site_id
 _symmetry_equiv_pos_as_xyz
  1  'x, y, z'
loop_
 _atom_site_type_symbol
 _atom_site_label
 _atom_site_symmetry_multiplicity
 _atom_site_fract_x
 _atom_site_fract_y
 _atom_site_fract_z
 _atom_site_occupancy
  Tb  Tb0  1  0.00000000  0.00000000  0.00000000  1
  Mo  Mo1  1  0.76388297  0.57738699  0.44000593  1
  Mo  Mo2  1  0.44000597  0.76388299  0.57738693  1
  Mo  Mo3  1  0.57738697  0.44000599  0.76388294  1
  Mo  Mo4  1  0.23611698  0.42261299  0.55999396  1
  Mo  Mo5  1  0.55999398  0.23611700  0.42261296  1
  Mo  Mo6  1  0.42261297  0.55999399  0.23611695  1
  Se  Se7  1  0.76043096  0.76043099  0.76043092  1
  Se  Se8  1  0.23956899  0.23956900  0.23956897  1
  Se  Se9  1  0.24830698  0.62519499  0.87790495  1
  Se  Se10  1  0.87790498  0.24830700  0.62519494  1
  Se  Se11  1  0.62519496  0.87790498  0.24830692  1
  Se  Se12  1  0.75169297  0.37480499  0.12209494  1
  Se  Se13  1  0.12209497  0.75169299  0.37480495  1
  Se  Se14  1  0.37480499  0.12209500  0.75169297  1
