# generated using pymatgen
data_GeBi2AsO8
_symmetry_space_group_name_H-M   'P 1'
_cell_length_a   5.99841642
_cell_length_b   5.99841642
_cell_length_c   5.99841642
_cell_angle_alpha   106.42893982
_cell_angle_beta   106.42893982
_cell_angle_gamma   115.74382019
_symmetry_Int_Tables_number   1
_chemical_formula_structural   GeBi2AsO8
_chemical_formula_sum   'Ge1 Bi2 As1 O8'
_cell_volume   164.63569981
_cell_formula_units_Z   1
loop_
 _symmetry_equiv_pos_site_id
 _symmetry_equiv_pos_as_xyz
  1  'x, y, z'
loop_
 _atom_site_type_symbol
 _atom_site_label
 _atom_site_symmetry_multiplicity
 _atom_site_fract_x
 _atom_site_fract_y
 _atom_site_fract_z
 _atom_site_occupancy
  Bi  Bi0  1  0.25000005  0.75000005  0.50000004  1
  Bi  Bi1  1  0.50000005  0.50000003  1.00000005  1
  As  As2  1  0.75000004  0.25000002  0.50000003  1
  Ge  Ge3  1  0.00000000  0.00000000  0.00000000  1
  O  O4  1  0.17644603  0.35746302  0.18101702  1
  O  O5  1  0.10746303  0.42644603  0.68101704  1
  O  O6  1  0.74542905  0.42644603  0.31898303  1
  O  O7  1  0.17644606  0.99542907  0.81898306  1
  O  O8  1  0.64253707  0.82355406  0.81898305  1
  O  O9  1  0.57355407  0.89253706  0.31898304  1
  O  O10  1  0.57355404  0.25457102  0.68101703  1
  O  O11  1  0.00457105  0.82355406  0.18101703  1
