# generated using pymatgen
data_P
_symmetry_space_group_name_H-M   'P 1'
_cell_length_a   5.44770288
_cell_length_b   5.44770288
_cell_length_c   5.53204393
_cell_angle_alpha   100.10654449
_cell_angle_beta   100.10654449
_cell_angle_gamma   119.65859985
_symmetry_Int_Tables_number   1
_chemical_formula_structural   P
_chemical_formula_sum   P12
_cell_volume   133.68911109
_cell_formula_units_Z   12
loop_
 _symmetry_equiv_pos_site_id
 _symmetry_equiv_pos_as_xyz
  1  'x, y, z'
loop_
 _atom_site_type_symbol
 _atom_site_label
 _atom_site_symmetry_multiplicity
 _atom_site_fract_x
 _atom_site_fract_y
 _atom_site_fract_z
 _atom_site_occupancy
  P  P0  1  0.74619096  0.25380898  0.74999995  1
  P  P1  1  0.25380893  0.74619095  0.24999993  1
  P  P2  1  0.42015094  0.57984896  0.74999994  1
  P  P3  1  0.57984895  0.42015097  0.24999994  1
  P  P4  1  0.91037697  0.08962299  0.24999994  1
  P  P5  1  0.08962292  0.91037693  0.74999994  1
  P  P6  1  0.49999999  0.00000000  -0.00000003  1
  P  P7  1  -0.00000004  0.49999996  0.49999997  1
  P  P8  1  0.83776192  0.67802695  0.99152592  1
  P  P9  1  0.32197298  0.16223799  0.50847398  1
  P  P10  1  0.16223797  0.32197298  0.00847396  1
  P  P11  1  0.67802691  0.83776194  0.49152590  1
