# generated using pymatgen
data_Ga(GeO3)2
_symmetry_space_group_name_H-M   'P 1'
_cell_length_a   5.51678610
_cell_length_b   6.94837379
_cell_length_c   6.95520639
_cell_angle_alpha   82.16136169
_cell_angle_beta   74.51142883
_cell_angle_gamma   74.54759979
_symmetry_Int_Tables_number   1
_chemical_formula_structural   Ga(GeO3)2
_chemical_formula_sum   'Ga2 Ge4 O12'
_cell_volume   247.03052946
_cell_formula_units_Z   2
loop_
 _symmetry_equiv_pos_site_id
 _symmetry_equiv_pos_as_xyz
  1  'x, y, z'
loop_
 _atom_site_type_symbol
 _atom_site_label
 _atom_site_symmetry_multiplicity
 _atom_site_fract_x
 _atom_site_fract_y
 _atom_site_fract_z
 _atom_site_occupancy
  Ge  Ge0  1  0.68787796  0.60355801  0.83622007  1
  Ge  Ge1  1  0.21968595  0.80693201  0.61354105  1
  Ge  Ge2  1  0.81207599  0.16374400  0.39620505  1
  Ge  Ge3  1  0.28036498  0.38638400  0.19325103  1
  Ga  Ga4  1  0.24987394  0.91709801  0.08321803  1
  Ga  Ga5  1  0.74999200  0.07667100  0.92312806  1
  O  O6  1  0.63408795  0.82437401  0.97832508  1
  O  O7  1  0.13755794  0.96276101  0.81598905  1
  O  O8  1  0.86618600  0.02165400  0.17561504  1
  O  O9  1  0.36250799  0.18388300  0.03739302  1
  O  O10  1  0.78652398  0.35568100  0.90616307  1
  O  O11  1  0.71338300  0.09382200  0.64413605  1
  O  O12  1  0.19855094  0.94816601  0.38102804  1
  O  O13  1  0.30161696  0.61904601  0.05195903  1
  O  O14  1  0.53016596  0.66912701  0.61408906  1
  O  O15  1  0.01635296  0.64907801  0.66763404  1
  O  O16  1  0.96974698  0.38583300  0.33104006  1
  O  O17  1  0.48344798  0.33218800  0.35106704  1
