# generated using pymatgen
data_Ba2GaSe4
_symmetry_space_group_name_H-M   'P 1'
_cell_length_a   4.93605995
_cell_length_b   4.93605995
_cell_length_c   9.33571815
_cell_angle_alpha   105.32917786
_cell_angle_beta   105.32917786
_cell_angle_gamma   90.00000000
_symmetry_Int_Tables_number   1
_chemical_formula_structural   Ba2GaSe4
_chemical_formula_sum   'Ba2 Ga1 Se4'
_cell_volume   210.96681174
_cell_formula_units_Z   1
loop_
 _symmetry_equiv_pos_site_id
 _symmetry_equiv_pos_as_xyz
  1  'x, y, z'
loop_
 _atom_site_type_symbol
 _atom_site_label
 _atom_site_symmetry_multiplicity
 _atom_site_fract_x
 _atom_site_fract_y
 _atom_site_fract_z
 _atom_site_occupancy
  Se  Se0  1  -0.00000000  0.50000000  -0.00000000  1
  Se  Se1  1  0.50000000  0.00000000  -0.00000000  1
  Se  Se2  1  0.83241100  0.83241100  0.66482200  1
  Se  Se3  1  0.16758900  0.16758900  0.33517801  1
  Ba  Ba4  1  0.63859700  0.63859700  0.27719400  1
  Ba  Ba5  1  0.36140300  0.36140300  0.72280601  1
  Ga  Ga6  1  0.00000000  0.00000000  0.00000000  1
