# generated using pymatgen
data_EuMgIn4
_symmetry_space_group_name_H-M   'P 1'
_cell_length_a   5.97228336
_cell_length_b   5.97228336
_cell_length_c   5.97228336
_cell_angle_alpha   60.00000000
_cell_angle_beta   60.00000000
_cell_angle_gamma   60.00000000
_symmetry_Int_Tables_number   1
_chemical_formula_structural   EuMgIn4
_chemical_formula_sum   'Eu1 Mg1 In4'
_cell_volume   150.62817628
_cell_formula_units_Z   1
loop_
 _symmetry_equiv_pos_site_id
 _symmetry_equiv_pos_as_xyz
  1  'x, y, z'
loop_
 _atom_site_type_symbol
 _atom_site_label
 _atom_site_symmetry_multiplicity
 _atom_site_fract_x
 _atom_site_fract_y
 _atom_site_fract_z
 _atom_site_occupancy
  In  In0  1  0.25000000  0.25000000  0.25000000  1
  Eu  Eu1  1  0.49999999  0.49999999  0.49999999  1
  Mg  Mg2  1  0.87499999  0.87499999  0.87499999  1
  In  In3  1  0.37499999  0.87499999  0.87499999  1
  In  In4  1  0.87499999  0.87499999  0.37499999  1
  In  In5  1  0.87499999  0.37499999  0.87499999  1
