# generated using pymatgen
data_Lu5Ga3Ru
_symmetry_space_group_name_H-M   'P 1'
_cell_length_a   6.55965996
_cell_length_b   8.27064228
_cell_length_c   8.27064133
_cell_angle_alpha   120.00000000
_cell_angle_beta   90.00000000
_cell_angle_gamma   90.00000000
_symmetry_Int_Tables_number   1
_chemical_formula_structural   Lu5Ga3Ru
_chemical_formula_sum   'Lu10 Ga6 Ru2'
_cell_volume   388.58889293
_cell_formula_units_Z   2
loop_
 _symmetry_equiv_pos_site_id
 _symmetry_equiv_pos_as_xyz
  1  'x, y, z'
loop_
 _atom_site_type_symbol
 _atom_site_label
 _atom_site_symmetry_multiplicity
 _atom_site_fract_x
 _atom_site_fract_y
 _atom_site_fract_z
 _atom_site_occupancy
  Lu  Lu0  1  0.50000000  0.66666662  0.33333327  1
  Lu  Lu1  1  0.50000000  0.33333331  0.66666662  1
  Lu  Lu2  1  -0.00000000  0.33333331  0.66666662  1
  Lu  Lu3  1  -0.00000000  0.66666662  0.33333327  1
  Lu  Lu4  1  0.75000000  0.00000000  0.75106998  1
  Lu  Lu5  1  0.75000000  0.75106995  -0.00000006  1
  Lu  Lu6  1  0.75000000  0.24892998  0.24892997  1
  Lu  Lu7  1  0.25000000  0.00000000  0.24892999  1
  Lu  Lu8  1  0.25000000  0.24892998  0.99999995  1
  Lu  Lu9  1  0.25000000  0.75106995  0.75106992  1
  Ga  Ga10  1  0.75000000  0.00000000  0.39091099  1
  Ga  Ga11  1  0.75000000  0.39091097  -0.00000003  1
  Ga  Ga12  1  0.75000000  0.60908896  0.60908894  1
  Ga  Ga13  1  0.25000000  0.00000000  0.60908898  1
  Ga  Ga14  1  0.25000000  0.60908896  0.99999992  1
  Ga  Ga15  1  0.25000000  0.39091097  0.39091096  1
  Ru  Ru16  1  0.50000000  0.00000000  -0.00000000  1
  Ru  Ru17  1  0.00000000  0.00000000  0.00000000  1
