# generated using pymatgen
data_HoCoGe
_symmetry_space_group_name_H-M   'P 1'
_cell_length_a   4.14741993
_cell_length_b   4.14741993
_cell_length_c   7.51592588
_cell_angle_alpha   90.00000000
_cell_angle_beta   90.00000000
_cell_angle_gamma   120.00000000
_symmetry_Int_Tables_number   1
_chemical_formula_structural   HoCoGe
_chemical_formula_sum   'Ho2 Co2 Ge2'
_cell_volume   111.96161155
_cell_formula_units_Z   2
loop_
 _symmetry_equiv_pos_site_id
 _symmetry_equiv_pos_as_xyz
  1  'x, y, z'
loop_
 _atom_site_type_symbol
 _atom_site_label
 _atom_site_symmetry_multiplicity
 _atom_site_fract_x
 _atom_site_fract_y
 _atom_site_fract_z
 _atom_site_occupancy
  Ho  Ho0  1  0.00000000  0.00000000  0.50000001  1
  Ho  Ho1  1  0.00000000  0.00000000  0.00000000  1
  Co  Co2  1  0.66666667  0.33333333  0.75000001  1
  Ge  Ge3  1  0.33333333  0.66666666  0.25000000  1
  Ge  Ge4  1  0.33333333  0.66666666  0.75000001  1
  Co  Co5  1  0.66666667  0.33333333  0.25000000  1
