# generated using pymatgen
data_Ho4Ga5
_symmetry_space_group_name_H-M   'P 1'
_cell_length_a   5.99549103
_cell_length_b   8.83854771
_cell_length_c   8.83854771
_cell_angle_alpha   120.00000000
_cell_angle_beta   90.00000000
_cell_angle_gamma   90.00000000
_symmetry_Int_Tables_number   1
_chemical_formula_structural   Ho4Ga5
_chemical_formula_sum   'Ho8 Ga10'
_cell_volume   405.61799119
_cell_formula_units_Z   2
loop_
 _symmetry_equiv_pos_site_id
 _symmetry_equiv_pos_as_xyz
  1  'x, y, z'
loop_
 _atom_site_type_symbol
 _atom_site_label
 _atom_site_symmetry_multiplicity
 _atom_site_fract_x
 _atom_site_fract_y
 _atom_site_fract_z
 _atom_site_occupancy
  Ho  Ho0  1  1.00000000  0.33333334  0.66666668  1
  Ga  Ga1  1  -0.00000000  0.66666669  0.33333334  1
  Ho  Ho2  1  0.50000000  0.66666669  0.33333334  1
  Ga  Ga3  1  0.50000000  0.33333334  0.66666668  1
  Ho  Ho4  1  0.25000000  0.26226801  -0.00000000  1
  Ho  Ho5  1  0.25000000  0.73773202  0.73773201  1
  Ho  Ho6  1  0.25000000  1.00000003  0.26226800  1
  Ho  Ho7  1  0.75000000  0.73773202  1.00000002  1
  Ho  Ho8  1  0.75000000  0.26226801  0.26226800  1
  Ho  Ho9  1  0.75000000  1.00000003  0.73773201  1
  Ga  Ga10  1  0.00000000  0.00000000  0.00000000  1
  Ga  Ga11  1  0.50000000  0.00000000  -0.00000000  1
  Ga  Ga12  1  0.25000000  0.61256402  -0.00000000  1
  Ga  Ga13  1  0.25000000  0.38743601  0.38743601  1
  Ga  Ga14  1  0.25000000  1.00000003  0.61256401  1
  Ga  Ga15  1  0.75000000  0.38743601  1.00000002  1
  Ga  Ga16  1  0.75000000  0.61256402  0.61256401  1
  Ga  Ga17  1  0.75000000  1.00000003  0.38743600  1
