# generated using pymatgen
data_Bi9O10F
_symmetry_space_group_name_H-M   'P 1'
_cell_length_a   6.25150013
_cell_length_b   6.25150013
_cell_length_c   8.77279282
_cell_angle_alpha   90.00000000
_cell_angle_beta   90.00000000
_cell_angle_gamma   120.00000000
_symmetry_Int_Tables_number   1
_chemical_formula_structural   Bi9O10F
_chemical_formula_sum   'Bi9 O10 F1'
_cell_volume   296.91831935
_cell_formula_units_Z   1
loop_
 _symmetry_equiv_pos_site_id
 _symmetry_equiv_pos_as_xyz
  1  'x, y, z'
loop_
 _atom_site_type_symbol
 _atom_site_label
 _atom_site_symmetry_multiplicity
 _atom_site_fract_x
 _atom_site_fract_y
 _atom_site_fract_z
 _atom_site_occupancy
  Bi  Bi0  1  0.00000000  0.00000000  0.50000001  1
  O  O1  1  0.00000000  0.00000000  0.00000000  1
  O  O2  1  0.66666666  0.33333334  0.25000001  1
  F  F3  1  0.33333334  0.66666668  0.75000002  1
  O  O4  1  0.04485900  0.32017000  0.34668001  1
  O  O5  1  0.27531101  0.95514101  0.34668001  1
  O  O6  1  0.67983000  0.72468901  0.34668001  1
  Bi  Bi7  1  0.27531100  0.32017000  0.15332000  1
  O  O8  1  0.66666666  0.33333334  0.96322302  1
  Bi  Bi9  1  0.66666666  0.33333334  0.53677701  1
  O  O10  1  0.33333334  0.66666668  0.03677700  1
  Bi  Bi11  1  0.33333334  0.66666668  0.46322301  1
  Bi  Bi12  1  0.95514098  0.27531100  0.84668002  1
  Bi  Bi13  1  0.32016999  0.04485900  0.84668002  1
  Bi  Bi14  1  0.72468900  0.67983001  0.84668002  1
  O  O15  1  0.32017000  0.27531100  0.65332001  1
  O  O16  1  0.72468899  0.04485900  0.65332001  1
  O  O17  1  0.95514099  0.67983001  0.65332001  1
  Bi  Bi18  1  0.04485901  0.72468901  0.15332000  1
  Bi  Bi19  1  0.67983000  0.95514101  0.15332000  1
