# generated using pymatgen
data_Ga19Sn
_symmetry_space_group_name_H-M   'P 1'
_cell_length_a   8.24592876
_cell_length_b   8.24592876
_cell_length_c   8.24592876
_cell_angle_alpha   109.47122192
_cell_angle_beta   109.47122192
_cell_angle_gamma   109.47122192
_symmetry_Int_Tables_number   1
_chemical_formula_structural   Ga19Sn
_chemical_formula_sum   'Ga19 Sn1'
_cell_volume   431.61529328
_cell_formula_units_Z   1
loop_
 _symmetry_equiv_pos_site_id
 _symmetry_equiv_pos_as_xyz
  1  'x, y, z'
loop_
 _atom_site_type_symbol
 _atom_site_label
 _atom_site_symmetry_multiplicity
 _atom_site_fract_x
 _atom_site_fract_y
 _atom_site_fract_z
 _atom_site_occupancy
  Sn  Sn0  1  0.32976001  0.32976000  0.32976001  1
  Ga  Ga1  1  0.00000000  0.00000000  0.32975999  1
  Ga  Ga2  1  0.32975999  0.00000000  0.00000001  1
  Ga  Ga3  1  0.00000002  0.32976000  0.00000002  1
  Ga  Ga4  1  0.67023998  0.00000000  0.00000002  1
  Ga  Ga5  1  0.00000004  0.67024000  0.00000004  1
  Ga  Ga6  1  0.50000000  0.25000000  0.75000000  1
  Ga  Ga7  1  0.50000003  0.75000000  0.25000004  1
  Ga  Ga8  1  0.74999999  0.25000000  0.50000001  1
  Ga  Ga9  1  0.25000004  0.75000000  0.50000003  1
  Ga  Ga10  1  0.75000001  0.50000000  0.25000004  1
  Ga  Ga11  1  0.25000002  0.50000000  0.75000000  1
  Ga  Ga12  1  0.67024002  0.67024000  0.67024003  1
  Ga  Ga13  1  0.00000000  0.00000000  0.67023997  1
  Ga  Ga14  1  0.34219301  0.34219300  0.99999999  1
  Ga  Ga15  1  0.00000004  0.65780700  0.65780701  1
  Ga  Ga16  1  0.00000002  0.34219300  0.34219301  1
  Ga  Ga17  1  0.34219299  0.00000000  0.34219299  1
  Ga  Ga18  1  0.65780698  0.00000000  0.65780699  1
  Ga  Ga19  1  0.65780702  0.65780700  1.00000001  1
