# generated using pymatgen
data_CsGa8O9
_symmetry_space_group_name_H-M   'P 1'
_cell_length_a   7.22766781
_cell_length_b   7.22766781
_cell_length_c   7.22766781
_cell_angle_alpha   60.00000000
_cell_angle_beta   60.00000000
_cell_angle_gamma   60.00000000
_symmetry_Int_Tables_number   1
_chemical_formula_structural   CsGa8O9
_chemical_formula_sum   'Cs1 Ga8 O9'
_cell_volume   266.98050689
_cell_formula_units_Z   1
loop_
 _symmetry_equiv_pos_site_id
 _symmetry_equiv_pos_as_xyz
  1  'x, y, z'
loop_
 _atom_site_type_symbol
 _atom_site_label
 _atom_site_symmetry_multiplicity
 _atom_site_fract_x
 _atom_site_fract_y
 _atom_site_fract_z
 _atom_site_occupancy
  Cs  Cs0  1  0.00000000  0.00000000  0.00000000  1
  Ga  Ga1  1  0.75000001  0.75000001  0.75000001  1
  Ga  Ga2  1  0.37500001  0.37500001  0.87500001  1
  Ga  Ga3  1  0.87500001  0.37500001  0.37500001  1
  Ga  Ga4  1  0.37500001  0.37500001  0.37500001  1
  Ga  Ga5  1  0.37500001  0.87500001  0.37500001  1
  O  O6  1  0.05933200  0.44066801  0.44066801  1
  O  O7  1  0.30933200  0.69066801  0.69066801  1
  Ga  Ga8  1  0.05933200  0.05933200  0.44066801  1
  Ga  Ga9  1  0.05933200  0.44066801  0.05933200  1
  O  O10  1  0.44066801  0.05933200  0.44066801  1
  O  O11  1  0.44066801  0.44066801  0.05933200  1
  Ga  Ga12  1  0.44066801  0.05933200  0.05933200  1
  O  O13  1  0.30933200  0.69066801  0.30933200  1
  O  O14  1  0.69066801  0.30933200  0.69066801  1
  O  O15  1  0.69066801  0.30933200  0.30933200  1
  O  O16  1  0.30933200  0.30933200  0.69066801  1
  O  O17  1  0.69066801  0.69066801  0.30933200  1
