# generated using pymatgen
data_NdIn2
_symmetry_space_group_name_H-M   'P 1'
_cell_length_a   4.96796989
_cell_length_b   4.96796989
_cell_length_c   11.22401428
_cell_angle_alpha   90.00000000
_cell_angle_beta   90.00000000
_cell_angle_gamma   120.00000000
_symmetry_Int_Tables_number   1
_chemical_formula_structural   NdIn2
_chemical_formula_sum   'Nd3 In6'
_cell_volume   239.90359340
_cell_formula_units_Z   3
loop_
 _symmetry_equiv_pos_site_id
 _symmetry_equiv_pos_as_xyz
  1  'x, y, z'
loop_
 _atom_site_type_symbol
 _atom_site_label
 _atom_site_symmetry_multiplicity
 _atom_site_fract_x
 _atom_site_fract_y
 _atom_site_fract_z
 _atom_site_occupancy
  Nd  Nd0  1  0.33333332  0.66666665  0.17033200  1
  Nd  Nd1  1  0.33333332  0.66666665  0.50224499  1
  Nd  Nd2  1  0.33333332  0.66666665  0.83414498  1
  In  In3  1  0.66666667  0.33333332  0.00322800  1
  In  In4  1  0.00000000  0.00000000  0.30970099  1
  In  In5  1  0.00000000  0.00000000  0.69828498  1
  In  In6  1  0.66666667  0.33333332  0.35090299  1
  In  In7  1  0.66666667  0.33333332  0.65248198  1
  In  In8  1  0.00000000  0.00000000  0.00077800  1
