# generated using pymatgen
data_Cs3Br2
_symmetry_space_group_name_H-M   'P 1'
_cell_length_a   4.58832502
_cell_length_b   15.09609032
_cell_length_c   15.09609032
_cell_angle_alpha   120.00000000
_cell_angle_beta   90.00000000
_cell_angle_gamma   90.00000000
_symmetry_Int_Tables_number   1
_chemical_formula_structural   Cs3Br2
_chemical_formula_sum   'Cs12 Br8'
_cell_volume   905.55279860
_cell_formula_units_Z   4
loop_
 _symmetry_equiv_pos_site_id
 _symmetry_equiv_pos_as_xyz
  1  'x, y, z'
loop_
 _atom_site_type_symbol
 _atom_site_label
 _atom_site_symmetry_multiplicity
 _atom_site_fract_x
 _atom_site_fract_y
 _atom_site_fract_z
 _atom_site_occupancy
  Cs  Cs0  1  0.99999999  0.66666666  0.33333335  1
  Cs  Cs1  1  0.99999999  0.33333333  0.66666668  1
  Cs  Cs2  1  0.99999999  0.28234000  0.28234001  1
  Cs  Cs3  1  0.00000000  0.00000000  0.71766001  1
  Cs  Cs4  1  0.99999999  0.71765999  0.00000002  1
  Cs  Cs5  1  0.50000000  0.67784599  0.67784602  1
  Cs  Cs6  1  0.50000000  0.99999999  0.32215403  1
  Cs  Cs7  1  0.50000000  0.32215400  0.00000001  1
  Br  Br8  1  0.99999999  0.81484599  0.81484603  1
  Cs  Cs9  1  0.00000000  0.00000000  0.18515400  1
  Br  Br10  1  0.00000000  0.18515400  0.00000000  1
  Br  Br11  1  0.99999999  0.54274499  0.54274502  1
  Cs  Cs12  1  0.00000000  0.00000000  0.45725501  1
  Br  Br13  1  0.99999999  0.45725500  0.00000001  1
  Br  Br14  1  0.50000000  0.76668899  0.20787602  1
  Br  Br15  1  0.50000000  0.44118700  0.23331101  1
  Br  Br16  1  0.50000000  0.55881299  0.79212402  1
  Br  Br17  1  0.50000000  0.79212399  0.55881302  1
  Cs  Cs18  1  0.50000000  0.20787600  0.76668901  1
  Cs  Cs19  1  0.50000000  0.23331100  0.44118701  1
