# generated using pymatgen
data_Tb(CoB)2
_symmetry_space_group_name_H-M   'P 1'
_cell_length_a   4.94822979
_cell_length_b   4.94822979
_cell_length_c   6.08156157
_cell_angle_alpha   103.67932892
_cell_angle_beta   102.83708954
_cell_angle_gamma   115.86680603
_symmetry_Int_Tables_number   1
_chemical_formula_structural   Tb(CoB)2
_chemical_formula_sum   'Tb2 Co4 B4'
_cell_volume   120.83703775
_cell_formula_units_Z   2
loop_
 _symmetry_equiv_pos_site_id
 _symmetry_equiv_pos_as_xyz
  1  'x, y, z'
loop_
 _atom_site_type_symbol
 _atom_site_label
 _atom_site_symmetry_multiplicity
 _atom_site_fract_x
 _atom_site_fract_y
 _atom_site_fract_z
 _atom_site_occupancy
  Tb  Tb0  1  0.11919201  0.36919200  0.25000003  1
  Tb  Tb1  1  0.88080800  0.63080800  0.75000007  1
  Co  Co2  1  0.72084401  0.66652600  0.19974805  1
  Co  Co3  1  0.46677798  0.02109600  0.30025202  1
  Co  Co4  1  0.27915601  0.33347400  0.80025205  1
  Co  Co5  1  0.53322203  0.97890400  0.69974808  1
  B  B6  1  0.49673799  0.17772300  0.02234402  1
  B  B7  1  0.15537904  0.97439400  0.47765607  1
  B  B8  1  0.50326202  0.82227700  0.97765609  1
  B  B9  1  0.84462097  0.02560600  0.52234403  1
