# generated using pymatgen
data_Ba2SeO4
_symmetry_space_group_name_H-M   'P 1'
_cell_length_a   6.38916969
_cell_length_b   6.38916969
_cell_length_c   8.14733696
_cell_angle_alpha   89.78929138
_cell_angle_beta   89.78929138
_cell_angle_gamma   116.62199402
_symmetry_Int_Tables_number   1
_chemical_formula_structural   Ba2SeO4
_chemical_formula_sum   'Ba4 Se2 O8'
_cell_volume   297.31909153
_cell_formula_units_Z   2
loop_
 _symmetry_equiv_pos_site_id
 _symmetry_equiv_pos_as_xyz
  1  'x, y, z'
loop_
 _atom_site_type_symbol
 _atom_site_label
 _atom_site_symmetry_multiplicity
 _atom_site_fract_x
 _atom_site_fract_y
 _atom_site_fract_z
 _atom_site_occupancy
  Ba  Ba0  1  0.33158196  0.66346499  0.25916997  1
  Ba  Ba1  1  0.00007700  0.00007900  0.00383300  1
  Ba  Ba2  1  0.66346498  0.33158199  0.75916995  1
  Ba  Ba3  1  0.00007900  0.00007700  0.50383298  1
  Se  Se4  1  0.34451396  0.65631399  0.75732095  1
  Se  Se5  1  0.65631398  0.34451399  0.25732097  1
  O  O6  1  0.63980895  0.76338398  0.76043794  1
  O  O7  1  0.25136195  0.73395598  0.92737794  1
  O  O8  1  0.26427095  0.75795398  0.59177795  1
  O  O9  1  0.23231598  0.36092899  0.74798196  1
  O  O10  1  0.75795399  0.26427099  0.09177797  1
  O  O11  1  0.76338396  0.63980899  0.26043796  1
  O  O12  1  0.73395599  0.25136199  0.42737796  1
  O  O13  1  0.36092899  0.23231600  0.24798198  1
