# generated using pymatgen
data_KBaCo4F14
_symmetry_space_group_name_H-M   'P 1'
_cell_length_a   5.61220503
_cell_length_b   5.62337303
_cell_length_c   7.99854612
_cell_angle_alpha   90.00000000
_cell_angle_beta   90.00000000
_cell_angle_gamma   89.98705292
_symmetry_Int_Tables_number   1
_chemical_formula_structural   KBaCo4F14
_chemical_formula_sum   'K1 Ba1 Co4 F14'
_cell_volume   252.43028915
_cell_formula_units_Z   1
loop_
 _symmetry_equiv_pos_site_id
 _symmetry_equiv_pos_as_xyz
  1  'x, y, z'
loop_
 _atom_site_type_symbol
 _atom_site_label
 _atom_site_symmetry_multiplicity
 _atom_site_fract_x
 _atom_site_fract_y
 _atom_site_fract_z
 _atom_site_occupancy
  Ba  Ba0  1  0.00261700  0.00811600  -0.00000000  1
  K  K1  1  0.50274202  0.49199801  0.49999999  1
  F  F2  1  0.99718305  0.99237802  0.49999999  1
  F  F3  1  0.49933902  0.51099401  -0.00000000  1
  Co  Co4  1  0.99989802  0.50003101  0.25314500  1
  Co  Co5  1  0.49996000  0.00048500  0.74691799  1
  Co  Co6  1  0.99989802  0.50003101  0.74685499  1
  Co  Co7  1  0.49996000  0.00048500  0.25308200  1
  F  F8  1  0.78051901  0.21934600  0.26586000  1
  F  F9  1  0.71463903  0.71483301  0.73368399  1
  F  F10  1  0.21990204  0.77951502  0.77030999  1
  F  F11  1  0.28322001  0.28293401  0.23359900  1
  F  F12  1  0.21990204  0.77951502  0.22969000  1
  F  F13  1  0.28322001  0.28293401  0.76640099  1
  F  F14  1  0.78051901  0.21934600  0.73413999  1
  F  F15  1  0.71463903  0.71483301  0.26631600  1
  F  F16  1  0.96785202  0.49291401  0.99999998  1
  F  F17  1  0.53433605  0.99510302  -0.00000000  1
  F  F18  1  0.03467503  0.50785401  0.49999999  1
  F  F19  1  0.46497800  0.00635500  0.49999999  1
