# generated using pymatgen
data_BaBi8S
_symmetry_space_group_name_H-M   'P 1'
_cell_length_a   4.35010195
_cell_length_b   4.35010147
_cell_length_c   17.77415276
_cell_angle_alpha   90.00000000
_cell_angle_beta   90.00000000
_cell_angle_gamma   120.00000763
_symmetry_Int_Tables_number   1
_chemical_formula_structural   BaBi8S
_chemical_formula_sum   'Ba1 Bi8 S1'
_cell_volume   291.28513975
_cell_formula_units_Z   1
loop_
 _symmetry_equiv_pos_site_id
 _symmetry_equiv_pos_as_xyz
  1  'x, y, z'
loop_
 _atom_site_type_symbol
 _atom_site_label
 _atom_site_symmetry_multiplicity
 _atom_site_fract_x
 _atom_site_fract_y
 _atom_site_fract_z
 _atom_site_occupancy
  Bi  Bi0  1  0.00000000  0.00000000  0.89399896  1
  Bi  Bi1  1  0.00000000  0.00000000  0.10600100  1
  Bi  Bi2  1  0.00000000  0.00000000  0.39399898  1
  Bi  Bi3  1  0.00000000  0.00000000  0.60600097  1
  S  S4  1  0.66666669  0.33333332  0.49467498  1
  Bi  Bi5  1  0.33333337  0.66666665  0.50532498  1
  Bi  Bi6  1  0.33333337  0.66666665  0.99467496  1
  Bi  Bi7  1  0.66666669  0.33333332  0.00532500  1
  Ba  Ba8  1  0.66666669  0.33333332  0.74999997  1
  Bi  Bi9  1  0.33333337  0.66666665  0.24999999  1
