# generated using pymatgen
data_RbBaLu6(CuS5)2
_symmetry_space_group_name_H-M   'P 1'
_cell_length_a   3.94332600
_cell_length_b   7.07648849
_cell_length_c   17.10831642
_cell_angle_alpha   90.00000000
_cell_angle_beta   90.00000000
_cell_angle_gamma   106.17795563
_symmetry_Int_Tables_number   1
_chemical_formula_structural   RbBaLu6(CuS5)2
_chemical_formula_sum   'Rb1 Ba1 Lu6 Cu2 S10'
_cell_volume   458.50106026
_cell_formula_units_Z   1
loop_
 _symmetry_equiv_pos_site_id
 _symmetry_equiv_pos_as_xyz
  1  'x, y, z'
loop_
 _atom_site_type_symbol
 _atom_site_label
 _atom_site_symmetry_multiplicity
 _atom_site_fract_x
 _atom_site_fract_y
 _atom_site_fract_z
 _atom_site_occupancy
  Ba  Ba0  1  0.47600990  0.95201996  0.75000003  1
  Rb  Rb1  1  0.52399000  0.04798000  0.25000001  1
  Lu  Lu2  1  0.00000000  0.00000000  0.00000000  1
  Lu  Lu3  1  0.00000000  0.00000000  0.50000002  1
  Lu  Lu4  1  0.27059394  0.54118798  0.39691801  1
  Lu  Lu5  1  0.72940595  0.45881198  0.60308202  1
  Lu  Lu6  1  0.72940595  0.45881198  0.89691803  1
  Lu  Lu7  1  0.27059394  0.54118798  0.10308200  1
  Cu  Cu8  1  0.20358096  0.40716198  0.75000003  1
  Cu  Cu9  1  0.79641894  0.59283797  0.25000001  1
  S  S10  1  0.35595292  0.71190597  0.95324703  1
  S  S11  1  0.64404697  0.28809399  0.04675300  1
  S  S12  1  0.64404697  0.28809399  0.45324702  1
  S  S13  1  0.35595292  0.71190597  0.54675302  1
  S  S14  1  0.10444298  0.20888599  0.86127203  1
  S  S15  1  0.89555691  0.79111396  0.13872800  1
  S  S16  1  0.89555691  0.79111396  0.36127201  1
  S  S17  1  0.10444298  0.20888599  0.63872802  1
  S  S18  1  0.79851593  0.59703197  0.75000003  1
  S  S19  1  0.20148396  0.40296798  0.25000001  1
