# generated using pymatgen
data_RbBa3P2HO8
_symmetry_space_group_name_H-M   'P 1'
_cell_length_a   5.77567625
_cell_length_b   5.77567625
_cell_length_c   7.52155209
_cell_angle_alpha   86.00061035
_cell_angle_beta   86.00061035
_cell_angle_gamma   60.41966248
_symmetry_Int_Tables_number   1
_chemical_formula_structural   RbBa3P2HO8
_chemical_formula_sum   'Rb1 Ba3 P2 H1 O8'
_cell_volume   217.49326017
_cell_formula_units_Z   1
loop_
 _symmetry_equiv_pos_site_id
 _symmetry_equiv_pos_as_xyz
  1  'x, y, z'
loop_
 _atom_site_type_symbol
 _atom_site_label
 _atom_site_symmetry_multiplicity
 _atom_site_fract_x
 _atom_site_fract_y
 _atom_site_fract_z
 _atom_site_occupancy
  Rb  Rb0  1  0.00000000  0.00000000  0.50000000  1
  Ba  Ba1  1  0.66969301  0.66969303  0.80950700  1
  Ba  Ba2  1  0.33030700  0.33030702  0.19049300  1
  Ba  Ba3  1  0.00000000  0.00000000  0.00000000  1
  P  P4  1  0.65975101  0.65975103  0.25138599  1
  P  P5  1  0.34024900  0.34024902  0.74861400  1
  H  H6  1  0.50000000  0.50000002  0.50000000  1
  O  O7  1  0.81481901  0.81481904  0.21908899  1
  O  O8  1  0.18518100  0.18518101  0.78091100  1
  O  O9  1  0.62081001  0.62081003  0.45977700  1
  O  O10  1  0.37919000  0.37919002  0.54022300  1
  O  O11  1  0.37955799  0.81777304  0.17172799  1
  O  O12  1  0.81777302  0.37955802  0.17172799  1
  O  O13  1  0.62044202  0.18222701  0.82827200  1
  O  O14  1  0.18222699  0.62044203  0.82827200  1
