# generated using pymatgen
data_In3SeS2
_symmetry_space_group_name_H-M   'P 1'
_cell_length_a   4.25274801
_cell_length_b   5.94455004
_cell_length_c   7.27816200
_cell_angle_alpha   114.10327148
_cell_angle_beta   106.98720551
_cell_angle_gamma   90.00000000
_symmetry_Int_Tables_number   1
_chemical_formula_structural   In3SeS2
_chemical_formula_sum   'In3 Se1 S2'
_cell_volume   159.11921332
_cell_formula_units_Z   1
loop_
 _symmetry_equiv_pos_site_id
 _symmetry_equiv_pos_as_xyz
  1  'x, y, z'
loop_
 _atom_site_type_symbol
 _atom_site_label
 _atom_site_symmetry_multiplicity
 _atom_site_fract_x
 _atom_site_fract_y
 _atom_site_fract_z
 _atom_site_occupancy
  Se  Se0  1  0.83273401  0.83659297  0.66546799  1
  S  S1  1  0.16726600  0.17112499  0.33453200  1
  S  S2  1  0.50000001  0.48950498  -0.00000001  1
  In  In3  1  0.33280500  0.08217300  0.66561001  1
  In  In4  1  0.66719401  0.41656199  0.33438900  1
  In  In5  1  0.00000000  0.75404398  -0.00000004  1
