# generated using pymatgen
data_Ga3Co
_symmetry_space_group_name_H-M   'P 1'
_cell_length_a   3.46634912
_cell_length_b   3.46634912
_cell_length_c   6.05573034
_cell_angle_alpha   73.36916351
_cell_angle_beta   73.36915588
_cell_angle_gamma   60.00000000
_symmetry_Int_Tables_number   1
_chemical_formula_structural   Ga3Co
_chemical_formula_sum   'Ga3 Co1'
_cell_volume   59.47407570
_cell_formula_units_Z   1
loop_
 _symmetry_equiv_pos_site_id
 _symmetry_equiv_pos_as_xyz
  1  'x, y, z'
loop_
 _atom_site_type_symbol
 _atom_site_label
 _atom_site_symmetry_multiplicity
 _atom_site_fract_x
 _atom_site_fract_y
 _atom_site_fract_z
 _atom_site_occupancy
  Ga  Ga0  1  0.75000003  0.75000001  0.74999994  1
  Ga  Ga1  1  0.25000001  0.25000000  0.24999998  1
  Ga  Ga2  1  0.99268604  0.99268601  0.02194196  1
  Co  Co3  1  0.50731402  0.50731401  0.47805796  1
