# generated using pymatgen
data_Mg5F7
_symmetry_space_group_name_H-M   'P 1'
_cell_length_a   5.60932064
_cell_length_b   5.60932064
_cell_length_c   5.60932064
_cell_angle_alpha   72.72885132
_cell_angle_beta   69.02072144
_cell_angle_gamma   110.18641663
_symmetry_Int_Tables_number   1
_chemical_formula_structural   Mg5F7
_chemical_formula_sum   'Mg5 F7'
_cell_volume   135.70910904
_cell_formula_units_Z   1
loop_
 _symmetry_equiv_pos_site_id
 _symmetry_equiv_pos_as_xyz
  1  'x, y, z'
loop_
 _atom_site_type_symbol
 _atom_site_label
 _atom_site_symmetry_multiplicity
 _atom_site_fract_x
 _atom_site_fract_y
 _atom_site_fract_z
 _atom_site_occupancy
  Mg  Mg0  1  0.26250103  0.51250102  0.74999996  1
  Mg  Mg1  1  0.73749902  0.48749902  0.24999997  1
  Mg  Mg2  1  0.49999999  0.00000000  1.00000000  1
  Mg  Mg3  1  0.00000000  0.00000000  0.50000000  1
  Mg  Mg4  1  0.75298604  0.80802203  0.94496494  1
  F  F5  1  0.75298600  0.19795001  0.55503600  1
  F  F6  1  0.70621903  0.71233603  0.50611695  1
  F  F7  1  0.29378101  0.28766401  0.49388298  1
  F  F8  1  0.21845404  0.71233703  0.99388194  1
  F  F9  1  0.78154600  0.28766301  0.00611799  1
  F  F10  1  0.24701401  0.19197801  0.05503499  1
  F  F11  1  0.24701404  0.80205003  0.44496394  1
