# generated using pymatgen
data_ThCoSi3
_symmetry_space_group_name_H-M   'P 1'
_cell_length_a   4.17542601
_cell_length_b   4.17542601
_cell_length_c   5.58511305
_cell_angle_alpha   111.95014191
_cell_angle_beta   111.95014191
_cell_angle_gamma   90.00000000
_symmetry_Int_Tables_number   1
_chemical_formula_structural   ThCoSi3
_chemical_formula_sum   'Th1 Co1 Si3'
_cell_volume   82.65419738
_cell_formula_units_Z   1
loop_
 _symmetry_equiv_pos_site_id
 _symmetry_equiv_pos_as_xyz
  1  'x, y, z'
loop_
 _atom_site_type_symbol
 _atom_site_label
 _atom_site_symmetry_multiplicity
 _atom_site_fract_x
 _atom_site_fract_y
 _atom_site_fract_z
 _atom_site_occupancy
  Th  Th0  1  0.00247700  0.00247700  0.00495400  1
  Co  Co1  1  0.66396004  0.66396002  0.32792007  1
  Si  Si2  1  0.42464103  0.42464101  0.84928206  1
  Si  Si3  1  0.26196104  0.76196102  0.52392206  1
  Si  Si4  1  0.76196102  0.26196101  0.52392206  1
