# generated using pymatgen
data_BaGaAu4
_symmetry_space_group_name_H-M   'P 1'
_cell_length_a   6.03564024
_cell_length_b   6.03564024
_cell_length_c   6.03564024
_cell_angle_alpha   60.08373260
_cell_angle_beta   60.08373260
_cell_angle_gamma   60.08374023
_symmetry_Int_Tables_number   1
_chemical_formula_structural   BaGaAu4
_chemical_formula_sum   'Ba1 Ga1 Au4'
_cell_volume   155.76802828
_cell_formula_units_Z   1
loop_
 _symmetry_equiv_pos_site_id
 _symmetry_equiv_pos_as_xyz
  1  'x, y, z'
loop_
 _atom_site_type_symbol
 _atom_site_label
 _atom_site_symmetry_multiplicity
 _atom_site_fract_x
 _atom_site_fract_y
 _atom_site_fract_z
 _atom_site_occupancy
  Ba  Ba0  1  0.12158401  0.12158400  0.12158399  1
  Ga  Ga1  1  0.87841604  0.87841599  0.87841590  1
  Au  Au2  1  0.50000000  0.00000000  0.49999997  1
  Au  Au3  1  0.50000002  0.50000000  -0.00000004  1
  Au  Au4  1  0.50000002  0.50000000  0.49999994  1
  Au  Au5  1  0.00000002  0.50000000  0.49999996  1
