# generated using pymatgen
data_LuTe2
_symmetry_space_group_name_H-M   'P 1'
_cell_length_a   3.12458611
_cell_length_b   3.12458611
_cell_length_c   14.59961128
_cell_angle_alpha   90.00000000
_cell_angle_beta   90.00000000
_cell_angle_gamma   120.00000000
_symmetry_Int_Tables_number   1
_chemical_formula_structural   LuTe2
_chemical_formula_sum   'Lu2 Te4'
_cell_volume   123.44028587
_cell_formula_units_Z   2
loop_
 _symmetry_equiv_pos_site_id
 _symmetry_equiv_pos_as_xyz
  1  'x, y, z'
loop_
 _atom_site_type_symbol
 _atom_site_label
 _atom_site_symmetry_multiplicity
 _atom_site_fract_x
 _atom_site_fract_y
 _atom_site_fract_z
 _atom_site_occupancy
  Te  Te0  1  0.33333334  0.66666668  0.82936598  1
  Lu  Lu1  1  0.00000000  0.00000000  0.66476499  1
  Te  Te2  1  0.33333334  0.66666668  0.49999999  1
  Lu  Lu3  1  0.00000000  0.00000000  0.33523499  1
  Te  Te4  1  0.33333334  0.66666668  0.17063400  1
  Te  Te5  1  0.00000000  0.00000000  0.00000000  1
