# generated using pymatgen
data_V2Pb3O8
_symmetry_space_group_name_H-M   'P 1'
_cell_length_a   5.72965002
_cell_length_b   5.72965002
_cell_length_c   7.25822020
_cell_angle_alpha   66.75269318
_cell_angle_beta   66.75269318
_cell_angle_gamma   60.00000000
_symmetry_Int_Tables_number   1
_chemical_formula_structural   V2Pb3O8
_chemical_formula_sum   'V2 Pb3 O8'
_cell_volume   183.67786092
_cell_formula_units_Z   1
loop_
 _symmetry_equiv_pos_site_id
 _symmetry_equiv_pos_as_xyz
  1  'x, y, z'
loop_
 _atom_site_type_symbol
 _atom_site_label
 _atom_site_symmetry_multiplicity
 _atom_site_fract_x
 _atom_site_fract_y
 _atom_site_fract_z
 _atom_site_occupancy
  Pb  Pb0  1  0.19479499  0.19479500  0.41561501  1
  Pb  Pb1  1  0.99982995  0.99982999  0.00050999  1
  V  V2  1  0.59624897  0.59624899  0.21125300  1
  V  V3  1  0.40203798  0.40203800  0.79388602  1
  Pb  Pb4  1  0.80470396  0.80470399  0.58588801  1
  O  O5  1  0.76706697  0.26469200  0.70354901  1
  O  O6  1  0.26469199  0.26469200  0.70354902  1
  O  O7  1  0.26469197  0.76706699  0.70354901  1
  O  O8  1  0.23199697  0.73840799  0.29118700  1
  O  O9  1  0.73840796  0.73840799  0.29118700  1
  O  O10  1  0.73840798  0.23199700  0.29118700  1
  O  O11  1  0.68376097  0.68376099  0.94871702  1
  O  O12  1  0.31336098  0.31336100  0.05991700  1
