# generated using pymatgen
data_Nb5Sb3
_symmetry_space_group_name_H-M   'P 1'
_cell_length_a   5.58260822
_cell_length_b   8.36083221
_cell_length_c   8.36083221
_cell_angle_alpha   83.60057068
_cell_angle_beta   70.49708557
_cell_angle_gamma   70.49708557
_symmetry_Int_Tables_number   1
_chemical_formula_structural   Nb5Sb3
_chemical_formula_sum   'Nb10 Sb6'
_cell_volume   346.74772748
_cell_formula_units_Z   2
loop_
 _symmetry_equiv_pos_site_id
 _symmetry_equiv_pos_as_xyz
  1  'x, y, z'
loop_
 _atom_site_type_symbol
 _atom_site_label
 _atom_site_symmetry_multiplicity
 _atom_site_fract_x
 _atom_site_fract_y
 _atom_site_fract_z
 _atom_site_occupancy
  Nb  Nb0  1  0.74999997  0.49999998  0.49999999  1
  Nb  Nb1  1  0.25000000  0.49999998  0.49999999  1
  Nb  Nb2  1  0.91752497  0.86151297  0.30343700  1
  Nb  Nb3  1  0.22096200  0.69656298  0.86151297  1
  Nb  Nb4  1  0.77903797  0.30343699  0.13848700  1
  Nb  Nb5  1  0.08247500  0.13848700  0.69656298  1
  Nb  Nb6  1  0.72096198  0.86151297  0.69656298  1
  Nb  Nb7  1  0.27903799  0.13848700  0.30343699  1
  Nb  Nb8  1  0.58247498  0.69656298  0.13848700  1
  Nb  Nb9  1  0.41752499  0.30343699  0.86151298  1
  Sb  Sb10  1  0.74999997  0.00000000  0.99999997  1
  Sb  Sb11  1  0.24999999  0.00000000  0.99999997  1
  Sb  Sb12  1  0.83577697  0.49999998  0.82844598  1
  Sb  Sb13  1  0.66422397  0.17155299  0.49999999  1
  Sb  Sb14  1  0.33577600  0.82844697  0.49999999  1
  Sb  Sb15  1  0.16422300  0.49999998  0.17155400  1
