# generated using pymatgen
data_LuV3O6
_symmetry_space_group_name_H-M   'P 1'
_cell_length_a   3.22384501
_cell_length_b   6.18831158
_cell_length_c   6.18831158
_cell_angle_alpha   108.79847717
_cell_angle_beta   90.00000000
_cell_angle_gamma   90.00000000
_symmetry_Int_Tables_number   1
_chemical_formula_structural   LuV3O6
_chemical_formula_sum   'Lu1 V3 O6'
_cell_volume   116.87228277
_cell_formula_units_Z   1
loop_
 _symmetry_equiv_pos_site_id
 _symmetry_equiv_pos_as_xyz
  1  'x, y, z'
loop_
 _atom_site_type_symbol
 _atom_site_label
 _atom_site_symmetry_multiplicity
 _atom_site_fract_x
 _atom_site_fract_y
 _atom_site_fract_z
 _atom_site_occupancy
  Lu  Lu0  1  -0.00000000  0.49999998  0.49999997  1
  V  V1  1  0.50000000  0.00000000  0.49999999  1
  V  V2  1  0.00000000  0.00000000  0.00000000  1
  V  V3  1  0.50000000  0.49999998  -0.00000003  1
  O  O4  1  -0.00000000  0.33813999  0.08314398  1
  O  O5  1  -0.00000000  0.66185998  0.91685595  1
  O  O6  1  -0.00000000  0.08314400  0.33813999  1
  O  O7  1  -0.00000000  0.91685597  0.66185994  1
  O  O8  1  0.50000000  0.35107399  0.64892597  1
  O  O9  1  0.50000000  0.64892598  0.35107396  1
