# generated using pymatgen
data_Li5CuF8
_symmetry_space_group_name_H-M   'P 1'
_cell_length_a   5.70660925
_cell_length_b   5.88633060
_cell_length_c   5.96363068
_cell_angle_alpha   60.59512711
_cell_angle_beta   61.42296219
_cell_angle_gamma   90.01494598
_symmetry_Int_Tables_number   1
_chemical_formula_structural   Li5CuF8
_chemical_formula_sum   'Li5 Cu1 F8'
_cell_volume   145.83950050
_cell_formula_units_Z   1
loop_
 _symmetry_equiv_pos_site_id
 _symmetry_equiv_pos_as_xyz
  1  'x, y, z'
loop_
 _atom_site_type_symbol
 _atom_site_label
 _atom_site_symmetry_multiplicity
 _atom_site_fract_x
 _atom_site_fract_y
 _atom_site_fract_z
 _atom_site_occupancy
  Li  Li0  1  0.38348201  0.13358000  0.23305800  1
  Cu  Cu1  1  0.73974701  0.23445000  0.52048100  1
  Li  Li2  1  0.00647400  0.02420300  0.98711903  1
  Li  Li3  1  0.37451503  0.62228200  0.25099100  1
  Li  Li4  1  0.87162703  0.61847400  0.74996500  1
  Li  Li5  1  0.37832703  0.61842900  0.75003101  1
  F  F6  1  0.14466202  0.42879100  0.71053602  1
  F  F7  1  0.60585504  0.81059200  0.78834201  1
  F  F8  1  0.61743702  0.40128800  0.76494201  1
  F  F9  1  0.13362902  0.37353500  0.24231000  1
  F  F10  1  0.62409702  0.37361400  0.24228099  1
  F  F11  1  0.61074705  0.87699300  0.26002299  1
  F  F12  1  0.12923605  0.87685000  0.26007600  1
  F  F13  1  0.13016605  0.85691900  0.73984401  1
