# generated using pymatgen
data_MgGa13
_symmetry_space_group_name_H-M   'P 1'
_cell_length_a   5.73649120
_cell_length_b   7.89360285
_cell_length_c   7.89360285
_cell_angle_alpha   114.32915497
_cell_angle_beta   104.01892090
_cell_angle_gamma   104.01892090
_symmetry_Int_Tables_number   1
_chemical_formula_structural   MgGa13
_chemical_formula_sum   'Mg1 Ga13'
_cell_volume   291.38296284
_cell_formula_units_Z   1
loop_
 _symmetry_equiv_pos_site_id
 _symmetry_equiv_pos_as_xyz
  1  'x, y, z'
loop_
 _atom_site_type_symbol
 _atom_site_label
 _atom_site_symmetry_multiplicity
 _atom_site_fract_x
 _atom_site_fract_y
 _atom_site_fract_z
 _atom_site_occupancy
  Ga  Ga0  1  0.27989405  0.87230005  0.25055008  1
  Ga  Ga1  1  0.40759403  0.37825002  0.12770004  1
  Ga  Ga2  1  0.02934404  0.74945004  0.62175007  1
  Ga  Ga3  1  0.72010603  0.12769901  0.74945002  1
  Ga  Ga4  1  0.59240605  0.62175003  0.87230007  1
  Ga  Ga5  1  0.97065604  0.25055001  0.37824903  1
  Ga  Ga6  1  0.00000000  0.00000000  0.00000000  1
  Ga  Ga7  1  0.50000002  0.00000000  0.00000000  1
  Ga  Ga8  1  0.54718203  0.32204102  0.48910703  1
  Ga  Ga9  1  0.22514102  0.16706601  0.67795902  1
  Ga  Ga10  1  0.05807503  0.51089303  0.83293405  1
  Ga  Ga11  1  0.45281805  0.67795904  0.51089307  1
  Mg  Mg12  1  0.77485907  0.83293405  0.32204108  1
  Ga  Ga13  1  0.94192506  0.48910703  0.16706605  1
