# generated using pymatgen
data_Cs(PPd)2
_symmetry_space_group_name_H-M   'P 1'
_cell_length_a   3.97434592
_cell_length_b   3.97434592
_cell_length_c   7.25007010
_cell_angle_alpha   105.90779877
_cell_angle_beta   105.90779877
_cell_angle_gamma   90.00000000
_symmetry_Int_Tables_number   1
_chemical_formula_structural   Cs(PPd)2
_chemical_formula_sum   'Cs1 P2 Pd2'
_cell_volume   105.56474909
_cell_formula_units_Z   1
loop_
 _symmetry_equiv_pos_site_id
 _symmetry_equiv_pos_as_xyz
  1  'x, y, z'
loop_
 _atom_site_type_symbol
 _atom_site_label
 _atom_site_symmetry_multiplicity
 _atom_site_fract_x
 _atom_site_fract_y
 _atom_site_fract_z
 _atom_site_occupancy
  Cs  Cs0  1  0.00000000  0.00000000  0.00000000  1
  Pd  Pd1  1  0.74999999  0.25000000  0.49999997  1
  Pd  Pd2  1  0.24999998  0.75000000  0.49999997  1
  P  P3  1  0.64719198  0.64719200  0.29438396  1
  P  P4  1  0.35280799  0.35280800  0.70561598  1
