# generated using pymatgen
data_La4Mg3RuO12
_symmetry_space_group_name_H-M   'P 1'
_cell_length_a   5.56680918
_cell_length_b   5.91655779
_cell_length_c   7.78359318
_cell_angle_alpha   90.00000000
_cell_angle_beta   89.63230896
_cell_angle_gamma   90.00000000
_symmetry_Int_Tables_number   1
_chemical_formula_structural   La4Mg3RuO12
_chemical_formula_sum   'La4 Mg3 Ru1 O12'
_cell_volume   256.35785621
_cell_formula_units_Z   1
loop_
 _symmetry_equiv_pos_site_id
 _symmetry_equiv_pos_as_xyz
  1  'x, y, z'
loop_
 _atom_site_type_symbol
 _atom_site_label
 _atom_site_symmetry_multiplicity
 _atom_site_fract_x
 _atom_site_fract_y
 _atom_site_fract_z
 _atom_site_occupancy
  La  La0  1  0.48292498  0.06687500  0.24979799  1
  La  La1  1  0.51707498  0.93312503  0.75020200  1
  La  La2  1  0.01707500  0.56687502  0.25020200  1
  La  La3  1  0.98292497  0.43312502  0.74979799  1
  Mg  Mg4  1  0.49999998  0.50000002  -0.00000001  1
  Mg  Mg5  1  0.00000000  1.00000004  0.50000001  1
  Ru  Ru6  1  0.49999998  0.50000002  0.50000000  1
  Mg  Mg7  1  0.00000000  0.00000000  0.00000000  1
  O  O8  1  0.59892998  0.46990302  0.24904699  1
  O  O9  1  0.40106999  0.53009702  0.75095300  1
  O  O10  1  0.90106997  0.96990303  0.25095298  1
  O  O11  1  0.09893000  0.03009700  0.74904701  1
  O  O12  1  0.31856899  0.78701703  0.44463200  1
  O  O13  1  0.68143098  0.21298301  0.55536799  1
  O  O14  1  0.18143099  0.28701701  0.05536800  1
  O  O15  1  0.81856897  0.71298303  0.94463199  1
  O  O16  1  0.20176999  0.31086301  0.45154000  1
  O  O17  1  0.79822997  0.68913702  0.54845999  1
  O  O18  1  0.29822999  0.81086303  0.04845999  1
  O  O19  1  0.70176998  0.18913701  0.95154000  1
