# generated using pymatgen
data_Ga3Se4
_symmetry_space_group_name_H-M   'P 1'
_cell_length_a   7.33598518
_cell_length_b   7.33598518
_cell_length_c   7.33598518
_cell_angle_alpha   60.00000000
_cell_angle_beta   60.00000000
_cell_angle_gamma   60.00000000
_symmetry_Int_Tables_number   1
_chemical_formula_structural   Ga3Se4
_chemical_formula_sum   'Ga6 Se8'
_cell_volume   279.16459541
_cell_formula_units_Z   2
loop_
 _symmetry_equiv_pos_site_id
 _symmetry_equiv_pos_as_xyz
  1  'x, y, z'
loop_
 _atom_site_type_symbol
 _atom_site_label
 _atom_site_symmetry_multiplicity
 _atom_site_fract_x
 _atom_site_fract_y
 _atom_site_fract_z
 _atom_site_occupancy
  Ga  Ga0  1  0.87500002  0.37500001  0.87500002  1
  Ga  Ga1  1  0.87500002  0.87500002  0.87500002  1
  Ga  Ga2  1  0.37500001  0.87500002  0.87500002  1
  Ga  Ga3  1  0.87500002  0.87500002  0.37500001  1
  Ga  Ga4  1  0.50000001  0.50000001  0.50000001  1
  Ga  Ga5  1  0.25000001  0.25000001  0.25000001  1
  Se  Se6  1  0.11026800  0.11026900  0.66919402  1
  Se  Se7  1  0.08080700  0.63973102  0.63973102  1
  Se  Se8  1  0.66919302  0.11026900  0.11026900  1
  Se  Se9  1  0.63973202  0.63973102  0.08080600  1
  Se  Se10  1  0.63973202  0.63973102  0.63973102  1
  Se  Se11  1  0.63973202  0.08080600  0.63973102  1
  Se  Se12  1  0.11026800  0.11026900  0.11026900  1
  Se  Se13  1  0.11026800  0.66919402  0.11026900  1
