# generated using pymatgen
data_LuSi4Ir
_symmetry_space_group_name_H-M   'P 1'
_cell_length_a   4.04602623
_cell_length_b   5.00220203
_cell_length_c   5.00220203
_cell_angle_alpha   120.00000000
_cell_angle_beta   90.00000000
_cell_angle_gamma   90.00000000
_symmetry_Int_Tables_number   1
_chemical_formula_structural   LuSi4Ir
_chemical_formula_sum   'Lu1 Si4 Ir1'
_cell_volume   87.67621290
_cell_formula_units_Z   1
loop_
 _symmetry_equiv_pos_site_id
 _symmetry_equiv_pos_as_xyz
  1  'x, y, z'
loop_
 _atom_site_type_symbol
 _atom_site_label
 _atom_site_symmetry_multiplicity
 _atom_site_fract_x
 _atom_site_fract_y
 _atom_site_fract_z
 _atom_site_occupancy
  Lu  Lu0  1  0.00000000  0.00000000  0.00000000  1
  Si  Si1  1  0.49999997  0.00000000  0.50000000  1
  Si  Si2  1  0.99999994  0.66666666  0.33333333  1
  Si  Si3  1  0.00000000  0.33333333  0.66666666  1
  Ir  Ir4  1  0.49999997  0.50000000  0.50000000  1
  Si  Si5  1  0.49999997  0.50000000  -0.00000000  1
