# generated using pymatgen
data_Li3V4O8
_symmetry_space_group_name_H-M   'P 1'
_cell_length_a   5.91849709
_cell_length_b   5.91849709
_cell_length_c   5.97086477
_cell_angle_alpha   60.28969574
_cell_angle_beta   60.28969574
_cell_angle_gamma   59.99998856
_symmetry_Int_Tables_number   1
_chemical_formula_structural   Li3V4O8
_chemical_formula_sum   'Li3 V4 O8'
_cell_volume   148.53641194
_cell_formula_units_Z   1
loop_
 _symmetry_equiv_pos_site_id
 _symmetry_equiv_pos_as_xyz
  1  'x, y, z'
loop_
 _atom_site_type_symbol
 _atom_site_label
 _atom_site_symmetry_multiplicity
 _atom_site_fract_x
 _atom_site_fract_y
 _atom_site_fract_z
 _atom_site_occupancy
  Li  Li0  1  0.49999999  0.00000000  0.49999999  1
  Li  Li1  1  0.00000000  0.00000000  0.50000000  1
  Li  Li2  1  -0.00000001  0.49999999  0.49999999  1
  V  V3  1  -0.00000001  0.49999999  -0.00000001  1
  V  V4  1  0.49999999  0.49999999  -0.00000001  1
  V  V5  1  0.49999999  0.00000000  -0.00000001  1
  V  V6  1  0.00000000  0.00000000  0.00000000  1
  O  O7  1  0.25774399  0.25774400  0.22676799  1
  O  O8  1  0.25301399  0.76162099  0.22374399  1
  O  O9  1  0.76162098  0.76162099  0.22374398  1
  O  O10  1  0.74225598  0.74225599  0.77323198  1
  O  O11  1  0.76162098  0.25301400  0.22374398  1
  O  O12  1  0.74698598  0.23837900  0.77625598  1
  O  O13  1  0.23837899  0.23837900  0.77625599  1
  O  O14  1  0.23837899  0.74698599  0.77625599  1
