# generated using pymatgen
data_Tb5B3O10
_symmetry_space_group_name_H-M   'P 1'
_cell_length_a   3.65555477
_cell_length_b   8.21075630
_cell_length_c   9.09432793
_cell_angle_alpha   63.16505814
_cell_angle_beta   84.87773895
_cell_angle_gamma   78.59294891
_symmetry_Int_Tables_number   1
_chemical_formula_structural   Tb5B3O10
_chemical_formula_sum   'Tb5 B3 O10'
_cell_volume   238.75837430
_cell_formula_units_Z   1
loop_
 _symmetry_equiv_pos_site_id
 _symmetry_equiv_pos_as_xyz
  1  'x, y, z'
loop_
 _atom_site_type_symbol
 _atom_site_label
 _atom_site_symmetry_multiplicity
 _atom_site_fract_x
 _atom_site_fract_y
 _atom_site_fract_z
 _atom_site_occupancy
  Tb  Tb0  1  0.32926494  0.45902699  0.63784401  1
  Tb  Tb1  1  0.32926498  0.09687100  0.36215600  1
  Tb  Tb2  1  0.66617893  0.53601398  0.22842700  1
  Tb  Tb3  1  0.66617890  0.76444098  0.77157301  1
  Tb  Tb4  1  0.99896598  0.00440300  1.00000000  1
  B  B5  1  0.91110990  0.76522998  0.39231201  1
  B  B6  1  0.91110997  0.15754200  0.60768800  1
  B  B7  1  0.29021495  0.38991699  0.00000000  1
  O  O8  1  0.72699591  0.70011898  0.54236501  1
  O  O9  1  0.90383796  0.25151999  0.70351300  1
  O  O10  1  0.72699596  0.24248399  0.45763500  1
  O  O11  1  0.10849288  0.97754197  0.66115401  1
  O  O12  1  0.10849292  0.63869598  0.33884601  1
  O  O13  1  0.58211189  0.82631397  0.00000000  1
  O  O14  1  0.24290693  0.54913898  0.85103201  1
  O  O15  1  0.24290695  0.40017099  0.14896800  1
  O  O16  1  0.38553297  0.21683399  1.00000001  1
  O  O17  1  0.90383787  0.95503297  0.29648701  1
