# generated using pymatgen
data_CsAu2
_symmetry_space_group_name_H-M   'P 1'
_cell_length_a   4.18031788
_cell_length_b   4.18031740
_cell_length_c   12.96153927
_cell_angle_alpha   90.00000000
_cell_angle_beta   90.00000000
_cell_angle_gamma   120.00000763
_symmetry_Int_Tables_number   1
_chemical_formula_structural   CsAu2
_chemical_formula_sum   'Cs2 Au4'
_cell_volume   196.15787306
_cell_formula_units_Z   2
loop_
 _symmetry_equiv_pos_site_id
 _symmetry_equiv_pos_as_xyz
  1  'x, y, z'
loop_
 _atom_site_type_symbol
 _atom_site_label
 _atom_site_symmetry_multiplicity
 _atom_site_fract_x
 _atom_site_fract_y
 _atom_site_fract_z
 _atom_site_occupancy
  Cs  Cs0  1  0.66666671  0.33333335  0.00425400  1
  Cs  Cs1  1  0.33333339  0.66666671  0.50425399  1
  Au  Au2  1  0.00000000  0.00000000  0.72373399  1
  Au  Au3  1  0.00000000  0.00000000  0.22373400  1
  Au  Au4  1  0.66666671  0.33333335  0.32691199  1
  Au  Au5  1  0.33333339  0.66666671  0.82691198  1
