# generated using pymatgen
data_BaF
_symmetry_space_group_name_H-M   'P 1'
_cell_length_a   6.37230396
_cell_length_b   7.34728193
_cell_length_c   9.48257828
_cell_angle_alpha   90.00000000
_cell_angle_beta   90.00000000
_cell_angle_gamma   90.00000000
_symmetry_Int_Tables_number   1
_chemical_formula_structural   BaF
_chemical_formula_sum   'Ba10 F10'
_cell_volume   443.96591127
_cell_formula_units_Z   10
loop_
 _symmetry_equiv_pos_site_id
 _symmetry_equiv_pos_as_xyz
  1  'x, y, z'
loop_
 _atom_site_type_symbol
 _atom_site_label
 _atom_site_symmetry_multiplicity
 _atom_site_fract_x
 _atom_site_fract_y
 _atom_site_fract_z
 _atom_site_occupancy
  Ba  Ba0  1  0.56545400  0.12103300  0.74999998  1
  Ba  Ba1  1  0.93454601  0.62103301  0.74999998  1
  Ba  Ba2  1  0.43454600  0.87896701  0.24999999  1
  Ba  Ba3  1  0.06545400  0.37896700  0.24999999  1
  Ba  Ba4  1  0.50000000  0.50000000  -0.00000000  1
  Ba  Ba5  1  0.00000000  0.00000000  0.49999999  1
  Ba  Ba6  1  0.50000000  0.50000000  0.49999999  1
  Ba  Ba7  1  0.00000000  0.00000000  0.00000000  1
  F  F8  1  0.34253500  0.18055100  0.43903999  1
  F  F9  1  0.15746500  0.68055101  0.06096000  1
  F  F10  1  0.65746500  0.81944901  0.93903997  1
  F  F11  1  0.84253500  0.31944900  0.56095998  1
  F  F12  1  0.65746500  0.81944901  0.56095998  1
  F  F13  1  0.84253500  0.31944900  0.93903997  1
  F  F14  1  0.34253500  0.18055100  0.06096000  1
  F  F15  1  0.15746500  0.68055101  0.43903999  1
  F  F16  1  0.35032600  0.45937100  0.74999998  1
  Ba  Ba17  1  0.14967400  0.95937101  0.74999998  1
  F  F18  1  0.64967400  0.54062900  0.24999999  1
  Ba  Ba19  1  0.85032600  0.04062900  0.24999999  1
