# generated using pymatgen
data_TbGa5
_symmetry_space_group_name_H-M   'P 1'
_cell_length_a   5.57974434
_cell_length_b   5.57974434
_cell_length_c   5.57974434
_cell_angle_alpha   60.00000000
_cell_angle_beta   60.00000000
_cell_angle_gamma   60.00000000
_symmetry_Int_Tables_number   1
_chemical_formula_structural   TbGa5
_chemical_formula_sum   'Tb1 Ga5'
_cell_volume   122.83663276
_cell_formula_units_Z   1
loop_
 _symmetry_equiv_pos_site_id
 _symmetry_equiv_pos_as_xyz
  1  'x, y, z'
loop_
 _atom_site_type_symbol
 _atom_site_label
 _atom_site_symmetry_multiplicity
 _atom_site_fract_x
 _atom_site_fract_y
 _atom_site_fract_z
 _atom_site_occupancy
  Ga  Ga0  1  0.00000000  0.00000000  0.00000000  1
  Ga  Ga1  1  0.37524899  0.37524999  0.87425099  1
  Ga  Ga2  1  0.37524899  0.37524999  0.37524999  1
  Tb  Tb3  1  0.74999999  0.74999999  0.74999999  1
  Ga  Ga4  1  0.37524899  0.87425099  0.37524999  1
  Ga  Ga5  1  0.87424999  0.37524999  0.37524999  1
