# generated using pymatgen
data_MgMnGe
_symmetry_space_group_name_H-M   'P 1'
_cell_length_a   3.78531194
_cell_length_b   3.78531194
_cell_length_c   7.29002333
_cell_angle_alpha   105.04767609
_cell_angle_beta   105.04767609
_cell_angle_gamma   90.00000000
_symmetry_Int_Tables_number   1
_chemical_formula_structural   MgMnGe
_chemical_formula_sum   'Mg2 Mn2 Ge2'
_cell_volume   97.16023116
_cell_formula_units_Z   2
loop_
 _symmetry_equiv_pos_site_id
 _symmetry_equiv_pos_as_xyz
  1  'x, y, z'
loop_
 _atom_site_type_symbol
 _atom_site_label
 _atom_site_symmetry_multiplicity
 _atom_site_fract_x
 _atom_site_fract_y
 _atom_site_fract_z
 _atom_site_occupancy
  Mg  Mg0  1  0.32965499  0.32965500  0.65930996  1
  Mg  Mg1  1  0.67034497  0.67034500  0.34068994  1
  Mn  Mn2  1  -0.00000002  0.50000000  -0.00000002  1
  Mn  Mn3  1  0.50000000  0.00000000  -0.00000002  1
  Ge  Ge4  1  0.12696400  0.12696400  0.25392798  1
  Ge  Ge5  1  0.87303597  0.87303600  0.74607191  1
