# generated using pymatgen
data_HoGa13
_symmetry_space_group_name_H-M   'P 1'
_cell_length_a   7.44009304
_cell_length_b   7.44009304
_cell_length_c   8.19923496
_cell_angle_alpha   63.01826477
_cell_angle_beta   63.01826477
_cell_angle_gamma   60.00000763
_symmetry_Int_Tables_number   1
_chemical_formula_structural   HoGa13
_chemical_formula_sum   'Ho1 Ga13'
_cell_volume   334.80319561
_cell_formula_units_Z   1
loop_
 _symmetry_equiv_pos_site_id
 _symmetry_equiv_pos_as_xyz
  1  'x, y, z'
loop_
 _atom_site_type_symbol
 _atom_site_label
 _atom_site_symmetry_multiplicity
 _atom_site_fract_x
 _atom_site_fract_y
 _atom_site_fract_z
 _atom_site_occupancy
  Ho  Ho0  1  0.66603601  0.66603601  0.00189201  1
  Ga  Ga1  1  0.33396401  0.33396401  0.99810796  1
  Ga  Ga2  1  0.52884501  0.87151201  0.37525099  1
  Ga  Ga3  1  0.22439201  0.52884501  0.37525099  1
  Ga  Ga4  1  0.87151202  0.22439200  0.37525099  1
  Ga  Ga5  1  0.12848801  0.77560801  0.62474898  1
  Ga  Ga6  1  0.77560802  0.47115501  0.62474898  1
  Ga  Ga7  1  0.47115501  0.12848800  0.62474897  1
  Ga  Ga8  1  0.75925501  0.07943200  0.75584397  1
  Ga  Ga9  1  0.07943200  0.40546901  0.75584397  1
  Ga  Ga10  1  0.40546901  0.75925501  0.75584397  1
  Ga  Ga11  1  0.59453101  0.24074500  0.24415600  1
  Ga  Ga12  1  0.92056802  0.59453101  0.24415600  1
  Ga  Ga13  1  0.24074501  0.92056801  0.24415600  1
