# generated using pymatgen
data_Ga5Pt
_symmetry_space_group_name_H-M   'P 1'
_cell_length_a   4.00893116
_cell_length_b   4.00893116
_cell_length_c   6.14859581
_cell_angle_alpha   90.00000000
_cell_angle_beta   90.00000000
_cell_angle_gamma   90.00000000
_symmetry_Int_Tables_number   1
_chemical_formula_structural   Ga5Pt
_chemical_formula_sum   'Ga5 Pt1'
_cell_volume   98.81733615
_cell_formula_units_Z   1
loop_
 _symmetry_equiv_pos_site_id
 _symmetry_equiv_pos_as_xyz
  1  'x, y, z'
loop_
 _atom_site_type_symbol
 _atom_site_label
 _atom_site_symmetry_multiplicity
 _atom_site_fract_x
 _atom_site_fract_y
 _atom_site_fract_z
 _atom_site_occupancy
  Ga  Ga0  1  0.00000000  0.00000000  0.00000000  1
  Pt  Pt1  1  0.49999998  0.49999998  0.00000000  1
  Ga  Ga2  1  0.49999998  0.00000000  0.26582401  1
  Ga  Ga3  1  0.00000000  0.49999998  0.73417602  1
  Ga  Ga4  1  0.49999998  0.00000000  0.69802402  1
  Ga  Ga5  1  0.00000000  0.49999998  0.30197601  1
