# generated using pymatgen
data_In4CoIr
_symmetry_space_group_name_H-M   'P 1'
_cell_length_a   5.46287203
_cell_length_b   6.41809988
_cell_length_c   6.41809988
_cell_angle_alpha   90.00000000
_cell_angle_beta   90.00000000
_cell_angle_gamma   90.00000000
_symmetry_Int_Tables_number   1
_chemical_formula_structural   In4CoIr
_chemical_formula_sum   'In8 Co2 Ir2'
_cell_volume   225.02665776
_cell_formula_units_Z   2
loop_
 _symmetry_equiv_pos_site_id
 _symmetry_equiv_pos_as_xyz
  1  'x, y, z'
loop_
 _atom_site_type_symbol
 _atom_site_label
 _atom_site_symmetry_multiplicity
 _atom_site_fract_x
 _atom_site_fract_y
 _atom_site_fract_z
 _atom_site_occupancy
  In  In0  1  0.50000000  0.16086500  0.66709201  1
  In  In1  1  0.50000000  0.83913502  0.33290801  1
  In  In2  1  0.50000000  0.66709201  0.83913502  1
  In  In3  1  0.50000000  0.33290801  0.16086500  1
  In  In4  1  0.99999999  0.16086500  0.33290801  1
  In  In5  1  0.99999999  0.83913502  0.66709201  1
  In  In6  1  0.00000000  0.66709201  0.16086500  1
  In  In7  1  0.99999999  0.33290801  0.83913502  1
  Co  Co8  1  0.25000000  0.00000000  -0.00000000  1
  Co  Co9  1  0.75000000  0.00000000  -0.00000000  1
  Ir  Ir10  1  0.25000000  0.50000001  0.50000001  1
  Ir  Ir11  1  0.75000000  0.50000001  0.50000001  1
