# generated using pymatgen
data_Te
_symmetry_space_group_name_H-M   'P 1'
_cell_length_a   4.29406404
_cell_length_b   4.29406452
_cell_length_c   17.10134506
_cell_angle_alpha   90.00000000
_cell_angle_beta   90.00000000
_cell_angle_gamma   120.00000000
_symmetry_Int_Tables_number   1
_chemical_formula_structural   Te
_chemical_formula_sum   Te9
_cell_volume   273.08508752
_cell_formula_units_Z   9
loop_
 _symmetry_equiv_pos_site_id
 _symmetry_equiv_pos_as_xyz
  1  'x, y, z'
loop_
 _atom_site_type_symbol
 _atom_site_label
 _atom_site_symmetry_multiplicity
 _atom_site_fract_x
 _atom_site_fract_y
 _atom_site_fract_z
 _atom_site_occupancy
  Te  Te0  1  0.66666668  0.33333334  0.10289501  1
  Te  Te1  1  0.33333337  0.66666667  0.89710505  1
  Te  Te2  1  0.00000000  0.00000000  0.32006802  1
  Te  Te3  1  0.00000000  0.00000000  0.67993204  1
  Te  Te4  1  0.00000000  0.00000000  0.00000000  1
  Te  Te5  1  0.33333337  0.66666667  0.20154201  1
  Te  Te6  1  0.66666668  0.33333334  0.79845804  1
  Te  Te7  1  0.66666668  0.33333334  0.41989202  1
  Te  Te8  1  0.33333337  0.66666667  0.58010803  1
