# generated using pymatgen
data_Ba(BIr)4
_symmetry_space_group_name_H-M   'P 1'
_cell_length_a   3.99082708
_cell_length_b   7.74708796
_cell_length_c   7.74708796
_cell_angle_alpha   90.00000000
_cell_angle_beta   90.00000000
_cell_angle_gamma   90.00000000
_symmetry_Int_Tables_number   1
_chemical_formula_structural   Ba(BIr)4
_chemical_formula_sum   'Ba2 B8 Ir8'
_cell_volume   239.51895282
_cell_formula_units_Z   2
loop_
 _symmetry_equiv_pos_site_id
 _symmetry_equiv_pos_as_xyz
  1  'x, y, z'
loop_
 _atom_site_type_symbol
 _atom_site_label
 _atom_site_symmetry_multiplicity
 _atom_site_fract_x
 _atom_site_fract_y
 _atom_site_fract_z
 _atom_site_occupancy
  Ba  Ba0  1  0.00000000  0.50000000  0.50000000  1
  Ba  Ba1  1  0.49999999  0.00000000  0.00000000  1
  B  B2  1  0.60682999  0.65851200  0.77974500  1
  B  B3  1  0.89316998  0.15851200  0.27974500  1
  B  B4  1  0.10683000  0.27974500  0.84148800  1
  B  B5  1  0.10683000  0.72025500  0.15851200  1
  B  B6  1  0.60682999  0.34148800  0.22025500  1
  B  B7  1  0.89316998  0.84148800  0.72025500  1
  B  B8  1  0.39316999  0.22025500  0.65851200  1
  B  B9  1  0.39316999  0.77974500  0.34148800  1
  Ir  Ir10  1  0.10687400  0.34144500  0.10960400  1
  Ir  Ir11  1  0.10687400  0.65855500  0.89039601  1
  Ir  Ir12  1  0.60687399  0.60960400  0.15855500  1
  Ir  Ir13  1  0.89312598  0.10960400  0.65855500  1
  Ir  Ir14  1  0.39312599  0.15855500  0.39039600  1
  Ir  Ir15  1  0.39312599  0.84144500  0.60960400  1
  Ir  Ir16  1  0.89312598  0.89039601  0.34144500  1
  Ir  Ir17  1  0.60687399  0.39039600  0.84144500  1
