# generated using pymatgen
data_Ba3P8
_symmetry_space_group_name_H-M   'P 1'
_cell_length_a   4.73578215
_cell_length_b   7.42279577
_cell_length_c   8.95231915
_cell_angle_alpha   114.49248505
_cell_angle_beta   105.33726501
_cell_angle_gamma   90.00000000
_symmetry_Int_Tables_number   1
_chemical_formula_structural   Ba3P8
_chemical_formula_sum   'Ba3 P8'
_cell_volume   274.01701222
_cell_formula_units_Z   1
loop_
 _symmetry_equiv_pos_site_id
 _symmetry_equiv_pos_as_xyz
  1  'x, y, z'
loop_
 _atom_site_type_symbol
 _atom_site_label
 _atom_site_symmetry_multiplicity
 _atom_site_fract_x
 _atom_site_fract_y
 _atom_site_fract_z
 _atom_site_occupancy
  Ba  Ba0  1  0.00000001  0.50000001  -0.00000002  1
  Ba  Ba1  1  0.87031900  0.87031901  0.74063799  1
  Ba  Ba2  1  0.12968100  0.12968100  0.25936200  1
  P  P3  1  0.66915600  0.47525301  0.33831200  1
  P  P4  1  0.33084400  0.52474701  0.66168798  1
  P  P5  1  0.33084400  0.13694100  0.66168800  1
  P  P6  1  0.66915600  0.86305901  0.33831199  1
  P  P7  1  0.78464299  0.28464300  0.56928600  1
  P  P8  1  0.21535701  0.71535701  0.43071398  1
  P  P9  1  0.50000001  0.80542801  0.99999998  1
  P  P10  1  0.49999999  0.19457200  0.00000001  1
