# generated using pymatgen
data_MnCo3B2
_symmetry_space_group_name_H-M   'P 1'
_cell_length_a   4.09417439
_cell_length_b   4.09417439
_cell_length_c   4.16678047
_cell_angle_alpha   104.90602112
_cell_angle_beta   104.90602112
_cell_angle_gamma   118.45104218
_symmetry_Int_Tables_number   1
_chemical_formula_structural   MnCo3B2
_chemical_formula_sum   'Mn1 Co3 B2'
_cell_volume   53.08422217
_cell_formula_units_Z   1
loop_
 _symmetry_equiv_pos_site_id
 _symmetry_equiv_pos_as_xyz
  1  'x, y, z'
loop_
 _atom_site_type_symbol
 _atom_site_label
 _atom_site_symmetry_multiplicity
 _atom_site_fract_x
 _atom_site_fract_y
 _atom_site_fract_z
 _atom_site_occupancy
  Mn  Mn0  1  0.33205594  0.66794395  0.99999995  1
  Co  Co1  1  0.66794396  0.33205598  0.99999996  1
  Co  Co2  1  0.16868498  0.16868499  0.33736998  1
  Co  Co3  1  0.83131492  0.83131494  0.66262995  1
  B  B4  1  0.74999996  0.24999998  0.49999997  1
  B  B5  1  0.24999994  0.74999995  0.49999996  1
