# generated using pymatgen
data_Ag3S4N
_symmetry_space_group_name_H-M   'P 1'
_cell_length_a   3.72628307
_cell_length_b   3.79453897
_cell_length_c   9.24489594
_cell_angle_alpha   90.00000000
_cell_angle_beta   80.00400543
_cell_angle_gamma   90.00000000
_symmetry_Int_Tables_number   1
_chemical_formula_structural   Ag3S4N
_chemical_formula_sum   'Ag3 S4 N1'
_cell_volume   128.73412926
_cell_formula_units_Z   1
loop_
 _symmetry_equiv_pos_site_id
 _symmetry_equiv_pos_as_xyz
  1  'x, y, z'
loop_
 _atom_site_type_symbol
 _atom_site_label
 _atom_site_symmetry_multiplicity
 _atom_site_fract_x
 _atom_site_fract_y
 _atom_site_fract_z
 _atom_site_occupancy
  S  S0  1  0.00000000  0.00000000  0.00000000  1
  S  S1  1  0.37613199  0.50000000  0.30292399  1
  Ag  Ag2  1  0.62386799  0.50000000  0.69707598  1
  S  S3  1  0.85531398  0.00000000  0.44092699  1
  N  N4  1  0.14468600  0.00000000  0.55907298  1
  Ag  Ag5  1  0.49999999  0.50000000  0.00000000  1
  Ag  Ag6  1  0.88131998  1.00000001  0.27585700  1
  S  S7  1  0.11868000  0.00000000  0.72414297  1
