# generated using pymatgen
data_Cs2InGe(CN)6
_symmetry_space_group_name_H-M   'P 1'
_cell_length_a   7.63005114
_cell_length_b   7.63005114
_cell_length_c   7.63005114
_cell_angle_alpha   60.00000000
_cell_angle_beta   60.00000000
_cell_angle_gamma   60.00000000
_symmetry_Int_Tables_number   1
_chemical_formula_structural   Cs2InGe(CN)6
_chemical_formula_sum   'Cs2 In1 Ge1 C6 N6'
_cell_volume   314.09957436
_cell_formula_units_Z   1
loop_
 _symmetry_equiv_pos_site_id
 _symmetry_equiv_pos_as_xyz
  1  'x, y, z'
loop_
 _atom_site_type_symbol
 _atom_site_label
 _atom_site_symmetry_multiplicity
 _atom_site_fract_x
 _atom_site_fract_y
 _atom_site_fract_z
 _atom_site_occupancy
  Cs  Cs0  1  0.25000000  0.25000000  0.25000000  1
  Cs  Cs1  1  0.75000001  0.75000001  0.75000001  1
  In  In2  1  0.50000001  0.50000001  0.50000001  1
  Ge  Ge3  1  0.00000000  0.00000000  0.00000000  1
  C  C4  1  0.17442400  0.82557602  0.17442400  1
  C  C5  1  0.82557602  0.82557602  0.17442400  1
  C  C6  1  0.17442400  0.82557602  0.82557602  1
  C  C7  1  0.17442400  0.17442400  0.82557602  1
  C  C8  1  0.82557602  0.17442400  0.17442400  1
  C  C9  1  0.82557602  0.17442400  0.82557602  1
  N  N10  1  0.28385801  0.71614201  0.28385801  1
  N  N11  1  0.71614201  0.71614201  0.28385801  1
  N  N12  1  0.28385801  0.71614201  0.71614201  1
  N  N13  1  0.28385801  0.28385801  0.71614201  1
  N  N14  1  0.71614201  0.28385801  0.28385801  1
  N  N15  1  0.71614201  0.28385801  0.71614201  1
