# generated using pymatgen
data_ZnP13N
_symmetry_space_group_name_H-M   'P 1'
_cell_length_a   3.53626204
_cell_length_b   3.53626227
_cell_length_c   19.56948471
_cell_angle_alpha   90.00000000
_cell_angle_beta   90.00000000
_cell_angle_gamma   120.00000000
_symmetry_Int_Tables_number   1
_chemical_formula_structural   ZnP13N
_chemical_formula_sum   'Zn1 P13 N1'
_cell_volume   211.93316717
_cell_formula_units_Z   1
loop_
 _symmetry_equiv_pos_site_id
 _symmetry_equiv_pos_as_xyz
  1  'x, y, z'
loop_
 _atom_site_type_symbol
 _atom_site_label
 _atom_site_symmetry_multiplicity
 _atom_site_fract_x
 _atom_site_fract_y
 _atom_site_fract_z
 _atom_site_occupancy
  P  P0  1  0.66666668  0.33333334  0.92036901  1
  P  P1  1  0.66666668  0.33333334  0.64930401  1
  P  P2  1  0.66666668  0.33333334  0.38257901  1
  P  P3  1  0.66666668  0.33333334  0.12813100  1
  P  P4  1  0.33333336  0.66666668  0.78370301  1
  P  P5  1  0.33333336  0.66666668  0.51607201  1
  N  N6  1  0.33333336  0.66666668  0.25745900  1
  P  P7  1  0.66666668  0.33333334  0.75688401  1
  P  P8  1  0.66666668  0.33333334  0.49133701  1
  Zn  Zn9  1  0.66666668  0.33333334  0.25972500  1
  P  P10  1  0.33333336  0.66666668  0.89081701  1
  P  P11  1  0.33333336  0.66666668  0.62403101  1
  P  P12  1  0.33333336  0.66666668  0.35982901  1
  P  P13  1  0.33333336  0.66666668  0.15704900  1
  P  P14  1  0.66666668  0.33333334  0.02475900  1
