# generated using pymatgen
data_Ba3OsN3
_symmetry_space_group_name_H-M   'P 1'
_cell_length_a   5.38429403
_cell_length_b   7.98225594
_cell_length_c   7.98225546
_cell_angle_alpha   120.00000000
_cell_angle_beta   90.00000000
_cell_angle_gamma   90.00000000
_symmetry_Int_Tables_number   1
_chemical_formula_structural   Ba3OsN3
_chemical_formula_sum   'Ba6 Os2 N6'
_cell_volume   297.10548607
_cell_formula_units_Z   2
loop_
 _symmetry_equiv_pos_site_id
 _symmetry_equiv_pos_as_xyz
  1  'x, y, z'
loop_
 _atom_site_type_symbol
 _atom_site_label
 _atom_site_symmetry_multiplicity
 _atom_site_fract_x
 _atom_site_fract_y
 _atom_site_fract_z
 _atom_site_occupancy
  Ba  Ba0  1  0.75000000  0.09764600  0.74576101  1
  Ba  Ba1  1  0.75000000  0.25423900  0.35188500  1
  Ba  Ba2  1  0.75000000  0.64811499  0.90235399  1
  Ba  Ba3  1  0.25000000  0.90235399  0.25423897  1
  Ba  Ba4  1  0.25000000  0.74576099  0.64811499  1
  Ba  Ba5  1  0.25000000  0.35188500  0.09764599  1
  Os  Os6  1  0.25000000  0.33333333  0.66666667  1
  Os  Os7  1  0.75000000  0.66666666  0.33333332  1
  N  N8  1  0.25000000  0.11670200  0.69867401  1
  N  N9  1  0.25000000  0.30132600  0.41802800  1
  N  N10  1  0.25000000  0.58197199  0.88329799  1
  N  N11  1  0.75000000  0.88329799  0.30132597  1
  N  N12  1  0.75000000  0.69867399  0.58197199  1
  N  N13  1  0.75000000  0.41802800  0.11670199  1
