# generated using pymatgen
data_P2W
_symmetry_space_group_name_H-M   'P 1'
_cell_length_a   3.18134403
_cell_length_b   5.00739193
_cell_length_c   5.83943605
_cell_angle_alpha   90.00000000
_cell_angle_beta   105.80722809
_cell_angle_gamma   90.00000000
_symmetry_Int_Tables_number   1
_chemical_formula_structural   P2W
_chemical_formula_sum   'P4 W2'
_cell_volume   89.50578283
_cell_formula_units_Z   2
loop_
 _symmetry_equiv_pos_site_id
 _symmetry_equiv_pos_as_xyz
  1  'x, y, z'
loop_
 _atom_site_type_symbol
 _atom_site_label
 _atom_site_symmetry_multiplicity
 _atom_site_fract_x
 _atom_site_fract_y
 _atom_site_fract_z
 _atom_site_occupancy
  P  P0  1  0.43035499  0.61668201  0.86071003  1
  P  P1  1  0.56964499  0.11668200  0.13929000  1
  P  P2  1  0.70177299  0.80058201  0.40354601  1
  P  P3  1  0.29822700  0.30058200  0.59645402  1
  W  W4  1  0.09373900  0.49973601  0.18747801  1
  W  W5  1  0.90626099  0.99973601  0.81252202  1
