# generated using pymatgen
data_Ba6LaI6Br6N
_symmetry_space_group_name_H-M   'P 1'
_cell_length_a   9.72451401
_cell_length_b   9.72451401
_cell_length_c   9.72451401
_cell_angle_alpha   107.01271820
_cell_angle_beta   107.01271820
_cell_angle_gamma   107.01271820
_symmetry_Int_Tables_number   1
_chemical_formula_structural   Ba6LaI6Br6N
_chemical_formula_sum   'Ba6 La1 I6 Br6 N1'
_cell_volume   765.59420771
_cell_formula_units_Z   1
loop_
 _symmetry_equiv_pos_site_id
 _symmetry_equiv_pos_as_xyz
  1  'x, y, z'
loop_
 _atom_site_type_symbol
 _atom_site_label
 _atom_site_symmetry_multiplicity
 _atom_site_fract_x
 _atom_site_fract_y
 _atom_site_fract_z
 _atom_site_occupancy
  Ba  Ba0  1  0.02193602  0.29036300  0.09160201  1
  Ba  Ba1  1  0.09160200  0.02193600  0.29036301  1
  La  La2  1  0.50000003  0.50000001  0.50000003  1
  Ba  Ba3  1  0.70963705  0.90839801  0.97806406  1
  Ba  Ba4  1  0.97806403  0.70963701  0.90839805  1
  Ba  Ba5  1  0.29036300  0.09160200  0.02193600  1
  Ba  Ba6  1  0.90839805  0.97806401  0.70963705  1
  N  N7  1  0.00000000  0.00000000  0.00000000  1
  I  I8  1  0.77231905  0.92729701  0.32180204  1
  Br  Br9  1  0.84082403  0.61341901  0.53572504  1
  Br  Br10  1  0.15917602  0.38658101  0.46427502  1
  I  I11  1  0.32180205  0.77231901  0.92729705  1
  I  I12  1  0.67819801  0.22768100  0.07270301  1
  I  I13  1  0.92729701  0.32180200  0.77231903  1
  Br  Br14  1  0.38658103  0.46427501  0.15917602  1
  Br  Br15  1  0.46427500  0.15917600  0.38658102  1
  I  I16  1  0.22768100  0.07270300  0.67819802  1
  I  I17  1  0.07270304  0.67819801  0.22768103  1
  Br  Br18  1  0.61341903  0.53572501  0.84082404  1
  Br  Br19  1  0.53572505  0.84082401  0.61341904  1
