# generated using pymatgen
data_Tb4Ge5
_symmetry_space_group_name_H-M   'P 1'
_cell_length_a   3.62137008
_cell_length_b   7.84905005
_cell_length_c   7.84904957
_cell_angle_alpha   120.00000000
_cell_angle_beta   90.00000000
_cell_angle_gamma   90.00000000
_symmetry_Int_Tables_number   1
_chemical_formula_structural   Tb4Ge5
_chemical_formula_sum   'Tb4 Ge5'
_cell_volume   193.21360795
_cell_formula_units_Z   1
loop_
 _symmetry_equiv_pos_site_id
 _symmetry_equiv_pos_as_xyz
  1  'x, y, z'
loop_
 _atom_site_type_symbol
 _atom_site_label
 _atom_site_symmetry_multiplicity
 _atom_site_fract_x
 _atom_site_fract_y
 _atom_site_fract_z
 _atom_site_occupancy
  Tb  Tb0  1  0.49999999  0.39986999  0.39986997  1
  Ge  Ge1  1  0.00000000  0.00000000  0.24002299  1
  Ge  Ge2  1  0.99999998  0.24002299  -0.00000001  1
  Tb  Tb3  1  0.49999999  0.60012998  -0.00000003  1
  Tb  Tb4  1  0.49999999  0.00000000  0.60012999  1
  Tb  Tb5  1  0.99999998  0.75997698  0.75997694  1
  Ge  Ge6  1  0.49999999  0.00000000  -0.00000000  1
  Ge  Ge7  1  0.00000000  0.66666665  0.33333329  1
  Ge  Ge8  1  0.99999998  0.33333332  0.66666664  1
