# generated using pymatgen
data_Na4BeP7
_symmetry_space_group_name_H-M   'P 1'
_cell_length_a   5.69861984
_cell_length_b   5.69861984
_cell_length_c   5.69861984
_cell_angle_alpha   90.00000000
_cell_angle_beta   90.00000000
_cell_angle_gamma   90.00000000
_symmetry_Int_Tables_number   1
_chemical_formula_structural   Na4BeP7
_chemical_formula_sum   'Na4 Be1 P7'
_cell_volume   185.05850862
_cell_formula_units_Z   1
loop_
 _symmetry_equiv_pos_site_id
 _symmetry_equiv_pos_as_xyz
  1  'x, y, z'
loop_
 _atom_site_type_symbol
 _atom_site_label
 _atom_site_symmetry_multiplicity
 _atom_site_fract_x
 _atom_site_fract_y
 _atom_site_fract_z
 _atom_site_occupancy
  P  P0  1  0.67968802  0.82031202  0.17968800  1
  P  P1  1  0.82031202  0.17968800  0.67968802  1
  P  P2  1  0.17968800  0.67968802  0.82031202  1
  Be  Be3  1  0.32031201  0.32031201  0.32031201  1
  Na  Na4  1  0.91902503  0.41902501  0.08097500  1
  Na  Na5  1  0.08097500  0.91902503  0.41902501  1
  Na  Na6  1  0.41902501  0.08097500  0.91902503  1
  Na  Na7  1  0.58097502  0.58097502  0.58097502  1
  P  P8  1  0.40508901  0.59491102  0.09491100  1
  P  P9  1  0.59491102  0.09491100  0.40508901  1
  P  P10  1  0.90508903  0.90508903  0.90508903  1
  P  P11  1  0.09491100  0.40508901  0.59491102  1
