# generated using pymatgen
data_Tb3Si2
_symmetry_space_group_name_H-M   'P 1'
_cell_length_a   7.25485802
_cell_length_b   7.83345699
_cell_length_c   7.83345699
_cell_angle_alpha   90.00000000
_cell_angle_beta   90.00000000
_cell_angle_gamma   90.00000000
_symmetry_Int_Tables_number   1
_chemical_formula_structural   Tb3Si2
_chemical_formula_sum   'Tb12 Si8'
_cell_volume   445.18020409
_cell_formula_units_Z   4
loop_
 _symmetry_equiv_pos_site_id
 _symmetry_equiv_pos_as_xyz
  1  'x, y, z'
loop_
 _atom_site_type_symbol
 _atom_site_label
 _atom_site_symmetry_multiplicity
 _atom_site_fract_x
 _atom_site_fract_y
 _atom_site_fract_z
 _atom_site_occupancy
  Tb  Tb0  1  0.50000000  0.67682400  0.32317600  1
  Tb  Tb1  1  0.50000000  0.32317600  0.67682400  1
  Tb  Tb2  1  0.00000000  0.17682400  0.17682400  1
  Tb  Tb3  1  0.00000000  0.82317600  0.82317600  1
  Tb  Tb4  1  0.50000000  0.84159600  0.84159600  1
  Tb  Tb5  1  0.50000000  0.15840400  0.15840400  1
  Tb  Tb6  1  0.00000000  0.34159600  0.65840400  1
  Tb  Tb7  1  0.00000000  0.65840400  0.34159600  1
  Tb  Tb8  1  0.25000000  0.50000000  -0.00000000  1
  Tb  Tb9  1  0.75000000  0.00000000  0.50000000  1
  Tb  Tb10  1  0.75000000  0.50000000  -0.00000000  1
  Tb  Tb11  1  0.25000000  0.00000000  0.50000000  1
  Si  Si12  1  0.23258300  0.86569400  0.13430600  1
  Si  Si13  1  0.23258300  0.13430600  0.86569400  1
  Si  Si14  1  0.73258300  0.36569400  0.36569400  1
  Si  Si15  1  0.73258300  0.63430600  0.63430600  1
  Si  Si16  1  0.76741700  0.13430600  0.86569400  1
  Si  Si17  1  0.76741700  0.86569400  0.13430600  1
  Si  Si18  1  0.26741700  0.63430600  0.63430600  1
  Si  Si19  1  0.26741700  0.36569400  0.36569400  1
