# generated using pymatgen
data_BMo4P3
_symmetry_space_group_name_H-M   'P 1'
_cell_length_a   3.20608211
_cell_length_b   4.58767366
_cell_length_c   6.21555090
_cell_angle_alpha   90.00000000
_cell_angle_beta   90.00000000
_cell_angle_gamma   110.45205688
_symmetry_Int_Tables_number   1
_chemical_formula_structural   BMo4P3
_chemical_formula_sum   'B1 Mo4 P3'
_cell_volume   85.65842961
_cell_formula_units_Z   1
loop_
 _symmetry_equiv_pos_site_id
 _symmetry_equiv_pos_as_xyz
  1  'x, y, z'
loop_
 _atom_site_type_symbol
 _atom_site_label
 _atom_site_symmetry_multiplicity
 _atom_site_fract_x
 _atom_site_fract_y
 _atom_site_fract_z
 _atom_site_occupancy
  Mo  Mo0  1  0.14660798  0.29321599  -0.00000000  1
  P  P1  1  0.44075094  0.88150196  -0.00000000  1
  B  B2  1  0.44007394  0.88014796  0.50000001  1
  P  P3  1  0.55840698  0.11681399  0.74751201  1
  P  P4  1  0.55840698  0.11681399  0.25248800  1
  Mo  Mo5  1  0.14419798  0.28839599  0.50000001  1
  Mo  Mo6  1  0.85577794  0.71155597  0.74583101  1
  Mo  Mo7  1  0.85577794  0.71155597  0.25416900  1
