# generated using pymatgen
data_Li5F4
_symmetry_space_group_name_H-M   'P 1'
_cell_length_a   2.79445195
_cell_length_b   5.19758511
_cell_length_c   6.78266239
_cell_angle_alpha   73.42098999
_cell_angle_beta   78.11197662
_cell_angle_gamma   74.40580750
_symmetry_Int_Tables_number   1
_chemical_formula_structural   Li5F4
_chemical_formula_sum   'Li5 F4'
_cell_volume   90.04663291
_cell_formula_units_Z   1
loop_
 _symmetry_equiv_pos_site_id
 _symmetry_equiv_pos_as_xyz
  1  'x, y, z'
loop_
 _atom_site_type_symbol
 _atom_site_label
 _atom_site_symmetry_multiplicity
 _atom_site_fract_x
 _atom_site_fract_y
 _atom_site_fract_z
 _atom_site_occupancy
  Li  Li0  1  0.36149997  0.40506599  0.87193402  1
  Li  Li1  1  -0.00000005  0.49999999  0.50000003  1
  Li  Li2  1  0.63849996  0.59493398  0.12806603  1
  Li  Li3  1  0.84141801  0.04797900  0.26918500  1
  Li  Li4  1  0.15858192  0.95202097  0.73081505  1
  F  F5  1  0.74381295  0.69169898  0.82067503  1
  F  F6  1  0.25618698  0.30830099  0.17932502  1
  F  F7  1  0.43501794  0.78524698  0.34471704  1
  F  F8  1  0.56498199  0.21475299  0.65528301  1
