# generated using pymatgen
data_Mg2Ga
_symmetry_space_group_name_H-M   'P 1'
_cell_length_a   4.67901182
_cell_length_b   4.67901278
_cell_length_c   7.30871582
_cell_angle_alpha   90.00000000
_cell_angle_beta   90.00000000
_cell_angle_gamma   119.99999237
_symmetry_Int_Tables_number   1
_chemical_formula_structural   Mg2Ga
_chemical_formula_sum   'Mg4 Ga2'
_cell_volume   138.57347707
_cell_formula_units_Z   2
loop_
 _symmetry_equiv_pos_site_id
 _symmetry_equiv_pos_as_xyz
  1  'x, y, z'
loop_
 _atom_site_type_symbol
 _atom_site_label
 _atom_site_symmetry_multiplicity
 _atom_site_fract_x
 _atom_site_fract_y
 _atom_site_fract_z
 _atom_site_occupancy
  Ga  Ga0  1  0.33333330  0.66666663  0.65506602  1
  Ga  Ga1  1  0.66666667  0.33333331  0.34493401  1
  Mg  Mg2  1  0.00000000  0.00000000  0.50000001  1
  Mg  Mg3  1  0.00000000  0.00000000  0.00000000  1
  Mg  Mg4  1  0.33333330  0.66666663  0.24709401  1
  Mg  Mg5  1  0.66666667  0.33333331  0.75290602  1
