# generated using pymatgen
data_Ba5SBr3
_symmetry_space_group_name_H-M   'P 1'
_cell_length_a   7.18835783
_cell_length_b   9.67636395
_cell_length_c   9.67636395
_cell_angle_alpha   120.00000000
_cell_angle_beta   90.00000000
_cell_angle_gamma   90.00000000
_symmetry_Int_Tables_number   1
_chemical_formula_structural   Ba5SBr3
_chemical_formula_sum   'Ba10 S2 Br6'
_cell_volume   582.88745520
_cell_formula_units_Z   2
loop_
 _symmetry_equiv_pos_site_id
 _symmetry_equiv_pos_as_xyz
  1  'x, y, z'
loop_
 _atom_site_type_symbol
 _atom_site_label
 _atom_site_symmetry_multiplicity
 _atom_site_fract_x
 _atom_site_fract_y
 _atom_site_fract_z
 _atom_site_occupancy
  Ba  Ba0  1  0.75000002  0.23074500  -0.00000000  1
  Ba  Ba1  1  0.75000002  0.76925500  0.76925500  1
  Ba  Ba2  1  0.75000002  1.00000001  0.23074500  1
  Ba  Ba3  1  0.25000001  0.76925500  1.00000000  1
  Ba  Ba4  1  0.25000001  0.23074500  0.23074500  1
  Ba  Ba5  1  0.25000001  1.00000001  0.76925500  1
  Ba  Ba6  1  0.50000001  0.33333334  0.66666667  1
  Ba  Ba7  1  0.50000001  0.66666667  0.33333333  1
  Ba  Ba8  1  1.00000002  0.66666667  0.33333333  1
  Ba  Ba9  1  0.00000000  0.33333334  0.66666667  1
  S  S10  1  0.50000001  0.00000000  -0.00000000  1
  S  S11  1  0.00000000  0.00000000  0.00000000  1
  Br  Br12  1  0.75000002  0.59555600  -0.00000000  1
  Br  Br13  1  0.75000002  0.40444400  0.40444400  1
  Br  Br14  1  0.75000002  1.00000001  0.59555600  1
  Br  Br15  1  0.25000001  0.40444400  -0.00000000  1
  Br  Br16  1  0.25000001  0.59555600  0.59555600  1
  Br  Br17  1  0.25000001  1.00000001  0.40444400  1
