# generated using pymatgen
data_Ba4Ag2SF7
_symmetry_space_group_name_H-M   'P 1'
_cell_length_a   6.18460894
_cell_length_b   6.18460894
_cell_length_c   9.73688126
_cell_angle_alpha   90.00000000
_cell_angle_beta   90.00000000
_cell_angle_gamma   110.59572601
_symmetry_Int_Tables_number   1
_chemical_formula_structural   Ba4Ag2SF7
_chemical_formula_sum   'Ba4 Ag2 S1 F7'
_cell_volume   348.62618894
_cell_formula_units_Z   1
loop_
 _symmetry_equiv_pos_site_id
 _symmetry_equiv_pos_as_xyz
  1  'x, y, z'
loop_
 _atom_site_type_symbol
 _atom_site_label
 _atom_site_symmetry_multiplicity
 _atom_site_fract_x
 _atom_site_fract_y
 _atom_site_fract_z
 _atom_site_occupancy
  Ba  Ba0  1  0.14547103  0.52399401  0.74999998  1
  Ba  Ba1  1  0.52399401  0.14547100  0.24999999  1
  Ba  Ba2  1  0.79203204  0.79203202  0.49999999  1
  Ba  Ba3  1  0.79203204  0.79203202  -0.00000000  1
  Ag  Ag4  1  0.54330201  0.09900200  0.74999998  1
  Ag  Ag5  1  0.09900203  0.54330201  0.24999999  1
  S  S6  1  0.91988501  0.05244800  0.74999998  1
  F  F7  1  0.05244805  0.91988502  0.24999999  1
  F  F8  1  0.61812003  0.50750101  0.74999998  1
  F  F9  1  0.50750103  0.61812001  0.24999999  1
  F  F10  1  0.34849604  0.88398002  0.55258799  1
  F  F11  1  0.88398002  0.34849601  0.44741199  1
  F  F12  1  0.34849604  0.88398002  0.94741198  1
  F  F13  1  0.88398002  0.34849601  0.05258800  1
