# generated using pymatgen
data_Zn3SiHO5
_symmetry_space_group_name_H-M   'P 1'
_cell_length_a   5.17257786
_cell_length_b   7.37699699
_cell_length_c   7.37699699
_cell_angle_alpha   70.50861359
_cell_angle_beta   69.47669220
_cell_angle_gamma   69.47669220
_symmetry_Int_Tables_number   1
_chemical_formula_structural   Zn3SiHO5
_chemical_formula_sum   'Zn6 Si2 H2 O10'
_cell_volume   239.65978679
_cell_formula_units_Z   2
loop_
 _symmetry_equiv_pos_site_id
 _symmetry_equiv_pos_as_xyz
  1  'x, y, z'
loop_
 _atom_site_type_symbol
 _atom_site_label
 _atom_site_symmetry_multiplicity
 _atom_site_fract_x
 _atom_site_fract_y
 _atom_site_fract_z
 _atom_site_occupancy
  Zn  Zn0  1  0.66619799  0.54070199  0.13378199  1
  Zn  Zn1  1  0.34068198  0.45929800  0.86621799  1
  Zn  Zn2  1  0.66619702  0.13378200  0.54070297  1
  Zn  Zn3  1  0.34068294  0.86621799  0.45929702  1
  Si  Si4  1  0.15431398  0.35401600  0.35401600  1
  Si  Si5  1  0.86234599  0.64598399  0.64598398  1
  H  H6  1  0.68111596  0.87603599  0.12396401  1
  H  H7  1  0.68111502  0.12396500  0.87603596  1
  Zn  Zn8  1  0.14713692  0.91073499  0.08926503  1
  Zn  Zn9  1  0.14713700  0.08926500  0.91073498  1
  O  O10  1  0.34083598  0.45559500  0.13564800  1
  O  O11  1  0.93207900  0.54440399  0.86435197  1
  O  O12  1  0.34083501  0.13564800  0.45559598  1
  O  O13  1  0.93207997  0.86435099  0.54440399  1
  O  O14  1  0.86111901  0.33353500  0.33353497  1
  O  O15  1  0.52818897  0.66646399  0.66646499  1
  O  O16  1  0.53401095  0.80368399  0.19631501  1
  O  O17  1  0.53401001  0.19631500  0.80368497  1
  O  O18  1  0.08924296  0.50000000  0.50000001  1
  O  O19  1  0.02698391  0.99999999  1.00000003  1
