# generated using pymatgen
data_P
_symmetry_space_group_name_H-M   'P 1'
_cell_length_a   5.94292307
_cell_length_b   6.71458626
_cell_length_c   8.08006573
_cell_angle_alpha   90.00000000
_cell_angle_beta   90.00000000
_cell_angle_gamma   105.42622375
_symmetry_Int_Tables_number   1
_chemical_formula_structural   P
_chemical_formula_sum   P12
_cell_volume   310.81321225
_cell_formula_units_Z   12
loop_
 _symmetry_equiv_pos_site_id
 _symmetry_equiv_pos_as_xyz
  1  'x, y, z'
loop_
 _atom_site_type_symbol
 _atom_site_label
 _atom_site_symmetry_multiplicity
 _atom_site_fract_x
 _atom_site_fract_y
 _atom_site_fract_z
 _atom_site_occupancy
  P  P0  1  0.60944700  0.11515600  0.36485901  1
  P  P1  1  0.89055301  0.88484401  0.86485903  1
  P  P2  1  0.39055302  0.88484401  0.63514102  1
  P  P3  1  0.10944700  0.11515600  0.13514100  1
  P  P4  1  0.51199300  0.21272600  0.60147602  1
  P  P5  1  0.98800701  0.78727400  0.10147600  1
  P  P6  1  0.48800701  0.78727400  0.39852401  1
  P  P7  1  0.01199300  0.21272600  0.89852403  1
  P  P8  1  0.48258300  0.24212600  0.15200801  1
  P  P9  1  0.01741702  0.75787400  0.65200802  1
  P  P10  1  0.51741701  0.75787400  0.84799203  1
  P  P11  1  0.98258299  0.24212600  0.34799201  1
