# generated using pymatgen
data_Ba5P9
_symmetry_space_group_name_H-M   'P 1'
_cell_length_a   7.66537619
_cell_length_b   7.66537619
_cell_length_c   7.66537619
_cell_angle_alpha   106.96173096
_cell_angle_beta   106.96173096
_cell_angle_gamma   114.61597443
_symmetry_Int_Tables_number   1
_chemical_formula_structural   Ba5P9
_chemical_formula_sum   'Ba5 P9'
_cell_volume   344.60387569
_cell_formula_units_Z   1
loop_
 _symmetry_equiv_pos_site_id
 _symmetry_equiv_pos_as_xyz
  1  'x, y, z'
loop_
 _atom_site_type_symbol
 _atom_site_label
 _atom_site_symmetry_multiplicity
 _atom_site_fract_x
 _atom_site_fract_y
 _atom_site_fract_z
 _atom_site_occupancy
  Ba  Ba0  1  0.00000000  0.00000000  0.00000000  1
  Ba  Ba1  1  0.50000003  0.50000001  0.00000005  1
  P  P2  1  0.10879706  0.89120303  0.50000006  1
  P  P3  1  0.39120304  0.60879702  0.50000005  1
  P  P4  1  0.89120302  0.39120301  0.78240604  1
  P  P5  1  0.60879700  0.10879700  0.21759403  1
  P  P6  1  0.43023601  0.23567701  0.49758202  1
  P  P7  1  0.73809506  0.93265403  0.50241708  1
  Ba  Ba8  1  0.23567805  0.73809602  0.80544204  1
  P  P9  1  0.93265402  0.43023601  0.19455906  1
  P  P10  1  0.06734602  0.26190501  0.49758201  1
  P  P11  1  0.76432203  0.56976302  0.50241706  1
  Ba  Ba12  1  0.26190505  0.76432302  0.19455906  1
  Ba  Ba13  1  0.56976400  0.06734600  0.80544201  1
