# generated using pymatgen
data_MgIn3Cu2
_symmetry_space_group_name_H-M   'P 1'
_cell_length_a   5.30408669
_cell_length_b   5.30408669
_cell_length_c   5.30408669
_cell_angle_alpha   104.90889740
_cell_angle_beta   104.90889740
_cell_angle_gamma   119.04093170
_symmetry_Int_Tables_number   1
_chemical_formula_structural   MgIn3Cu2
_chemical_formula_sum   'Mg1 In3 Cu2'
_cell_volume   112.43219622
_cell_formula_units_Z   1
loop_
 _symmetry_equiv_pos_site_id
 _symmetry_equiv_pos_as_xyz
  1  'x, y, z'
loop_
 _atom_site_type_symbol
 _atom_site_label
 _atom_site_symmetry_multiplicity
 _atom_site_fract_x
 _atom_site_fract_y
 _atom_site_fract_z
 _atom_site_occupancy
  Mg  Mg0  1  0.08402003  0.91597906  0.50000005  1
  In  In1  1  0.41598004  0.58402104  0.50000004  1
  In  In2  1  0.91598006  0.41598003  0.83196006  1
  In  In3  1  0.58402003  0.08402001  0.16804002  1
  Cu  Cu4  1  0.00000000  0.00000000  0.00000000  1
  Cu  Cu5  1  0.50000004  0.50000003  0.00000002  1
