# generated using pymatgen
data_Bi3I2
_symmetry_space_group_name_H-M   'P 1'
_cell_length_a   4.42611599
_cell_length_b   4.42611599
_cell_length_c   10.96529675
_cell_angle_alpha   90.00000000
_cell_angle_beta   90.00000000
_cell_angle_gamma   120.00000000
_symmetry_Int_Tables_number   1
_chemical_formula_structural   Bi3I2
_chemical_formula_sum   'Bi3 I2'
_cell_volume   186.03583262
_cell_formula_units_Z   1
loop_
 _symmetry_equiv_pos_site_id
 _symmetry_equiv_pos_as_xyz
  1  'x, y, z'
loop_
 _atom_site_type_symbol
 _atom_site_label
 _atom_site_symmetry_multiplicity
 _atom_site_fract_x
 _atom_site_fract_y
 _atom_site_fract_z
 _atom_site_occupancy
  Bi  Bi0  1  0.66666667  0.33333334  0.84792802  1
  Bi  Bi1  1  0.33333334  0.66666669  0.15207200  1
  Bi  Bi2  1  0.00000000  0.00000000  0.00000000  1
  I  I3  1  0.66666667  0.33333334  0.34285801  1
  I  I4  1  0.33333334  0.66666669  0.65714202  1
