# generated using pymatgen
data_Au
_symmetry_space_group_name_H-M   'P 1'
_cell_length_a   5.84499598
_cell_length_b   5.85905743
_cell_length_c   9.66369534
_cell_angle_alpha   90.00000000
_cell_angle_beta   90.00000000
_cell_angle_gamma   119.92064667
_symmetry_Int_Tables_number   1
_chemical_formula_structural   Au
_chemical_formula_sum   Au16
_cell_volume   286.83526625
_cell_formula_units_Z   16
loop_
 _symmetry_equiv_pos_site_id
 _symmetry_equiv_pos_as_xyz
  1  'x, y, z'
loop_
 _atom_site_type_symbol
 _atom_site_label
 _atom_site_symmetry_multiplicity
 _atom_site_fract_x
 _atom_site_fract_y
 _atom_site_fract_z
 _atom_site_occupancy
  Au  Au0  1  0.00000000  0.00000000  0.49999998  1
  Au  Au1  1  0.00000000  0.00000000  0.00000000  1
  Au  Au2  1  0.33345505  0.66690999  0.24999999  1
  Au  Au3  1  0.66654502  0.33309000  0.74999997  1
  Au  Au4  1  0.50000003  0.50000000  0.49999998  1
  Au  Au5  1  0.50000000  0.00000000  0.49999998  1
  Au  Au6  1  0.00000003  0.50000000  0.49999998  1
  Au  Au7  1  0.50000003  0.50000000  0.99999997  1
  Au  Au8  1  0.50000000  0.00000000  0.99999997  1
  Au  Au9  1  0.00000003  0.50000000  -0.00000000  1
  Au  Au10  1  0.82733705  0.65467400  0.24999999  1
  Au  Au11  1  0.34371601  0.17238400  0.24999999  1
  Au  Au12  1  0.82866801  0.17238400  0.24999999  1
  Au  Au13  1  0.17266302  0.34532600  0.74999997  1
  Au  Au14  1  0.65628406  0.82761599  0.74999997  1
  Au  Au15  1  0.17133206  0.82761599  0.74999997  1
