# generated using pymatgen
data_LiCoO2
_symmetry_space_group_name_H-M   'P 1'
_cell_length_a   5.83827400
_cell_length_b   5.83827400
_cell_length_c   5.85667324
_cell_angle_alpha   60.10386658
_cell_angle_beta   60.10386658
_cell_angle_gamma   60.00000000
_symmetry_Int_Tables_number   1
_chemical_formula_structural   LiCoO2
_chemical_formula_sum   'Li4 Co4 O8'
_cell_volume   141.37902418
_cell_formula_units_Z   4
loop_
 _symmetry_equiv_pos_site_id
 _symmetry_equiv_pos_as_xyz
  1  'x, y, z'
loop_
 _atom_site_type_symbol
 _atom_site_label
 _atom_site_symmetry_multiplicity
 _atom_site_fract_x
 _atom_site_fract_y
 _atom_site_fract_z
 _atom_site_occupancy
  Li  Li0  1  0.50000002  0.50000000  -0.00000002  1
  Li  Li1  1  0.50000001  0.00000000  -0.00000001  1
  Li  Li2  1  0.00000000  0.00000000  0.00000000  1
  Li  Li3  1  0.00000001  0.50000000  -0.00000001  1
  Co  Co4  1  0.50000002  0.50000000  0.49999998  1
  Co  Co5  1  0.00000000  0.00000000  0.50000000  1
  Co  Co6  1  0.00000001  0.50000000  0.49999999  1
  Co  Co7  1  0.50000001  0.00000000  0.49999999  1
  O  O8  1  0.26470701  0.26470700  0.73190099  1
  O  O9  1  0.73529303  0.73529301  0.26809897  1
  O  O10  1  0.26470702  0.73868501  0.73190097  1
  O  O11  1  0.73529302  0.26131500  0.26809898  1
  O  O12  1  0.23687701  0.23687700  0.28936899  1
  O  O13  1  0.76312303  0.76312301  0.71063097  1
  O  O14  1  0.73868502  0.26470700  0.73190098  1
  O  O15  1  0.26131502  0.73529301  0.26809898  1
