# generated using pymatgen
data_Bi2WO7
_symmetry_space_group_name_H-M   'P 1'
_cell_length_a   5.33963394
_cell_length_b   5.47036934
_cell_length_c   5.33963394
_cell_angle_alpha   119.21253204
_cell_angle_beta   90.00000000
_cell_angle_gamma   119.21253204
_symmetry_Int_Tables_number   1
_chemical_formula_structural   Bi2WO7
_chemical_formula_sum   'Bi2 W1 O7'
_cell_volume   112.86127191
_cell_formula_units_Z   1
loop_
 _symmetry_equiv_pos_site_id
 _symmetry_equiv_pos_as_xyz
  1  'x, y, z'
loop_
 _atom_site_type_symbol
 _atom_site_label
 _atom_site_symmetry_multiplicity
 _atom_site_fract_x
 _atom_site_fract_y
 _atom_site_fract_z
 _atom_site_occupancy
  O  O0  1  0.68392001  0.00000100  0.81608101  1
  O  O1  1  0.25000000  0.50000001  0.25000000  1
  O  O2  1  0.75000001  0.50000001  0.75000001  1
  O  O3  1  0.31608000  0.99999903  0.18391900  1
  O  O4  1  0.81608001  0.00000000  0.31608000  1
  O  O5  1  0.18392000  0.00000000  0.68392001  1
  Bi  Bi6  1  0.75000001  0.50000001  0.25000000  1
  Bi  Bi7  1  0.25000000  0.50000001  0.75000001  1
  W  W8  1  0.50000001  0.00000000  0.50000001  1
  O  O9  1  0.00000000  0.00000000  0.00000000  1
