# generated using pymatgen
data_Mg7Sn2
_symmetry_space_group_name_H-M   'P 1'
_cell_length_a   5.58374882
_cell_length_b   5.58374882
_cell_length_c   7.69503832
_cell_angle_alpha   89.75260925
_cell_angle_beta   89.75260925
_cell_angle_gamma   119.95320129
_symmetry_Int_Tables_number   1
_chemical_formula_structural   Mg7Sn2
_chemical_formula_sum   'Mg7 Sn2'
_cell_volume   207.86511208
_cell_formula_units_Z   1
loop_
 _symmetry_equiv_pos_site_id
 _symmetry_equiv_pos_as_xyz
  1  'x, y, z'
loop_
 _atom_site_type_symbol
 _atom_site_label
 _atom_site_symmetry_multiplicity
 _atom_site_fract_x
 _atom_site_fract_y
 _atom_site_fract_z
 _atom_site_occupancy
  Mg  Mg0  1  0.50226402  0.00421600  0.16340798  1
  Sn  Sn1  1  0.99578400  0.49773600  0.83659196  1
  Sn  Sn2  1  0.50203698  0.49796300  0.49999997  1
  Mg  Mg3  1  0.83294602  0.16705400  0.49999997  1
  Mg  Mg4  1  0.16736998  0.33620400  0.16894898  1
  Mg  Mg5  1  0.66379597  0.83263000  0.83105096  1
  Mg  Mg6  1  0.17003295  0.82996700  0.49999997  1
  Mg  Mg7  1  0.83286899  0.66710000  0.16743694  1
  Mg  Mg8  1  0.33290000  0.16713100  0.83256300  1
