# generated using pymatgen
data_Ho3Ge2
_symmetry_space_group_name_H-M   'P 1'
_cell_length_a   3.78154206
_cell_length_b   7.96147108
_cell_length_c   7.96147108
_cell_angle_alpha   90.00000000
_cell_angle_beta   90.00000000
_cell_angle_gamma   90.00000000
_symmetry_Int_Tables_number   1
_chemical_formula_structural   Ho3Ge2
_chemical_formula_sum   'Ho6 Ge4'
_cell_volume   239.69312597
_cell_formula_units_Z   2
loop_
 _symmetry_equiv_pos_site_id
 _symmetry_equiv_pos_as_xyz
  1  'x, y, z'
loop_
 _atom_site_type_symbol
 _atom_site_label
 _atom_site_symmetry_multiplicity
 _atom_site_fract_x
 _atom_site_fract_y
 _atom_site_fract_z
 _atom_site_occupancy
  Ho  Ho0  1  0.49999999  0.32476000  0.82475999  1
  Ho  Ho1  1  0.49999999  0.67523999  0.17524000  1
  Ho  Ho2  1  0.49999999  0.82475999  0.67523999  1
  Ho  Ho3  1  0.49999999  0.17524000  0.32476000  1
  Ge  Ge4  1  0.00000000  0.12435500  0.62435499  1
  Ge  Ge5  1  0.00000000  0.37564500  0.12435500  1
  Ge  Ge6  1  0.00000000  0.87564499  0.37564500  1
  Ge  Ge7  1  0.00000000  0.62435499  0.87564499  1
  Ho  Ho8  1  0.00000000  0.00000000  0.00000000  1
  Ho  Ho9  1  0.00000000  0.49999999  0.49999999  1
