# generated using pymatgen
data_HoGa12
_symmetry_space_group_name_H-M   'P 1'
_cell_length_a   5.35974979
_cell_length_b   5.35975027
_cell_length_c   8.78127003
_cell_angle_alpha   90.00000000
_cell_angle_beta   90.00000000
_cell_angle_gamma   120.00223541
_symmetry_Int_Tables_number   1
_chemical_formula_structural   HoGa12
_chemical_formula_sum   'Ho1 Ga12'
_cell_volume   218.45764710
_cell_formula_units_Z   1
loop_
 _symmetry_equiv_pos_site_id
 _symmetry_equiv_pos_as_xyz
  1  'x, y, z'
loop_
 _atom_site_type_symbol
 _atom_site_label
 _atom_site_symmetry_multiplicity
 _atom_site_fract_x
 _atom_site_fract_y
 _atom_site_fract_z
 _atom_site_occupancy
  Ho  Ho0  1  0.00000500  0.00000500  0.50000000  1
  Ga  Ga1  1  0.50002606  0.50002602  0.75515100  1
  Ga  Ga2  1  0.49995609  0.99999904  0.75524000  1
  Ga  Ga3  1  0.99999908  0.49995602  0.75524000  1
  Ga  Ga4  1  0.50002606  0.50002602  0.24484900  1
  Ga  Ga5  1  0.49995609  0.99999904  0.24476000  1
  Ga  Ga6  1  0.99999908  0.49995602  0.24476000  1
  Ga  Ga7  1  0.66675438  0.33342101  -0.00000000  1
  Ga  Ga8  1  0.33342106  0.66670402  -0.00000000  1
  Ga  Ga9  1  0.00006400  0.00006400  0.83544500  1
  Ga  Ga10  1  0.00006400  0.00006400  0.16455500  1
  Ga  Ga11  1  0.66672305  0.33325901  0.50000000  1
  Ga  Ga12  1  0.33326006  0.66672402  0.50000000  1
