# generated using pymatgen
data_Lu2Si3Ru
_symmetry_space_group_name_H-M   'P 1'
_cell_length_a   4.97517920
_cell_length_b   4.97517920
_cell_length_c   5.02616119
_cell_angle_alpha   60.33497238
_cell_angle_beta   60.33497238
_cell_angle_gamma   60.00000763
_symmetry_Int_Tables_number   1
_chemical_formula_structural   Lu2Si3Ru
_chemical_formula_sum   'Lu2 Si3 Ru1'
_cell_volume   88.41364972
_cell_formula_units_Z   1
loop_
 _symmetry_equiv_pos_site_id
 _symmetry_equiv_pos_as_xyz
  1  'x, y, z'
loop_
 _atom_site_type_symbol
 _atom_site_label
 _atom_site_symmetry_multiplicity
 _atom_site_fract_x
 _atom_site_fract_y
 _atom_site_fract_z
 _atom_site_occupancy
  Lu  Lu0  1  0.12458200  0.12458201  0.62625398  1
  Lu  Lu1  1  0.87541802  0.87541804  0.37374594  1
  Si  Si2  1  0.50000001  0.50000002  0.49999996  1
  Si  Si3  1  -0.00000001  0.50000002  -0.00000001  1
  Si  Si4  1  0.50000002  0.00000000  -0.00000002  1
  Ru  Ru5  1  0.50000001  0.50000002  -0.00000003  1
