# generated using pymatgen
data_MgGa
_symmetry_space_group_name_H-M   'P 1'
_cell_length_a   4.78820705
_cell_length_b   5.28034592
_cell_length_c   5.39181519
_cell_angle_alpha   60.68156052
_cell_angle_beta   90.00000000
_cell_angle_gamma   90.00000000
_symmetry_Int_Tables_number   1
_chemical_formula_structural   MgGa
_chemical_formula_sum   'Mg3 Ga3'
_cell_volume   118.86193990
_cell_formula_units_Z   3
loop_
 _symmetry_equiv_pos_site_id
 _symmetry_equiv_pos_as_xyz
  1  'x, y, z'
loop_
 _atom_site_type_symbol
 _atom_site_label
 _atom_site_symmetry_multiplicity
 _atom_site_fract_x
 _atom_site_fract_y
 _atom_site_fract_z
 _atom_site_occupancy
  Ga  Ga0  1  0.99999999  0.34324900  0.00000001  1
  Mg  Mg1  1  0.49999999  0.32768200  0.66055602  1
  Mg  Mg2  1  0.49999999  0.98823801  0.33944403  1
  Ga  Ga3  1  -0.00000000  0.67230200  0.33304002  1
  Ga  Ga4  1  0.00000000  0.00534200  0.66696002  1
  Mg  Mg5  1  0.49999999  0.66318600  0.00000001  1
