# generated using pymatgen
data_NaP4
_symmetry_space_group_name_H-M   'P 1'
_cell_length_a   3.88621211
_cell_length_b   3.88621259
_cell_length_c   14.35264874
_cell_angle_alpha   90.00000000
_cell_angle_beta   90.00000000
_cell_angle_gamma   119.99999237
_symmetry_Int_Tables_number   1
_chemical_formula_structural   NaP4
_chemical_formula_sum   'Na2 P8'
_cell_volume   187.72226089
_cell_formula_units_Z   2
loop_
 _symmetry_equiv_pos_site_id
 _symmetry_equiv_pos_as_xyz
  1  'x, y, z'
loop_
 _atom_site_type_symbol
 _atom_site_label
 _atom_site_symmetry_multiplicity
 _atom_site_fract_x
 _atom_site_fract_y
 _atom_site_fract_z
 _atom_site_occupancy
  P  P0  1  0.66666663  0.33333332  0.59714801  1
  P  P1  1  0.66666663  0.33333332  0.90285202  1
  P  P2  1  0.33333329  0.66666665  0.09714800  1
  P  P3  1  0.33333329  0.66666665  0.40285201  1
  Na  Na4  1  0.00000000  0.00000000  0.25000000  1
  Na  Na5  1  0.00000000  0.00000000  0.75000001  1
  P  P6  1  0.66666663  0.33333332  0.44000001  1
  P  P7  1  0.66666663  0.33333332  0.06000000  1
  P  P8  1  0.33333329  0.66666665  0.56000001  1
  P  P9  1  0.33333329  0.66666665  0.94000002  1
