# generated using pymatgen
data_LiCoO2
_symmetry_space_group_name_H-M   'P 1'
_cell_length_a   5.04404449
_cell_length_b   5.06223011
_cell_length_c   7.55069828
_cell_angle_alpha   107.22642517
_cell_angle_beta   104.00351715
_cell_angle_gamma   100.02902222
_symmetry_Int_Tables_number   1
_chemical_formula_structural   LiCoO2
_chemical_formula_sum   'Li5 Co5 O10'
_cell_volume   172.27922633
_cell_formula_units_Z   5
loop_
 _symmetry_equiv_pos_site_id
 _symmetry_equiv_pos_as_xyz
  1  'x, y, z'
loop_
 _atom_site_type_symbol
 _atom_site_label
 _atom_site_symmetry_multiplicity
 _atom_site_fract_x
 _atom_site_fract_y
 _atom_site_fract_z
 _atom_site_occupancy
  Li  Li0  1  0.20505200  0.91142700  0.40919497  1
  Li  Li1  1  0.38923199  0.28249400  0.78266499  1
  Li  Li2  1  0.49999999  0.50000000  0.49999997  1
  Li  Li3  1  0.61076798  0.71750600  0.21733496  1
  Li  Li4  1  0.79494797  0.08857300  0.59080498  1
  Co  Co5  1  0.10009400  0.69587500  0.69638998  1
  Co  Co6  1  0.00000000  0.50000000  -0.00000002  1
  Co  Co7  1  0.69894898  0.89519400  0.89853496  1
  Co  Co8  1  0.30105099  0.10480600  0.10146499  1
  Co  Co9  1  0.89990597  0.30412500  0.30360996  1
  O  O10  1  0.05843400  0.10729600  0.86198901  1
  O  O11  1  0.32696099  0.71543100  0.94865798  1
  O  O12  1  0.13035900  0.30520400  0.53983699  1
  O  O13  1  0.22646100  0.47590900  0.23036898  1
  O  O14  1  0.44276599  0.88662300  0.66347597  1
  O  O15  1  0.55723398  0.11337700  0.33652398  1
  O  O16  1  0.77353898  0.52409100  0.76963097  1
  O  O17  1  0.86964097  0.69479600  0.46016296  1
  O  O18  1  0.67303898  0.28456900  0.05134197  1
  O  O19  1  0.94156597  0.89270400  0.13801094  1
