# generated using pymatgen
data_Ga5Co
_symmetry_space_group_name_H-M   'P 1'
_cell_length_a   6.19138384
_cell_length_b   7.11903667
_cell_length_c   6.19138384
_cell_angle_alpha   64.22444153
_cell_angle_beta   90.00000000
_cell_angle_gamma   115.77555847
_symmetry_Int_Tables_number   1
_chemical_formula_structural   Ga5Co
_chemical_formula_sum   'Ga10 Co2'
_cell_volume   215.19278056
_cell_formula_units_Z   2
loop_
 _symmetry_equiv_pos_site_id
 _symmetry_equiv_pos_as_xyz
  1  'x, y, z'
loop_
 _atom_site_type_symbol
 _atom_site_label
 _atom_site_symmetry_multiplicity
 _atom_site_fract_x
 _atom_site_fract_y
 _atom_site_fract_z
 _atom_site_occupancy
  Ga  Ga0  1  0.00000000  0.00000000  0.00000000  1
  Ga  Ga1  1  0.74999998  0.49999998  0.75000006  1
  Co  Co2  1  0.49999994  0.99999995  0.50000008  1
  Co  Co3  1  0.24999997  0.49999998  0.25000004  1
  Ga  Ga4  1  0.37499999  0.24999999  0.17499602  1
  Ga  Ga5  1  0.87500001  0.24999999  0.57500403  1
  Ga  Ga6  1  0.57500396  0.74999996  0.37500006  1
  Ga  Ga7  1  0.87500001  0.24999999  0.17499602  1
  Ga  Ga8  1  0.17499595  0.74999996  0.87500008  1
  Ga  Ga9  1  0.37499999  0.24999999  0.57500403  1
  Ga  Ga10  1  0.17499595  0.74999996  0.37500006  1
  Ga  Ga11  1  0.57500396  0.74999996  0.87500008  1
