# generated using pymatgen
data_Tb5Ga4P
_symmetry_space_group_name_H-M   'P 1'
_cell_length_a   8.63830757
_cell_length_b   8.63830757
_cell_length_c   8.63830757
_cell_angle_alpha   109.47122192
_cell_angle_beta   109.47122192
_cell_angle_gamma   109.47122192
_symmetry_Int_Tables_number   1
_chemical_formula_structural   Tb5Ga4P
_chemical_formula_sum   'Tb10 Ga8 P2'
_cell_volume   496.20836163
_cell_formula_units_Z   2
loop_
 _symmetry_equiv_pos_site_id
 _symmetry_equiv_pos_as_xyz
  1  'x, y, z'
loop_
 _atom_site_type_symbol
 _atom_site_label
 _atom_site_symmetry_multiplicity
 _atom_site_fract_x
 _atom_site_fract_y
 _atom_site_fract_z
 _atom_site_occupancy
  Tb  Tb0  1  0.56009700  0.24999900  0.81009699  1
  Tb  Tb1  1  0.93990202  0.75000000  0.68990204  1
  Tb  Tb2  1  0.31009803  0.56009800  0.75000101  1
  Tb  Tb3  1  0.74999999  0.18990300  0.43990201  1
  Tb  Tb4  1  0.18990205  0.93990200  0.25000005  1
  Tb  Tb5  1  0.25000001  0.31009800  0.06009802  1
  Tb  Tb6  1  0.78885604  1.00000000  1.00000003  1
  Tb  Tb7  1  0.71114402  0.71114400  0.21114505  1
  Tb  Tb8  1  0.00000003  0.50000100  0.28885602  1
  Tb  Tb9  1  0.49999903  0.78885500  0.49999904  1
  Ga  Ga10  1  0.08667200  0.08667200  0.58667298  1
  Ga  Ga11  1  0.41332805  1.00000000  0.00000007  1
  Ga  Ga12  1  0.00000003  0.50000100  0.91332799  1
  Ga  Ga13  1  0.49999901  0.41332700  0.49999901  1
  Ga  Ga14  1  0.13279001  0.25000000  0.38279100  1
  Ga  Ga15  1  0.36721104  0.75000000  0.11721105  1
  Ga  Ga16  1  0.88278998  0.13279100  0.75000000  1
  P  P17  1  0.74999901  0.61720900  0.86720902  1
  Ga  Ga18  1  0.61721100  0.36721100  0.25000002  1
  P  P19  1  0.25000005  0.88278900  0.63278903  1
