# generated using pymatgen
data_Ga7CoS
_symmetry_space_group_name_H-M   'P 1'
_cell_length_a   3.19795895
_cell_length_b   6.16668177
_cell_length_c   6.16668272
_cell_angle_alpha   120.00000000
_cell_angle_beta   90.00000000
_cell_angle_gamma   90.00000000
_symmetry_Int_Tables_number   1
_chemical_formula_structural   Ga7CoS
_chemical_formula_sum   'Ga7 Co1 S1'
_cell_volume   105.31898313
_cell_formula_units_Z   1
loop_
 _symmetry_equiv_pos_site_id
 _symmetry_equiv_pos_as_xyz
  1  'x, y, z'
loop_
 _atom_site_type_symbol
 _atom_site_label
 _atom_site_symmetry_multiplicity
 _atom_site_fract_x
 _atom_site_fract_y
 _atom_site_fract_z
 _atom_site_occupancy
  Ga  Ga0  1  1.00000002  0.25190402  0.25190401  1
  Co  Co1  1  0.00000000  1.00000007  0.74809606  1
  Ga  Ga2  1  1.00000002  0.74809605  1.00000004  1
  Ga  Ga3  1  0.50000001  0.61126804  0.61126803  1
  Ga  Ga4  1  0.50000001  1.00000007  0.38873206  1
  Ga  Ga5  1  0.50000001  0.38873203  1.00000001  1
  Ga  Ga6  1  0.00000000  0.66666671  0.33333337  1
  Ga  Ga7  1  -0.00000000  0.33333336  0.66666668  1
  S  S8  1  0.50000001  0.00000000  -0.00000000  1
