# generated using pymatgen
data_Ga4P3
_symmetry_space_group_name_H-M   'P 1'
_cell_length_a   5.24049616
_cell_length_b   5.24049616
_cell_length_c   6.57844830
_cell_angle_alpha   113.47244263
_cell_angle_beta   113.47244263
_cell_angle_gamma   90.00000000
_symmetry_Int_Tables_number   1
_chemical_formula_structural   Ga4P3
_chemical_formula_sum   'Ga4 P3'
_cell_volume   149.27384744
_cell_formula_units_Z   1
loop_
 _symmetry_equiv_pos_site_id
 _symmetry_equiv_pos_as_xyz
  1  'x, y, z'
loop_
 _atom_site_type_symbol
 _atom_site_label
 _atom_site_symmetry_multiplicity
 _atom_site_fract_x
 _atom_site_fract_y
 _atom_site_fract_z
 _atom_site_occupancy
  P  P0  1  0.50000002  0.50000000  1.00000007  1
  P  P1  1  0.75000000  0.25000000  0.50000005  1
  P  P2  1  0.25000003  0.75000000  0.50000006  1
  Ga  Ga3  1  0.64079100  0.11519900  0.75599004  1
  Ga  Ga4  1  0.88480103  0.88480100  0.24401009  1
  Ga  Ga5  1  0.11519903  0.64079100  0.75599005  1
  Ga  Ga6  1  0.35920901  0.35920900  0.24401004  1
