# generated using pymatgen
data_LuB4
_symmetry_space_group_name_H-M   'P 1'
_cell_length_a   4.02709007
_cell_length_b   7.11262798
_cell_length_c   7.11262798
_cell_angle_alpha   90.00000000
_cell_angle_beta   90.00000000
_cell_angle_gamma   90.00000000
_symmetry_Int_Tables_number   1
_chemical_formula_structural   LuB4
_chemical_formula_sum   'Lu4 B16'
_cell_volume   203.72837991
_cell_formula_units_Z   4
loop_
 _symmetry_equiv_pos_site_id
 _symmetry_equiv_pos_as_xyz
  1  'x, y, z'
loop_
 _atom_site_type_symbol
 _atom_site_label
 _atom_site_symmetry_multiplicity
 _atom_site_fract_x
 _atom_site_fract_y
 _atom_site_fract_z
 _atom_site_occupancy
  Lu  Lu0  1  0.99999998  0.18198500  0.68198500  1
  Lu  Lu1  1  0.00000000  0.68198500  0.81801500  1
  Lu  Lu2  1  0.00000000  0.31801500  0.18198500  1
  Lu  Lu3  1  0.00000000  0.81801500  0.31801500  1
  B  B4  1  0.49999999  0.32401700  0.46138300  1
  B  B5  1  0.49999999  0.67598300  0.53861700  1
  B  B6  1  0.49999999  0.53861700  0.32401700  1
  B  B7  1  0.49999999  0.46138300  0.67598300  1
  B  B8  1  0.20306800  0.00000000  0.00000000  1
  B  B9  1  0.79693199  0.50000000  0.50000000  1
  B  B10  1  0.79693199  0.00000000  -0.00000000  1
  B  B11  1  0.20306800  0.50000000  0.50000000  1
  B  B12  1  0.49999999  0.58710400  0.08710400  1
  B  B13  1  0.49999999  0.08710400  0.41289600  1
  B  B14  1  0.49999999  0.91289600  0.58710400  1
  B  B15  1  0.49999999  0.41289600  0.91289600  1
  B  B16  1  0.49999999  0.03861700  0.17598300  1
  B  B17  1  0.49999999  0.17598300  0.96138300  1
  B  B18  1  0.49999999  0.82401700  0.03861700  1
  B  B19  1  0.49999999  0.96138300  0.82401700  1
