# generated using pymatgen
data_Zn2Cd3Se5
_symmetry_space_group_name_H-M   'P 1'
_cell_length_a   4.19811201
_cell_length_b   6.66034079
_cell_length_c   7.98014688
_cell_angle_alpha   90.00000000
_cell_angle_beta   90.00000000
_cell_angle_gamma   106.01717377
_symmetry_Int_Tables_number   1
_chemical_formula_structural   Zn2Cd3Se5
_chemical_formula_sum   'Zn2 Cd3 Se5'
_cell_volume   214.46955319
_cell_formula_units_Z   1
loop_
 _symmetry_equiv_pos_site_id
 _symmetry_equiv_pos_as_xyz
  1  'x, y, z'
loop_
 _atom_site_type_symbol
 _atom_site_label
 _atom_site_symmetry_multiplicity
 _atom_site_fract_x
 _atom_site_fract_y
 _atom_site_fract_z
 _atom_site_occupancy
  Se  Se0  1  0.78277697  0.40234600  0.15009900  1
  Zn  Zn1  1  0.71722299  0.09765400  0.65009901  1
  Se  Se2  1  0.28277693  0.90234601  0.34990101  1
  Cd  Cd3  1  0.21722295  0.59765401  0.84990101  1
  Zn  Zn4  1  0.49999996  0.50000001  0.50000001  1
  Cd  Cd5  1  0.00000000  0.00000000  0.00000000  1
  Se  Se6  1  0.45521598  0.26529300  0.87522301  1
  Se  Se7  1  0.04478398  0.23470700  0.37522301  1
  Cd  Cd8  1  0.54478394  0.73470701  0.12477700  1
  Se  Se9  1  0.95521594  0.76529301  0.62477701  1
