# generated using pymatgen
data_GeTe4Mo
_symmetry_space_group_name_H-M   'P 1'
_cell_length_a   3.95728898
_cell_length_b   5.27189779
_cell_length_c   9.74130154
_cell_angle_alpha   90.00000000
_cell_angle_beta   90.00000000
_cell_angle_gamma   90.00000000
_symmetry_Int_Tables_number   1
_chemical_formula_structural   GeTe4Mo
_chemical_formula_sum   'Ge1 Te4 Mo1'
_cell_volume   203.22715363
_cell_formula_units_Z   1
loop_
 _symmetry_equiv_pos_site_id
 _symmetry_equiv_pos_as_xyz
  1  'x, y, z'
loop_
 _atom_site_type_symbol
 _atom_site_label
 _atom_site_symmetry_multiplicity
 _atom_site_fract_x
 _atom_site_fract_y
 _atom_site_fract_z
 _atom_site_occupancy
  Mo  Mo0  1  0.00000000  0.00000000  0.11416601  1
  Ge  Ge1  1  0.50000000  0.50000002  0.88583404  1
  Te  Te2  1  0.50000000  0.00000000  0.92773004  1
  Te  Te3  1  0.00000000  0.50000002  0.07227000  1
  Te  Te4  1  0.00000000  0.50000002  0.68677603  1
  Te  Te5  1  0.50000000  0.00000000  0.31322401  1
