# generated using pymatgen
data_HoInAu
_symmetry_space_group_name_H-M   'P 1'
_cell_length_a   4.76219797
_cell_length_b   4.76219749
_cell_length_c   7.58948994
_cell_angle_alpha   90.00000000
_cell_angle_beta   90.00000000
_cell_angle_gamma   120.00000000
_symmetry_Int_Tables_number   1
_chemical_formula_structural   HoInAu
_chemical_formula_sum   'Ho2 In2 Au2'
_cell_volume   149.05895391
_cell_formula_units_Z   2
loop_
 _symmetry_equiv_pos_site_id
 _symmetry_equiv_pos_as_xyz
  1  'x, y, z'
loop_
 _atom_site_type_symbol
 _atom_site_label
 _atom_site_symmetry_multiplicity
 _atom_site_fract_x
 _atom_site_fract_y
 _atom_site_fract_z
 _atom_site_occupancy
  Ho  Ho0  1  0.00000000  0.00000000  0.52566600  1
  Ho  Ho1  1  0.00000000  0.00000000  0.02566600  1
  In  In2  1  0.66666665  0.33333333  0.30028400  1
  In  In3  1  0.33333330  0.66666666  0.80028401  1
  Au  Au4  1  0.33333330  0.66666666  0.20405000  1
  Au  Au5  1  0.66666665  0.33333333  0.70405001  1
