# generated using pymatgen
data_CoSiMo
_symmetry_space_group_name_H-M   'P 1'
_cell_length_a   3.72531605
_cell_length_b   6.11982679
_cell_length_c   7.05373716
_cell_angle_alpha   90.00000000
_cell_angle_beta   90.00000000
_cell_angle_gamma   90.00000000
_symmetry_Int_Tables_number   1
_chemical_formula_structural   CoSiMo
_chemical_formula_sum   'Co4 Si4 Mo4'
_cell_volume   160.81313813
_cell_formula_units_Z   4
loop_
 _symmetry_equiv_pos_site_id
 _symmetry_equiv_pos_as_xyz
  1  'x, y, z'
loop_
 _atom_site_type_symbol
 _atom_site_label
 _atom_site_symmetry_multiplicity
 _atom_site_fract_x
 _atom_site_fract_y
 _atom_site_fract_z
 _atom_site_occupancy
  Si  Si0  1  0.25000000  0.24155701  0.88607398  1
  Si  Si1  1  0.25000000  0.74155703  0.61392599  1
  Si  Si2  1  0.74999999  0.75844303  0.11392600  1
  Si  Si3  1  0.74999999  0.25844301  0.38607399  1
  Co  Co4  1  0.25000000  0.35715601  0.56965499  1
  Co  Co5  1  0.25000000  0.85715603  0.93034498  1
  Co  Co6  1  0.74999999  0.64284402  0.43034499  1
  Co  Co7  1  0.74999999  0.14284400  0.06965500  1
  Mo  Mo8  1  0.25000000  0.97442403  0.32172499  1
  Mo  Mo9  1  0.25000000  0.47442402  0.17827500  1
  Mo  Mo10  1  0.74999999  0.02557600  0.67827498  1
  Mo  Mo11  1  0.74999999  0.52557602  0.82172498  1
