# generated using pymatgen
data_Cs6Au3Se7
_symmetry_space_group_name_H-M   'P 1'
_cell_length_a   6.19527721
_cell_length_b   6.71184587
_cell_length_c   12.17578220
_cell_angle_alpha   90.00000000
_cell_angle_beta   90.00000000
_cell_angle_gamma   90.00000000
_symmetry_Int_Tables_number   1
_chemical_formula_structural   Cs6Au3Se7
_chemical_formula_sum   'Cs6 Au3 Se7'
_cell_volume   506.29028066
_cell_formula_units_Z   1
loop_
 _symmetry_equiv_pos_site_id
 _symmetry_equiv_pos_as_xyz
  1  'x, y, z'
loop_
 _atom_site_type_symbol
 _atom_site_label
 _atom_site_symmetry_multiplicity
 _atom_site_fract_x
 _atom_site_fract_y
 _atom_site_fract_z
 _atom_site_occupancy
  Cs  Cs0  1  0.42165199  0.50000001  0.49999999  1
  Cs  Cs1  1  0.57834798  0.00000000  0.00000000  1
  Cs  Cs2  1  0.16880599  0.00000000  0.23720700  1
  Cs  Cs3  1  0.16880599  0.00000000  0.76279299  1
  Cs  Cs4  1  0.83119397  0.50000001  0.26279300  1
  Cs  Cs5  1  0.83119397  0.50000001  0.73720699  1
  Se  Se6  1  0.94227697  0.20736300  0.49999999  1
  Au  Au7  1  0.67274098  0.00000000  0.61445199  1
  Se  Se8  1  0.32725899  0.50000001  0.11445200  1
  Se  Se9  1  0.32725899  0.50000001  0.88554799  1
  Au  Au10  1  0.05772300  0.70736301  -0.00000000  1
  Se  Se11  1  0.05772300  0.29263701  -0.00000000  1
  Au  Au12  1  0.67274098  0.00000000  0.38554799  1
  Se  Se13  1  0.94227697  0.79263701  0.49999999  1
  Se  Se14  1  0.69081998  0.50000001  -0.00000000  1
  Se  Se15  1  0.30917999  0.00000000  0.49999999  1
