# generated using pymatgen
data_LiW3O8
_symmetry_space_group_name_H-M   'P 1'
_cell_length_a   4.63107014
_cell_length_b   5.46270514
_cell_length_c   5.46270514
_cell_angle_alpha   64.28263092
_cell_angle_beta   88.00711823
_cell_angle_gamma   88.00711823
_symmetry_Int_Tables_number   1
_chemical_formula_structural   LiW3O8
_chemical_formula_sum   'Li1 W3 O8'
_cell_volume   124.40241983
_cell_formula_units_Z   1
loop_
 _symmetry_equiv_pos_site_id
 _symmetry_equiv_pos_as_xyz
  1  'x, y, z'
loop_
 _atom_site_type_symbol
 _atom_site_label
 _atom_site_symmetry_multiplicity
 _atom_site_fract_x
 _atom_site_fract_y
 _atom_site_fract_z
 _atom_site_occupancy
  W  W0  1  0.51008602  0.26024001  0.26024002  1
  W  W1  1  0.48991403  0.73976003  0.73976004  1
  Li  Li2  1  0.00000000  0.22888501  0.77111503  1
  W  W3  1  0.00000001  0.77111503  0.22888501  1
  O  O4  1  0.19991602  0.59713002  0.59713003  1
  O  O5  1  0.80008404  0.40287001  0.40287003  1
  O  O6  1  0.77780504  0.88473303  0.88473305  1
  O  O7  1  0.22219501  0.11526700  0.11526701  1
  O  O8  1  0.69521404  0.90678503  0.39682903  1
  O  O9  1  0.30478602  0.60317102  0.09321501  1
  O  O10  1  0.30478601  0.09321500  0.60317103  1
  O  O11  1  0.69521403  0.39682901  0.90678505  1
