# generated using pymatgen
data_Tb(Co2B)6
_symmetry_space_group_name_H-M   'P 1'
_cell_length_a   5.95694494
_cell_length_b   5.95694494
_cell_length_c   5.95694447
_cell_angle_alpha   104.07904053
_cell_angle_beta   104.07904053
_cell_angle_gamma   104.07903290
_symmetry_Int_Tables_number   1
_chemical_formula_structural   Tb(Co2B)6
_chemical_formula_sum   'Tb1 Co12 B6'
_cell_volume   188.31910029
_cell_formula_units_Z   1
loop_
 _symmetry_equiv_pos_site_id
 _symmetry_equiv_pos_as_xyz
  1  'x, y, z'
loop_
 _atom_site_type_symbol
 _atom_site_label
 _atom_site_symmetry_multiplicity
 _atom_site_fract_x
 _atom_site_fract_y
 _atom_site_fract_z
 _atom_site_occupancy
  Tb  Tb0  1  0.00000000  0.00000000  0.00000000  1
  Co  Co1  1  0.13239500  0.50000000  0.86760506  1
  Co  Co2  1  0.50000000  0.13239500  0.86760506  1
  Co  Co3  1  0.86760501  0.50000000  0.13239509  1
  Co  Co4  1  0.81379901  0.54439900  0.54439910  1
  Co  Co5  1  0.45560100  0.18620100  0.45560105  1
  Co  Co6  1  0.54439900  0.81379900  0.54439910  1
  Co  Co7  1  0.45560100  0.45560100  0.18620106  1
  Co  Co8  1  0.13239500  0.86760501  0.50000008  1
  Co  Co9  1  0.86760500  0.13239500  0.50000008  1
  Co  Co10  1  0.18620100  0.45560100  0.45560105  1
  Co  Co11  1  0.50000000  0.86760501  0.13239509  1
  Co  Co12  1  0.54439900  0.54439900  0.81379909  1
  B  B13  1  0.76612400  0.32295000  0.76612409  1
  B  B14  1  0.76612401  0.76612400  0.32295011  1
  B  B15  1  0.32295000  0.76612400  0.76612409  1
  B  B16  1  0.23387600  0.23387600  0.67705005  1
  B  B17  1  0.67705000  0.23387600  0.23387607  1
  B  B18  1  0.23387600  0.67705000  0.23387607  1
