# generated using pymatgen
data_Hg7Se9
_symmetry_space_group_name_H-M   'P 1'
_cell_length_a   4.86635208
_cell_length_b   8.46387100
_cell_length_c   12.15256119
_cell_angle_alpha   102.84288788
_cell_angle_beta   90.00000000
_cell_angle_gamma   90.00000000
_symmetry_Int_Tables_number   1
_chemical_formula_structural   Hg7Se9
_chemical_formula_sum   'Hg7 Se9'
_cell_volume   488.01989961
_cell_formula_units_Z   1
loop_
 _symmetry_equiv_pos_site_id
 _symmetry_equiv_pos_as_xyz
  1  'x, y, z'
loop_
 _atom_site_type_symbol
 _atom_site_label
 _atom_site_symmetry_multiplicity
 _atom_site_fract_x
 _atom_site_fract_y
 _atom_site_fract_z
 _atom_site_occupancy
  Se  Se0  1  0.87859199  0.05420500  0.25089099  1
  Hg  Hg1  1  0.12140800  0.94579499  0.74910894  1
  Se  Se2  1  0.37859199  0.44579499  0.24910898  1
  Hg  Hg3  1  0.62140799  0.55420499  0.75089095  1
  Hg  Hg4  1  0.50864599  0.86112299  0.14868796  1
  Se  Se5  1  0.49135399  0.13887700  0.85131197  1
  Hg  Hg6  1  0.00864600  0.63887699  0.35131196  1
  Se  Se7  1  0.99135398  0.36112300  0.64868796  1
  Se  Se8  1  0.71947899  0.58123199  0.15994597  1
  Se  Se9  1  0.28052100  0.41876799  0.84005396  1
  Se  Se10  1  0.21947900  0.91876799  0.34005395  1
  Hg  Hg11  1  0.78052099  0.08123200  0.65994597  1
  Hg  Hg12  1  0.63916699  0.29533400  0.39256998  1
  Se  Se13  1  0.36083299  0.70466599  0.60742995  1
  Hg  Hg14  1  0.13916700  0.20466600  0.10742999  1
  Se  Se15  1  0.86083299  0.79533399  0.89256994  1
