# generated using pymatgen
data_Na2Ge2O5
_symmetry_space_group_name_H-M   'P 1'
_cell_length_a   5.37513351
_cell_length_b   5.61743879
_cell_length_c   8.42727661
_cell_angle_alpha   109.29516602
_cell_angle_beta   108.41042328
_cell_angle_gamma   90.29094696
_symmetry_Int_Tables_number   1
_chemical_formula_structural   Na2Ge2O5
_chemical_formula_sum   'Na4 Ge4 O10'
_cell_volume   226.16426071
_cell_formula_units_Z   2
loop_
 _symmetry_equiv_pos_site_id
 _symmetry_equiv_pos_as_xyz
  1  'x, y, z'
loop_
 _atom_site_type_symbol
 _atom_site_label
 _atom_site_symmetry_multiplicity
 _atom_site_fract_x
 _atom_site_fract_y
 _atom_site_fract_z
 _atom_site_occupancy
  Na  Na0  1  0.60836302  0.08018200  0.21866399  1
  Na  Na1  1  0.38826500  0.91930901  0.78074797  1
  Na  Na2  1  0.11107599  0.63543501  0.21778797  1
  Na  Na3  1  0.89436102  0.36447200  0.78257899  1
  Ge  Ge4  1  0.01311899  0.99925801  0.99981398  1
  Ge  Ge5  1  0.51517101  0.50014101  0.99993499  1
  Ge  Ge6  1  0.22367200  0.31954200  0.50466399  1
  Ge  Ge7  1  0.71921401  0.67971901  0.49519097  1
  O  O8  1  0.86785502  0.37198300  0.49929398  1
  O  O9  1  0.36837400  0.62780301  0.50050498  1
  O  O10  1  0.40758901  0.29487600  0.72401700  1
  O  O11  1  0.68520101  0.70608401  0.27674596  1
  O  O12  1  0.90715201  0.93314001  0.70275596  1
  O  O13  1  0.20932300  0.06785500  0.29748700  1
  O  O14  1  0.78205302  0.25795000  0.03309698  1
  O  O15  1  0.74521901  0.73641701  0.97310598  1
  O  O16  1  0.24211300  0.73348101  0.96603999  1
  O  O17  1  0.27988400  0.27235400  0.02757398  1
