# generated using pymatgen
data_BaGeO3
_symmetry_space_group_name_H-M   'P 1'
_cell_length_a   4.49779797
_cell_length_b   5.58090115
_cell_length_c   12.76339817
_cell_angle_alpha   90.00000000
_cell_angle_beta   90.00000000
_cell_angle_gamma   90.00000000
_symmetry_Int_Tables_number   1
_chemical_formula_structural   BaGeO3
_chemical_formula_sum   'Ba4 Ge4 O12'
_cell_volume   320.38383198
_cell_formula_units_Z   4
loop_
 _symmetry_equiv_pos_site_id
 _symmetry_equiv_pos_as_xyz
  1  'x, y, z'
loop_
 _atom_site_type_symbol
 _atom_site_label
 _atom_site_symmetry_multiplicity
 _atom_site_fract_x
 _atom_site_fract_y
 _atom_site_fract_z
 _atom_site_occupancy
  Ba  Ba0  1  0.52277600  0.24999999  0.65133199  1
  Ba  Ba1  1  0.97722401  0.24999999  0.15133200  1
  Ba  Ba2  1  0.47722400  0.74999998  0.34866800  1
  Ba  Ba3  1  0.02277600  0.74999998  0.84866799  1
  Ge  Ge4  1  0.49692500  0.24999999  0.92113599  1
  Ge  Ge5  1  0.99692501  0.74999998  0.57886399  1
  Ge  Ge6  1  0.00307500  0.24999999  0.42113599  1
  Ge  Ge7  1  0.50307500  0.74999998  0.07886400  1
  O  O8  1  0.97153201  0.01063400  0.33530300  1
  O  O9  1  0.97153201  0.48936599  0.33530300  1
  O  O10  1  0.12108100  0.24999999  0.94777499  1
  O  O11  1  0.37891900  0.24999999  0.44777499  1
  O  O12  1  0.02846800  0.98936597  0.66469699  1
  O  O13  1  0.52846800  0.48936599  0.83530299  1
  O  O14  1  0.62108100  0.74999998  0.55222499  1
  O  O15  1  0.52846800  0.01063400  0.83530299  1
  O  O16  1  0.87891901  0.74999998  0.05222500  1
  O  O17  1  0.02846800  0.51063399  0.66469699  1
  O  O18  1  0.47153200  0.98936597  0.16469700  1
  O  O19  1  0.47153200  0.51063399  0.16469700  1
