# generated using pymatgen
data_P10H3S
_symmetry_space_group_name_H-M   'P 1'
_cell_length_a   4.11244678
_cell_length_b   6.83423996
_cell_length_c   6.83423996
_cell_angle_alpha   90.00000000
_cell_angle_beta   90.00000000
_cell_angle_gamma   90.00000000
_symmetry_Int_Tables_number   1
_chemical_formula_structural   P10H3S
_chemical_formula_sum   'P10 H3 S1'
_cell_volume   192.07937683
_cell_formula_units_Z   1
loop_
 _symmetry_equiv_pos_site_id
 _symmetry_equiv_pos_as_xyz
  1  'x, y, z'
loop_
 _atom_site_type_symbol
 _atom_site_label
 _atom_site_symmetry_multiplicity
 _atom_site_fract_x
 _atom_site_fract_y
 _atom_site_fract_z
 _atom_site_occupancy
  P  P0  1  0.82031504  0.50000000  -0.00000000  1
  P  P1  1  0.17968501  0.00000000  0.50000000  1
  P  P2  1  0.00000000  0.00000000  0.00000000  1
  P  P3  1  0.00000000  0.50000000  0.50000000  1
  P  P4  1  0.68011404  0.00000000  0.50000000  1
  S  S5  1  0.31988602  0.50000000  -0.00000000  1
  P  P6  1  0.80221504  0.56489400  0.65727500  1
  P  P7  1  0.80221504  0.84272500  0.06489400  1
  H  H8  1  0.19778501  0.34272500  0.56489400  1
  H  H9  1  0.19778501  0.06489400  0.15727500  1
  P  P10  1  0.19778501  0.93510601  0.84272500  1
  H  H11  1  0.19778501  0.65727500  0.43510600  1
  P  P12  1  0.80221504  0.15727500  0.93510601  1
  P  P13  1  0.80221504  0.43510600  0.34272500  1
