# generated using pymatgen
data_Tb2MgSi3
_symmetry_space_group_name_H-M   'P 1'
_cell_length_a   4.01778221
_cell_length_b   5.51673269
_cell_length_c   5.68615103
_cell_angle_alpha   90.00000000
_cell_angle_beta   90.00000000
_cell_angle_gamma   111.35498047
_symmetry_Int_Tables_number   1
_chemical_formula_structural   Tb2MgSi3
_chemical_formula_sum   'Tb2 Mg1 Si3'
_cell_volume   117.38051684
_cell_formula_units_Z   1
loop_
 _symmetry_equiv_pos_site_id
 _symmetry_equiv_pos_as_xyz
  1  'x, y, z'
loop_
 _atom_site_type_symbol
 _atom_site_label
 _atom_site_symmetry_multiplicity
 _atom_site_fract_x
 _atom_site_fract_y
 _atom_site_fract_z
 _atom_site_occupancy
  Tb  Tb0  1  0.30568501  0.61136999  0.75000000  1
  Tb  Tb1  1  0.69431498  0.38862999  0.25000000  1
  Si  Si2  1  0.00000000  0.00000000  0.00000000  1
  Mg  Mg3  1  0.00000000  0.00000000  0.50000000  1
  Si  Si4  1  0.59982298  0.19964600  0.75000000  1
  Si  Si5  1  0.40017701  0.80035398  0.25000000  1
