# generated using pymatgen
data_Bi2Br
_symmetry_space_group_name_H-M   'P 1'
_cell_length_a   4.19157887
_cell_length_b   9.33547306
_cell_length_c   9.36168289
_cell_angle_alpha   90.00000000
_cell_angle_beta   90.00000000
_cell_angle_gamma   90.00000000
_symmetry_Int_Tables_number   1
_chemical_formula_structural   Bi2Br
_chemical_formula_sum   'Bi8 Br4'
_cell_volume   366.32613014
_cell_formula_units_Z   4
loop_
 _symmetry_equiv_pos_site_id
 _symmetry_equiv_pos_as_xyz
  1  'x, y, z'
loop_
 _atom_site_type_symbol
 _atom_site_label
 _atom_site_symmetry_multiplicity
 _atom_site_fract_x
 _atom_site_fract_y
 _atom_site_fract_z
 _atom_site_occupancy
  Bi  Bi0  1  0.25000001  0.17085700  0.92089201  1
  Bi  Bi1  1  0.75000002  0.32914300  0.42089200  1
  Bi  Bi2  1  0.75000002  0.82914299  0.07910800  1
  Bi  Bi3  1  0.25000001  0.67085700  0.57910801  1
  Br  Br4  1  0.25000001  0.51918100  0.32701700  1
  Bi  Bi5  1  0.25000001  0.01918100  0.17298300  1
  Br  Br6  1  0.75000002  0.48081900  0.67298301  1
  Bi  Bi7  1  0.75000002  0.98081899  0.82701701  1
  Bi  Bi8  1  0.75000002  0.32959100  0.06850600  1
  Br  Br9  1  0.75000002  0.82959099  0.43149400  1
  Br  Br10  1  0.25000001  0.67040900  0.93149401  1
  Bi  Bi11  1  0.25000001  0.17040900  0.56850601  1
