# generated using pymatgen
data_Cd2H2BrO4
_symmetry_space_group_name_H-M   'P 1'
_cell_length_a   3.96365047
_cell_length_b   6.00620222
_cell_length_c   6.00620270
_cell_angle_alpha   95.91231537
_cell_angle_beta   96.94944000
_cell_angle_gamma   96.94942474
_symmetry_Int_Tables_number   1
_chemical_formula_structural   Cd2H2BrO4
_chemical_formula_sum   'Cd2 H2 Br1 O4'
_cell_volume   139.88553764
_cell_formula_units_Z   1
loop_
 _symmetry_equiv_pos_site_id
 _symmetry_equiv_pos_as_xyz
  1  'x, y, z'
loop_
 _atom_site_type_symbol
 _atom_site_label
 _atom_site_symmetry_multiplicity
 _atom_site_fract_x
 _atom_site_fract_y
 _atom_site_fract_z
 _atom_site_occupancy
  Br  Br0  1  0.00000000  0.00000000  0.00000000  1
  O  O1  1  0.85566300  0.22550799  0.61002301  1
  O  O2  1  0.14433697  0.38997799  0.77449100  1
  O  O3  1  0.85566396  0.61002298  0.22550904  1
  O  O4  1  0.14433694  0.77449098  0.38997804  1
  Cd  Cd5  1  0.42342894  0.75862698  0.75862703  1
  Cd  Cd6  1  0.57657099  0.24137399  0.24137302  1
  H  H7  1  0.00000094  0.75801398  0.24198504  1
  H  H8  1  -0.00000002  0.24198499  0.75801399  1
