# generated using pymatgen
data_BaMg3Si3GeO12
_symmetry_space_group_name_H-M   'P 1'
_cell_length_a   5.30747509
_cell_length_b   5.31822062
_cell_length_c   10.29598427
_cell_angle_alpha   95.55992889
_cell_angle_beta   94.66060638
_cell_angle_gamma   119.82595825
_symmetry_Int_Tables_number   1
_chemical_formula_structural   BaMg3Si3GeO12
_chemical_formula_sum   'Ba1 Mg3 Si3 Ge1 O12'
_cell_volume   248.10078410
_cell_formula_units_Z   1
loop_
 _symmetry_equiv_pos_site_id
 _symmetry_equiv_pos_as_xyz
  1  'x, y, z'
loop_
 _atom_site_type_symbol
 _atom_site_label
 _atom_site_symmetry_multiplicity
 _atom_site_fract_x
 _atom_site_fract_y
 _atom_site_fract_z
 _atom_site_occupancy
  Ba  Ba0  1  0.99110391  0.99139895  0.97350498  1
  Mg  Mg1  1  0.49228895  0.49894497  0.50575799  1
  Mg  Mg2  1  0.16811293  0.83495796  0.50295398  1
  Mg  Mg3  1  0.83901897  0.17056399  0.50215100  1
  Ge  Ge4  1  0.25840795  0.59165097  0.76753399  1
  Si  Si5  1  0.59571497  0.25916699  0.77855100  1
  Si  Si6  1  0.74195596  0.40817398  0.22924600  1
  Si  Si7  1  0.40902394  0.74570196  0.22936198  1
  O  O8  1  0.48727996  0.47764297  0.84449299  1
  O  O9  1  0.53552095  0.53592197  0.16434699  1
  O  O10  1  0.94241095  0.41434398  0.84667300  1
  O  O11  1  0.42441592  0.96098495  0.84744098  1
  O  O12  1  0.05326496  0.56986797  0.16209999  1
  O  O13  1  0.56964799  0.05245000  0.16032600  1
  O  O14  1  0.19421896  0.53575897  0.59975399  1
  O  O15  1  0.54138798  0.19666099  0.61918900  1
  O  O16  1  0.79900695  0.45873198  0.38551600  1
  O  O17  1  0.46495193  0.81190796  0.38580898  1
  O  O18  1  0.87397492  0.87583395  0.60359699  1
  O  O19  1  0.11828799  0.10933599  0.39169400  1
