# generated using pymatgen
data_HoCo3
_symmetry_space_group_name_H-M   'P 1'
_cell_length_a   5.14693499
_cell_length_b   5.14693499
_cell_length_c   8.63263321
_cell_angle_alpha   72.65592194
_cell_angle_beta   72.65592194
_cell_angle_gamma   60.00001526
_symmetry_Int_Tables_number   1
_chemical_formula_structural   HoCo3
_chemical_formula_sum   'Ho3 Co9'
_cell_volume   185.94496693
_cell_formula_units_Z   3
loop_
 _symmetry_equiv_pos_site_id
 _symmetry_equiv_pos_as_xyz
  1  'x, y, z'
loop_
 _atom_site_type_symbol
 _atom_site_label
 _atom_site_symmetry_multiplicity
 _atom_site_fract_x
 _atom_site_fract_y
 _atom_site_fract_z
 _atom_site_occupancy
  Ho  Ho0  1  0.85802002  0.85801998  0.42594097  1
  Ho  Ho1  1  0.14198000  0.14198000  0.57405902  1
  Ho  Ho2  1  0.00000000  0.00000000  0.00000000  1
  Co  Co3  1  0.41975102  0.91768598  0.24281297  1
  Co  Co4  1  0.41975101  0.41975099  0.24281299  1
  Co  Co5  1  0.91768600  0.41975099  0.24281297  1
  Co  Co6  1  0.58024900  0.08231400  0.75718702  1
  Co  Co7  1  0.58024901  0.58024899  0.75718700  1
  Co  Co8  1  0.08231402  0.58024899  0.75718702  1
  Co  Co9  1  0.66740501  0.66740498  0.99778501  1
  Co  Co10  1  0.33259501  0.33259499  0.00221498  1
  Co  Co11  1  0.50000001  0.49999999  0.49999999  1
