# generated using pymatgen
data_TbGa19
_symmetry_space_group_name_H-M   'P 1'
_cell_length_a   4.66488218
_cell_length_b   7.57722187
_cell_length_c   13.88962269
_cell_angle_alpha   90.00000000
_cell_angle_beta   99.66730499
_cell_angle_gamma   90.00000000
_symmetry_Int_Tables_number   1
_chemical_formula_structural   TbGa19
_chemical_formula_sum   'Tb1 Ga19'
_cell_volume   483.98255239
_cell_formula_units_Z   1
loop_
 _symmetry_equiv_pos_site_id
 _symmetry_equiv_pos_as_xyz
  1  'x, y, z'
loop_
 _atom_site_type_symbol
 _atom_site_label
 _atom_site_symmetry_multiplicity
 _atom_site_fract_x
 _atom_site_fract_y
 _atom_site_fract_z
 _atom_site_occupancy
  Tb  Tb0  1  0.47442398  0.24033800  0.94884797  1
  Ga  Ga1  1  0.17079999  0.27392200  0.34159999  1
  Ga  Ga2  1  0.82919997  0.77392201  0.65839998  1
  Ga  Ga3  1  0.52557598  0.74033801  0.05115200  1
  Ga  Ga4  1  0.40424298  0.61547901  0.80848597  1
  Ga  Ga5  1  0.28914699  0.49014101  0.57829398  1
  Ga  Ga6  1  0.71085297  0.99014102  0.42170598  1
  Ga  Ga7  1  0.12112400  0.74808101  0.24224799  1
  Ga  Ga8  1  0.29541899  0.06175000  0.59083798  1
  Ga  Ga9  1  0.95321496  0.90819202  0.90642997  1
  Ga  Ga10  1  0.70458097  0.56175001  0.40916198  1
  Ga  Ga11  1  0.87887596  0.24808100  0.75775197  1
  Ga  Ga12  1  0.04678500  0.40819201  0.09357000  1
  Ga  Ga13  1  0.59575698  0.11547900  0.19151399  1
  Ga  Ga14  1  0.77605297  0.27984300  0.55210598  1
  Ga  Ga15  1  0.60340198  0.49211601  0.20680399  1
  Ga  Ga16  1  0.04958700  0.02532700  0.09917400  1
  Ga  Ga17  1  0.22394699  0.77984301  0.44789398  1
  Ga  Ga18  1  0.95041296  0.52532701  0.90082597  1
  Ga  Ga19  1  0.39659798  0.99211602  0.79319597  1
