# generated using pymatgen
data_Li8BiO6
_symmetry_space_group_name_H-M   'P 1'
_cell_length_a   5.60772657
_cell_length_b   5.60772657
_cell_length_c   6.20022154
_cell_angle_alpha   63.11380386
_cell_angle_beta   63.11380386
_cell_angle_gamma   59.99999237
_symmetry_Int_Tables_number   1
_chemical_formula_structural   Li8BiO6
_chemical_formula_sum   'Li8 Bi1 O6'
_cell_volume   144.00484652
_cell_formula_units_Z   1
loop_
 _symmetry_equiv_pos_site_id
 _symmetry_equiv_pos_as_xyz
  1  'x, y, z'
loop_
 _atom_site_type_symbol
 _atom_site_label
 _atom_site_symmetry_multiplicity
 _atom_site_fract_x
 _atom_site_fract_y
 _atom_site_fract_z
 _atom_site_occupancy
  Li  Li0  1  0.34569399  0.34569400  0.96291804  1
  Li  Li1  1  0.49008499  0.10286800  0.63674903  1
  Li  Li2  1  0.77029798  0.49008500  0.63674905  1
  Li  Li3  1  0.10286797  0.77029800  0.63674904  1
  Li  Li4  1  0.50991497  0.89713200  0.36325106  1
  Li  Li5  1  0.22970198  0.50991500  0.36325103  1
  Li  Li6  1  0.65430597  0.65430600  0.03708205  1
  Li  Li7  1  0.89713198  0.22970200  0.36325104  1
  Bi  Bi8  1  0.00000000  0.00000000  0.00000000  1
  O  O9  1  0.24064897  0.90356500  0.25145805  1
  O  O10  1  0.09643499  0.39567200  0.74854203  1
  O  O11  1  0.75935099  0.09643500  0.74854204  1
  O  O12  1  0.60432799  0.24064900  0.25145803  1
  O  O13  1  0.90356497  0.60432800  0.25145806  1
  O  O14  1  0.39567197  0.75935100  0.74854205  1
