# generated using pymatgen
data_In4GaCuTe5
_symmetry_space_group_name_H-M   'P 1'
_cell_length_a   3.82720542
_cell_length_b   3.82720542
_cell_length_c   21.16056633
_cell_angle_alpha   84.81151581
_cell_angle_beta   84.81151581
_cell_angle_gamma   60.00000763
_symmetry_Int_Tables_number   1
_chemical_formula_structural   In4GaCuTe5
_chemical_formula_sum   'In4 Ga1 Cu1 Te5'
_cell_volume   266.95663162
_cell_formula_units_Z   1
loop_
 _symmetry_equiv_pos_site_id
 _symmetry_equiv_pos_as_xyz
  1  'x, y, z'
loop_
 _atom_site_type_symbol
 _atom_site_label
 _atom_site_symmetry_multiplicity
 _atom_site_fract_x
 _atom_site_fract_y
 _atom_site_fract_z
 _atom_site_occupancy
  Te  Te0  1  0.56299299  0.56299302  0.31102099  1
  In  In1  1  0.05941200  0.05941200  0.82176396  1
  Te  Te2  1  0.43700699  0.43700701  0.68897897  1
  Te  Te3  1  0.94058798  0.94058803  0.17823600  1
  Te  Te4  1  0.49999999  0.50000001  0.49999998  1
  In  In5  1  0.86372698  0.86372702  0.40881899  1
  Te  Te6  1  0.36214399  0.36214401  0.91356796  1
  In  In7  1  0.13627300  0.13627300  0.59118098  1
  In  In8  1  0.63785599  0.63785602  0.08643200  1
  Cu  Cu9  1  0.74846698  0.74846702  0.75459897  1
  Ga  Ga10  1  0.25153299  0.25153301  0.24540099  1
