# generated using pymatgen
data_BaLu3Cr2S11
_symmetry_space_group_name_H-M   'P 1'
_cell_length_a   7.49615145
_cell_length_b   7.49615145
_cell_length_c   7.49615145
_cell_angle_alpha   109.47122192
_cell_angle_beta   109.47122192
_cell_angle_gamma   109.47122192
_symmetry_Int_Tables_number   1
_chemical_formula_structural   BaLu3Cr2S11
_chemical_formula_sum   'Ba1 Lu3 Cr2 S11'
_cell_volume   324.25982578
_cell_formula_units_Z   1
loop_
 _symmetry_equiv_pos_site_id
 _symmetry_equiv_pos_as_xyz
  1  'x, y, z'
loop_
 _atom_site_type_symbol
 _atom_site_label
 _atom_site_symmetry_multiplicity
 _atom_site_fract_x
 _atom_site_fract_y
 _atom_site_fract_z
 _atom_site_occupancy
  Ba  Ba0  1  0.00000000  0.00000000  0.00000000  1
  S  S1  1  0.14949602  0.34745801  0.49695402  1
  S  S2  1  0.85050404  0.65254202  0.50304605  1
  Lu  Lu3  1  0.14949604  0.65254202  0.80203803  1
  Lu  Lu4  1  0.85050402  0.34745801  0.19796204  1
  S  S5  1  0.65254203  0.50304601  0.85050403  1
  S  S6  1  0.34745803  0.49695401  0.14949603  1
  S  S7  1  0.34745801  0.19796201  0.85050401  1
  Lu  Lu8  1  0.65254205  0.80203802  0.14949606  1
  S  S9  1  0.80203801  0.14949600  0.65254202  1
  S  S10  1  0.19796205  0.85050402  0.34745805  1
  S  S11  1  0.49695401  0.14949600  0.34745802  1
  S  S12  1  0.50304605  0.85050402  0.65254205  1
  Cr  Cr13  1  0.50000003  0.50000001  0.50000003  1
  Cr  Cr14  1  0.00000000  0.00000000  0.49999999  1
  S  S15  1  0.00000003  0.50000001  1.00000001  1
  S  S16  1  0.50000000  0.00000000  0.00000001  1
