# generated using pymatgen
data_Cs(CoP)2
_symmetry_space_group_name_H-M   'P 1'
_cell_length_a   3.88742399
_cell_length_b   3.88742399
_cell_length_c   7.32370329
_cell_angle_alpha   105.39073181
_cell_angle_beta   105.39073181
_cell_angle_gamma   90.00000000
_symmetry_Int_Tables_number   1
_chemical_formula_structural   Cs(CoP)2
_chemical_formula_sum   'Cs1 Co2 P2'
_cell_volume   102.58476536
_cell_formula_units_Z   1
loop_
 _symmetry_equiv_pos_site_id
 _symmetry_equiv_pos_as_xyz
  1  'x, y, z'
loop_
 _atom_site_type_symbol
 _atom_site_label
 _atom_site_symmetry_multiplicity
 _atom_site_fract_x
 _atom_site_fract_y
 _atom_site_fract_z
 _atom_site_occupancy
  P  P0  1  0.66886300  0.66886300  0.33772600  1
  P  P1  1  0.33113700  0.33113700  0.66227399  1
  Cs  Cs2  1  0.00000000  0.00000000  0.00000000  1
  Co  Co3  1  0.75000000  0.25000000  0.50000000  1
  Co  Co4  1  0.25000000  0.75000000  0.50000000  1
