# generated using pymatgen
data_BaPrB12
_symmetry_space_group_name_H-M   'P 1'
_cell_length_a   4.13290977
_cell_length_b   5.84369707
_cell_length_c   5.84369707
_cell_angle_alpha   90.00000000
_cell_angle_beta   90.00000000
_cell_angle_gamma   90.00000000
_symmetry_Int_Tables_number   1
_chemical_formula_structural   BaPrB12
_chemical_formula_sum   'Ba1 Pr1 B12'
_cell_volume   141.13389055
_cell_formula_units_Z   1
loop_
 _symmetry_equiv_pos_site_id
 _symmetry_equiv_pos_as_xyz
  1  'x, y, z'
loop_
 _atom_site_type_symbol
 _atom_site_label
 _atom_site_symmetry_multiplicity
 _atom_site_fract_x
 _atom_site_fract_y
 _atom_site_fract_z
 _atom_site_occupancy
  Ba  Ba0  1  0.00000000  0.00000000  0.00000000  1
  Pr  Pr1  1  1.00000005  0.49999999  0.49999999  1
  B  B2  1  0.19970201  0.99999999  0.49999999  1
  B  B3  1  0.19970201  0.49999999  0.00000000  1
  B  B4  1  0.50000003  0.15050900  0.64993999  1
  B  B5  1  0.50000003  0.64993999  0.15050900  1
  B  B6  1  0.50000003  0.15050900  0.35006000  1
  B  B7  1  0.50000003  0.64993999  0.84949099  1
  B  B8  1  0.50000003  0.84949099  0.35006000  1
  B  B9  1  0.50000003  0.35006000  0.84949099  1
  B  B10  1  0.50000003  0.84949099  0.64993999  1
  B  B11  1  0.50000003  0.35006000  0.15050900  1
  B  B12  1  0.80029804  0.99999999  0.49999999  1
  B  B13  1  0.80029804  0.49999999  -0.00000000  1
