# generated using pymatgen
data_HoFe2(Si3Mo2)2
_symmetry_space_group_name_H-M   'P 1'
_cell_length_a   4.71233892
_cell_length_b   6.45201683
_cell_length_c   6.45201731
_cell_angle_alpha   82.33626556
_cell_angle_beta   68.58112335
_cell_angle_gamma   68.58113861
_symmetry_Int_Tables_number   1
_chemical_formula_structural   HoFe2(Si3Mo2)2
_chemical_formula_sum   'Ho1 Fe2 Si6 Mo4'
_cell_volume   170.00700346
_cell_formula_units_Z   1
loop_
 _symmetry_equiv_pos_site_id
 _symmetry_equiv_pos_as_xyz
  1  'x, y, z'
loop_
 _atom_site_type_symbol
 _atom_site_label
 _atom_site_symmetry_multiplicity
 _atom_site_fract_x
 _atom_site_fract_y
 _atom_site_fract_z
 _atom_site_occupancy
  Ho  Ho0  1  0.00000000  0.00000000  0.00000000  1
  Mo  Mo1  1  0.35666108  0.64333900  0.64333897  1
  Mo  Mo2  1  0.64333906  0.35666100  0.35666096  1
  Mo  Mo3  1  0.00000007  0.64333900  0.35666098  1
  Mo  Mo4  1  0.00000004  0.35666100  0.64333899  1
  Fe  Fe5  1  0.50000002  0.00000000  0.49999998  1
  Si  Si6  1  0.00000000  0.00000000  0.50000000  1
  Fe  Fe7  1  0.50000007  0.50000000  -0.00000004  1
  Si  Si8  1  1.00000009  0.50000000  0.99999995  1
  Si  Si9  1  0.27256504  0.22743500  0.22743498  1
  Si  Si10  1  0.72743511  0.77256500  0.77256495  1
  Si  Si11  1  0.50000004  0.22743500  0.77256498  1
  Si  Si12  1  0.50000010  0.77256500  0.22743496  1
