# generated using pymatgen
data_Ho(Fe5Mo)2
_symmetry_space_group_name_H-M   'P 1'
_cell_length_a   4.68932486
_cell_length_b   6.44559479
_cell_length_c   6.44559526
_cell_angle_alpha   82.04399109
_cell_angle_beta   68.66857910
_cell_angle_gamma   68.66859436
_symmetry_Int_Tables_number   1
_chemical_formula_structural   Ho(Fe5Mo)2
_chemical_formula_sum   'Ho1 Fe10 Mo2'
_cell_volume   169.03780573
_cell_formula_units_Z   1
loop_
 _symmetry_equiv_pos_site_id
 _symmetry_equiv_pos_as_xyz
  1  'x, y, z'
loop_
 _atom_site_type_symbol
 _atom_site_label
 _atom_site_symmetry_multiplicity
 _atom_site_fract_x
 _atom_site_fract_y
 _atom_site_fract_z
 _atom_site_occupancy
  Ho  Ho0  1  0.00000000  0.00000000  0.00000000  1
  Mo  Mo1  1  0.63187707  0.36812300  0.36812297  1
  Mo  Mo2  1  0.36812308  0.63187700  0.63187698  1
  Fe  Fe3  1  0.50000010  0.77024900  0.22975097  1
  Fe  Fe4  1  0.50000005  0.22975100  0.77024898  1
  Fe  Fe5  1  0.73099711  0.76900300  0.76900297  1
  Fe  Fe6  1  0.26900304  0.23099700  0.23099699  1
  Fe  Fe7  1  0.00000000  0.00000000  0.50000000  1
  Fe  Fe8  1  0.50000003  0.00000000  0.49999998  1
  Fe  Fe9  1  0.50000007  0.50000000  -0.00000003  1
  Fe  Fe10  1  1.00000010  0.50000000  -0.00000005  1
  Fe  Fe11  1  0.00000003  0.36061900  0.63938100  1
  Fe  Fe12  1  0.00000006  0.63938100  0.36061900  1
