# generated using pymatgen
data_AgS
_symmetry_space_group_name_H-M   'P 1'
_cell_length_a   6.91951704
_cell_length_b   7.39098787
_cell_length_c   7.39098787
_cell_angle_alpha   65.59754944
_cell_angle_beta   89.82808685
_cell_angle_gamma   89.82808685
_symmetry_Int_Tables_number   1
_chemical_formula_structural   AgS
_chemical_formula_sum   'Ag8 S8'
_cell_volume   344.22080351
_cell_formula_units_Z   8
loop_
 _symmetry_equiv_pos_site_id
 _symmetry_equiv_pos_as_xyz
  1  'x, y, z'
loop_
 _atom_site_type_symbol
 _atom_site_label
 _atom_site_symmetry_multiplicity
 _atom_site_fract_x
 _atom_site_fract_y
 _atom_site_fract_z
 _atom_site_occupancy
  S  S0  1  0.37211999  0.65938700  0.91058995  1
  S  S1  1  0.87211999  0.91059000  0.65938693  1
  S  S2  1  0.31760499  0.66423300  0.43051896  1
  S  S3  1  0.11221900  0.11672300  0.31561499  1
  S  S4  1  0.81760500  0.43051900  0.66423295  1
  S  S5  1  0.61221900  0.31561500  0.11672297  1
  S  S6  1  0.28784000  0.13648700  0.82625097  1
  S  S7  1  0.78783999  0.82625100  0.13648694  1
  Ag  Ag8  1  0.95067500  0.36296000  0.01410996  1
  Ag  Ag9  1  0.51664699  0.97007700  0.65430693  1
  Ag  Ag10  1  0.54290499  0.57500000  0.22355596  1
  Ag  Ag11  1  0.96759299  0.75988500  0.43940293  1
  Ag  Ag12  1  0.04290500  0.22355600  0.57499998  1
  Ag  Ag13  1  0.46759299  0.43940300  0.75988496  1
  Ag  Ag14  1  0.45067500  0.01411000  0.36295998  1
  Ag  Ag15  1  0.01664699  0.65430700  0.97007695  1
