# generated using pymatgen
data_NdTeWBrO5
_symmetry_space_group_name_H-M   'P 1'
_cell_length_a   5.44983387
_cell_length_b   5.44983387
_cell_length_c   10.25693798
_cell_angle_alpha   105.40651703
_cell_angle_beta   105.40651703
_cell_angle_gamma   90.00000000
_symmetry_Int_Tables_number   1
_chemical_formula_structural   NdTeWBrO5
_chemical_formula_sum   'Nd2 Te2 W2 Br2 O10'
_cell_volume   282.31974038
_cell_formula_units_Z   2
loop_
 _symmetry_equiv_pos_site_id
 _symmetry_equiv_pos_as_xyz
  1  'x, y, z'
loop_
 _atom_site_type_symbol
 _atom_site_label
 _atom_site_symmetry_multiplicity
 _atom_site_fract_x
 _atom_site_fract_y
 _atom_site_fract_z
 _atom_site_occupancy
  Nd  Nd0  1  0.75000003  0.25000001  0.50000003  1
  Nd  Nd1  1  0.25000003  0.75000003  0.50000004  1
  W  W2  1  0.87153305  0.87153303  0.74306606  1
  W  W3  1  0.39360002  0.39360001  0.78720003  1
  Te  Te4  1  0.12846701  0.12846700  0.25693401  1
  Te  Te5  1  0.60640004  0.60640002  0.21280004  1
  Br  Br6  1  0.50000002  0.00000000  0.00000001  1
  Br  Br7  1  0.00000001  0.50000002  0.00000001  1
  O  O8  1  0.57550004  0.57550002  0.68407204  1
  O  O9  1  0.10857202  0.57549902  0.68407103  1
  O  O10  1  0.89142804  0.42450102  0.31592904  1
  O  O11  1  0.76929705  0.76929703  0.53859405  1
  O  O12  1  0.57550002  0.10857300  0.68407303  1
  O  O13  1  0.23070301  0.23070301  0.46140602  1
  O  O14  1  0.42450003  0.42450002  0.31592803  1
  O  O15  1  0.42450004  0.89142703  0.31592704  1
  O  O16  1  0.89142805  0.89142803  0.31592805  1
  O  O17  1  0.10857201  0.10857200  0.68407202  1
