# generated using pymatgen
data_Ba4YIn2BiSe10
_symmetry_space_group_name_H-M   'P 1'
_cell_length_a   4.36852217
_cell_length_b   9.86525917
_cell_length_c   13.50990486
_cell_angle_alpha   90.00000000
_cell_angle_beta   90.00000000
_cell_angle_gamma   102.79182434
_symmetry_Int_Tables_number   1
_chemical_formula_structural   Ba4YIn2BiSe10
_chemical_formula_sum   'Ba4 Y1 In2 Bi1 Se10'
_cell_volume   567.78059525
_cell_formula_units_Z   1
loop_
 _symmetry_equiv_pos_site_id
 _symmetry_equiv_pos_as_xyz
  1  'x, y, z'
loop_
 _atom_site_type_symbol
 _atom_site_label
 _atom_site_symmetry_multiplicity
 _atom_site_fract_x
 _atom_site_fract_y
 _atom_site_fract_z
 _atom_site_occupancy
  Ba  Ba0  1  0.86959091  0.73918201  0.18501200  1
  Ba  Ba1  1  0.13040897  0.26081800  0.68501201  1
  Ba  Ba2  1  0.88400790  0.76801601  0.81881401  1
  Ba  Ba3  1  0.11599198  0.23198400  0.31881400  1
  Bi  Bi4  1  0.78851592  0.57703201  0.48245400  1
  Y  Y5  1  0.21148396  0.42296801  0.98245401  1
  In  In6  1  0.55120497  0.10241000  0.06360100  1
  In  In7  1  0.44879491  0.89759001  0.56360101  1
  Se  Se8  1  0.64065895  0.28131800  0.49940601  1
  Se  Se9  1  0.35934093  0.71868201  0.99940601  1
  Se  Se10  1  0.70917894  0.41835801  0.83780401  1
  Se  Se11  1  0.29082094  0.58164201  0.33780400  1
  Se  Se12  1  0.68458394  0.36916800  0.13443700  1
  Se  Se13  1  0.31541594  0.63083201  0.63443701  1
  Se  Se14  1  0.49494090  0.98988201  0.23485000  1
  Se  Se15  1  0.50505898  0.01011800  0.73485001  1
  Se  Se16  1  0.95244189  0.90488401  0.45095200  1
  Se  Se17  1  0.04755799  0.09511600  0.95095201  1
