# generated using pymatgen
data_Mn3OF5
_symmetry_space_group_name_H-M   'P 1'
_cell_length_a   4.75169039
_cell_length_b   4.75169039
_cell_length_c   9.45460701
_cell_angle_alpha   89.97931671
_cell_angle_beta   89.97931671
_cell_angle_gamma   94.46298218
_symmetry_Int_Tables_number   1
_chemical_formula_structural   Mn3OF5
_chemical_formula_sum   'Mn6 O2 F10'
_cell_volume   212.82411166
_cell_formula_units_Z   2
loop_
 _symmetry_equiv_pos_site_id
 _symmetry_equiv_pos_as_xyz
  1  'x, y, z'
loop_
 _atom_site_type_symbol
 _atom_site_label
 _atom_site_symmetry_multiplicity
 _atom_site_fract_x
 _atom_site_fract_y
 _atom_site_fract_z
 _atom_site_occupancy
  Mn  Mn0  1  0.99708599  0.00291400  -0.00000001  1
  Mn  Mn1  1  0.01774200  0.03567300  0.65971102  1
  Mn  Mn2  1  0.96432701  0.98225799  0.34028899  1
  Mn  Mn3  1  0.50050601  0.50778800  0.15892300  1
  Mn  Mn4  1  0.49221201  0.49949400  0.84107702  1
  Mn  Mn5  1  0.52255601  0.47744400  0.50000001  1
  F  F6  1  0.81718100  0.18281900  0.50000001  1
  F  F7  1  0.69122001  0.70092899  0.99837102  1
  O  O8  1  0.68408001  0.67667899  0.33230000  1
  F  F9  1  0.29907100  0.30878000  0.00162899  1
  O  O10  1  0.32332100  0.31592000  0.66770002  1
  F  F11  1  0.80883100  0.20210900  0.83464202  1
  F  F12  1  0.79789100  0.19116900  0.16535800  1
  F  F13  1  0.71566401  0.71339499  0.67803201  1
  F  F14  1  0.28660500  0.28433600  0.32196801  1
  F  F15  1  0.21869802  0.78130199  0.50000001  1
  F  F16  1  0.19004802  0.82703999  0.82290602  1
  F  F17  1  0.17296002  0.80995199  0.17709400  1
