# generated using pymatgen
data_Mn7BiO12
_symmetry_space_group_name_H-M   'P 1'
_cell_length_a   5.03371239
_cell_length_b   5.41414213
_cell_length_c   8.39620781
_cell_angle_alpha   90.00238037
_cell_angle_beta   89.95374298
_cell_angle_gamma   89.99928284
_symmetry_Int_Tables_number   1
_chemical_formula_structural   Mn7BiO12
_chemical_formula_sum   'Mn7 Bi1 O12'
_cell_volume   228.82374399
_cell_formula_units_Z   1
loop_
 _symmetry_equiv_pos_site_id
 _symmetry_equiv_pos_as_xyz
  1  'x, y, z'
loop_
 _atom_site_type_symbol
 _atom_site_label
 _atom_site_symmetry_multiplicity
 _atom_site_fract_x
 _atom_site_fract_y
 _atom_site_fract_z
 _atom_site_occupancy
  Bi  Bi0  1  0.95674497  0.93086298  0.24994498  1
  Mn  Mn1  1  0.54327198  0.43086499  0.25003799  1
  Mn  Mn2  1  0.45672799  0.56913499  0.74996198  1
  Mn  Mn3  1  0.04325500  0.06913700  0.75005499  1
  Mn  Mn4  1  0.00000001  0.49999999  0.49999999  1
  Mn  Mn5  1  0.49999998  0.00000000  -0.00000001  1
  Mn  Mn6  1  0.00000001  0.49999999  -0.00000000  1
  Mn  Mn7  1  0.50000098  0.00000000  0.49999998  1
  O  O8  1  0.83143897  0.41424299  0.75066197  1
  O  O9  1  0.66855299  0.91423998  0.74936098  1
  O  O10  1  0.33144599  0.08576100  0.25063799  1
  O  O11  1  0.16856100  0.58575699  0.24933799  1
  O  O12  1  0.80476297  0.19960800  0.40930398  1
  O  O13  1  0.80374097  0.19933700  0.09086499  1
  O  O14  1  0.69520898  0.69957898  0.09068099  1
  O  O15  1  0.69629398  0.69937098  0.40911598  1
  O  O16  1  0.30370599  0.30062799  0.59088399  1
  O  O17  1  0.30479099  0.30042199  0.90931898  1
  O  O18  1  0.19625801  0.80066398  0.90913398  1
  O  O19  1  0.19523701  0.80039098  0.59069599  1
