# generated using pymatgen
data_LiVF4
_symmetry_space_group_name_H-M   'P 1'
_cell_length_a   4.75306320
_cell_length_b   5.10301018
_cell_length_c   5.66338491
_cell_angle_alpha   90.00000000
_cell_angle_beta   90.00000000
_cell_angle_gamma   90.00000000
_symmetry_Int_Tables_number   1
_chemical_formula_structural   LiVF4
_chemical_formula_sum   'Li2 V2 F8'
_cell_volume   137.36500406
_cell_formula_units_Z   2
loop_
 _symmetry_equiv_pos_site_id
 _symmetry_equiv_pos_as_xyz
  1  'x, y, z'
loop_
 _atom_site_type_symbol
 _atom_site_label
 _atom_site_symmetry_multiplicity
 _atom_site_fract_x
 _atom_site_fract_y
 _atom_site_fract_z
 _atom_site_occupancy
  Li  Li0  1  0.00000000  0.00000000  0.07772700  1
  Li  Li1  1  0.49999998  0.49999998  0.92227301  1
  V  V2  1  0.00000000  0.49999998  0.43031801  1
  V  V3  1  0.49999998  0.00000000  0.56968201  1
  F  F4  1  0.71969997  0.16256899  0.85299401  1
  F  F5  1  0.78029997  0.66256898  0.14700600  1
  F  F6  1  0.21969999  0.33743099  0.14700600  1
  F  F7  1  0.28029999  0.83743097  0.85299401  1
  F  F8  1  0.26544499  0.32510199  0.62676901  1
  F  F9  1  0.23455499  0.82510197  0.37323101  1
  F  F10  1  0.76544497  0.17489799  0.37323101  1
  F  F11  1  0.73455497  0.67489798  0.62676901  1
