# generated using pymatgen
data_Tb(Co2B)6
_symmetry_space_group_name_H-M   'P 1'
_cell_length_a   5.95301056
_cell_length_b   5.95301056
_cell_length_c   5.95301104
_cell_angle_alpha   104.03095245
_cell_angle_beta   104.03095245
_cell_angle_gamma   104.03095245
_symmetry_Int_Tables_number   1
_chemical_formula_structural   Tb(Co2B)6
_chemical_formula_sum   'Tb1 Co12 B6'
_cell_volume   188.12072573
_cell_formula_units_Z   1
loop_
 _symmetry_equiv_pos_site_id
 _symmetry_equiv_pos_as_xyz
  1  'x, y, z'
loop_
 _atom_site_type_symbol
 _atom_site_label
 _atom_site_symmetry_multiplicity
 _atom_site_fract_x
 _atom_site_fract_y
 _atom_site_fract_z
 _atom_site_occupancy
  Tb  Tb0  1  0.00000000  0.00000000  0.00000000  1
  Co  Co1  1  0.13232198  0.86767796  0.49999992  1
  Co  Co2  1  0.86767796  0.49999998  0.13232191  1
  Co  Co3  1  0.49999998  0.13232199  0.86767793  1
  Co  Co4  1  0.13232198  0.49999998  0.86767793  1
  Co  Co5  1  0.49999996  0.86767796  0.13232191  1
  Co  Co6  1  0.86767797  0.13232199  0.49999992  1
  Co  Co7  1  0.18593398  0.45507198  0.45507194  1
  Co  Co8  1  0.45507197  0.45507198  0.18593394  1
  Co  Co9  1  0.45507198  0.18593399  0.45507195  1
  Co  Co10  1  0.81406596  0.54492798  0.54492790  1
  Co  Co11  1  0.54492797  0.54492798  0.81406591  1
  Co  Co12  1  0.54492796  0.81406597  0.54492789  1
  B  B13  1  0.32115297  0.76670697  0.76670691  1
  B  B14  1  0.76670696  0.76670697  0.32115289  1
  B  B15  1  0.76670697  0.32115299  0.76670691  1
  B  B16  1  0.67884697  0.23329299  0.23329294  1
  B  B17  1  0.23329299  0.23329299  0.67884695  1
  B  B18  1  0.23329298  0.67884697  0.23329293  1
