# generated using pymatgen
data_LiVF4
_symmetry_space_group_name_H-M   'P 1'
_cell_length_a   5.01660824
_cell_length_b   5.21670437
_cell_length_c   8.44511414
_cell_angle_alpha   90.00000000
_cell_angle_beta   90.00000000
_cell_angle_gamma   90.76273346
_symmetry_Int_Tables_number   1
_chemical_formula_structural   LiVF4
_chemical_formula_sum   'Li3 V3 F12'
_cell_volume   220.99042314
_cell_formula_units_Z   3
loop_
 _symmetry_equiv_pos_site_id
 _symmetry_equiv_pos_as_xyz
  1  'x, y, z'
loop_
 _atom_site_type_symbol
 _atom_site_label
 _atom_site_symmetry_multiplicity
 _atom_site_fract_x
 _atom_site_fract_y
 _atom_site_fract_z
 _atom_site_occupancy
  Li  Li0  1  -0.00000002  0.49999999  0.30349600  1
  Li  Li1  1  0.49999996  0.49999999  0.18327000  1
  V  V2  1  -0.00000000  0.00000000  0.09332500  1
  Li  Li3  1  0.49999998  0.00000000  0.41097399  1
  V  V4  1  -0.00000002  0.49999999  0.92014599  1
  V  V5  1  0.49999996  0.49999999  0.61034099  1
  F  F6  1  0.74053093  0.86149698  0.25873800  1
  F  F7  1  0.70357094  0.81836398  0.58113199  1
  F  F8  1  0.80443593  0.80907898  0.93333298  1
  F  F9  1  0.29290396  0.67172498  0.43095899  1
  F  F10  1  0.20213697  0.67227698  0.09147000  1
  F  F11  1  0.24789696  0.64176998  0.75698099  1
  F  F12  1  0.75210295  0.35822999  0.75698099  1
  F  F13  1  0.79786295  0.32772299  0.09147000  1
  F  F14  1  0.70709595  0.32827499  0.43095899  1
  F  F15  1  0.19556398  0.19092099  0.93333298  1
  F  F16  1  0.29642898  0.18163600  0.58113199  1
  F  F17  1  0.25946898  0.13850300  0.25873800  1
