# generated using pymatgen
data_MoSe9
_symmetry_space_group_name_H-M   'P 1'
_cell_length_a   4.00969219
_cell_length_b   9.67063522
_cell_length_c   12.79138947
_cell_angle_alpha   90.00000000
_cell_angle_beta   90.00000000
_cell_angle_gamma   90.00000000
_symmetry_Int_Tables_number   1
_chemical_formula_structural   MoSe9
_chemical_formula_sum   'Mo2 Se18'
_cell_volume   496.00237859
_cell_formula_units_Z   2
loop_
 _symmetry_equiv_pos_site_id
 _symmetry_equiv_pos_as_xyz
  1  'x, y, z'
loop_
 _atom_site_type_symbol
 _atom_site_label
 _atom_site_symmetry_multiplicity
 _atom_site_fract_x
 _atom_site_fract_y
 _atom_site_fract_z
 _atom_site_occupancy
  Se  Se0  1  0.74999996  0.99608998  0.76365897  1
  Se  Se1  1  0.24999999  0.00391000  0.23634099  1
  Mo  Mo2  1  0.74999996  0.49608999  0.73634097  1
  Mo  Mo3  1  0.24999999  0.50390999  0.26365899  1
  Se  Se4  1  0.24999999  0.80644698  0.52729998  1
  Se  Se5  1  0.24999999  0.30644699  0.97269996  1
  Se  Se6  1  0.74999996  0.69355298  0.02730000  1
  Se  Se7  1  0.74999996  0.19355300  0.47269998  1
  Se  Se8  1  0.74999996  0.75280298  0.66762798  1
  Se  Se9  1  0.24999999  0.74719698  0.16762799  1
  Se  Se10  1  0.74999996  0.44729899  0.11190100  1
  Se  Se11  1  0.24999999  0.55270099  0.88809897  1
  Se  Se12  1  0.74999996  0.25280299  0.83237197  1
  Se  Se13  1  0.74999996  0.94729898  0.38809899  1
  Se  Se14  1  0.24999999  0.05270100  0.61190098  1
  Se  Se15  1  0.24999999  0.24719699  0.33237199  1
  Se  Se16  1  0.74999996  0.07376100  0.10622600  1
  Se  Se17  1  0.74999996  0.57376099  0.39377399  1
  Se  Se18  1  0.24999999  0.92623898  0.89377397  1
  Se  Se19  1  0.24999999  0.42623899  0.60622598  1
