# generated using pymatgen
data_InBiTe8
_symmetry_space_group_name_H-M   'P 1'
_cell_length_a   4.41027021
_cell_length_b   4.41027021
_cell_length_c   18.57712364
_cell_angle_alpha   83.18282318
_cell_angle_beta   83.18282318
_cell_angle_gamma   59.99999237
_symmetry_Int_Tables_number   1
_chemical_formula_structural   InBiTe8
_chemical_formula_sum   'In1 Bi1 Te8'
_cell_volume   309.97107202
_cell_formula_units_Z   1
loop_
 _symmetry_equiv_pos_site_id
 _symmetry_equiv_pos_as_xyz
  1  'x, y, z'
loop_
 _atom_site_type_symbol
 _atom_site_label
 _atom_site_symmetry_multiplicity
 _atom_site_fract_x
 _atom_site_fract_y
 _atom_site_fract_z
 _atom_site_occupancy
  Te  Te0  1  0.39241301  0.39241302  0.82276101  1
  Te  Te1  1  0.79601501  0.79601505  0.61195501  1
  Te  Te2  1  0.19893500  0.19893501  0.40319501  1
  Te  Te3  1  0.60178301  0.60178304  0.19465100  1
  Te  Te4  1  0.00094100  0.00094100  0.99717701  1
  Bi  Bi5  1  0.09819900  0.09819901  0.70540301  1
  Te  Te6  1  0.50116701  0.50116703  0.49649901  1
  Te  Te7  1  0.90383802  0.90383805  0.28848601  1
  Te  Te8  1  0.30739201  0.30739202  0.07782400  1
  In  In9  1  0.69931801  0.69931804  0.90204601  1
