# generated using pymatgen
data_Mo11S
_symmetry_space_group_name_H-M   'P 1'
_cell_length_a   4.04866409
_cell_length_b   4.04866409
_cell_length_c   17.65952682
_cell_angle_alpha   90.00000000
_cell_angle_beta   90.00000000
_cell_angle_gamma   120.00000000
_symmetry_Int_Tables_number   1
_chemical_formula_structural   Mo11S
_chemical_formula_sum   'Mo11 S1'
_cell_volume   250.68779273
_cell_formula_units_Z   1
loop_
 _symmetry_equiv_pos_site_id
 _symmetry_equiv_pos_as_xyz
  1  'x, y, z'
loop_
 _atom_site_type_symbol
 _atom_site_label
 _atom_site_symmetry_multiplicity
 _atom_site_fract_x
 _atom_site_fract_y
 _atom_site_fract_z
 _atom_site_occupancy
  Mo  Mo0  1  0.66666666  0.33333334  0.74999996  1
  Mo  Mo1  1  0.33333334  0.66666668  0.24999999  1
  Mo  Mo2  1  0.00000000  0.00000000  0.00000000  1
  Mo  Mo3  1  0.00000000  0.00000000  0.49999998  1
  Mo  Mo4  1  0.66666666  0.33333334  0.91070396  1
  Mo  Mo5  1  0.33333334  0.66666668  0.08929600  1
  Mo  Mo6  1  0.33333334  0.66666668  0.41070398  1
  Mo  Mo7  1  0.66666666  0.33333334  0.58929597  1
  Mo  Mo8  1  0.66666666  0.33333334  0.24999999  1
  S  S9  1  0.33333334  0.66666668  0.74999996  1
  Mo  Mo10  1  0.00000000  0.00000000  0.74999996  1
  Mo  Mo11  1  0.00000000  0.00000000  0.24999999  1
