# generated using pymatgen
data_TbGa2
_symmetry_space_group_name_H-M   'P 1'
_cell_length_a   4.15326214
_cell_length_b   7.16565418
_cell_length_c   7.16565371
_cell_angle_alpha   120.00000000
_cell_angle_beta   90.00000000
_cell_angle_gamma   90.00000000
_symmetry_Int_Tables_number   1
_chemical_formula_structural   TbGa2
_chemical_formula_sum   'Tb3 Ga6'
_cell_volume   184.68500521
_cell_formula_units_Z   3
loop_
 _symmetry_equiv_pos_site_id
 _symmetry_equiv_pos_as_xyz
  1  'x, y, z'
loop_
 _atom_site_type_symbol
 _atom_site_label
 _atom_site_symmetry_multiplicity
 _atom_site_fract_x
 _atom_site_fract_y
 _atom_site_fract_z
 _atom_site_occupancy
  Tb  Tb0  1  0.49999998  0.00000000  0.58246700  1
  Tb  Tb1  1  0.49999998  0.58246698  -0.00000002  1
  Tb  Tb2  1  0.49999998  0.41753298  0.41753298  1
  Ga  Ga3  1  -0.00000000  0.23479699  -0.00000001  1
  Ga  Ga4  1  0.99999997  0.76520297  0.76520297  1
  Ga  Ga5  1  0.00000000  0.00000000  0.23479700  1
  Ga  Ga6  1  -0.00000000  0.66666664  0.33333331  1
  Ga  Ga7  1  0.99999997  0.33333332  0.66666665  1
  Ga  Ga8  1  0.49999998  0.00000000  -0.00000000  1
