# generated using pymatgen
data_InBi17
_symmetry_space_group_name_H-M   'P 1'
_cell_length_a   7.86836624
_cell_length_b   8.55883217
_cell_length_c   7.89445400
_cell_angle_alpha   90.00000000
_cell_angle_beta   90.00000000
_cell_angle_gamma   117.36540222
_symmetry_Int_Tables_number   1
_chemical_formula_structural   InBi17
_chemical_formula_sum   'In1 Bi17'
_cell_volume   472.14965578
_cell_formula_units_Z   1
loop_
 _symmetry_equiv_pos_site_id
 _symmetry_equiv_pos_as_xyz
  1  'x, y, z'
loop_
 _atom_site_type_symbol
 _atom_site_label
 _atom_site_symmetry_multiplicity
 _atom_site_fract_x
 _atom_site_fract_y
 _atom_site_fract_z
 _atom_site_occupancy
  Bi  Bi0  1  0.96102099  0.25213800  0.66402600  1
  Bi  Bi1  1  0.03897906  0.74786201  0.33597400  1
  Bi  Bi2  1  0.53897904  0.74786201  0.16402600  1
  Bi  Bi3  1  0.20888305  0.74786201  0.83597400  1
  Bi  Bi4  1  0.46102101  0.25213800  0.83597400  1
  Bi  Bi5  1  0.79111700  0.25213800  0.16402600  1
  Bi  Bi6  1  0.29111701  0.25213800  0.33597400  1
  Bi  Bi7  1  0.70888304  0.74786201  0.66402600  1
  Bi  Bi8  1  0.00000000  0.00000000  0.00000000  1
  In  In9  1  0.50000007  1.00000001  0.50000000  1
  Bi  Bi10  1  0.63471606  1.00000001  0.86656500  1
  Bi  Bi11  1  0.36528407  1.00000001  0.13343500  1
  Bi  Bi12  1  0.86528397  0.00000000  0.36656500  1
  Bi  Bi13  1  0.13471600  0.00000000  0.63343500  1
  Bi  Bi14  1  0.20531003  0.41062001  1.00000000  1
  Bi  Bi15  1  0.79469002  0.58938001  -0.00000000  1
  Bi  Bi16  1  0.29469004  0.58938001  0.50000000  1
  Bi  Bi17  1  0.70531001  0.41062001  0.50000000  1
