# generated using pymatgen
data_MgAu8
_symmetry_space_group_name_H-M   'P 1'
_cell_length_a   3.33111191
_cell_length_b   7.95913982
_cell_length_c   7.95913982
_cell_angle_alpha   120.00000000
_cell_angle_beta   90.00000000
_cell_angle_gamma   90.00000000
_symmetry_Int_Tables_number   1
_chemical_formula_structural   MgAu8
_chemical_formula_sum   'Mg1 Au8'
_cell_volume   182.74778565
_cell_formula_units_Z   1
loop_
 _symmetry_equiv_pos_site_id
 _symmetry_equiv_pos_as_xyz
  1  'x, y, z'
loop_
 _atom_site_type_symbol
 _atom_site_label
 _atom_site_symmetry_multiplicity
 _atom_site_fract_x
 _atom_site_fract_y
 _atom_site_fract_z
 _atom_site_occupancy
  Mg  Mg0  1  0.00000000  0.40152500  0.40152498  1
  Au  Au1  1  0.00000000  0.59847500  0.99999996  1
  Au  Au2  1  1.00000003  0.00000000  0.59847499  1
  Au  Au3  1  0.50000001  0.74975001  0.74974996  1
  Au  Au4  1  0.50000001  0.25025000  0.99999997  1
  Au  Au5  1  0.50000001  0.00000000  0.25024999  1
  Au  Au6  1  0.50000001  0.33333334  0.66666664  1
  Au  Au7  1  0.50000001  0.66666667  0.33333330  1
  Au  Au8  1  0.00000000  0.00000000  0.00000000  1
