# generated using pymatgen
data_La(BOs)2
_symmetry_space_group_name_H-M   'P 1'
_cell_length_a   5.52560472
_cell_length_b   5.52560472
_cell_length_c   6.15789366
_cell_angle_alpha   105.12531281
_cell_angle_beta   105.12531281
_cell_angle_gamma   114.73498535
_symmetry_Int_Tables_number   1
_chemical_formula_structural   La(BOs)2
_chemical_formula_sum   'La2 B4 Os4'
_cell_volume   149.44233289
_cell_formula_units_Z   2
loop_
 _symmetry_equiv_pos_site_id
 _symmetry_equiv_pos_as_xyz
  1  'x, y, z'
loop_
 _atom_site_type_symbol
 _atom_site_label
 _atom_site_symmetry_multiplicity
 _atom_site_fract_x
 _atom_site_fract_y
 _atom_site_fract_z
 _atom_site_occupancy
  La  La0  1  0.00000000  0.00000000  0.00000000  1
  La  La1  1  0.24999997  0.74999996  0.49999994  1
  Os  Os2  1  0.32260097  0.67739896  0.99999995  1
  B  B3  1  0.57260097  0.42739898  0.49999995  1
  B  B4  1  0.67739896  0.32260098  -0.00000006  1
  B  B5  1  0.92739896  0.07260100  0.49999995  1
  Os  Os6  1  0.62982396  0.62982397  0.25964793  1
  Os  Os7  1  0.87982396  0.37982398  0.75964794  1
  Os  Os8  1  0.62017597  0.12017599  0.24035196  1
  B  B9  1  0.37017598  0.37017598  0.74035196  1
