# generated using pymatgen
data_Mn4OF7
_symmetry_space_group_name_H-M   'P 1'
_cell_length_a   3.10580802
_cell_length_b   4.85121679
_cell_length_c   9.68896484
_cell_angle_alpha   90.00000000
_cell_angle_beta   90.00000000
_cell_angle_gamma   90.00000000
_symmetry_Int_Tables_number   1
_chemical_formula_structural   Mn4OF7
_chemical_formula_sum   'Mn4 O1 F7'
_cell_volume   145.98312968
_cell_formula_units_Z   1
loop_
 _symmetry_equiv_pos_site_id
 _symmetry_equiv_pos_as_xyz
  1  'x, y, z'
loop_
 _atom_site_type_symbol
 _atom_site_label
 _atom_site_symmetry_multiplicity
 _atom_site_fract_x
 _atom_site_fract_y
 _atom_site_fract_z
 _atom_site_occupancy
  Mn  Mn0  1  0.50000000  0.53200602  0.36200601  1
  Mn  Mn1  1  0.50000000  0.47670202  0.87018401  1
  Mn  Mn2  1  0.00000000  0.03200600  0.63799401  1
  Mn  Mn3  1  0.00000000  0.97670204  0.12981600  1
  O  O4  1  0.00000000  0.69153803  0.28427400  1
  F  F5  1  0.50000000  0.19153801  0.71572601  1
  F  F6  1  0.00000000  0.70214803  0.76759801  1
  F  F7  1  0.50000000  0.80354903  0.52856201  1
  F  F8  1  0.50000000  0.79405803  0.02002600  1
  F  F9  1  0.50000000  0.20214801  0.23240200  1
  F  F10  1  0.00000000  0.29405801  0.97997402  1
  F  F11  1  0.00000000  0.30354901  0.47143801  1
