# generated using pymatgen
data_CsCoMoBr13
_symmetry_space_group_name_H-M   'P 1'
_cell_length_a   6.59259415
_cell_length_b   7.07439566
_cell_length_c   12.76027012
_cell_angle_alpha   100.82852173
_cell_angle_beta   90.00000000
_cell_angle_gamma   117.77156067
_symmetry_Int_Tables_number   1
_chemical_formula_structural   CsCoMoBr13
_chemical_formula_sum   'Cs1 Co1 Mo1 Br13'
_cell_volume   514.56414999
_cell_formula_units_Z   1
loop_
 _symmetry_equiv_pos_site_id
 _symmetry_equiv_pos_as_xyz
  1  'x, y, z'
loop_
 _atom_site_type_symbol
 _atom_site_label
 _atom_site_symmetry_multiplicity
 _atom_site_fract_x
 _atom_site_fract_y
 _atom_site_fract_z
 _atom_site_occupancy
  Cs  Cs0  1  0.88317298  0.00000000  0.25000000  1
  Br  Br1  1  0.11682703  1.00000005  0.75000002  1
  Co  Co2  1  0.00000002  0.50000002  0.00000001  1
  Mo  Mo3  1  0.50000001  0.50000002  0.50000001  1
  Br  Br4  1  0.80482100  0.43149302  0.15410901  1
  Br  Br5  1  0.37332801  0.56850703  0.34589101  1
  Br  Br6  1  0.19517901  0.56850703  0.84589102  1
  Br  Br7  1  0.62667200  0.43149302  0.65410901  1
  Br  Br8  1  0.19979501  0.31647602  0.03921000  1
  Br  Br9  1  0.88331900  0.68352403  0.46079001  1
  Br  Br10  1  0.80020500  0.68352403  0.96079002  1
  Br  Br11  1  0.11668101  0.31647602  0.53921001  1
  Br  Br12  1  0.29297502  0.83021104  0.10083001  1
  Br  Br13  1  0.46276400  0.16978901  0.39917001  1
  Br  Br14  1  0.70702499  0.16978901  0.89917001  1
  Br  Br15  1  0.53723602  0.83021104  0.60083002  1
