# generated using pymatgen
data_RbCo2F6
_symmetry_space_group_name_H-M   'P 1'
_cell_length_a   7.43840408
_cell_length_b   7.43840408
_cell_length_c   7.51180553
_cell_angle_alpha   60.32333755
_cell_angle_beta   60.32333755
_cell_angle_gamma   60.00020218
_symmetry_Int_Tables_number   1
_chemical_formula_structural   RbCo2F6
_chemical_formula_sum   'Rb2 Co4 F12'
_cell_volume   295.32135165
_cell_formula_units_Z   2
loop_
 _symmetry_equiv_pos_site_id
 _symmetry_equiv_pos_as_xyz
  1  'x, y, z'
loop_
 _atom_site_type_symbol
 _atom_site_label
 _atom_site_symmetry_multiplicity
 _atom_site_fract_x
 _atom_site_fract_y
 _atom_site_fract_z
 _atom_site_occupancy
  Rb  Rb0  1  0.86864899  0.87658599  0.88230706  1
  F  F1  1  0.12341400  0.13135100  0.11769301  1
  Co  Co2  1  0.49629999  0.50370000  1.00000003  1
  Co  Co3  1  0.99611199  0.50388000  0.49993305  1
  Co  Co4  1  0.49611999  0.00388800  0.50006702  1
  Co  Co5  1  0.49613299  0.50386700  0.50000003  1
  F  F6  1  0.18760700  0.19512200  0.55552201  1
  F  F7  1  0.55965099  0.56705499  0.19957004  1
  Rb  Rb8  1  0.17002499  0.56704299  0.19955903  1
  F  F9  1  0.55798899  0.19511700  0.55555002  1
  F  F10  1  0.55966399  0.17741700  0.19957303  1
  F  F11  1  0.18760699  0.56551799  0.55549303  1
  F  F12  1  0.80487799  0.81239299  0.44447806  1
  F  F13  1  0.43294499  0.44034900  0.80043003  1
  F  F14  1  0.82258399  0.44033500  0.80042704  1
  F  F15  1  0.43448199  0.81239299  0.44450704  1
  F  F16  1  0.43295699  0.82997499  0.80044104  1
  F  F17  1  0.80488399  0.44201000  0.44445004  1
