# generated using pymatgen
data_TaGaCo6(Ge3Mo2)2
_symmetry_space_group_name_H-M   'P 1'
_cell_length_a   6.50593185
_cell_length_b   7.40241051
_cell_length_c   7.10907412
_cell_angle_alpha   118.69757843
_cell_angle_beta   90.00000000
_cell_angle_gamma   116.06859589
_symmetry_Int_Tables_number   1
_chemical_formula_structural   TaGaCo6(Ge3Mo2)2
_chemical_formula_sum   'Ta1 Ga1 Co6 Ge6 Mo4'
_cell_volume   259.90990242
_cell_formula_units_Z   1
loop_
 _symmetry_equiv_pos_site_id
 _symmetry_equiv_pos_as_xyz
  1  'x, y, z'
loop_
 _atom_site_type_symbol
 _atom_site_label
 _atom_site_symmetry_multiplicity
 _atom_site_fract_x
 _atom_site_fract_y
 _atom_site_fract_z
 _atom_site_occupancy
  Ga  Ga0  1  0.00905505  0.60505604  0.05252802  1
  Ta  Ta1  1  0.40399904  0.39494503  0.94747300  1
  Mo  Mo2  1  0.45062704  0.44507003  0.47253501  1
  Mo  Mo3  1  0.00555704  0.55493004  0.52746501  1
  Mo  Mo4  1  0.58708301  0.00647200  0.25323600  1
  Mo  Mo5  1  0.58061109  0.99352807  0.74676403  1
  Ge  Ge6  1  0.02511001  0.06433800  0.28216900  1
  Ge  Ge7  1  0.96077209  0.93566206  0.71783102  1
  Ge  Ge8  1  0.33727306  0.66535804  0.83842501  1
  Ge  Ge9  1  0.67191504  0.33464202  0.16157501  1
  Ge  Ge10  1  0.33727406  0.66535904  0.32693302  1
  Ge  Ge11  1  0.67191404  0.33464102  0.67306700  1
  Co  Co12  1  0.25508401  0.00000000  0.00000000  1
  Co  Co13  1  0.25508401  0.00000000  0.49999999  1
  Co  Co14  1  0.00343502  0.25354902  0.66253100  1
  Co  Co15  1  0.74988607  0.74645105  0.33746902  1
  Co  Co16  1  0.00343502  0.25354902  0.09101801  1
  Co  Co17  1  0.74988607  0.74645105  0.90898201  1
