# generated using pymatgen
data_MnO2
_symmetry_space_group_name_H-M   'P 1'
_cell_length_a   5.15122795
_cell_length_b   5.48048162
_cell_length_c   7.47721529
_cell_angle_alpha   87.61280823
_cell_angle_beta   84.91524506
_cell_angle_gamma   61.96821976
_symmetry_Int_Tables_number   1
_chemical_formula_structural   MnO2
_chemical_formula_sum   'Mn4 O8'
_cell_volume   185.59389204
_cell_formula_units_Z   4
loop_
 _symmetry_equiv_pos_site_id
 _symmetry_equiv_pos_as_xyz
  1  'x, y, z'
loop_
 _atom_site_type_symbol
 _atom_site_label
 _atom_site_symmetry_multiplicity
 _atom_site_fract_x
 _atom_site_fract_y
 _atom_site_fract_z
 _atom_site_occupancy
  O  O0  1  0.94793203  0.68706297  0.12489199  1
  Mn  Mn1  1  0.63499502  0.31293699  0.12489199  1
  O  O2  1  0.05206801  0.31293699  0.87510799  1
  O  O3  1  0.36500503  0.68706297  0.87510799  1
  Mn  Mn4  1  0.26184404  0.99999996  0.29766600  1
  O  O5  1  0.73815601  0.00000000  0.70233398  1
  O  O6  1  0.03027801  0.29777499  0.14914200  1
  O  O7  1  0.32805303  0.70222497  0.14914200  1
  O  O8  1  0.62932401  0.00000000  0.26160199  1
  Mn  Mn9  1  0.37067600  0.00000000  0.73839799  1
  Mn  Mn10  1  0.67194702  0.29777499  0.85085798  1
  O  O11  1  0.96972204  0.70222497  0.85085798  1
