# generated using pymatgen
data_Ho2CoSi3
_symmetry_space_group_name_H-M   'P 1'
_cell_length_a   3.89633203
_cell_length_b   4.01954889
_cell_length_c   6.93997717
_cell_angle_alpha   90.00000000
_cell_angle_beta   90.00000000
_cell_angle_gamma   90.00000000
_symmetry_Int_Tables_number   1
_chemical_formula_structural   Ho2CoSi3
_chemical_formula_sum   'Ho2 Co1 Si3'
_cell_volume   108.69043217
_cell_formula_units_Z   1
loop_
 _symmetry_equiv_pos_site_id
 _symmetry_equiv_pos_as_xyz
  1  'x, y, z'
loop_
 _atom_site_type_symbol
 _atom_site_label
 _atom_site_symmetry_multiplicity
 _atom_site_fract_x
 _atom_site_fract_y
 _atom_site_fract_z
 _atom_site_occupancy
  Ho  Ho0  1  0.00000000  0.50000001  0.99064498  1
  Ho  Ho1  1  0.00000000  0.00000000  0.51058499  1
  Co  Co2  1  0.50000000  0.50000001  0.33013499  1
  Si  Si3  1  0.50000000  0.00000000  0.83635298  1
  Si  Si4  1  0.50000000  0.00000000  0.16907200  1
  Si  Si5  1  0.50000000  0.50000001  0.66321098  1
