# generated using pymatgen
data_LiCoO2
_symmetry_space_group_name_H-M   'P 1'
_cell_length_a   5.04060602
_cell_length_b   5.09424257
_cell_length_c   5.11958361
_cell_angle_alpha   80.80193329
_cell_angle_beta   71.14963531
_cell_angle_gamma   60.34768677
_symmetry_Int_Tables_number   1
_chemical_formula_structural   LiCoO2
_chemical_formula_sum   'Li3 Co3 O6'
_cell_volume   108.11788004
_cell_formula_units_Z   3
loop_
 _symmetry_equiv_pos_site_id
 _symmetry_equiv_pos_as_xyz
  1  'x, y, z'
loop_
 _atom_site_type_symbol
 _atom_site_label
 _atom_site_symmetry_multiplicity
 _atom_site_fract_x
 _atom_site_fract_y
 _atom_site_fract_z
 _atom_site_occupancy
  Li  Li0  1  0.16652598  0.66694803  0.50000007  1
  Li  Li1  1  0.49957299  0.00085400  0.50000005  1
  Li  Li2  1  0.83434198  0.33131601  0.50000008  1
  Co  Co3  1  0.33393799  0.33212401  0.00000004  1
  Co  Co4  1  0.66469397  0.67061203  0.00000008  1
  Co  Co5  1  0.99991598  0.00016800  0.00000005  1
  O  O6  1  0.71966398  0.01535600  0.76912007  1
  O  O7  1  0.08980099  0.33927702  0.77416606  1
  O  O8  1  0.42294998  0.64435703  0.77448110  1
  O  O9  1  0.57092198  0.33927702  0.22583406  1
  O  O10  1  0.93269297  0.64435703  0.22551910  1
  O  O11  1  0.26497999  0.01535600  0.23088002  1
