# generated using pymatgen
data_BaMgCo2PPb
_symmetry_space_group_name_H-M   'P 1'
_cell_length_a   3.91387200
_cell_length_b   3.91387200
_cell_length_c   7.82779121
_cell_angle_alpha   90.00000000
_cell_angle_beta   90.00000000
_cell_angle_gamma   90.00000000
_symmetry_Int_Tables_number   1
_chemical_formula_structural   BaMgCo2PPb
_chemical_formula_sum   'Ba1 Mg1 Co2 P1 Pb1'
_cell_volume   119.90919044
_cell_formula_units_Z   1
loop_
 _symmetry_equiv_pos_site_id
 _symmetry_equiv_pos_as_xyz
  1  'x, y, z'
loop_
 _atom_site_type_symbol
 _atom_site_label
 _atom_site_symmetry_multiplicity
 _atom_site_fract_x
 _atom_site_fract_y
 _atom_site_fract_z
 _atom_site_occupancy
  Mg  Mg0  1  0.00000000  0.50000000  0.83701598  1
  P  P1  1  0.50000000  0.00000000  0.16298400  1
  Pb  Pb2  1  0.50000000  0.00000000  0.66147698  1
  Ba  Ba3  1  0.00000000  0.50000000  0.33852299  1
  Co  Co4  1  0.00000000  0.00000000  0.00000000  1
  Co  Co5  1  0.50000000  0.50000000  0.00000000  1
