# generated using pymatgen
data_Li7BiO8
_symmetry_space_group_name_H-M   'P 1'
_cell_length_a   2.86352801
_cell_length_b   4.96892309
_cell_length_c   11.28232670
_cell_angle_alpha   102.14799500
_cell_angle_beta   97.29067993
_cell_angle_gamma   90.00000000
_symmetry_Int_Tables_number   1
_chemical_formula_structural   Li7BiO8
_chemical_formula_sum   'Li7 Bi1 O8'
_cell_volume   155.60966480
_cell_formula_units_Z   1
loop_
 _symmetry_equiv_pos_site_id
 _symmetry_equiv_pos_as_xyz
  1  'x, y, z'
loop_
 _atom_site_type_symbol
 _atom_site_label
 _atom_site_symmetry_multiplicity
 _atom_site_fract_x
 _atom_site_fract_y
 _atom_site_fract_z
 _atom_site_occupancy
  Li  Li0  1  0.00000000  0.00000000  0.00000000  1
  Li  Li1  1  0.75076599  0.74945599  0.50153198  1
  Li  Li2  1  0.24923400  0.25054400  0.49846799  1
  Li  Li3  1  0.87230499  0.87130099  0.74460998  1
  Li  Li4  1  0.37053800  0.37289000  0.74107598  1
  Li  Li5  1  0.12769500  0.12869900  0.25538999  1
  Li  Li6  1  0.62946199  0.62710999  0.25892399  1
  Bi  Bi7  1  0.49999999  0.49999999  -0.00000001  1
  O  O8  1  0.43324099  0.76275499  0.86648197  1
  O  O9  1  0.93314399  0.26800400  0.86628798  1
  O  O10  1  0.19033499  0.85435599  0.38066998  1
  O  O11  1  0.68990799  0.35328100  0.37981599  1
  O  O12  1  0.06685600  0.73199599  0.13371199  1
  O  O13  1  0.56675900  0.23724500  0.13351799  1
  O  O14  1  0.31009199  0.64671899  0.62018398  1
  O  O15  1  0.80966500  0.14564400  0.61932999  1
