# generated using pymatgen
data_CsTe
_symmetry_space_group_name_H-M   'P 1'
_cell_length_a   7.32044315
_cell_length_b   7.54166222
_cell_length_c   12.94783592
_cell_angle_alpha   97.94810486
_cell_angle_beta   90.00000000
_cell_angle_gamma   90.00000000
_symmetry_Int_Tables_number   1
_chemical_formula_structural   CsTe
_chemical_formula_sum   'Cs8 Te8'
_cell_volume   707.96129230
_cell_formula_units_Z   8
loop_
 _symmetry_equiv_pos_site_id
 _symmetry_equiv_pos_as_xyz
  1  'x, y, z'
loop_
 _atom_site_type_symbol
 _atom_site_label
 _atom_site_symmetry_multiplicity
 _atom_site_fract_x
 _atom_site_fract_y
 _atom_site_fract_z
 _atom_site_occupancy
  Cs  Cs0  1  0.83163498  0.21349099  0.46725099  1
  Cs  Cs1  1  0.33163499  0.28650899  0.03274900  1
  Cs  Cs2  1  0.16836500  0.78650898  0.53274900  1
  Cs  Cs3  1  0.66836499  0.71349098  0.96725098  1
  Cs  Cs4  1  0.59860499  0.61748799  0.33122600  1
  Cs  Cs5  1  0.09860500  0.88251198  0.16877401  1
  Cs  Cs6  1  0.40139499  0.38251199  0.66877399  1
  Cs  Cs7  1  0.90139498  0.11748800  0.83122598  1
  Te  Te8  1  0.83103398  0.29602899  0.12988900  1
  Te  Te9  1  0.33103399  0.20397100  0.37011099  1
  Te  Te10  1  0.16896600  0.70397098  0.87011099  1
  Te  Te11  1  0.66896599  0.79602898  0.62988900  1
  Te  Te12  1  0.09595700  0.45464099  0.28391500  1
  Te  Te13  1  0.59595699  0.04535900  0.21608499  1
  Te  Te14  1  0.90404298  0.54535899  0.71608499  1
  Te  Te15  1  0.40404299  0.95464098  0.78391499  1
