# generated using pymatgen
data_CsAs
_symmetry_space_group_name_H-M   'P 1'
_cell_length_a   7.36312008
_cell_length_b   7.50967693
_cell_length_c   13.03722858
_cell_angle_alpha   90.00000000
_cell_angle_beta   90.00000000
_cell_angle_gamma   90.00000000
_symmetry_Int_Tables_number   1
_chemical_formula_structural   CsAs
_chemical_formula_sum   'Cs8 As8'
_cell_volume   720.88903084
_cell_formula_units_Z   8
loop_
 _symmetry_equiv_pos_site_id
 _symmetry_equiv_pos_as_xyz
  1  'x, y, z'
loop_
 _atom_site_type_symbol
 _atom_site_label
 _atom_site_symmetry_multiplicity
 _atom_site_fract_x
 _atom_site_fract_y
 _atom_site_fract_z
 _atom_site_occupancy
  Cs  Cs0  1  0.83152299  0.35144100  0.70884702  1
  Cs  Cs1  1  0.33152300  0.14855900  0.29115301  1
  Cs  Cs2  1  0.16847700  0.85144101  0.79115303  1
  Cs  Cs3  1  0.66847699  0.64855901  0.20884701  1
  Cs  Cs4  1  0.09643300  0.60037701  0.41911001  1
  Cs  Cs5  1  0.59643299  0.89962301  0.58089002  1
  Cs  Cs6  1  0.90356699  0.10037700  0.08089000  1
  Cs  Cs7  1  0.40356700  0.39962300  0.91911003  1
  As  As8  1  0.59144599  0.44449600  0.46479501  1
  As  As9  1  0.09144600  0.05550400  0.53520502  1
  As  As10  1  0.40855400  0.94449601  0.03520500  1
  As  As11  1  0.90855399  0.55550400  0.96479503  1
  As  As12  1  0.33006400  0.32638400  0.61811102  1
  As  As13  1  0.83006399  0.17361600  0.38188901  1
  As  As14  1  0.66993599  0.82638401  0.88188903  1
  As  As15  1  0.16993600  0.67361601  0.11811100  1
