# generated using pymatgen
data_Cs4Ga5OF8
_symmetry_space_group_name_H-M   'P 1'
_cell_length_a   7.43585300
_cell_length_b   7.43585300
_cell_length_c   7.43585300
_cell_angle_alpha   60.00000000
_cell_angle_beta   60.00000000
_cell_angle_gamma   60.00000000
_symmetry_Int_Tables_number   1
_chemical_formula_structural   Cs4Ga5OF8
_chemical_formula_sum   'Cs4 Ga5 O1 F8'
_cell_volume   290.72165995
_cell_formula_units_Z   1
loop_
 _symmetry_equiv_pos_site_id
 _symmetry_equiv_pos_as_xyz
  1  'x, y, z'
loop_
 _atom_site_type_symbol
 _atom_site_label
 _atom_site_symmetry_multiplicity
 _atom_site_fract_x
 _atom_site_fract_y
 _atom_site_fract_z
 _atom_site_occupancy
  Cs  Cs0  1  0.74999999  0.74999999  0.74999999  1
  Ga  Ga1  1  0.00000000  0.00000000  0.00000000  1
  Ga  Ga2  1  0.87499999  0.37499999  0.37499999  1
  Ga  Ga3  1  0.37499999  0.87499999  0.37499999  1
  Ga  Ga4  1  0.37499999  0.37499999  0.87499999  1
  Ga  Ga5  1  0.37499999  0.37499999  0.37499999  1
  Cs  Cs6  1  0.05520100  0.05520100  0.44479899  1
  Cs  Cs7  1  0.05520100  0.44479899  0.05520100  1
  F  F8  1  0.30520100  0.30520100  0.69479899  1
  F  F9  1  0.30520100  0.69479899  0.30520100  1
  F  F10  1  0.05520100  0.44479899  0.44479899  1
  Cs  Cs11  1  0.44479899  0.05520100  0.05520100  1
  F  F12  1  0.69479899  0.30520100  0.30520100  1
  F  F13  1  0.44479899  0.05520100  0.44479899  1
  F  F14  1  0.44479899  0.44479899  0.05520100  1
  F  F15  1  0.30520100  0.69479899  0.69479899  1
  O  O16  1  0.69479899  0.69479899  0.30520100  1
  F  F17  1  0.69479899  0.30520100  0.69479899  1
