# generated using pymatgen
data_Li2V4F13
_symmetry_space_group_name_H-M   'P 1'
_cell_length_a   3.69587207
_cell_length_b   6.47797060
_cell_length_c   10.57628250
_cell_angle_alpha   100.41726685
_cell_angle_beta   90.00000000
_cell_angle_gamma   106.57466888
_symmetry_Int_Tables_number   1
_chemical_formula_structural   Li2V4F13
_chemical_formula_sum   'Li2 V4 F13'
_cell_volume   238.33542787
_cell_formula_units_Z   1
loop_
 _symmetry_equiv_pos_site_id
 _symmetry_equiv_pos_as_xyz
  1  'x, y, z'
loop_
 _atom_site_type_symbol
 _atom_site_label
 _atom_site_symmetry_multiplicity
 _atom_site_fract_x
 _atom_site_fract_y
 _atom_site_fract_z
 _atom_site_occupancy
  Li  Li0  1  0.57994899  0.15989800  0.63476900  1
  Li  Li1  1  0.42005100  0.84010199  0.36523100  1
  V  V2  1  0.64505499  0.29011000  0.99560000  1
  V  V3  1  0.71975099  0.43950199  0.38227300  1
  V  V4  1  0.28024900  0.56049799  0.61772700  1
  V  V5  1  0.35494500  0.70988999  0.00440000  1
  F  F6  1  0.76370999  0.52741999  0.58563100  1
  F  F7  1  0.81797499  0.63594999  0.99231000  1
  F  F8  1  0.18202500  0.36405000  0.00769000  1
  F  F9  1  0.23629000  0.47257999  0.41436900  1
  F  F10  1  0.49999999  0.00000000  -0.00000000  1
  F  F11  1  0.61899999  0.23800000  0.81670900  1
  F  F12  1  0.57256599  0.14513200  0.40200100  1
  F  F13  1  0.12588900  0.25177800  0.62340300  1
  F  F14  1  0.68012799  0.36025600  0.20044800  1
  F  F15  1  0.31987200  0.63974399  0.79955200  1
  F  F16  1  0.87411099  0.74822199  0.37659700  1
  F  F17  1  0.42743400  0.85486799  0.59799900  1
  F  F18  1  0.38100000  0.76199999  0.18329100  1
