# generated using pymatgen
data_Bi
_symmetry_space_group_name_H-M   'P 1'
_cell_length_a   4.46054983
_cell_length_b   4.46054935
_cell_length_c   24.57213402
_cell_angle_alpha   90.00000000
_cell_angle_beta   90.00000000
_cell_angle_gamma   120.00000763
_symmetry_Int_Tables_number   1
_chemical_formula_structural   Bi
_chemical_formula_sum   Bi12
_cell_volume   423.39938044
_cell_formula_units_Z   12
loop_
 _symmetry_equiv_pos_site_id
 _symmetry_equiv_pos_as_xyz
  1  'x, y, z'
loop_
 _atom_site_type_symbol
 _atom_site_label
 _atom_site_symmetry_multiplicity
 _atom_site_fract_x
 _atom_site_fract_y
 _atom_site_fract_z
 _atom_site_occupancy
  Bi  Bi0  1  0.00000000  0.00000000  0.00000000  1
  Bi  Bi1  1  0.33333340  0.66666671  0.83847900  1
  Bi  Bi2  1  0.66666672  0.33333335  0.16152100  1
  Bi  Bi3  1  0.33333340  0.66666671  0.58204300  1
  Bi  Bi4  1  0.66666672  0.33333335  0.41795700  1
  Bi  Bi5  1  0.00000000  0.00000000  0.50000000  1
  Bi  Bi6  1  0.33333340  0.66666671  0.07671600  1
  Bi  Bi7  1  0.66666672  0.33333335  0.92328400  1
  Bi  Bi8  1  0.00000000  0.00000000  0.23118300  1
  Bi  Bi9  1  0.00000000  0.00000000  0.76881700  1
  Bi  Bi10  1  0.33333340  0.66666671  0.34807800  1
  Bi  Bi11  1  0.66666672  0.33333335  0.65192200  1
