# generated using pymatgen
data_Tb(Co2B)6
_symmetry_space_group_name_H-M   'P 1'
_cell_length_a   5.97270107
_cell_length_b   5.97270107
_cell_length_c   5.97270203
_cell_angle_alpha   103.99806976
_cell_angle_beta   103.99806976
_cell_angle_gamma   103.99807739
_symmetry_Int_Tables_number   1
_chemical_formula_structural   Tb(Co2B)6
_chemical_formula_sum   'Tb1 Co12 B6'
_cell_volume   190.11365840
_cell_formula_units_Z   1
loop_
 _symmetry_equiv_pos_site_id
 _symmetry_equiv_pos_as_xyz
  1  'x, y, z'
loop_
 _atom_site_type_symbol
 _atom_site_label
 _atom_site_symmetry_multiplicity
 _atom_site_fract_x
 _atom_site_fract_y
 _atom_site_fract_z
 _atom_site_occupancy
  Tb  Tb0  1  0.00000000  0.00000000  0.00000000  1
  Co  Co1  1  0.13270098  0.86729899  0.49999992  1
  Co  Co2  1  0.86729899  0.50000000  0.13270092  1
  Co  Co3  1  0.50000000  0.13270100  0.86729893  1
  Co  Co4  1  0.13270099  0.50000000  0.86729893  1
  Co  Co5  1  0.49999998  0.86729899  0.13270092  1
  Co  Co6  1  0.86729900  0.13270100  0.49999993  1
  Co  Co7  1  0.18637199  0.45746200  0.45746195  1
  Co  Co8  1  0.45746199  0.45746200  0.18637194  1
  Co  Co9  1  0.45746200  0.18637200  0.45746195  1
  Co  Co10  1  0.81362799  0.54253800  0.54253790  1
  Co  Co11  1  0.54253799  0.54253800  0.81362791  1
  Co  Co12  1  0.54253798  0.81362799  0.54253790  1
  B  B13  1  0.67513999  0.23252600  0.23252594  1
  B  B14  1  0.23252600  0.23252600  0.67513995  1
  B  B15  1  0.23252599  0.67513999  0.23252594  1
  B  B16  1  0.32485998  0.76747399  0.76747291  1
  B  B17  1  0.76747298  0.76747399  0.32485990  1
  B  B18  1  0.76747299  0.32486000  0.76747291  1
