# generated using pymatgen
data_LuGeIr
_symmetry_space_group_name_H-M   'P 1'
_cell_length_a   4.22556877
_cell_length_b   6.89840221
_cell_length_c   7.27561283
_cell_angle_alpha   90.00000000
_cell_angle_beta   90.00000000
_cell_angle_gamma   90.00000000
_symmetry_Int_Tables_number   1
_chemical_formula_structural   LuGeIr
_chemical_formula_sum   'Lu4 Ge4 Ir4'
_cell_volume   212.08173467
_cell_formula_units_Z   4
loop_
 _symmetry_equiv_pos_site_id
 _symmetry_equiv_pos_as_xyz
  1  'x, y, z'
loop_
 _atom_site_type_symbol
 _atom_site_label
 _atom_site_symmetry_multiplicity
 _atom_site_fract_x
 _atom_site_fract_y
 _atom_site_fract_z
 _atom_site_occupancy
  Lu  Lu0  1  0.75000004  0.00809200  0.70706302  1
  Lu  Lu1  1  0.25000001  0.49190798  0.20706300  1
  Lu  Lu2  1  0.75000004  0.50809198  0.79293702  1
  Lu  Lu3  1  0.25000001  0.99190797  0.29293701  1
  Ir  Ir4  1  0.75000004  0.80321698  0.08100700  1
  Ge  Ge5  1  0.25000001  0.19678299  0.91899302  1
  Ir  Ir6  1  0.25000001  0.69678298  0.58100701  1
  Ge  Ge7  1  0.75000004  0.30321699  0.41899301  1
  Ge  Ge8  1  0.25000001  0.80357098  0.91069102  1
  Ge  Ge9  1  0.75000004  0.69642898  0.41069101  1
  Ir  Ir10  1  0.25000001  0.30357099  0.58930901  1
  Ir  Ir11  1  0.75000004  0.19642899  0.08930900  1
