# generated using pymatgen
data_NdGe4Ir
_symmetry_space_group_name_H-M   'P 1'
_cell_length_a   4.27327013
_cell_length_b   6.67490816
_cell_length_c   8.19058514
_cell_angle_alpha   90.00000000
_cell_angle_beta   105.12138367
_cell_angle_gamma   90.00000000
_symmetry_Int_Tables_number   1
_chemical_formula_structural   NdGe4Ir
_chemical_formula_sum   'Nd2 Ge8 Ir2'
_cell_volume   225.53646611
_cell_formula_units_Z   2
loop_
 _symmetry_equiv_pos_site_id
 _symmetry_equiv_pos_as_xyz
  1  'x, y, z'
loop_
 _atom_site_type_symbol
 _atom_site_label
 _atom_site_symmetry_multiplicity
 _atom_site_fract_x
 _atom_site_fract_y
 _atom_site_fract_z
 _atom_site_occupancy
  Nd  Nd0  1  0.61447499  0.24999999  0.22895002  1
  Nd  Nd1  1  0.38552499  0.74999998  0.77105001  1
  Ge  Ge2  1  0.42948699  0.24999999  0.85897401  1
  Ge  Ge3  1  0.57051299  0.74999998  0.14102602  1
  Ge  Ge4  1  0.00000000  0.00000000  0.00000000  1
  Ge  Ge5  1  0.00000000  0.49999999  -0.00000000  1
  Ge  Ge6  1  0.81761699  0.05090900  0.63523402  1
  Ge  Ge7  1  0.18238300  0.94909098  0.36476600  1
  Ge  Ge8  1  0.18238300  0.55090899  0.36476600  1
  Ge  Ge9  1  0.81761699  0.44909099  0.63523402  1
  Ir  Ir10  1  0.27645300  0.24999999  0.55290601  1
  Ir  Ir11  1  0.72354699  0.74999998  0.44709402  1
