# generated using pymatgen
data_HoBP7Rh5
_symmetry_space_group_name_H-M   'P 1'
_cell_length_a   3.77351403
_cell_length_b   7.09967089
_cell_length_c   7.09967089
_cell_angle_alpha   90.00000000
_cell_angle_beta   90.00000000
_cell_angle_gamma   90.00000000
_symmetry_Int_Tables_number   1
_chemical_formula_structural   HoBP7Rh5
_chemical_formula_sum   'Ho1 B1 P7 Rh5'
_cell_volume   190.20520762
_cell_formula_units_Z   1
loop_
 _symmetry_equiv_pos_site_id
 _symmetry_equiv_pos_as_xyz
  1  'x, y, z'
loop_
 _atom_site_type_symbol
 _atom_site_label
 _atom_site_symmetry_multiplicity
 _atom_site_fract_x
 _atom_site_fract_y
 _atom_site_fract_z
 _atom_site_occupancy
  B  B0  1  0.00000000  0.00000000  0.00000000  1
  Ho  Ho1  1  0.50000000  0.50000001  0.50000001  1
  Rh  Rh2  1  0.00000000  0.58825301  0.15087100  1
  Rh  Rh3  1  0.99999999  0.41174701  0.84912901  1
  P  P4  1  0.50000000  0.65087101  0.91174701  1
  Rh  Rh5  1  0.50000000  0.08825300  0.34912901  1
  P  P6  1  0.50000000  0.34912901  0.08825300  1
  Rh  Rh7  1  0.50000000  0.91174701  0.65087101  1
  P  P8  1  0.99999999  0.15087100  0.58825301  1
  Rh  Rh9  1  0.99999999  0.84912901  0.41174701  1
  P  P10  1  0.99999999  0.28202500  0.28202500  1
  P  P11  1  0.99999999  0.71797501  0.71797501  1
  P  P12  1  0.50000000  0.78202501  0.21797500  1
  P  P13  1  0.50000000  0.21797500  0.78202501  1
