# generated using pymatgen
data_Cs5Co3F12
_symmetry_space_group_name_H-M   'P 1'
_cell_length_a   6.07158995
_cell_length_b   7.57324982
_cell_length_c   8.92743206
_cell_angle_alpha   90.00000000
_cell_angle_beta   90.00000000
_cell_angle_gamma   90.00000000
_symmetry_Int_Tables_number   1
_chemical_formula_structural   Cs5Co3F12
_chemical_formula_sum   'Cs5 Co3 F12'
_cell_volume   410.49821220
_cell_formula_units_Z   1
loop_
 _symmetry_equiv_pos_site_id
 _symmetry_equiv_pos_as_xyz
  1  'x, y, z'
loop_
 _atom_site_type_symbol
 _atom_site_label
 _atom_site_symmetry_multiplicity
 _atom_site_fract_x
 _atom_site_fract_y
 _atom_site_fract_z
 _atom_site_occupancy
  Cs  Cs0  1  0.93103001  0.38624701  0.25833500  1
  Cs  Cs1  1  0.06897000  0.61375301  0.75833499  1
  Cs  Cs2  1  0.43103000  0.11375300  0.75833499  1
  Cs  Cs3  1  0.56897000  0.88624702  0.25833500  1
  Co  Co4  1  0.10129200  0.85242502  0.42760700  1
  F  F5  1  0.89870801  0.14757500  0.92760699  1
  Co  Co6  1  0.60129201  0.64757502  0.92760699  1
  Co  Co7  1  0.39870800  0.35242501  0.42760700  1
  F  F8  1  0.60581301  0.49937901  0.76872699  1
  F  F9  1  0.39418700  0.50062101  0.26872700  1
  Cs  Cs10  1  0.10581300  0.00062100  0.26872700  1
  F  F11  1  0.89418701  0.99937902  0.76872699  1
  F  F12  1  0.83639101  0.67714402  0.05243400  1
  F  F13  1  0.16360900  0.32285601  0.55243400  1
  F  F14  1  0.33639100  0.82285602  0.55243400  1
  F  F15  1  0.66360901  0.17714400  0.05243400  1
  F  F16  1  0.36848700  0.79489302  0.95897699  1
  F  F17  1  0.63151301  0.20510700  0.45897700  1
  F  F18  1  0.86848701  0.70510702  0.45897700  1
  F  F19  1  0.13151300  0.29489301  0.95897699  1
