# generated using pymatgen
data_BaLi2I11
_symmetry_space_group_name_H-M   'P 1'
_cell_length_a   4.69248581
_cell_length_b   8.35173225
_cell_length_c   13.83565140
_cell_angle_alpha   91.41142273
_cell_angle_beta   90.00000000
_cell_angle_gamma   90.00000000
_symmetry_Int_Tables_number   1
_chemical_formula_structural   BaLi2I11
_chemical_formula_sum   'Ba1 Li2 I11'
_cell_volume   542.05999473
_cell_formula_units_Z   1
loop_
 _symmetry_equiv_pos_site_id
 _symmetry_equiv_pos_as_xyz
  1  'x, y, z'
loop_
 _atom_site_type_symbol
 _atom_site_label
 _atom_site_symmetry_multiplicity
 _atom_site_fract_x
 _atom_site_fract_y
 _atom_site_fract_z
 _atom_site_occupancy
  Ba  Ba0  1  0.75000003  0.06209300  0.84497302  1
  I  I1  1  0.25000001  0.93790697  0.15502703  1
  Li  Li2  1  0.25000001  0.43208999  0.65237903  1
  Li  Li3  1  0.75000003  0.56790998  0.34762102  1
  I  I4  1  0.25000001  0.07795100  0.66167602  1
  I  I5  1  0.75000003  0.15886800  0.07420801  1
  I  I6  1  0.75000003  0.32418799  0.51749902  1
  I  I7  1  0.25000001  0.36221199  0.85915203  1
  I  I8  1  0.25000001  0.36305199  0.28646302  1
  I  I9  1  0.75000003  0.63694798  0.71353703  1
  I  I10  1  0.75000003  0.63778798  0.14084802  1
  I  I11  1  0.25000001  0.67581198  0.48250103  1
  I  I12  1  0.25000001  0.84113198  0.92579205  1
  I  I13  1  0.75000003  0.92204897  0.33832403  1
