# generated using pymatgen
data_GeTe
_symmetry_space_group_name_H-M   'P 1'
_cell_length_a   3.15113592
_cell_length_b   3.15113521
_cell_length_c   14.90874386
_cell_angle_alpha   90.00000000
_cell_angle_beta   90.00000000
_cell_angle_gamma   120.00000763
_symmetry_Int_Tables_number   1
_chemical_formula_structural   GeTe
_chemical_formula_sum   'Ge3 Te3'
_cell_volume   128.20525477
_cell_formula_units_Z   3
loop_
 _symmetry_equiv_pos_site_id
 _symmetry_equiv_pos_as_xyz
  1  'x, y, z'
loop_
 _atom_site_type_symbol
 _atom_site_label
 _atom_site_symmetry_multiplicity
 _atom_site_fract_x
 _atom_site_fract_y
 _atom_site_fract_z
 _atom_site_occupancy
  Te  Te0  1  0.66666668  0.33333334  0.16750600  1
  Ge  Ge1  1  0.00000000  0.00000000  0.33322800  1
  Te  Te2  1  0.66666668  0.33333334  0.83271001  1
  Ge  Ge3  1  0.00000000  0.00000000  0.99989201  1
  Te  Te4  1  0.66666668  0.33333334  0.49813300  1
  Ge  Ge5  1  0.00000000  0.00000000  0.66853201  1
