# generated using pymatgen
data_Ho2Co2B6Ru
_symmetry_space_group_name_H-M   'P 1'
_cell_length_a   3.48907399
_cell_length_b   5.81126642
_cell_length_c   5.81126642
_cell_angle_alpha   96.62806702
_cell_angle_beta   90.00000000
_cell_angle_gamma   90.00000000
_symmetry_Int_Tables_number   1
_chemical_formula_structural   Ho2Co2B6Ru
_chemical_formula_sum   'Ho2 Co2 B6 Ru1'
_cell_volume   117.04135296
_cell_formula_units_Z   1
loop_
 _symmetry_equiv_pos_site_id
 _symmetry_equiv_pos_as_xyz
  1  'x, y, z'
loop_
 _atom_site_type_symbol
 _atom_site_label
 _atom_site_symmetry_multiplicity
 _atom_site_fract_x
 _atom_site_fract_y
 _atom_site_fract_z
 _atom_site_occupancy
  Ho  Ho0  1  0.00000000  0.27548100  0.72451900  1
  Ho  Ho1  1  0.00000000  0.72451899  0.27548102  1
  Ru  Ru2  1  0.50000000  0.00000000  -0.00000000  1
  Co  Co3  1  0.00000000  0.77321299  0.77321302  1
  Co  Co4  1  0.00000000  0.22678700  0.22678701  1
  B  B5  1  0.50000000  0.91448499  0.61466102  1
  B  B6  1  0.50000000  0.08551500  0.38533900  1
  B  B7  1  0.50000000  0.61466099  0.91448501  1
  B  B8  1  0.50000000  0.38533900  0.08551501  1
  B  B9  1  0.50000000  0.61323699  0.61323701  1
  B  B10  1  0.50000000  0.38676300  0.38676301  1
