# generated using pymatgen
data_NaMgF4
_symmetry_space_group_name_H-M   'P 1'
_cell_length_a   5.17112780
_cell_length_b   5.53512192
_cell_length_c   5.36299276
_cell_angle_alpha   90.00000000
_cell_angle_beta   83.34409332
_cell_angle_gamma   90.00000000
_symmetry_Int_Tables_number   1
_chemical_formula_structural   NaMgF4
_chemical_formula_sum   'Na2 Mg2 F8'
_cell_volume   152.46939649
_cell_formula_units_Z   2
loop_
 _symmetry_equiv_pos_site_id
 _symmetry_equiv_pos_as_xyz
  1  'x, y, z'
loop_
 _atom_site_type_symbol
 _atom_site_label
 _atom_site_symmetry_multiplicity
 _atom_site_fract_x
 _atom_site_fract_y
 _atom_site_fract_z
 _atom_site_occupancy
  Na  Na0  1  0.00000000  0.23338200  0.25000000  1
  Na  Na1  1  0.00000000  0.76661801  0.75000001  1
  Mg  Mg2  1  0.50000002  0.30788000  0.75000000  1
  Mg  Mg3  1  0.50000002  0.69212001  0.24999999  1
  F  F4  1  0.73058503  0.43591201  0.99441799  1
  F  F5  1  0.26941501  0.43591201  0.50558200  1
  F  F6  1  0.26941501  0.56408801  0.00558199  1
  F  F7  1  0.73058503  0.56408801  0.49441799  1
  F  F8  1  0.25047101  0.91336801  0.39797900  1
  F  F9  1  0.74952903  0.91336801  0.10202099  1
  F  F10  1  0.74952903  0.08663200  0.60202099  1
  F  F11  1  0.25047101  0.08663200  0.89797900  1
