# generated using pymatgen
data_BaMoF6
_symmetry_space_group_name_H-M   'P 1'
_cell_length_a   4.99568462
_cell_length_b   4.99568462
_cell_length_c   4.99568462
_cell_angle_alpha   90.04753876
_cell_angle_beta   90.04753876
_cell_angle_gamma   89.95246124
_symmetry_Int_Tables_number   1
_chemical_formula_structural   BaMoF6
_chemical_formula_sum   'Ba1 Mo1 F6'
_cell_volume   124.67649736
_cell_formula_units_Z   1
loop_
 _symmetry_equiv_pos_site_id
 _symmetry_equiv_pos_as_xyz
  1  'x, y, z'
loop_
 _atom_site_type_symbol
 _atom_site_label
 _atom_site_symmetry_multiplicity
 _atom_site_fract_x
 _atom_site_fract_y
 _atom_site_fract_z
 _atom_site_occupancy
  F  F0  1  0.25000000  0.50123102  0.00123102  1
  F  F1  1  0.99876904  0.25000001  0.49876905  1
  F  F2  1  0.50123100  0.99876905  0.75000007  1
  F  F3  1  0.75000003  0.49967002  0.99967007  1
  F  F4  1  0.00032999  0.75000004  0.50033004  1
  F  F5  1  0.49967002  0.00033000  0.25000002  1
  Ba  Ba6  1  0.50316501  0.50316502  0.49683504  1
  Mo  Mo7  1  0.99683503  0.99683505  0.00316504  1
