# generated using pymatgen
data_Ho3Ni2
_symmetry_space_group_name_H-M   'P 1'
_cell_length_a   3.65917993
_cell_length_b   7.68832016
_cell_length_c   7.68832016
_cell_angle_alpha   90.00000000
_cell_angle_beta   90.00000000
_cell_angle_gamma   90.00000000
_symmetry_Int_Tables_number   1
_chemical_formula_structural   Ho3Ni2
_chemical_formula_sum   'Ho6 Ni4'
_cell_volume   216.29510199
_cell_formula_units_Z   2
loop_
 _symmetry_equiv_pos_site_id
 _symmetry_equiv_pos_as_xyz
  1  'x, y, z'
loop_
 _atom_site_type_symbol
 _atom_site_label
 _atom_site_symmetry_multiplicity
 _atom_site_fract_x
 _atom_site_fract_y
 _atom_site_fract_z
 _atom_site_occupancy
  Ho  Ho0  1  0.50000001  0.32760799  0.82760798  1
  Ho  Ho1  1  0.50000001  0.82760798  0.67239199  1
  Ho  Ho2  1  0.50000001  0.17239200  0.32760799  1
  Ho  Ho3  1  0.50000001  0.67239199  0.17239200  1
  Ho  Ho4  1  0.00000000  0.00000000  0.00000000  1
  Ho  Ho5  1  0.00000000  0.49999999  0.49999999  1
  Ni  Ni6  1  0.00000000  0.37157299  0.12842700  1
  Ni  Ni7  1  0.00000000  0.87157298  0.37157299  1
  Ni  Ni8  1  0.00000000  0.12842700  0.62842699  1
  Ni  Ni9  1  0.00000000  0.62842699  0.87157298  1
