# generated using pymatgen
data_Eu2P2O9
_symmetry_space_group_name_H-M   'P 1'
_cell_length_a   5.31429386
_cell_length_b   5.31429386
_cell_length_c   6.98121119
_cell_angle_alpha   67.62827301
_cell_angle_beta   67.62827301
_cell_angle_gamma   60.00000000
_symmetry_Int_Tables_number   1
_chemical_formula_structural   Eu2P2O9
_chemical_formula_sum   'Eu2 P2 O9'
_cell_volume   153.37242723
_cell_formula_units_Z   1
loop_
 _symmetry_equiv_pos_site_id
 _symmetry_equiv_pos_as_xyz
  1  'x, y, z'
loop_
 _atom_site_type_symbol
 _atom_site_label
 _atom_site_symmetry_multiplicity
 _atom_site_fract_x
 _atom_site_fract_y
 _atom_site_fract_z
 _atom_site_occupancy
  O  O0  1  0.00000000  0.00000000  0.00000000  1
  Eu  Eu1  1  0.20382301  0.20382301  0.38853098  1
  Eu  Eu2  1  0.79617704  0.79617702  0.61146894  1
  P  P3  1  0.40493102  0.40493101  0.78520696  1
  P  P4  1  0.59506903  0.59506902  0.21479296  1
  O  O5  1  0.72716004  0.72716002  0.29799795  1
  O  O6  1  0.72716003  0.24768201  0.29799796  1
  O  O7  1  0.24768202  0.72716002  0.29799796  1
  O  O8  1  0.75231803  0.27284001  0.70200195  1
  O  O9  1  0.27284001  0.27284001  0.70200197  1
  O  O10  1  0.32328302  0.32328301  0.03015098  1
  O  O11  1  0.67671703  0.67671702  0.96984894  1
  O  O12  1  0.27284002  0.75231802  0.70200195  1
