# generated using pymatgen
data_CsTe16Mo2S
_symmetry_space_group_name_H-M   'P 1'
_cell_length_a   9.58017731
_cell_length_b   9.58017731
_cell_length_c   9.58017731
_cell_angle_alpha   108.57592010
_cell_angle_beta   108.57592010
_cell_angle_gamma   108.57592010
_symmetry_Int_Tables_number   1
_chemical_formula_structural   CsTe16Mo2S
_chemical_formula_sum   'Cs1 Te16 Mo2 S1'
_cell_volume   698.39516166
_cell_formula_units_Z   1
loop_
 _symmetry_equiv_pos_site_id
 _symmetry_equiv_pos_as_xyz
  1  'x, y, z'
loop_
 _atom_site_type_symbol
 _atom_site_label
 _atom_site_symmetry_multiplicity
 _atom_site_fract_x
 _atom_site_fract_y
 _atom_site_fract_z
 _atom_site_occupancy
  Cs  Cs0  1  0.82859197  0.06791400  0.81648394  1
  Te  Te1  1  0.06791398  0.81648396  0.82859193  1
  Te  Te2  1  0.81648395  0.82859196  0.06791390  1
  Te  Te3  1  0.32859198  0.31648398  0.56791395  1
  Mo  Mo4  1  0.31648397  0.56791397  0.32859194  1
  Mo  Mo5  1  0.56791397  0.32859198  0.31648394  1
  Te  Te6  1  0.17140797  0.93208595  0.18351593  1
  Te  Te7  1  0.93208596  0.18351599  0.17140793  1
  Te  Te8  1  0.18351599  0.17140799  0.93208597  1
  Te  Te9  1  0.67140796  0.68351597  0.43208591  1
  Te  Te10  1  0.68351596  0.43208598  0.67140792  1
  Te  Te11  1  0.43208597  0.67140797  0.68351592  1
  Te  Te12  1  0.74999995  0.74999996  0.74999990  1
  Te  Te13  1  0.24999998  0.24999999  0.24999997  1
  S  S14  1  0.48857298  0.01142700  0.74999996  1
  Te  Te15  1  0.01142698  0.74999996  0.48857294  1
  Te  Te16  1  0.74999996  0.48857298  0.01142692  1
  Te  Te17  1  0.98857296  0.24999999  0.51142692  1
  Te  Te18  1  0.24999998  0.51142697  0.98857294  1
  Te  Te19  1  0.51142696  0.98857295  0.24999990  1
