# generated using pymatgen
data_Bi2PO6
_symmetry_space_group_name_H-M   'P 1'
_cell_length_a   4.30032587
_cell_length_b   7.43421364
_cell_length_c   8.38497925
_cell_angle_alpha   106.17802429
_cell_angle_beta   90.00000000
_cell_angle_gamma   106.81159210
_symmetry_Int_Tables_number   1
_chemical_formula_structural   Bi2PO6
_chemical_formula_sum   'Bi4 P2 O12'
_cell_volume   245.49710347
_cell_formula_units_Z   2
loop_
 _symmetry_equiv_pos_site_id
 _symmetry_equiv_pos_as_xyz
  1  'x, y, z'
loop_
 _atom_site_type_symbol
 _atom_site_label
 _atom_site_symmetry_multiplicity
 _atom_site_fract_x
 _atom_site_fract_y
 _atom_site_fract_z
 _atom_site_occupancy
  Bi  Bi0  1  0.67422402  0.33704300  0.58529498  1
  Bi  Bi1  1  0.32577601  0.66295701  0.41470498  1
  Bi  Bi2  1  0.33718101  0.66295701  0.91470496  1
  Bi  Bi3  1  0.66281902  0.33704300  0.08529499  1
  O  O4  1  0.93744103  0.00000000  0.74999998  1
  P  P5  1  0.06255900  0.00000000  0.24999999  1
  O  O6  1  0.76656002  0.50543100  0.87624997  1
  O  O7  1  0.23344001  0.49456900  0.12374999  1
  O  O8  1  0.26112901  0.49456900  0.62374998  1
  O  O9  1  0.73887102  0.50543100  0.37624998  1
  O  O10  1  0.73023102  0.99499701  0.60411597  1
  O  O11  1  0.26976901  0.00500300  0.39588399  1
  P  P12  1  0.73523402  0.00500300  0.89588398  1
  O  O13  1  0.26476601  0.99499701  0.10411598  1
  O  O14  1  0.22077101  0.18043900  0.79084498  1
  O  O15  1  0.77922902  0.81956101  0.20915498  1
  O  O16  1  0.04033100  0.81956101  0.70915497  1
  O  O17  1  0.95966903  0.18043900  0.29084499  1
