# generated using pymatgen
data_Ho3In5Au4
_symmetry_space_group_name_H-M   'P 1'
_cell_length_a   4.43619490
_cell_length_b   7.22995281
_cell_length_c   8.84048176
_cell_angle_alpha   90.00000000
_cell_angle_beta   90.00000000
_cell_angle_gamma   90.00000000
_symmetry_Int_Tables_number   1
_chemical_formula_structural   Ho3In5Au4
_chemical_formula_sum   'Ho3 In5 Au4'
_cell_volume   283.54501282
_cell_formula_units_Z   1
loop_
 _symmetry_equiv_pos_site_id
 _symmetry_equiv_pos_as_xyz
  1  'x, y, z'
loop_
 _atom_site_type_symbol
 _atom_site_label
 _atom_site_symmetry_multiplicity
 _atom_site_fract_x
 _atom_site_fract_y
 _atom_site_fract_z
 _atom_site_occupancy
  Ho  Ho0  1  0.75000002  0.95280402  0.68131502  1
  Ho  Ho1  1  0.25000001  0.54719601  0.18131500  1
  Ho  Ho2  1  0.75000002  0.45280401  0.81868502  1
  In  In3  1  0.25000001  0.04719600  0.31868501  1
  In  In4  1  0.25000001  0.14271100  0.94391703  1
  In  In5  1  0.25000001  0.64271102  0.55608302  1
  In  In6  1  0.75000002  0.85728902  0.05608300  1
  In  In7  1  0.75000002  0.35728901  0.44391701  1
  Au  Au8  1  0.25000001  0.24099101  0.63130102  1
  Au  Au9  1  0.25000001  0.74099102  0.86869902  1
  Au  Au10  1  0.75000002  0.25900901  0.13130100  1
  Au  Au11  1  0.75000002  0.75900902  0.36869901  1
