# generated using pymatgen
data_NdSn2
_symmetry_space_group_name_H-M   'P 1'
_cell_length_a   4.39482307
_cell_length_b   4.48713589
_cell_length_c   8.53098774
_cell_angle_alpha   74.75242615
_cell_angle_beta   90.00000000
_cell_angle_gamma   90.00000000
_symmetry_Int_Tables_number   1
_chemical_formula_structural   NdSn2
_chemical_formula_sum   'Nd2 Sn4'
_cell_volume   162.31047084
_cell_formula_units_Z   2
loop_
 _symmetry_equiv_pos_site_id
 _symmetry_equiv_pos_as_xyz
  1  'x, y, z'
loop_
 _atom_site_type_symbol
 _atom_site_label
 _atom_site_symmetry_multiplicity
 _atom_site_fract_x
 _atom_site_fract_y
 _atom_site_fract_z
 _atom_site_occupancy
  Nd  Nd0  1  0.25000000  0.40212500  0.19575002  1
  Nd  Nd1  1  0.74999999  0.59787501  0.80425004  1
  Sn  Sn2  1  0.25000000  0.75047101  0.49905803  1
  Sn  Sn3  1  0.74999999  0.24952900  0.50094202  1
  Sn  Sn4  1  0.25000000  0.06394000  0.87212003  1
  Sn  Sn5  1  0.74999999  0.93606001  0.12788003  1
