# generated using pymatgen
data_LiCo4OF9
_symmetry_space_group_name_H-M   'P 1'
_cell_length_a   5.07527733
_cell_length_b   5.11510849
_cell_length_c   7.84447718
_cell_angle_alpha   71.91677094
_cell_angle_beta   71.51526642
_cell_angle_gamma   80.14996338
_symmetry_Int_Tables_number   1
_chemical_formula_structural   LiCo4OF9
_chemical_formula_sum   'Li1 Co4 O1 F9'
_cell_volume   183.00367558
_cell_formula_units_Z   1
loop_
 _symmetry_equiv_pos_site_id
 _symmetry_equiv_pos_as_xyz
  1  'x, y, z'
loop_
 _atom_site_type_symbol
 _atom_site_label
 _atom_site_symmetry_multiplicity
 _atom_site_fract_x
 _atom_site_fract_y
 _atom_site_fract_z
 _atom_site_occupancy
  Co  Co0  1  0.99679396  0.79296495  0.40128807  1
  Li  Li1  1  0.98432595  0.99655894  0.00993309  1
  Co  Co2  1  0.99420098  0.39837898  0.20069705  1
  Co  Co3  1  0.00066599  0.20272799  0.59054900  1
  Co  Co4  1  0.00200096  0.61553696  0.79793502  1
  F  F5  1  0.18775600  0.04315200  0.16912801  1
  F  F6  1  0.19791097  0.44619897  0.36083702  1
  F  F7  1  0.19880895  0.85764195  0.56104304  1
  F  F8  1  0.19028596  0.64822496  0.96813602  1
  F  F9  1  0.80805398  0.35876898  0.02825805  1
  O  O10  1  0.78483196  0.71853296  0.26390706  1
  F  F11  1  0.79958000  0.14456499  0.44171803  1
  F  F12  1  0.80921997  0.54592897  0.63935205  1
  F  F13  1  0.80971395  0.95719294  0.82902707  1
  F  F14  1  0.23298899  0.27713598  0.73491701  1
