# generated using pymatgen
data_HoNi5P3
_symmetry_space_group_name_H-M   'P 1'
_cell_length_a   3.65400290
_cell_length_b   6.88822699
_cell_length_c   9.35477829
_cell_angle_alpha   100.21588135
_cell_angle_beta   90.00000000
_cell_angle_gamma   90.00000000
_symmetry_Int_Tables_number   1
_chemical_formula_structural   HoNi5P3
_chemical_formula_sum   'Ho2 Ni10 P6'
_cell_volume   231.72323513
_cell_formula_units_Z   2
loop_
 _symmetry_equiv_pos_site_id
 _symmetry_equiv_pos_as_xyz
  1  'x, y, z'
loop_
 _atom_site_type_symbol
 _atom_site_label
 _atom_site_symmetry_multiplicity
 _atom_site_fract_x
 _atom_site_fract_y
 _atom_site_fract_z
 _atom_site_occupancy
  Ho  Ho0  1  0.25000001  0.19152200  0.77911098  1
  Ho  Ho1  1  0.75000002  0.80847801  0.22088902  1
  Ni  Ni2  1  0.25000001  0.68578101  0.72346600  1
  Ni  Ni3  1  0.75000002  0.54120801  0.92478199  1
  Ni  Ni4  1  0.75000002  0.91493601  0.91573800  1
  Ni  Ni5  1  0.25000001  0.08506400  0.08426200  1
  Ni  Ni6  1  0.75000002  0.62713101  0.49084001  1
  Ni  Ni7  1  0.25000001  0.37286900  0.50916000  1
  Ni  Ni8  1  0.25000001  0.86511901  0.49367901  1
  Ni  Ni9  1  0.75000002  0.13488100  0.50632099  1
  Ni  Ni10  1  0.25000001  0.45879200  0.07521801  1
  Ni  Ni11  1  0.75000002  0.31421900  0.27653400  1
  P  P12  1  0.25000001  0.09164100  0.33178999  1
  P  P13  1  0.75000002  0.90835901  0.66821001  1
  P  P14  1  0.25000001  0.56266301  0.32449401  1
  P  P15  1  0.75000002  0.43733700  0.67550600  1
  P  P16  1  0.25000001  0.75331401  0.98717200  1
  P  P17  1  0.75000002  0.24668600  0.01282801  1
