# generated using pymatgen
data_Ga7P5
_symmetry_space_group_name_H-M   'P 1'
_cell_length_a   6.73595190
_cell_length_b   6.80548239
_cell_length_c   6.75522614
_cell_angle_alpha   80.92990875
_cell_angle_beta   71.42536163
_cell_angle_gamma   60.33739853
_symmetry_Int_Tables_number   1
_chemical_formula_structural   Ga7P5
_chemical_formula_sum   'Ga7 P5'
_cell_volume   255.07142684
_cell_formula_units_Z   1
loop_
 _symmetry_equiv_pos_site_id
 _symmetry_equiv_pos_as_xyz
  1  'x, y, z'
loop_
 _atom_site_type_symbol
 _atom_site_label
 _atom_site_symmetry_multiplicity
 _atom_site_fract_x
 _atom_site_fract_y
 _atom_site_fract_z
 _atom_site_occupancy
  Ga  Ga0  1  0.76771202  0.48994999  0.49721601  1
  Ga  Ga1  1  0.25766201  0.51004999  0.99721601  1
  Ga  Ga2  1  0.41485001  0.17326100  0.49974400  1
  Ga  Ga3  1  0.58811101  0.82673899  0.99974401  1
  Ga  Ga4  1  0.11407701  0.83063499  0.47601902  1
  Ga  Ga5  1  0.94471202  0.16936500  0.97601899  1
  P  P6  1  0.30230701  0.16997100  0.87684299  1
  P  P7  1  0.47227801  0.83002899  0.37684302  1
  P  P8  1  0.13342500  0.51559299  0.37270101  1
  P  P9  1  0.64901801  0.48440699  0.87270100  1
  Ga  Ga10  1  0.96901702  0.84201399  0.85597701  1
  P  P11  1  0.81103101  0.15798600  0.35597700  1
