# generated using pymatgen
data_Bi3(SeO)2
_symmetry_space_group_name_H-M   'P 1'
_cell_length_a   3.99287009
_cell_length_b   3.99287009
_cell_length_c   18.86023331
_cell_angle_alpha   90.00000000
_cell_angle_beta   90.00000000
_cell_angle_gamma   90.00000000
_symmetry_Int_Tables_number   1
_chemical_formula_structural   Bi3(SeO)2
_chemical_formula_sum   'Bi6 Se4 O4'
_cell_volume   300.68891791
_cell_formula_units_Z   2
loop_
 _symmetry_equiv_pos_site_id
 _symmetry_equiv_pos_as_xyz
  1  'x, y, z'
loop_
 _atom_site_type_symbol
 _atom_site_label
 _atom_site_symmetry_multiplicity
 _atom_site_fract_x
 _atom_site_fract_y
 _atom_site_fract_z
 _atom_site_occupancy
  Bi  Bi0  1  0.49999999  0.00000000  0.68449599  1
  Bi  Bi1  1  0.00000000  0.49999999  0.81550399  1
  Bi  Bi2  1  0.00000000  0.49999999  0.31550399  1
  Bi  Bi3  1  0.49999999  0.00000000  0.18449600  1
  Bi  Bi4  1  0.49999999  0.49999999  0.49999999  1
  Se  Se5  1  0.00000000  0.00000000  0.00000000  1
  Bi  Bi6  1  0.00000000  0.49999999  0.09712800  1
  Se  Se7  1  0.49999999  0.00000000  0.40287199  1
  Se  Se8  1  0.49999999  0.00000000  0.90287199  1
  Se  Se9  1  0.00000000  0.49999999  0.59712799  1
  O  O10  1  0.49999999  0.49999999  0.74934599  1
  O  O11  1  0.00000000  0.00000000  0.75065399  1
  O  O12  1  0.49999999  0.49999999  0.25065400  1
  O  O13  1  0.00000000  0.00000000  0.24934600  1
