# generated using pymatgen
data_Ga
_symmetry_space_group_name_H-M   'P 1'
_cell_length_a   5.35548210
_cell_length_b   7.72248983
_cell_length_c   7.72248936
_cell_angle_alpha   120.00000000
_cell_angle_beta   90.00000000
_cell_angle_gamma   90.00000000
_symmetry_Int_Tables_number   1
_chemical_formula_structural   Ga
_chemical_formula_sum   Ga17
_cell_volume   276.59470860
_cell_formula_units_Z   17
loop_
 _symmetry_equiv_pos_site_id
 _symmetry_equiv_pos_as_xyz
  1  'x, y, z'
loop_
 _atom_site_type_symbol
 _atom_site_label
 _atom_site_symmetry_multiplicity
 _atom_site_fract_x
 _atom_site_fract_y
 _atom_site_fract_z
 _atom_site_occupancy
  Ga  Ga0  1  0.74365499  1.00000000  0.76229298  1
  Ga  Ga1  1  0.74365499  0.76229300  -0.00000003  1
  Ga  Ga2  1  0.74365499  0.23770700  0.23770700  1
  Ga  Ga3  1  0.25634500  1.00000000  0.23770697  1
  Ga  Ga4  1  0.25634500  0.23770700  -0.00000001  1
  Ga  Ga5  1  0.25634500  0.76229300  0.76229299  1
  Ga  Ga6  1  0.99999998  0.66666667  0.33333332  1
  Ga  Ga7  1  -0.00000000  0.33333333  0.66666667  1
  Ga  Ga8  1  0.49999999  0.33333333  0.66666667  1
  Ga  Ga9  1  0.49999999  0.66666667  0.33333332  1
  Ga  Ga10  1  0.75502999  1.00000000  0.39815497  1
  Ga  Ga11  1  0.75502999  0.39815500  -0.00000002  1
  Ga  Ga12  1  0.75502999  0.60184500  0.60184499  1
  Ga  Ga13  1  0.24497000  1.00000000  0.60184498  1
  Ga  Ga14  1  0.24497000  0.60184500  1.00000000  1
  Ga  Ga15  1  0.24497000  0.39815500  0.39815499  1
  Ga  Ga16  1  0.49999999  0.00000000  -0.00000000  1
