# generated using pymatgen
data_TaGa4Co
_symmetry_space_group_name_H-M   'P 1'
_cell_length_a   5.15095615
_cell_length_b   5.15095520
_cell_length_c   7.63239622
_cell_angle_alpha   90.00000000
_cell_angle_beta   90.00000000
_cell_angle_gamma   120.00000763
_symmetry_Int_Tables_number   1
_chemical_formula_structural   TaGa4Co
_chemical_formula_sum   'Ta2 Ga8 Co2'
_cell_volume   175.37477704
_cell_formula_units_Z   2
loop_
 _symmetry_equiv_pos_site_id
 _symmetry_equiv_pos_as_xyz
  1  'x, y, z'
loop_
 _atom_site_type_symbol
 _atom_site_label
 _atom_site_symmetry_multiplicity
 _atom_site_fract_x
 _atom_site_fract_y
 _atom_site_fract_z
 _atom_site_occupancy
  Ga  Ga0  1  0.66666667  0.33333335  0.93011697  1
  Ta  Ta1  1  0.33333337  0.66666671  0.43011699  1
  Ga  Ga2  1  0.33333337  0.66666671  0.06988300  1
  Ta  Ta3  1  0.66666667  0.33333335  0.56988298  1
  Co  Co4  1  0.00000000  0.00000000  0.00000000  1
  Co  Co5  1  0.00000000  0.00000000  0.49999999  1
  Ga  Ga6  1  0.17017105  0.82982905  0.74999998  1
  Ga  Ga7  1  0.82982902  0.65965804  0.24999999  1
  Ga  Ga8  1  0.34034200  0.17017101  0.24999999  1
  Ga  Ga9  1  0.65965804  0.82982905  0.74999998  1
  Ga  Ga10  1  0.17017102  0.34034202  0.74999998  1
  Ga  Ga11  1  0.82982899  0.17017101  0.24999999  1
