# generated using pymatgen
data_Na2SiHO4
_symmetry_space_group_name_H-M   'P 1'
_cell_length_a   4.99480200
_cell_length_b   4.99877357
_cell_length_c   4.99480200
_cell_angle_alpha   60.02627945
_cell_angle_beta   90.00000000
_cell_angle_gamma   119.97371674
_symmetry_Int_Tables_number   1
_chemical_formula_structural   Na2SiHO4
_chemical_formula_sum   'Na2 Si1 H1 O4'
_cell_volume   88.25304452
_cell_formula_units_Z   1
loop_
 _symmetry_equiv_pos_site_id
 _symmetry_equiv_pos_as_xyz
  1  'x, y, z'
loop_
 _atom_site_type_symbol
 _atom_site_label
 _atom_site_symmetry_multiplicity
 _atom_site_fract_x
 _atom_site_fract_y
 _atom_site_fract_z
 _atom_site_occupancy
  Na  Na0  1  0.50000000  0.00000000  0.50000000  1
  Na  Na1  1  0.24999996  0.49999999  0.25000001  1
  Si  Si2  1  0.74999996  0.49999999  0.75000001  1
  H  H3  1  0.00000000  0.00000000  0.00000000  1
  O  O4  1  0.87499998  0.24999999  0.75094701  1
  O  O5  1  0.99905294  0.74999998  0.87500002  1
  O  O6  1  0.37499998  0.24999999  0.99905301  1
  O  O7  1  0.75094694  0.74999998  0.37500002  1
