# generated using pymatgen
data_Li8WO6
_symmetry_space_group_name_H-M   'P 1'
_cell_length_a   5.45215082
_cell_length_b   5.45215082
_cell_length_c   5.92643690
_cell_angle_alpha   62.61382294
_cell_angle_beta   62.61382294
_cell_angle_gamma   59.99999237
_symmetry_Int_Tables_number   1
_chemical_formula_structural   Li8WO6
_chemical_formula_sum   'Li8 W1 O6'
_cell_volume   129.26687084
_cell_formula_units_Z   1
loop_
 _symmetry_equiv_pos_site_id
 _symmetry_equiv_pos_as_xyz
  1  'x, y, z'
loop_
 _atom_site_type_symbol
 _atom_site_label
 _atom_site_symmetry_multiplicity
 _atom_site_fract_x
 _atom_site_fract_y
 _atom_site_fract_z
 _atom_site_occupancy
  Li  Li0  1  0.76454700  0.49180799  0.64473997  1
  Li  Li1  1  0.90109499  0.23545299  0.35525997  1
  Li  Li2  1  0.50819201  0.90109498  0.35525995  1
  Li  Li3  1  0.65836501  0.65836498  0.02490495  1
  Li  Li4  1  0.34163500  0.34163499  0.97509499  1
  Li  Li5  1  0.49180799  0.09890500  0.64473999  1
  Li  Li6  1  0.09890502  0.76454698  0.64473998  1
  Li  Li7  1  0.23545301  0.50819199  0.35525998  1
  W  W8  1  0.00000000  0.00000000  0.00000000  1
  O  O9  1  0.90514700  0.62467298  0.23642095  1
  O  O10  1  0.76624099  0.09485300  0.76357899  1
  O  O11  1  0.37532701  0.76624098  0.76357897  1
  O  O12  1  0.62467300  0.23375899  0.23642097  1
  O  O13  1  0.23375902  0.90514698  0.23642096  1
  O  O14  1  0.09485301  0.37532699  0.76357900  1
