# generated using pymatgen
data_CoB4
_symmetry_space_group_name_H-M   'P 1'
_cell_length_a   2.94818211
_cell_length_b   4.61487818
_cell_length_c   5.36582088
_cell_angle_alpha   90.00000000
_cell_angle_beta   90.00000000
_cell_angle_gamma   90.00000000
_symmetry_Int_Tables_number   1
_chemical_formula_structural   CoB4
_chemical_formula_sum   'Co2 B8'
_cell_volume   73.00468283
_cell_formula_units_Z   2
loop_
 _symmetry_equiv_pos_site_id
 _symmetry_equiv_pos_as_xyz
  1  'x, y, z'
loop_
 _atom_site_type_symbol
 _atom_site_label
 _atom_site_symmetry_multiplicity
 _atom_site_fract_x
 _atom_site_fract_y
 _atom_site_fract_z
 _atom_site_occupancy
  Co  Co0  1  0.00000000  0.49999998  0.50000001  1
  Co  Co1  1  0.49999998  0.00000000  0.00000000  1
  B  B2  1  0.00000000  0.33487599  0.86875702  1
  B  B3  1  0.49999998  0.16512399  0.36875701  1
  B  B4  1  0.00000000  0.66512397  0.13124300  1
  B  B5  1  0.49999998  0.83487597  0.63124301  1
  B  B6  1  0.00000000  0.26441199  0.18350800  1
  B  B7  1  0.49999998  0.23558799  0.68350801  1
  B  B8  1  0.00000000  0.73558797  0.81649202  1
  B  B9  1  0.49999998  0.76441197  0.31649201  1
