# generated using pymatgen
data_Li3V5O12
_symmetry_space_group_name_H-M   'P 1'
_cell_length_a   5.03859520
_cell_length_b   5.36099768
_cell_length_c   7.40446806
_cell_angle_alpha   95.53835297
_cell_angle_beta   90.46963501
_cell_angle_gamma   90.56920624
_symmetry_Int_Tables_number   1
_chemical_formula_structural   Li3V5O12
_chemical_formula_sum   'Li3 V5 O12'
_cell_volume   199.05680641
_cell_formula_units_Z   1
loop_
 _symmetry_equiv_pos_site_id
 _symmetry_equiv_pos_as_xyz
  1  'x, y, z'
loop_
 _atom_site_type_symbol
 _atom_site_label
 _atom_site_symmetry_multiplicity
 _atom_site_fract_x
 _atom_site_fract_y
 _atom_site_fract_z
 _atom_site_occupancy
  Li  Li0  1  0.50369898  0.07068700  0.21198802  1
  Li  Li1  1  0.00406701  0.57214898  0.21497398  1
  Li  Li2  1  0.49713098  0.07049500  0.71201303  1
  V  V3  1  0.00496000  0.01076400  0.99639803  1
  V  V4  1  0.49038099  0.48836399  0.49901801  1
  V  V5  1  0.99600698  0.99810897  0.48201900  1
  V  V6  1  0.51000499  0.50436698  0.01054999  1
  V  V7  1  0.00032101  0.59259498  0.71300499  1
  O  O8  1  0.28858500  0.77851898  0.59024499  1
  O  O9  1  0.12474501  0.96407797  0.26383397  1
  O  O10  1  0.30906799  0.15412400  0.95912703  1
  O  O11  1  0.18065400  0.27733899  0.58756901  1
  O  O12  1  0.81158297  0.26805599  0.07737702  1
  O  O13  1  0.38499899  0.46155199  0.26839300  1
  O  O14  1  0.63565398  0.46015999  0.75634702  1
  O  O15  1  0.17267201  0.64827398  0.95207900  1
  O  O16  1  0.82883498  0.66211298  0.46787401  1
  O  O17  1  0.69213699  0.77350898  0.08092799  1
  O  O18  1  0.87044498  0.95733497  0.77375201  1
  O  O19  1  0.69405398  0.14661200  0.45291103  1
