# generated using pymatgen
data_La(GeAu)2
_symmetry_space_group_name_H-M   'P 1'
_cell_length_a   4.26933098
_cell_length_b   4.26933098
_cell_length_c   11.29015064
_cell_angle_alpha   90.00000000
_cell_angle_beta   90.00000000
_cell_angle_gamma   90.00000000
_symmetry_Int_Tables_number   1
_chemical_formula_structural   La(GeAu)2
_chemical_formula_sum   'La2 Ge4 Au4'
_cell_volume   205.78768705
_cell_formula_units_Z   2
loop_
 _symmetry_equiv_pos_site_id
 _symmetry_equiv_pos_as_xyz
  1  'x, y, z'
loop_
 _atom_site_type_symbol
 _atom_site_label
 _atom_site_symmetry_multiplicity
 _atom_site_fract_x
 _atom_site_fract_y
 _atom_site_fract_z
 _atom_site_occupancy
  La  La0  1  0.00000000  0.00000000  0.00055400  1
  La  La1  1  0.50000000  0.50000000  0.49963002  1
  Au  Au2  1  0.00000000  0.50000000  0.25129301  1
  Au  Au3  1  0.50000000  0.00000000  0.74916902  1
  Au  Au4  1  0.50000000  0.00000000  0.25129301  1
  Au  Au5  1  0.00000000  0.50000000  0.74916902  1
  Ge  Ge6  1  0.00000000  0.00000000  0.61043302  1
  Ge  Ge7  1  0.00000000  0.00000000  0.39021501  1
  Ge  Ge8  1  0.50000000  0.50000000  0.88742803  1
  Ge  Ge9  1  0.50000000  0.50000000  0.11081700  1
