# generated using pymatgen
data_Ba2Mg2B4O11
_symmetry_space_group_name_H-M   'P 1'
_cell_length_a   5.12904215
_cell_length_b   6.35125589
_cell_length_c   7.37256908
_cell_angle_alpha   78.25607300
_cell_angle_beta   89.18349457
_cell_angle_gamma   75.61743927
_symmetry_Int_Tables_number   1
_chemical_formula_structural   Ba2Mg2B4O11
_chemical_formula_sum   'Ba2 Mg2 B4 O11'
_cell_volume   227.60379770
_cell_formula_units_Z   1
loop_
 _symmetry_equiv_pos_site_id
 _symmetry_equiv_pos_as_xyz
  1  'x, y, z'
loop_
 _atom_site_type_symbol
 _atom_site_label
 _atom_site_symmetry_multiplicity
 _atom_site_fract_x
 _atom_site_fract_y
 _atom_site_fract_z
 _atom_site_occupancy
  Ba  Ba0  1  0.77719003  0.80548401  0.83672303  1
  Ba  Ba1  1  0.22281001  0.19451600  0.16327701  1
  Mg  Mg2  1  0.81410202  0.71806600  0.35353902  1
  Mg  Mg3  1  0.18589801  0.28193400  0.64646101  1
  B  B4  1  0.27910704  0.78039900  0.60647801  1
  B  B5  1  0.64619900  0.34411400  0.89812303  1
  B  B6  1  0.35380103  0.65588600  0.10187701  1
  B  B7  1  0.72089299  0.21960100  0.39352202  1
  O  O8  1  0.11261404  0.64432600  0.57654201  1
  O  O9  1  0.09074104  0.65820300  0.13292900  1
  O  O10  1  0.45911000  0.25528000  0.44317802  1
  O  O11  1  0.54089003  0.74472000  0.55682202  1
  O  O12  1  0.50000002  0.50000000  0.00000001  1
  O  O13  1  0.49243004  0.79432501  0.15287801  1
  O  O14  1  0.88738600  0.35567400  0.42345803  1
  O  O15  1  0.17398106  0.94818101  0.70269301  1
  O  O16  1  0.90925900  0.34179700  0.86707103  1
  O  O17  1  0.82601898  0.05181900  0.29730702  1
  O  O18  1  0.50757000  0.20567500  0.84712203  1
