# generated using pymatgen
data_V5(O2F)3
_symmetry_space_group_name_H-M   'P 1'
_cell_length_a   5.50411606
_cell_length_b   5.50411606
_cell_length_c   6.53782511
_cell_angle_alpha   77.73846436
_cell_angle_beta   77.73846436
_cell_angle_gamma   72.08143616
_symmetry_Int_Tables_number   1
_chemical_formula_structural   V5(O2F)3
_chemical_formula_sum   'V5 O6 F3'
_cell_volume   181.84184493
_cell_formula_units_Z   1
loop_
 _symmetry_equiv_pos_site_id
 _symmetry_equiv_pos_as_xyz
  1  'x, y, z'
loop_
 _atom_site_type_symbol
 _atom_site_label
 _atom_site_symmetry_multiplicity
 _atom_site_fract_x
 _atom_site_fract_y
 _atom_site_fract_z
 _atom_site_occupancy
  V  V0  1  0.42312399  0.42312400  0.30389196  1
  V  V1  1  0.59242298  0.59242300  0.71308495  1
  V  V2  1  0.02104500  0.02104500  0.47402200  1
  V  V3  1  0.81816598  0.81816600  0.18581293  1
  V  V4  1  0.18185999  0.18186000  0.81261299  1
  O  O5  1  0.20168699  0.20168700  0.29808298  1
  O  O6  1  0.78492798  0.78492800  0.69585893  1
  O  O7  1  0.63318698  0.63318700  0.37737095  1
  F  F8  1  0.36992999  0.36993000  0.63041897  1
  O  O9  1  0.50557899  0.50557900  0.98157896  1
  O  O10  1  0.72807599  0.11017900  0.31087096  1
  O  O11  1  0.11017898  0.72807600  0.31087097  1
  F  F12  1  0.27152298  0.88769300  0.68476095  1
  F  F13  1  0.88769299  0.27152300  0.68476095  1
