# generated using pymatgen
data_AgPClO
_symmetry_space_group_name_H-M   'P 1'
_cell_length_a   3.11534810
_cell_length_b   4.01298189
_cell_length_c   4.01298237
_cell_angle_alpha   60.00000381
_cell_angle_beta   90.00000000
_cell_angle_gamma   90.00000000
_symmetry_Int_Tables_number   1
_chemical_formula_structural   AgPClO
_chemical_formula_sum   'Ag1 P1 Cl1 O1'
_cell_volume   43.44818916
_cell_formula_units_Z   1
loop_
 _symmetry_equiv_pos_site_id
 _symmetry_equiv_pos_as_xyz
  1  'x, y, z'
loop_
 _atom_site_type_symbol
 _atom_site_label
 _atom_site_symmetry_multiplicity
 _atom_site_fract_x
 _atom_site_fract_y
 _atom_site_fract_z
 _atom_site_occupancy
  Ag  Ag0  1  0.74999998  0.33333335  0.33333334  1
  Cl  Cl1  1  0.24999999  0.66666669  0.66666669  1
  O  O2  1  0.49999998  0.00000000  -0.00000000  1
  P  P3  1  0.00000000  0.00000000  0.00000000  1
