# generated using pymatgen
data_AcIn
_symmetry_space_group_name_H-M   'P 1'
_cell_length_a   6.02021790
_cell_length_b   7.33844614
_cell_length_c   7.33844566
_cell_angle_alpha   120.00000000
_cell_angle_beta   90.00000000
_cell_angle_gamma   90.00000000
_symmetry_Int_Tables_number   1
_chemical_formula_structural   AcIn
_chemical_formula_sum   'Ac4 In4'
_cell_volume   280.77021600
_cell_formula_units_Z   4
loop_
 _symmetry_equiv_pos_site_id
 _symmetry_equiv_pos_as_xyz
  1  'x, y, z'
loop_
 _atom_site_type_symbol
 _atom_site_label
 _atom_site_symmetry_multiplicity
 _atom_site_fract_x
 _atom_site_fract_y
 _atom_site_fract_z
 _atom_site_occupancy
  Ac  Ac0  1  0.25000000  0.16639899  0.33279798  1
  Ac  Ac1  1  0.25000000  0.66720197  0.83360094  1
  In  In2  1  0.25000000  0.16639899  0.83360096  1
  In  In3  1  0.75000001  0.83360096  0.66720194  1
  Ac  Ac4  1  0.75000001  0.33279799  0.16639898  1
  Ac  Ac5  1  0.75000001  0.83360096  0.16639895  1
  In  In6  1  0.75000001  0.33333332  0.66666663  1
  In  In7  1  0.25000000  0.66666664  0.33333329  1
