# generated using pymatgen
data_HoGe3
_symmetry_space_group_name_H-M   'P 1'
_cell_length_a   4.53126383
_cell_length_b   4.53126335
_cell_length_c   15.57300758
_cell_angle_alpha   90.00000000
_cell_angle_beta   90.00000000
_cell_angle_gamma   120.00000763
_symmetry_Int_Tables_number   1
_chemical_formula_structural   HoGe3
_chemical_formula_sum   'Ho3 Ge9'
_cell_volume   276.91198081
_cell_formula_units_Z   3
loop_
 _symmetry_equiv_pos_site_id
 _symmetry_equiv_pos_as_xyz
  1  'x, y, z'
loop_
 _atom_site_type_symbol
 _atom_site_label
 _atom_site_symmetry_multiplicity
 _atom_site_fract_x
 _atom_site_fract_y
 _atom_site_fract_z
 _atom_site_occupancy
  Ho  Ho0  1  0.00000000  0.00000000  0.75000002  1
  Ho  Ho1  1  0.00000000  0.00000000  0.25000001  1
  Ge  Ge2  1  0.00000000  0.00000000  0.00000000  1
  Ho  Ho3  1  0.00000000  0.00000000  0.50000001  1
  Ge  Ge4  1  0.66666671  0.33333334  0.84152202  1
  Ge  Ge5  1  0.33333339  0.66666669  0.15847800  1
  Ge  Ge6  1  0.33333339  0.66666669  0.34152201  1
  Ge  Ge7  1  0.66666671  0.33333334  0.65847802  1
  Ge  Ge8  1  0.66666671  0.33333334  0.38850901  1
  Ge  Ge9  1  0.33333339  0.66666669  0.61149102  1
  Ge  Ge10  1  0.33333339  0.66666669  0.88850902  1
  Ge  Ge11  1  0.66666671  0.33333334  0.11149100  1
