# generated using pymatgen
data_Cs2ScI7
_symmetry_space_group_name_H-M   'P 1'
_cell_length_a   6.99566889
_cell_length_b   8.34314632
_cell_length_c   8.34314632
_cell_angle_alpha   60.00000381
_cell_angle_beta   90.00000000
_cell_angle_gamma   90.00000000
_symmetry_Int_Tables_number   1
_chemical_formula_structural   Cs2ScI7
_chemical_formula_sum   'Cs2 Sc1 I7'
_cell_volume   421.71554980
_cell_formula_units_Z   1
loop_
 _symmetry_equiv_pos_site_id
 _symmetry_equiv_pos_as_xyz
  1  'x, y, z'
loop_
 _atom_site_type_symbol
 _atom_site_label
 _atom_site_symmetry_multiplicity
 _atom_site_fract_x
 _atom_site_fract_y
 _atom_site_fract_z
 _atom_site_occupancy
  Cs  Cs0  1  0.75000001  0.66666663  0.66666671  1
  Cs  Cs1  1  0.25000000  0.33333331  0.33333335  1
  I  I2  1  0.00000000  0.00000000  0.00000000  1
  Sc  Sc3  1  0.50000001  0.00000000  -0.00000000  1
  I  I4  1  0.25000000  0.84145195  0.31709604  1
  I  I5  1  0.75000001  0.15854799  0.15854801  1
  I  I6  1  0.75000001  0.15854799  0.68290402  1
  I  I7  1  0.25000000  0.84145195  0.84145205  1
  I  I8  1  0.25000000  0.31709598  0.84145203  1
  I  I9  1  0.75000001  0.68290396  0.15854803  1
