# generated using pymatgen
data_BaTb(CO3)2
_symmetry_space_group_name_H-M   'P 1'
_cell_length_a   6.44558096
_cell_length_b   6.44558096
_cell_length_c   6.98379469
_cell_angle_alpha   103.79467010
_cell_angle_beta   103.79467010
_cell_angle_gamma   96.39277649
_symmetry_Int_Tables_number   1
_chemical_formula_structural   BaTb(CO3)2
_chemical_formula_sum   'Ba2 Tb2 C4 O12'
_cell_volume   269.26229106
_cell_formula_units_Z   2
loop_
 _symmetry_equiv_pos_site_id
 _symmetry_equiv_pos_as_xyz
  1  'x, y, z'
loop_
 _atom_site_type_symbol
 _atom_site_label
 _atom_site_symmetry_multiplicity
 _atom_site_fract_x
 _atom_site_fract_y
 _atom_site_fract_z
 _atom_site_occupancy
  Ba  Ba0  1  0.37984700  0.62015299  0.74999996  1
  Ba  Ba1  1  0.62015300  0.37984700  0.24999995  1
  Tb  Tb2  1  0.90382499  0.09617500  0.74999996  1
  Tb  Tb3  1  0.09617501  0.90382499  0.24999995  1
  C  C4  1  0.35452100  0.11040300  0.75803999  1
  C  C5  1  0.64547901  0.88959699  0.24195993  1
  C  C6  1  0.88959700  0.64547899  0.74195993  1
  C  C7  1  0.11040300  0.35452100  0.25803998  1
  O  O8  1  0.55604500  0.10439600  0.77967798  1
  O  O9  1  0.44395501  0.89560399  0.22032194  1
  O  O10  1  0.89560400  0.44395500  0.72032194  1
  O  O11  1  0.10439601  0.55604500  0.27967797  1
  O  O12  1  0.28565400  0.25079100  0.88310599  1
  O  O13  1  0.71434600  0.74920899  0.11689393  1
  O  O14  1  0.74920900  0.71434599  0.61689393  1
  O  O15  1  0.25079100  0.28565400  0.38310598  1
  O  O16  1  0.20352801  0.96676799  0.60864195  1
  O  O17  1  0.79647199  0.03323200  0.39135796  1
  O  O18  1  0.03323201  0.79647199  0.89135797  1
  O  O19  1  0.96676799  0.20352800  0.10864194  1
