# generated using pymatgen
data_P
_symmetry_space_group_name_H-M   'P 1'
_cell_length_a   2.46835375
_cell_length_b   2.46835375
_cell_length_c   4.26546001
_cell_angle_alpha   73.18142700
_cell_angle_beta   73.18142700
_cell_angle_gamma   60.00000763
_symmetry_Int_Tables_number   1
_chemical_formula_structural   P
_chemical_formula_sum   P2
_cell_volume   21.21336030
_cell_formula_units_Z   2
loop_
 _symmetry_equiv_pos_site_id
 _symmetry_equiv_pos_as_xyz
  1  'x, y, z'
loop_
 _atom_site_type_symbol
 _atom_site_label
 _atom_site_symmetry_multiplicity
 _atom_site_fract_x
 _atom_site_fract_y
 _atom_site_fract_z
 _atom_site_occupancy
  P  P0  1  0.16666798  0.16666800  0.49999602  1
  P  P1  1  0.83333192  0.83333198  0.50000406  1
