# generated using pymatgen
data_HoGe3
_symmetry_space_group_name_H-M   'P 1'
_cell_length_a   4.53174210
_cell_length_b   4.53174210
_cell_length_c   15.60734844
_cell_angle_alpha   90.00000000
_cell_angle_beta   90.00000000
_cell_angle_gamma   120.00000000
_symmetry_Int_Tables_number   1
_chemical_formula_structural   HoGe3
_chemical_formula_sum   'Ho3 Ge9'
_cell_volume   277.58125177
_cell_formula_units_Z   3
loop_
 _symmetry_equiv_pos_site_id
 _symmetry_equiv_pos_as_xyz
  1  'x, y, z'
loop_
 _atom_site_type_symbol
 _atom_site_label
 _atom_site_symmetry_multiplicity
 _atom_site_fract_x
 _atom_site_fract_y
 _atom_site_fract_z
 _atom_site_occupancy
  Ho  Ho0  1  0.00000000  0.00000000  0.74999998  1
  Ho  Ho1  1  0.00000000  0.00000000  0.24999999  1
  Ge  Ge2  1  0.00000000  0.00000000  0.00000000  1
  Ho  Ho3  1  0.00000000  0.00000000  0.49999999  1
  Ge  Ge4  1  0.66666666  0.33333335  0.84020498  1
  Ge  Ge5  1  0.33333335  0.66666670  0.15979500  1
  Ge  Ge6  1  0.33333335  0.66666670  0.34020499  1
  Ge  Ge7  1  0.66666666  0.33333335  0.65979498  1
  Ge  Ge8  1  0.66666666  0.33333335  0.38683499  1
  Ge  Ge9  1  0.33333335  0.66666670  0.61316498  1
  Ge  Ge10  1  0.33333335  0.66666670  0.88683497  1
  Ge  Ge11  1  0.66666666  0.33333335  0.11316500  1
