# generated using pymatgen
data_MnF2
_symmetry_space_group_name_H-M   'P 1'
_cell_length_a   3.16074109
_cell_length_b   4.87516928
_cell_length_c   14.49169922
_cell_angle_alpha   89.95144653
_cell_angle_beta   90.00170135
_cell_angle_gamma   90.00090790
_symmetry_Int_Tables_number   1
_chemical_formula_structural   MnF2
_chemical_formula_sum   'Mn6 F12'
_cell_volume   223.30465568
_cell_formula_units_Z   6
loop_
 _symmetry_equiv_pos_site_id
 _symmetry_equiv_pos_as_xyz
  1  'x, y, z'
loop_
 _atom_site_type_symbol
 _atom_site_label
 _atom_site_symmetry_multiplicity
 _atom_site_fract_x
 _atom_site_fract_y
 _atom_site_fract_z
 _atom_site_occupancy
  Mn  Mn0  1  0.00044706  0.92910504  0.00894699  1
  Mn  Mn1  1  0.00004700  0.07059200  0.32431900  1
  Mn  Mn2  1  0.99996403  0.99994104  0.66681298  1
  Mn  Mn3  1  0.49992902  0.50029102  0.16655999  1
  Mn  Mn4  1  0.49973102  0.57033502  0.50939999  1
  Mn  Mn5  1  0.49998601  0.42962502  0.82410099  1
  F  F6  1  0.50006400  0.23720401  0.26403799  1
  F  F7  1  0.99998999  0.26336001  0.76399499  1
  F  F8  1  0.99998902  0.73626003  0.56941198  1
  F  F9  1  0.50004903  0.76373203  0.06910299  1
  F  F10  1  0.49996500  0.20545301  0.60290299  1
  F  F11  1  0.50000999  0.12736301  0.93922399  1
  F  F12  1  0.99997299  0.29427901  0.10285799  1
  F  F13  1  0.99992899  0.37260102  0.43962299  1
  F  F14  1  0.99988602  0.70583603  0.23048099  1
  F  F15  1  0.99999001  0.62722503  0.89368999  1
  F  F16  1  0.49996604  0.87282004  0.39411698  1
  F  F17  1  0.50008504  0.79397803  0.73041898  1
