# generated using pymatgen
data_Ge
_symmetry_space_group_name_H-M   'P 1'
_cell_length_a   4.24793577
_cell_length_b   7.50982618
_cell_length_c   8.14345264
_cell_angle_alpha   115.71818542
_cell_angle_beta   105.11866760
_cell_angle_gamma   90.00000000
_symmetry_Int_Tables_number   1
_chemical_formula_structural   Ge
_chemical_formula_sum   Ge8
_cell_volume   224.02944537
_cell_formula_units_Z   8
loop_
 _symmetry_equiv_pos_site_id
 _symmetry_equiv_pos_as_xyz
  1  'x, y, z'
loop_
 _atom_site_type_symbol
 _atom_site_label
 _atom_site_symmetry_multiplicity
 _atom_site_fract_x
 _atom_site_fract_y
 _atom_site_fract_z
 _atom_site_occupancy
  Ge  Ge0  1  0.99930599  0.65249399  0.99861193  1
  Ge  Ge1  1  0.50333101  0.17412600  0.00666197  1
  Ge  Ge2  1  0.24871597  0.59557199  0.49743195  1
  Ge  Ge3  1  0.74749303  0.07540600  0.49498598  1
  Ge  Ge4  1  0.93545502  0.26644099  0.87090996  1
  Ge  Ge5  1  0.42704996  0.76534398  0.85409993  1
  Ge  Ge6  1  0.18851594  0.84139998  0.37703193  1
  Ge  Ge7  1  0.69897800  0.37921599  0.39795595  1
