# generated using pymatgen
data_Ga3Se5
_symmetry_space_group_name_H-M   'P 1'
_cell_length_a   5.60389614
_cell_length_b   5.63931417
_cell_length_c   6.83309650
_cell_angle_alpha   114.37122345
_cell_angle_beta   114.20831299
_cell_angle_gamma   90.00000000
_symmetry_Int_Tables_number   1
_chemical_formula_structural   Ga3Se5
_chemical_formula_sum   'Ga3 Se5'
_cell_volume   175.64028782
_cell_formula_units_Z   1
loop_
 _symmetry_equiv_pos_site_id
 _symmetry_equiv_pos_as_xyz
  1  'x, y, z'
loop_
 _atom_site_type_symbol
 _atom_site_label
 _atom_site_symmetry_multiplicity
 _atom_site_fract_x
 _atom_site_fract_y
 _atom_site_fract_z
 _atom_site_occupancy
  Se  Se0  1  0.61893997  0.36893998  0.23787997  1
  Se  Se1  1  0.88105997  0.13105999  0.76211998  1
  Se  Se2  1  0.12031197  0.87031195  0.24062395  1
  Se  Se3  1  0.37968797  0.62968796  0.75937596  1
  Ga  Ga4  1  0.99907894  0.74999996  0.49999995  1
  Ga  Ga5  1  0.50092098  0.24999999  0.49999998  1
  Ga  Ga6  1  0.24999998  0.50574297  -0.00000003  1
  Se  Se7  1  0.74999994  0.99425694  -0.00000006  1
