# generated using pymatgen
data_W
_symmetry_space_group_name_H-M   'P 1'
_cell_length_a   3.74997926
_cell_length_b   3.74997926
_cell_length_c   12.70619583
_cell_angle_alpha   81.51416016
_cell_angle_beta   81.51416016
_cell_angle_gamma   60.00001526
_symmetry_Int_Tables_number   1
_chemical_formula_structural   W
_chemical_formula_sum   W7
_cell_volume   152.47758583
_cell_formula_units_Z   7
loop_
 _symmetry_equiv_pos_site_id
 _symmetry_equiv_pos_as_xyz
  1  'x, y, z'
loop_
 _atom_site_type_symbol
 _atom_site_label
 _atom_site_symmetry_multiplicity
 _atom_site_fract_x
 _atom_site_fract_y
 _atom_site_fract_z
 _atom_site_occupancy
  W  W0  1  0.62643498  0.62643498  0.12069503  1
  W  W1  1  0.37356499  0.37356499  0.87930503  1
  W  W2  1  0.88006198  0.88006197  0.35981404  1
  W  W3  1  0.11993800  0.11993800  0.64018602  1
  W  W4  1  0.75360598  0.75360598  0.73918205  1
  W  W5  1  0.00000000  0.00000000  0.00000000  1
  W  W6  1  0.24639399  0.24639499  0.26081702  1
