# generated using pymatgen
data_BaPd5O4
_symmetry_space_group_name_H-M   'P 1'
_cell_length_a   5.60673809
_cell_length_b   5.60673809
_cell_length_c   5.97628450
_cell_angle_alpha   109.50732422
_cell_angle_beta   109.50732422
_cell_angle_gamma   106.74581146
_symmetry_Int_Tables_number   1
_chemical_formula_structural   BaPd5O4
_chemical_formula_sum   'Ba1 Pd5 O4'
_cell_volume   149.08114810
_cell_formula_units_Z   1
loop_
 _symmetry_equiv_pos_site_id
 _symmetry_equiv_pos_as_xyz
  1  'x, y, z'
loop_
 _atom_site_type_symbol
 _atom_site_label
 _atom_site_symmetry_multiplicity
 _atom_site_fract_x
 _atom_site_fract_y
 _atom_site_fract_z
 _atom_site_occupancy
  Ba  Ba0  1  0.00000000  0.00000000  0.00000000  1
  Pd  Pd1  1  0.25000004  0.75000003  0.50000003  1
  Pd  Pd2  1  0.31131704  0.68868302  0.00000002  1
  Pd  Pd3  1  0.68868302  0.31131701  0.00000001  1
  Pd  Pd4  1  0.56044103  0.43955902  0.50000002  1
  Pd  Pd5  1  0.93955901  0.06044100  0.50000001  1
  O  O6  1  0.63796604  0.63796602  0.27593302  1
  O  O7  1  0.36203402  0.36203401  0.72406703  1
  O  O8  1  0.61223001  0.11223000  0.22446101  1
  O  O9  1  0.88777003  0.38777001  0.77553903  1
