# generated using pymatgen
data_Ho3Ge2
_symmetry_space_group_name_H-M   'P 1'
_cell_length_a   3.73768711
_cell_length_b   7.97997284
_cell_length_c   7.97997284
_cell_angle_alpha   90.00000000
_cell_angle_beta   90.00000000
_cell_angle_gamma   90.00000000
_symmetry_Int_Tables_number   1
_chemical_formula_structural   Ho3Ge2
_chemical_formula_sum   'Ho6 Ge4'
_cell_volume   238.01579007
_cell_formula_units_Z   2
loop_
 _symmetry_equiv_pos_site_id
 _symmetry_equiv_pos_as_xyz
  1  'x, y, z'
loop_
 _atom_site_type_symbol
 _atom_site_label
 _atom_site_symmetry_multiplicity
 _atom_site_fract_x
 _atom_site_fract_y
 _atom_site_fract_z
 _atom_site_occupancy
  Ho  Ho0  1  0.49999999  0.33067501  0.83067502  1
  Ho  Ho1  1  0.49999999  0.83067502  0.66932501  1
  Ho  Ho2  1  0.49999999  0.66932501  0.16932500  1
  Ho  Ho3  1  0.49999999  0.16932500  0.33067501  1
  Ho  Ho4  1  0.00000000  0.50000001  0.50000001  1
  Ho  Ho5  1  0.00000000  0.00000000  0.00000000  1
  Ge  Ge6  1  0.00000000  0.12872600  0.62872601  1
  Ge  Ge7  1  0.00000000  0.62872601  0.87127402  1
  Ge  Ge8  1  0.00000000  0.37127401  0.12872600  1
  Ge  Ge9  1  0.00000000  0.87127402  0.37127401  1
