# generated using pymatgen
data_Li5VF12
_symmetry_space_group_name_H-M   'P 1'
_cell_length_a   5.39850330
_cell_length_b   5.39850330
_cell_length_c   6.97798634
_cell_angle_alpha   72.89087677
_cell_angle_beta   72.89087677
_cell_angle_gamma   73.12540436
_symmetry_Int_Tables_number   1
_chemical_formula_structural   Li5VF12
_chemical_formula_sum   'Li5 V1 F12'
_cell_volume   181.08500312
_cell_formula_units_Z   1
loop_
 _symmetry_equiv_pos_site_id
 _symmetry_equiv_pos_as_xyz
  1  'x, y, z'
loop_
 _atom_site_type_symbol
 _atom_site_label
 _atom_site_symmetry_multiplicity
 _atom_site_fract_x
 _atom_site_fract_y
 _atom_site_fract_z
 _atom_site_occupancy
  Li  Li0  1  0.33071593  0.66928399  1.00000008  1
  Li  Li1  1  0.67037790  0.99566498  0.16723909  1
  V  V2  1  0.31242693  0.68757299  0.50000007  1
  Li  Li3  1  0.66738890  0.98370698  0.67507811  1
  Li  Li4  1  0.01629297  0.33261099  0.32492203  1
  Li  Li5  1  0.00433497  0.32962199  0.83276104  1
  F  F6  1  0.97525391  0.69407699  0.16554809  1
  F  F7  1  0.10271696  0.43738699  0.53467205  1
  F  F8  1  0.43660592  0.76509398  0.20594207  1
  F  F9  1  0.76536496  0.10285000  0.87058607  1
  F  F10  1  0.89714995  0.23463500  0.12941406  1
  F  F11  1  0.23490595  0.56339399  0.79405807  1
  F  F12  1  0.56261291  0.89728298  0.46532809  1
  F  F13  1  0.02336592  0.97663398  0.50000007  1
  F  F14  1  0.36474396  0.30590699  0.16470004  1
  F  F15  1  0.69409292  0.63525599  0.83530009  1
  F  F16  1  0.30592299  0.02474600  0.83445204  1
  F  F17  1  0.63572895  0.36427099  0.50000006  1
