# generated using pymatgen
data_Mg3O4
_symmetry_space_group_name_H-M   'P 1'
_cell_length_a   4.17260599
_cell_length_b   4.17260599
_cell_length_c   5.38076830
_cell_angle_alpha   112.81352997
_cell_angle_beta   112.81352997
_cell_angle_gamma   90.00000000
_symmetry_Int_Tables_number   1
_chemical_formula_structural   Mg3O4
_chemical_formula_sum   'Mg3 O4'
_cell_volume   78.34275322
_cell_formula_units_Z   1
loop_
 _symmetry_equiv_pos_site_id
 _symmetry_equiv_pos_as_xyz
  1  'x, y, z'
loop_
 _atom_site_type_symbol
 _atom_site_label
 _atom_site_symmetry_multiplicity
 _atom_site_fract_x
 _atom_site_fract_y
 _atom_site_fract_z
 _atom_site_occupancy
  Mg  Mg0  1  0.24999996  0.74999998  0.49999994  1
  Mg  Mg1  1  0.74999998  0.24999999  0.49999994  1
  Mg  Mg2  1  0.00000000  0.00000000  0.00000000  1
  O  O3  1  0.76578896  0.76578898  0.53157792  1
  O  O4  1  0.23421099  0.23421099  0.46842196  1
  O  O5  1  -0.00000002  0.49999999  -0.00000002  1
  O  O6  1  0.49999999  0.00000000  -0.00000002  1
