# generated using pymatgen
data_Tb(SiNi)2
_symmetry_space_group_name_H-M   'P 1'
_cell_length_a   4.05918598
_cell_length_b   4.05918598
_cell_length_c   5.59560633
_cell_angle_alpha   111.26683807
_cell_angle_beta   111.26683807
_cell_angle_gamma   90.00000000
_symmetry_Int_Tables_number   1
_chemical_formula_structural   Tb(SiNi)2
_chemical_formula_sum   'Tb1 Si2 Ni2'
_cell_volume   79.14499830
_cell_formula_units_Z   1
loop_
 _symmetry_equiv_pos_site_id
 _symmetry_equiv_pos_as_xyz
  1  'x, y, z'
loop_
 _atom_site_type_symbol
 _atom_site_label
 _atom_site_symmetry_multiplicity
 _atom_site_fract_x
 _atom_site_fract_y
 _atom_site_fract_z
 _atom_site_occupancy
  Tb  Tb0  1  0.00000000  0.00000000  0.00000000  1
  Si  Si1  1  0.37468401  0.37468401  0.74936803  1
  Si  Si2  1  0.62531602  0.62531601  0.25063203  1
  Ni  Ni3  1  0.25000002  0.75000001  0.50000003  1
  Ni  Ni4  1  0.75000002  0.25000000  0.50000003  1
