# generated using pymatgen
data_WS3
_symmetry_space_group_name_H-M   'P 1'
_cell_length_a   6.02417040
_cell_length_b   6.02417040
_cell_length_c   6.65323591
_cell_angle_alpha   98.46501160
_cell_angle_beta   98.46501160
_cell_angle_gamma   119.97023773
_symmetry_Int_Tables_number   1
_chemical_formula_structural   WS3
_chemical_formula_sum   'W2 S6'
_cell_volume   199.90274786
_cell_formula_units_Z   2
loop_
 _symmetry_equiv_pos_site_id
 _symmetry_equiv_pos_as_xyz
  1  'x, y, z'
loop_
 _atom_site_type_symbol
 _atom_site_label
 _atom_site_symmetry_multiplicity
 _atom_site_fract_x
 _atom_site_fract_y
 _atom_site_fract_z
 _atom_site_occupancy
  S  S0  1  0.16661700  0.83338298  0.00000002  1
  W  W1  1  0.83338298  0.16661700  1.00000005  1
  S  S2  1  0.79547298  0.79547298  0.78873305  1
  S  S3  1  0.20452700  0.20452700  0.21126701  1
  S  S4  1  0.93150298  0.56831999  0.21036803  1
  S  S5  1  0.43167999  0.06849700  0.78963203  1
  S  S6  1  0.06849700  0.43167999  0.78963203  1
  W  W7  1  0.56831999  0.93150298  0.21036803  1
