# generated using pymatgen
data_Na4P2H4O9
_symmetry_space_group_name_H-M   'P 1'
_cell_length_a   5.56352377
_cell_length_b   5.78169823
_cell_length_c   6.63396025
_cell_angle_alpha   89.91364288
_cell_angle_beta   76.86772919
_cell_angle_gamma   71.40534973
_symmetry_Int_Tables_number   1
_chemical_formula_structural   Na4P2H4O9
_chemical_formula_sum   'Na4 P2 H4 O9'
_cell_volume   196.38072101
_cell_formula_units_Z   1
loop_
 _symmetry_equiv_pos_site_id
 _symmetry_equiv_pos_as_xyz
  1  'x, y, z'
loop_
 _atom_site_type_symbol
 _atom_site_label
 _atom_site_symmetry_multiplicity
 _atom_site_fract_x
 _atom_site_fract_y
 _atom_site_fract_z
 _atom_site_occupancy
  Na  Na0  1  0.16803496  0.59814001  0.23241201  1
  Na  Na1  1  0.83196496  0.40186001  0.76758800  1
  Na  Na2  1  0.49999999  0.00000000  -0.00000001  1
  P  P3  1  0.14830196  0.75786602  0.76708102  1
  P  P4  1  0.85169797  0.24213401  0.23291899  1
  H  H5  1  0.41644097  0.27906401  0.66604700  1
  H  H6  1  0.58355895  0.72093602  0.33395300  1
  H  H7  1  0.30966294  0.93320202  0.42942001  1
  H  H8  1  0.69033698  0.06679800  0.57057999  1
  O  O9  1  0.37500395  0.70194502  0.88401201  1
  O  O10  1  0.62499597  0.29805501  0.11598799  1
  Na  Na11  1  0.11899400  0.00034600  0.66568901  1
  O  O12  1  0.88100592  0.99965402  0.33431099  1
  O  O13  1  0.43194994  0.84517202  0.29427700  1
  O  O14  1  0.56804998  0.15482800  0.70572300  1
  O  O15  1  0.89419894  0.75846002  0.93101300  1
  O  O16  1  0.10580098  0.24154001  0.06898700  1
  O  O17  1  0.20086697  0.54077201  0.60339401  1
  O  O18  1  0.79913295  0.45922801  0.39660599  1
