# generated using pymatgen
data_Tb3Ga5Co
_symmetry_space_group_name_H-M   'P 1'
_cell_length_a   7.55319214
_cell_length_b   8.54081726
_cell_length_c   7.70712996
_cell_angle_alpha   116.82031250
_cell_angle_beta   90.00000000
_cell_angle_gamma   116.24318695
_symmetry_Int_Tables_number   1
_chemical_formula_structural   Tb3Ga5Co
_chemical_formula_sum   'Tb6 Ga10 Co2'
_cell_volume   385.41038004
_cell_formula_units_Z   2
loop_
 _symmetry_equiv_pos_site_id
 _symmetry_equiv_pos_as_xyz
  1  'x, y, z'
loop_
 _atom_site_type_symbol
 _atom_site_label
 _atom_site_symmetry_multiplicity
 _atom_site_fract_x
 _atom_site_fract_y
 _atom_site_fract_z
 _atom_site_occupancy
  Tb  Tb0  1  0.95116296  0.90232595  0.72118099  1
  Tb  Tb1  1  0.54883799  0.09767500  0.31885500  1
  Tb  Tb2  1  0.04883700  0.09767400  0.27881900  1
  Tb  Tb3  1  0.74999997  0.49999997  0.88600700  1
  Tb  Tb4  1  0.45116197  0.90232495  0.68114499  1
  Tb  Tb5  1  0.24999998  0.49999997  0.11399299  1
  Co  Co6  1  0.24999998  0.49999997  0.71018700  1
  Co  Co7  1  0.74999997  0.49999997  0.28981299  1
  Ga  Ga8  1  0.80688598  0.21762099  0.04605200  1
  Ga  Ga9  1  0.08926498  0.78237896  0.32843099  1
  Ga  Ga10  1  0.30688599  0.21762099  0.67156900  1
  Ga  Ga11  1  0.41073499  0.21762099  0.04605200  1
  Ga  Ga12  1  0.19311398  0.78237896  0.95394800  1
  Ga  Ga13  1  0.91073498  0.21762099  0.67156900  1
  Ga  Ga14  1  0.69311397  0.78237896  0.32843099  1
  Ga  Ga15  1  0.58926497  0.78237896  0.95394800  1
  Ga  Ga16  1  0.49999998  0.49999997  0.50000000  1
  Ga  Ga17  1  -0.00000001  0.49999997  0.50000000  1
