# generated using pymatgen
data_LaAu2
_symmetry_space_group_name_H-M   'P 1'
_cell_length_a   3.81601691
_cell_length_b   4.82727098
_cell_length_c   8.39617920
_cell_angle_alpha   90.02603912
_cell_angle_beta   90.00000000
_cell_angle_gamma   90.00000000
_symmetry_Int_Tables_number   1
_chemical_formula_structural   LaAu2
_chemical_formula_sum   'La2 Au4'
_cell_volume   154.66556209
_cell_formula_units_Z   2
loop_
 _symmetry_equiv_pos_site_id
 _symmetry_equiv_pos_as_xyz
  1  'x, y, z'
loop_
 _atom_site_type_symbol
 _atom_site_label
 _atom_site_symmetry_multiplicity
 _atom_site_fract_x
 _atom_site_fract_y
 _atom_site_fract_z
 _atom_site_occupancy
  La  La0  1  0.00000000  0.00002800  0.00785700  1
  La  La1  1  0.00000000  0.49995902  0.49683101  1
  Au  Au2  1  0.50000001  0.49995602  0.83735200  1
  Au  Au3  1  0.50000001  0.49984702  0.18186501  1
  Au  Au4  1  0.50000001  0.99996404  0.64726902  1
  Au  Au5  1  0.50000001  0.00004600  0.32882600  1
