# generated using pymatgen
data_Na3Cu4F13
_symmetry_space_group_name_H-M   'P 1'
_cell_length_a   5.37277079
_cell_length_b   5.55389118
_cell_length_c   7.58551598
_cell_angle_alpha   90.00000000
_cell_angle_beta   90.00000000
_cell_angle_gamma   90.00000000
_symmetry_Int_Tables_number   1
_chemical_formula_structural   Na3Cu4F13
_chemical_formula_sum   'Na3 Cu4 F13'
_cell_volume   226.35016047
_cell_formula_units_Z   1
loop_
 _symmetry_equiv_pos_site_id
 _symmetry_equiv_pos_as_xyz
  1  'x, y, z'
loop_
 _atom_site_type_symbol
 _atom_site_label
 _atom_site_symmetry_multiplicity
 _atom_site_fract_x
 _atom_site_fract_y
 _atom_site_fract_z
 _atom_site_occupancy
  Na  Na0  1  0.48979102  0.19916499  0.50000000  1
  F  F1  1  0.98979104  0.80083497  -0.00000000  1
  Na  Na2  1  0.01555800  0.68932698  0.50000000  1
  Na  Na3  1  0.51555802  0.31067299  -0.00000000  1
  Cu  Cu4  1  0.00043400  0.24632599  0.75002400  1
  Cu  Cu5  1  0.50043402  0.75367398  0.25002400  1
  Cu  Cu6  1  0.00043400  0.24632599  0.24997600  1
  Cu  Cu7  1  0.50043402  0.75367398  0.74997600  1
  F  F8  1  0.19880301  0.94945997  0.70156000  1
  F  F9  1  0.29148001  0.45950298  0.29620400  1
  F  F10  1  0.79148003  0.54049698  0.20379600  1
  F  F11  1  0.69880303  0.05054000  0.79844000  1
  F  F12  1  0.79148003  0.54049698  0.79620400  1
  F  F13  1  0.69880303  0.05054000  0.20156000  1
  F  F14  1  0.19880301  0.94945997  0.29844000  1
  F  F15  1  0.29148001  0.45950298  0.70379600  1
  F  F16  1  0.59782702  0.77467197  0.50000000  1
  F  F17  1  0.91539104  0.28004699  0.50000000  1
  F  F18  1  0.41539102  0.71995298  0.00000000  1
  F  F19  1  0.09782700  0.22532799  -0.00000000  1
