# generated using pymatgen
data_Cs4HgI8Br5
_symmetry_space_group_name_H-M   'P 1'
_cell_length_a   8.20945740
_cell_length_b   8.50225925
_cell_length_c   11.69569683
_cell_angle_alpha   90.00000000
_cell_angle_beta   89.86623383
_cell_angle_gamma   90.00000000
_symmetry_Int_Tables_number   1
_chemical_formula_structural   Cs4HgI8Br5
_chemical_formula_sum   'Cs4 Hg1 I8 Br5'
_cell_volume   816.34495960
_cell_formula_units_Z   1
loop_
 _symmetry_equiv_pos_site_id
 _symmetry_equiv_pos_as_xyz
  1  'x, y, z'
loop_
 _atom_site_type_symbol
 _atom_site_label
 _atom_site_symmetry_multiplicity
 _atom_site_fract_x
 _atom_site_fract_y
 _atom_site_fract_z
 _atom_site_occupancy
  Cs  Cs0  1  0.97846495  0.57656798  0.74744004  1
  Cs  Cs1  1  0.52153497  0.07656800  0.75256002  1
  Cs  Cs2  1  0.02153500  0.42343199  0.25256000  1
  Cs  Cs3  1  0.47846498  0.92343197  0.24744002  1
  I  I4  1  0.00000000  0.00000000  0.00000000  1
  Hg  Hg5  1  0.49999998  0.49999999  0.50000002  1
  I  I6  1  0.08165500  0.99374797  0.75197301  1
  Br  Br7  1  0.41834498  0.49374799  0.74802702  1
  I  I8  1  0.91834496  0.00625200  0.24802703  1
  I  I9  1  0.58165497  0.50625198  0.25197302  1
  I  I10  1  0.20534199  0.69557698  0.45431201  1
  I  I11  1  0.29465799  0.19557699  0.04568801  1
  Br  Br12  1  0.79465796  0.30442299  0.54568803  1
  Br  Br13  1  0.70534197  0.80442298  0.95431203  1
  I  I14  1  0.19313399  0.70688598  0.03559601  1
  I  I15  1  0.30686599  0.20688599  0.46440401  1
  Br  Br16  1  0.80686596  0.29311399  0.96440403  1
  Br  Br17  1  0.69313397  0.79311398  0.53559602  1
