# generated using pymatgen
data_LuGeIr
_symmetry_space_group_name_H-M   'P 1'
_cell_length_a   4.09824800
_cell_length_b   6.59283686
_cell_length_c   7.48081017
_cell_angle_alpha   90.00000000
_cell_angle_beta   90.00000000
_cell_angle_gamma   90.00000000
_symmetry_Int_Tables_number   1
_chemical_formula_structural   LuGeIr
_chemical_formula_sum   'Lu4 Ge4 Ir4'
_cell_volume   202.12461203
_cell_formula_units_Z   4
loop_
 _symmetry_equiv_pos_site_id
 _symmetry_equiv_pos_as_xyz
  1  'x, y, z'
loop_
 _atom_site_type_symbol
 _atom_site_label
 _atom_site_symmetry_multiplicity
 _atom_site_fract_x
 _atom_site_fract_y
 _atom_site_fract_z
 _atom_site_occupancy
  Lu  Lu0  1  0.25000000  0.00924900  0.30653999  1
  Lu  Lu1  1  0.25000000  0.50924901  0.19346000  1
  Lu  Lu2  1  0.75000000  0.99075102  0.69345998  1
  Lu  Lu3  1  0.75000000  0.49075101  0.80653998  1
  Ge  Ge4  1  0.25000000  0.28200601  0.60782399  1
  Ge  Ge5  1  0.25000000  0.78200602  0.89217598  1
  Ge  Ge6  1  0.75000000  0.71799402  0.39217599  1
  Ge  Ge7  1  0.75000000  0.21799400  0.10782400  1
  Ir  Ir8  1  0.25000000  0.17185200  0.92784298  1
  Ir  Ir9  1  0.25000000  0.67185201  0.57215699  1
  Ir  Ir10  1  0.75000000  0.82814802  0.07215700  1
  Ir  Ir11  1  0.75000000  0.32814801  0.42784299  1
