# generated using pymatgen
data_Mn2OF3
_symmetry_space_group_name_H-M   'P 1'
_cell_length_a   4.61392212
_cell_length_b   4.61392117
_cell_length_c   9.04805660
_cell_angle_alpha   90.00000763
_cell_angle_beta   89.99998474
_cell_angle_gamma   89.97206116
_symmetry_Int_Tables_number   1
_chemical_formula_structural   Mn2OF3
_chemical_formula_sum   'Mn6 O3 F9'
_cell_volume   192.61747546
_cell_formula_units_Z   3
loop_
 _symmetry_equiv_pos_site_id
 _symmetry_equiv_pos_as_xyz
  1  'x, y, z'
loop_
 _atom_site_type_symbol
 _atom_site_label
 _atom_site_symmetry_multiplicity
 _atom_site_fract_x
 _atom_site_fract_y
 _atom_site_fract_z
 _atom_site_occupancy
  Mn  Mn0  1  0.00000100  0.00000000  0.97729304  1
  Mn  Mn1  1  0.00000000  0.00000000  0.66649803  1
  Mn  Mn2  1  0.00000000  0.00000000  0.35604002  1
  Mn  Mn3  1  0.50000002  0.50000000  0.85592806  1
  Mn  Mn4  1  0.50000002  0.50000000  0.16655503  1
  Mn  Mn5  1  0.50000002  0.50000000  0.47798404  1
  O  O6  1  0.79695403  0.79695400  0.82775907  1
  F  F7  1  0.79685803  0.79685800  0.50549806  1
  F  F8  1  0.70325901  0.29674100  0.00553803  1
  F  F9  1  0.70264801  0.29735200  0.32780504  1
  F  F10  1  0.29674102  0.70325900  0.00553802  1
  F  F11  1  0.29735202  0.70264800  0.32780503  1
  O  O12  1  0.20304601  0.20304600  0.82775905  1
  O  O13  1  0.20314201  0.20314200  0.50549803  1
  F  F14  1  0.80752403  0.80752400  0.16655204  1
  F  F15  1  0.69260401  0.30739700  0.66666672  1
  F  F16  1  0.30739602  0.69260300  0.66666671  1
  F  F17  1  0.19247601  0.19247600  0.16655102  1
