# generated using pymatgen
data_Co12BP7
_symmetry_space_group_name_H-M   'P 1'
_cell_length_a   3.00048399
_cell_length_b   8.20050240
_cell_length_c   8.23923874
_cell_angle_alpha   90.00000000
_cell_angle_beta   90.00000000
_cell_angle_gamma   90.00000000
_symmetry_Int_Tables_number   1
_chemical_formula_structural   Co12BP7
_chemical_formula_sum   'Co12 B1 P7'
_cell_volume   202.73039225
_cell_formula_units_Z   1
loop_
 _symmetry_equiv_pos_site_id
 _symmetry_equiv_pos_as_xyz
  1  'x, y, z'
loop_
 _atom_site_type_symbol
 _atom_site_label
 _atom_site_symmetry_multiplicity
 _atom_site_fract_x
 _atom_site_fract_y
 _atom_site_fract_z
 _atom_site_occupancy
  B  B0  1  0.25000000  0.68690397  0.02100400  1
  P  P1  1  0.75000000  0.31309598  0.97899603  1
  P  P2  1  0.75000000  0.18690399  0.47899602  1
  P  P3  1  0.25000000  0.81309596  0.52100402  1
  P  P4  1  0.25000000  0.00426300  0.19423501  1
  P  P5  1  0.75000000  0.99573695  0.80576503  1
  P  P6  1  0.75000000  0.50426298  0.30576501  1
  P  P7  1  0.25000000  0.49573698  0.69423502  1
  Co  Co8  1  0.25000000  0.37460298  0.45388801  1
  Co  Co9  1  0.75000000  0.62539697  0.54611202  1
  Co  Co10  1  0.75000000  0.87460296  0.04611200  1
  Co  Co11  1  0.25000000  0.12539699  0.95388803  1
  Co  Co12  1  0.25000000  0.45042198  0.12091600  1
  Co  Co13  1  0.75000000  0.54957797  0.87908403  1
  Co  Co14  1  0.75000000  0.95042195  0.37908401  1
  Co  Co15  1  0.25000000  0.04957800  0.62091602  1
  Co  Co16  1  0.25000000  0.69943097  0.28001701  1
  Co  Co17  1  0.75000000  0.30056899  0.71998302  1
  Co  Co18  1  0.75000000  0.19943099  0.21998301  1
  Co  Co19  1  0.25000000  0.80056896  0.78001702  1
