# generated using pymatgen
data_LaSe2
_symmetry_space_group_name_H-M   'P 1'
_cell_length_a   4.38188601
_cell_length_b   4.38188601
_cell_length_c   9.48190308
_cell_angle_alpha   90.00000000
_cell_angle_beta   90.00000000
_cell_angle_gamma   90.00000000
_symmetry_Int_Tables_number   1
_chemical_formula_structural   LaSe2
_chemical_formula_sum   'La2 Se4'
_cell_volume   182.06130948
_cell_formula_units_Z   2
loop_
 _symmetry_equiv_pos_site_id
 _symmetry_equiv_pos_as_xyz
  1  'x, y, z'
loop_
 _atom_site_type_symbol
 _atom_site_label
 _atom_site_symmetry_multiplicity
 _atom_site_fract_x
 _atom_site_fract_y
 _atom_site_fract_z
 _atom_site_occupancy
  La  La0  1  0.00000000  0.50000000  0.71260299  1
  La  La1  1  0.50000000  0.00000000  0.28739700  1
  Se  Se2  1  0.00000000  0.00000000  0.00000000  1
  Se  Se3  1  0.50000000  0.50000000  -0.00000000  1
  Se  Se4  1  0.00000000  0.50000000  0.36785400  1
  Se  Se5  1  0.50000000  0.00000000  0.63214599  1
