# generated using pymatgen
data_Mn5O6F7
_symmetry_space_group_name_H-M   'P 1'
_cell_length_a   4.50718498
_cell_length_b   5.39903355
_cell_length_c   7.44730330
_cell_angle_alpha   86.15776062
_cell_angle_beta   89.46280670
_cell_angle_gamma   89.12560272
_symmetry_Int_Tables_number   1
_chemical_formula_structural   Mn5O6F7
_chemical_formula_sum   'Mn5 O6 F7'
_cell_volume   180.79124883
_cell_formula_units_Z   1
loop_
 _symmetry_equiv_pos_site_id
 _symmetry_equiv_pos_as_xyz
  1  'x, y, z'
loop_
 _atom_site_type_symbol
 _atom_site_label
 _atom_site_symmetry_multiplicity
 _atom_site_fract_x
 _atom_site_fract_y
 _atom_site_fract_z
 _atom_site_occupancy
  Mn  Mn0  1  0.49638900  0.49729102  0.99873899  1
  Mn  Mn1  1  0.51699900  0.84441803  0.67276897  1
  Mn  Mn2  1  0.49912600  0.16559701  0.33370199  1
  Mn  Mn3  1  0.99248300  0.32463501  0.66780497  1
  Mn  Mn4  1  0.98734600  0.66385502  0.32265595  1
  F  F5  1  0.00642600  0.00282500  0.00419000  1
  O  O6  1  0.80417500  0.37067201  0.43408197  1
  F  F7  1  0.80823200  0.03558900  0.77220399  1
  F  F8  1  0.80316500  0.70446502  0.09883395  1
  O  O9  1  0.69320600  0.20274201  0.10201998  1
  O  O10  1  0.69513300  0.53716202  0.76756098  1
  F  F11  1  0.69625400  0.86990603  0.43602596  1
  F  F12  1  0.30627700  0.13009800  0.56656900  1
  O  O13  1  0.30658900  0.46584802  0.23228898  1
  O  O14  1  0.30205599  0.79399203  0.89619498  1
  F  F15  1  0.19345699  0.96166703  0.23230396  1
  O  O16  1  0.19457800  0.29468901  0.89831000  1
  F  F17  1  0.19810800  0.63454802  0.56374398  1
