# generated using pymatgen
data_Cs2PAu4S3
_symmetry_space_group_name_H-M   'P 1'
_cell_length_a   5.73556995
_cell_length_b   5.85980606
_cell_length_c   7.21026421
_cell_angle_alpha   66.02413940
_cell_angle_beta   90.00000000
_cell_angle_gamma   90.00000000
_symmetry_Int_Tables_number   1
_chemical_formula_structural   Cs2PAu4S3
_chemical_formula_sum   'Cs2 P1 Au4 S3'
_cell_volume   221.42292521
_cell_formula_units_Z   1
loop_
 _symmetry_equiv_pos_site_id
 _symmetry_equiv_pos_as_xyz
  1  'x, y, z'
loop_
 _atom_site_type_symbol
 _atom_site_label
 _atom_site_symmetry_multiplicity
 _atom_site_fract_x
 _atom_site_fract_y
 _atom_site_fract_z
 _atom_site_occupancy
  P  P0  1  0.25000000  0.89904200  0.20191597  1
  S  S1  1  0.75000001  0.10095800  0.79808398  1
  S  S2  1  0.75000001  0.42237800  0.15524399  1
  S  S3  1  0.25000000  0.57762200  0.84475596  1
  Cs  Cs4  1  0.25000000  0.24536200  0.50927598  1
  Cs  Cs5  1  0.75000001  0.75463800  0.49072397  1
  Au  Au6  1  0.50000000  0.26612700  0.99999997  1
  Au  Au7  1  1.00000001  0.73387300  -0.00000002  1
  Au  Au8  1  0.50000000  0.73387300  -0.00000002  1
  Au  Au9  1  -0.00000000  0.26612700  0.99999997  1
