# generated using pymatgen
data_Co2P2O7F3
_symmetry_space_group_name_H-M   'P 1'
_cell_length_a   4.04985905
_cell_length_b   6.51524496
_cell_length_c   6.51524496
_cell_angle_alpha   90.00000000
_cell_angle_beta   90.00000000
_cell_angle_gamma   90.00000000
_symmetry_Int_Tables_number   1
_chemical_formula_structural   Co2P2O7F3
_chemical_formula_sum   'Co2 P2 O7 F3'
_cell_volume   171.91010521
_cell_formula_units_Z   1
loop_
 _symmetry_equiv_pos_site_id
 _symmetry_equiv_pos_as_xyz
  1  'x, y, z'
loop_
 _atom_site_type_symbol
 _atom_site_label
 _atom_site_symmetry_multiplicity
 _atom_site_fract_x
 _atom_site_fract_y
 _atom_site_fract_z
 _atom_site_occupancy
  Co  Co0  1  0.23580800  0.50000000  0.00000000  1
  Co  Co1  1  0.76419199  0.00000000  0.50000000  1
  P  P2  1  0.49999999  0.00000000  -0.00000000  1
  P  P3  1  0.49999999  0.50000000  0.50000000  1
  O  O4  1  0.28431600  0.19455600  0.00000000  1
  O  O5  1  0.28431600  0.50000000  0.30544400  1
  F  F6  1  0.21514400  0.00000000  0.50000000  1
  F  F7  1  0.78485599  0.50000000  -0.00000000  1
  O  O8  1  0.28431600  0.50000000  0.69455600  1
  F  F9  1  0.28431600  0.80544400  -0.00000000  1
  O  O10  1  0.71568399  0.69455600  0.50000000  1
  O  O11  1  0.71568399  0.00000000  0.80544400  1
  O  O12  1  0.71568399  0.00000000  0.19455600  1
  O  O13  1  0.71568399  0.30544400  0.50000000  1
