# generated using pymatgen
data_MoWSe3S
_symmetry_space_group_name_H-M   'P 1'
_cell_length_a   3.25341606
_cell_length_b   3.25341606
_cell_length_c   22.99897575
_cell_angle_alpha   90.00000000
_cell_angle_beta   90.00000000
_cell_angle_gamma   120.00000000
_symmetry_Int_Tables_number   1
_chemical_formula_structural   MoWSe3S
_chemical_formula_sum   'Mo1 W1 Se3 S1'
_cell_volume   210.82317028
_cell_formula_units_Z   1
loop_
 _symmetry_equiv_pos_site_id
 _symmetry_equiv_pos_as_xyz
  1  'x, y, z'
loop_
 _atom_site_type_symbol
 _atom_site_label
 _atom_site_symmetry_multiplicity
 _atom_site_fract_x
 _atom_site_fract_y
 _atom_site_fract_z
 _atom_site_occupancy
  Mo  Mo0  1  0.00000000  0.00000000  0.84957897  1
  W  W1  1  0.66666666  0.33333334  0.54855698  1
  Se  Se2  1  0.66666666  0.33333334  0.92344997  1
  Se  Se3  1  0.66666666  0.33333334  0.77568197  1
  S  S4  1  0.00000000  0.00000000  0.48116898  1
  Se  Se5  1  0.00000000  0.00000000  0.61595898  1
