# generated using pymatgen
data_Lu3(MnGe2)2
_symmetry_space_group_name_H-M   'P 1'
_cell_length_a   3.85348606
_cell_length_b   6.95360994
_cell_length_c   6.95360994
_cell_angle_alpha   120.00000000
_cell_angle_beta   90.00000000
_cell_angle_gamma   90.00000000
_symmetry_Int_Tables_number   1
_chemical_formula_structural   Lu3(MnGe2)2
_chemical_formula_sum   'Lu3 Mn2 Ge4'
_cell_volume   161.36341461
_cell_formula_units_Z   1
loop_
 _symmetry_equiv_pos_site_id
 _symmetry_equiv_pos_as_xyz
  1  'x, y, z'
loop_
 _atom_site_type_symbol
 _atom_site_label
 _atom_site_symmetry_multiplicity
 _atom_site_fract_x
 _atom_site_fract_y
 _atom_site_fract_z
 _atom_site_occupancy
  Lu  Lu0  1  0.49999999  0.59187901  0.00000000  1
  Lu  Lu1  1  0.49999999  0.00000000  0.59187901  1
  Lu  Lu2  1  0.49999999  0.40812100  0.40812101  1
  Mn  Mn3  1  0.99999998  0.00000000  0.22149200  1
  Ge  Ge4  1  0.00000000  0.77850801  0.77850802  1
  Mn  Mn5  1  0.99999998  0.22149200  0.00000000  1
  Ge  Ge6  1  0.99999998  0.33333334  0.66666668  1
  Ge  Ge7  1  0.99999998  0.66666667  0.33333334  1
  Ge  Ge8  1  0.49999999  0.00000000  -0.00000000  1
