# generated using pymatgen
data_Li5AgF8
_symmetry_space_group_name_H-M   'P 1'
_cell_length_a   5.67736340
_cell_length_b   5.70315123
_cell_length_c   5.86612082
_cell_angle_alpha   118.59295654
_cell_angle_beta   90.69223785
_cell_angle_gamma   119.07317352
_symmetry_Int_Tables_number   1
_chemical_formula_structural   Li5AgF8
_chemical_formula_sum   'Li5 Ag1 F8'
_cell_volume   138.15553513
_cell_formula_units_Z   1
loop_
 _symmetry_equiv_pos_site_id
 _symmetry_equiv_pos_as_xyz
  1  'x, y, z'
loop_
 _atom_site_type_symbol
 _atom_site_label
 _atom_site_symmetry_multiplicity
 _atom_site_fract_x
 _atom_site_fract_y
 _atom_site_fract_z
 _atom_site_occupancy
  Li  Li0  1  0.00000199  0.50001100  0.49999696  1
  Ag  Ag1  1  0.49999600  0.49999000  0.49999795  1
  Li  Li2  1  0.00000200  0.00000400  0.00001100  1
  Li  Li3  1  0.99999901  0.50000000  0.00000496  1
  Li  Li4  1  0.49999999  0.99999601  0.99999591  1
  Li  Li5  1  0.49999900  0.50000100  0.00000397  1
  F  F6  1  0.72620501  0.44846000  0.19673096  1
  F  F7  1  0.74115000  0.98830101  0.20798994  1
  F  F8  1  0.21646900  0.45843900  0.20829797  1
  F  F9  1  0.25884900  0.00580000  0.21565399  1
  F  F10  1  0.74114100  0.99419801  0.78434192  1
  F  F11  1  0.78353400  0.54156500  0.79170093  1
  F  F12  1  0.25885400  0.01170300  0.79200496  1
  F  F13  1  0.27379300  0.55154000  0.80327494  1
