# generated using pymatgen
data_BaHg5
_symmetry_space_group_name_H-M   'P 1'
_cell_length_a   5.58904600
_cell_length_b   5.58904696
_cell_length_c   6.97181797
_cell_angle_alpha   90.00000000
_cell_angle_beta   90.00000000
_cell_angle_gamma   119.99999237
_symmetry_Int_Tables_number   1
_chemical_formula_structural   BaHg5
_chemical_formula_sum   'Ba1 Hg5'
_cell_volume   188.60454185
_cell_formula_units_Z   1
loop_
 _symmetry_equiv_pos_site_id
 _symmetry_equiv_pos_as_xyz
  1  'x, y, z'
loop_
 _atom_site_type_symbol
 _atom_site_label
 _atom_site_symmetry_multiplicity
 _atom_site_fract_x
 _atom_site_fract_y
 _atom_site_fract_z
 _atom_site_occupancy
  Hg  Hg0  1  0.00000000  0.00000000  0.00000000  1
  Ba  Ba1  1  0.00000000  0.00000000  0.50000000  1
  Hg  Hg2  1  0.66666666  0.33333333  0.25000000  1
  Hg  Hg3  1  0.33333331  0.66666666  0.75000000  1
  Hg  Hg4  1  0.66666666  0.33333333  0.75000000  1
  Hg  Hg5  1  0.33333331  0.66666666  0.25000000  1
