# generated using pymatgen
data_Sm2Co17
_symmetry_space_group_name_H-M   'P 1'
_cell_length_a   6.38542271
_cell_length_b   6.38542271
_cell_length_c   6.38542271
_cell_angle_alpha   82.63303375
_cell_angle_beta   82.63303375
_cell_angle_gamma   82.63302612
_symmetry_Int_Tables_number   1
_chemical_formula_structural   Sm2Co17
_chemical_formula_sum   'Sm2 Co17'
_cell_volume   254.41701012
_cell_formula_units_Z   1
loop_
 _symmetry_equiv_pos_site_id
 _symmetry_equiv_pos_as_xyz
  1  'x, y, z'
loop_
 _atom_site_type_symbol
 _atom_site_label
 _atom_site_symmetry_multiplicity
 _atom_site_fract_x
 _atom_site_fract_y
 _atom_site_fract_z
 _atom_site_occupancy
  Sm  Sm0  1  0.34432797  0.34432799  0.34432803  1
  Sm  Sm1  1  0.65567194  0.65567198  0.65567205  1
  Co  Co2  1  0.00000000  0.00000000  0.49999998  1
  Co  Co3  1  -0.00000003  0.49999998  0.99999999  1
  Co  Co4  1  0.49999998  0.00000000  0.99999999  1
  Co  Co5  1  0.71337596  0.28662399  0.00000005  1
  Co  Co6  1  0.28662393  0.99999997  0.71337605  1
  Co  Co7  1  -0.00000004  0.71337598  0.28662403  1
  Co  Co8  1  0.71337592  0.99999997  0.28662409  1
  Co  Co9  1  -0.00000002  0.28662399  0.71337599  1
  Co  Co10  1  0.28662395  0.71337598  1.00000002  1
  Co  Co11  1  0.65544294  0.65544298  0.15927107  1
  Co  Co12  1  0.65544297  0.15927100  0.65544302  1
  Co  Co13  1  0.15927096  0.65544298  0.65544302  1
  Co  Co14  1  0.34455697  0.34455699  0.84072901  1
  Co  Co15  1  0.34455694  0.84072897  0.34455705  1
  Co  Co16  1  0.84072895  0.34455699  0.34455705  1
  Co  Co17  1  0.09250099  0.09250100  0.09250101  1
  Co  Co18  1  0.90749892  0.90749897  0.90749907  1
