# generated using pymatgen
data_Na2MgSi2TeO10
_symmetry_space_group_name_H-M   'P 1'
_cell_length_a   5.55410290
_cell_length_b   5.62226629
_cell_length_c   7.31170797
_cell_angle_alpha   104.09964752
_cell_angle_beta   103.88679504
_cell_angle_gamma   105.78672791
_symmetry_Int_Tables_number   1
_chemical_formula_structural   Na2MgSi2TeO10
_chemical_formula_sum   'Na2 Mg1 Si2 Te1 O10'
_cell_volume   201.28777883
_cell_formula_units_Z   1
loop_
 _symmetry_equiv_pos_site_id
 _symmetry_equiv_pos_as_xyz
  1  'x, y, z'
loop_
 _atom_site_type_symbol
 _atom_site_label
 _atom_site_symmetry_multiplicity
 _atom_site_fract_x
 _atom_site_fract_y
 _atom_site_fract_z
 _atom_site_occupancy
  Na  Na0  1  0.17708397  0.84063295  0.26108696  1
  Na  Na1  1  0.82291602  0.15936699  0.73891302  1
  Mg  Mg2  1  0.50000000  0.49999997  -0.00000000  1
  Te  Te3  1  0.50000000  0.49999997  0.49999999  1
  Si  Si4  1  0.17108198  0.81159695  0.74519896  1
  Si  Si5  1  0.82891802  0.18840299  0.25480103  1
  O  O6  1  0.57784300  0.42016697  0.73673100  1
  O  O7  1  0.42215699  0.57983296  0.26326899  1
  O  O8  1  0.87529600  0.74851595  0.58585900  1
  O  O9  1  0.76389299  0.89392894  0.09955799  1
  O  O10  1  0.12470399  0.25148398  0.41414099  1
  O  O11  1  0.23610700  0.10607099  0.90044199  1
  O  O12  1  0.82897401  0.39222898  0.12564302  1
  O  O13  1  0.38678298  0.80858695  0.62309597  1
  O  O14  1  0.17102598  0.60777096  0.87435697  1
  O  O15  1  0.61321701  0.19141299  0.37690401  1
