# generated using pymatgen
data_Mn3O4
_symmetry_space_group_name_H-M   'P 1'
_cell_length_a   5.80379248
_cell_length_b   6.04470873
_cell_length_c   6.07094526
_cell_angle_alpha   118.86157990
_cell_angle_beta   89.99993134
_cell_angle_gamma   118.69020844
_symmetry_Int_Tables_number   1
_chemical_formula_structural   Mn3O4
_chemical_formula_sum   'Mn6 O8'
_cell_volume   156.00649871
_cell_formula_units_Z   2
loop_
 _symmetry_equiv_pos_site_id
 _symmetry_equiv_pos_as_xyz
  1  'x, y, z'
loop_
 _atom_site_type_symbol
 _atom_site_label
 _atom_site_symmetry_multiplicity
 _atom_site_fract_x
 _atom_site_fract_y
 _atom_site_fract_z
 _atom_site_occupancy
  Mn  Mn0  1  0.02725600  0.05451100  0.04132000  1
  Mn  Mn1  1  0.37500103  0.75000104  0.62500000  1
  Mn  Mn2  1  0.72274601  0.44549002  0.20867999  1
  Mn  Mn3  1  0.37500003  0.74999904  0.12499899  1
  Mn  Mn4  1  0.37499701  0.25000001  0.62500700  1
  Mn  Mn5  1  0.87499301  0.24999101  0.62499399  1
  O  O6  1  0.13565201  0.27130401  0.43040700  1
  O  O7  1  0.15963201  0.31926302  0.88029200  1
  O  O8  1  0.59036900  0.18073801  0.36970699  1
  O  O9  1  0.61434901  0.22869701  0.81959299  1
  O  O10  1  0.12280403  0.72769904  0.36304100  1
  O  O11  1  0.60489503  0.72770004  0.36304099  1
  O  O12  1  0.14510603  0.77230204  0.88695900  1
  O  O13  1  0.62719703  0.77230204  0.88695899  1
