# generated using pymatgen
data_TbInAu
_symmetry_space_group_name_H-M   'P 1'
_cell_length_a   4.21186113
_cell_length_b   7.73249197
_cell_length_c   7.73249245
_cell_angle_alpha   120.00000000
_cell_angle_beta   90.00000000
_cell_angle_gamma   90.00000000
_symmetry_Int_Tables_number   1
_chemical_formula_structural   TbInAu
_chemical_formula_sum   'Tb3 In3 Au3'
_cell_volume   218.09396982
_cell_formula_units_Z   3
loop_
 _symmetry_equiv_pos_site_id
 _symmetry_equiv_pos_as_xyz
  1  'x, y, z'
loop_
 _atom_site_type_symbol
 _atom_site_label
 _atom_site_symmetry_multiplicity
 _atom_site_fract_x
 _atom_site_fract_y
 _atom_site_fract_z
 _atom_site_occupancy
  Tb  Tb0  1  0.00000000  0.58674001  0.00000002  1
  Tb  Tb1  1  0.00000000  0.41326001  0.41326001  1
  Tb  Tb2  1  0.00000000  0.00000000  0.58674000  1
  In  In3  1  0.49999998  0.00000000  0.24903100  1
  In  In4  1  0.49999998  0.24903101  0.00000001  1
  In  In5  1  0.49999998  0.75096902  0.75096903  1
  Au  Au6  1  0.49999998  0.66666668  0.33333336  1
  Au  Au7  1  0.00000000  0.00000000  0.00000000  1
  Au  Au8  1  0.49999998  0.33333334  0.66666668  1
