# generated using pymatgen
data_BiWO4
_symmetry_space_group_name_H-M   'P 1'
_cell_length_a   5.63635397
_cell_length_b   5.63635397
_cell_length_c   6.65223026
_cell_angle_alpha   115.06485748
_cell_angle_beta   115.06485748
_cell_angle_gamma   90.00000000
_symmetry_Int_Tables_number   1
_chemical_formula_structural   BiWO4
_chemical_formula_sum   'Bi2 W2 O8'
_cell_volume   169.20387794
_cell_formula_units_Z   2
loop_
 _symmetry_equiv_pos_site_id
 _symmetry_equiv_pos_as_xyz
  1  'x, y, z'
loop_
 _atom_site_type_symbol
 _atom_site_label
 _atom_site_symmetry_multiplicity
 _atom_site_fract_x
 _atom_site_fract_y
 _atom_site_fract_z
 _atom_site_occupancy
  Bi  Bi0  1  0.74999999  0.75000000  0.49999999  1
  Bi  Bi1  1  0.25000000  0.25000000  0.50000001  1
  W  W2  1  -0.00000001  0.50000000  -0.00000001  1
  W  W3  1  0.50000000  0.00000000  -0.00000001  1
  O  O4  1  0.95999299  0.81230600  0.27229898  1
  O  O5  1  0.68769399  0.54000700  0.72770101  1
  O  O6  1  0.04000700  0.18769400  0.72770102  1
  O  O7  1  0.54000700  0.04000700  0.72770102  1
  O  O8  1  0.31230599  0.45999300  0.27229900  1
  O  O9  1  0.81230599  0.31230600  0.27229899  1
  O  O10  1  0.45999299  0.95999300  0.27229899  1
  O  O11  1  0.18769399  0.68769400  0.72770101  1
