# generated using pymatgen
data_Ba2HoAgS12
_symmetry_space_group_name_H-M   'P 1'
_cell_length_a   4.07964611
_cell_length_b   4.12833405
_cell_length_c   21.40033913
_cell_angle_alpha   90.00000000
_cell_angle_beta   90.00000000
_cell_angle_gamma   90.00000000
_symmetry_Int_Tables_number   1
_chemical_formula_structural   Ba2HoAgS12
_chemical_formula_sum   'Ba2 Ho1 Ag1 S12'
_cell_volume   360.42754895
_cell_formula_units_Z   1
loop_
 _symmetry_equiv_pos_site_id
 _symmetry_equiv_pos_as_xyz
  1  'x, y, z'
loop_
 _atom_site_type_symbol
 _atom_site_label
 _atom_site_symmetry_multiplicity
 _atom_site_fract_x
 _atom_site_fract_y
 _atom_site_fract_z
 _atom_site_occupancy
  Ba  Ba0  1  0.24999999  0.77501199  0.61598600  1
  Ba  Ba1  1  0.74999998  0.22498800  0.38401400  1
  S  S2  1  0.74999998  0.27501200  0.88401399  1
  S  S3  1  0.24999999  0.72498799  0.11598600  1
  S  S4  1  0.24999999  0.22416200  0.25009400  1
  S  S5  1  0.74999998  0.72416199  0.24990600  1
  Ho  Ho6  1  0.74999998  0.77583799  0.74990600  1
  Ag  Ag7  1  0.24999999  0.27583800  0.75009400  1
  S  S8  1  0.24999999  0.77585299  0.83848500  1
  S  S9  1  0.74999998  0.22414700  0.16151500  1
  S  S10  1  0.74999998  0.27585300  0.66151500  1
  S  S11  1  0.24999999  0.72414699  0.33848500  1
  S  S12  1  0.24999999  0.30019900  0.50185100  1
  S  S13  1  0.24999999  0.19980100  0.00185100  1
  S  S14  1  0.74999998  0.80019899  0.99814899  1
  S  S15  1  0.74999998  0.69980099  0.49814900  1
