# generated using pymatgen
data_Na2Ge2O5
_symmetry_space_group_name_H-M   'P 1'
_cell_length_a   5.27517796
_cell_length_b   5.62504816
_cell_length_c   8.30152893
_cell_angle_alpha   109.80352783
_cell_angle_beta   108.52529144
_cell_angle_gamma   90.00000000
_symmetry_Int_Tables_number   1
_chemical_formula_structural   Na2Ge2O5
_chemical_formula_sum   'Na4 Ge4 O10'
_cell_volume   218.14941778
_cell_formula_units_Z   2
loop_
 _symmetry_equiv_pos_site_id
 _symmetry_equiv_pos_as_xyz
  1  'x, y, z'
loop_
 _atom_site_type_symbol
 _atom_site_label
 _atom_site_symmetry_multiplicity
 _atom_site_fract_x
 _atom_site_fract_y
 _atom_site_fract_z
 _atom_site_occupancy
  Na  Na0  1  0.11627097  0.57920997  0.21600796  1
  Na  Na1  1  0.40026295  0.86320195  0.78399193  1
  Na  Na2  1  0.90026297  0.42078998  0.78399193  1
  Na  Na3  1  0.61627099  0.13679799  0.21600797  1
  Ge  Ge4  1  0.28889099  0.17290899  0.49999897  1
  Ge  Ge5  1  0.78889195  0.82709095  0.49999992  1
  Ge  Ge6  1  0.49798697  0.49999997  0.99999994  1
  Ge  Ge7  1  0.99798699  0.00000000  -0.00000004  1
  O  O8  1  0.62380499  0.10738599  0.49999996  1
  O  O9  1  0.12380496  0.89261395  0.49999994  1
  O  O10  1  0.61269697  0.57524197  0.29413994  1
  O  O11  1  0.31855598  0.42475798  0.70585995  1
  O  O12  1  0.11269599  0.21889799  0.29413898  1
  O  O13  1  0.81855695  0.78110196  0.70586092  1
  O  O14  1  0.23261799  0.23101899  0.96640896  1
  O  O15  1  0.26620896  0.76898096  0.03359095  1
  O  O16  1  0.76620996  0.76461096  0.03359193  1
  O  O17  1  0.73261698  0.23538899  0.96640795  1
