# generated using pymatgen
data_BaLiMg2SN
_symmetry_space_group_name_H-M   'P 1'
_cell_length_a   4.22934580
_cell_length_b   4.22934580
_cell_length_c   5.67991781
_cell_angle_alpha   90.00000000
_cell_angle_beta   90.00000000
_cell_angle_gamma   90.00000000
_symmetry_Int_Tables_number   1
_chemical_formula_structural   BaLiMg2SN
_chemical_formula_sum   'Ba1 Li1 Mg2 S1 N1'
_cell_volume   101.59876810
_cell_formula_units_Z   1
loop_
 _symmetry_equiv_pos_site_id
 _symmetry_equiv_pos_as_xyz
  1  'x, y, z'
loop_
 _atom_site_type_symbol
 _atom_site_label
 _atom_site_symmetry_multiplicity
 _atom_site_fract_x
 _atom_site_fract_y
 _atom_site_fract_z
 _atom_site_occupancy
  Ba  Ba0  1  0.00000000  0.00000000  0.50000002  1
  Li  Li1  1  0.50000002  0.50000002  0.74577002  1
  S  S2  1  0.50000002  0.50000002  0.25423001  1
  N  N3  1  0.00000000  0.00000000  0.00000000  1
  Mg  Mg4  1  0.50000002  0.00000000  -0.00000000  1
  Mg  Mg5  1  0.00000000  0.50000002  -0.00000000  1
