# generated using pymatgen
data_CsZr2F7
_symmetry_space_group_name_H-M   'P 1'
_cell_length_a   5.97708321
_cell_length_b   5.97708321
_cell_length_c   5.97708321
_cell_angle_alpha   87.16764069
_cell_angle_beta   61.38984299
_cell_angle_gamma   118.14721680
_symmetry_Int_Tables_number   1
_chemical_formula_structural   CsZr2F7
_chemical_formula_sum   'Cs1 Zr2 F7'
_cell_volume   154.48469707
_cell_formula_units_Z   1
loop_
 _symmetry_equiv_pos_site_id
 _symmetry_equiv_pos_as_xyz
  1  'x, y, z'
loop_
 _atom_site_type_symbol
 _atom_site_label
 _atom_site_symmetry_multiplicity
 _atom_site_fract_x
 _atom_site_fract_y
 _atom_site_fract_z
 _atom_site_occupancy
  F  F0  1  0.00000004  0.75000003  0.24999998  1
  F  F1  1  0.00000001  0.25000001  0.75000001  1
  Zr  Zr2  1  0.50000004  0.50000002  1.00000000  1
  Zr  Zr3  1  0.50000001  0.00000000  0.50000001  1
  Cs  Cs4  1  0.52391805  0.77883404  0.25491598  1
  F  F5  1  0.47608202  0.22116601  0.74508401  1
  F  F6  1  0.03375002  0.27883401  0.24508400  1
  F  F7  1  0.96625006  0.72116603  0.75491599  1
  F  F8  1  0.50000002  0.25000001  0.25000000  1
  F  F9  1  0.50000005  0.75000003  0.74999999  1
