# generated using pymatgen
data_Bi8PtS
_symmetry_space_group_name_H-M   'P 1'
_cell_length_a   4.05743599
_cell_length_b   4.05743647
_cell_length_c   17.96662903
_cell_angle_alpha   90.00000000
_cell_angle_beta   90.00000000
_cell_angle_gamma   120.00000000
_symmetry_Int_Tables_number   1
_chemical_formula_structural   Bi8PtS
_chemical_formula_sum   'Bi8 Pt1 S1'
_cell_volume   256.15370244
_cell_formula_units_Z   1
loop_
 _symmetry_equiv_pos_site_id
 _symmetry_equiv_pos_as_xyz
  1  'x, y, z'
loop_
 _atom_site_type_symbol
 _atom_site_label
 _atom_site_symmetry_multiplicity
 _atom_site_fract_x
 _atom_site_fract_y
 _atom_site_fract_z
 _atom_site_occupancy
  Bi  Bi0  1  0.00000000  0.00000000  0.89567500  1
  Bi  Bi1  1  0.00000000  0.00000000  0.10432500  1
  Bi  Bi2  1  0.00000000  0.00000000  0.39567500  1
  Bi  Bi3  1  0.00000000  0.00000000  0.60432500  1
  Pt  Pt4  1  0.66666668  0.33333333  0.50007000  1
  S  S5  1  0.33333337  0.66666666  0.49993000  1
  Bi  Bi6  1  0.33333337  0.66666666  0.00007000  1
  Bi  Bi7  1  0.66666668  0.33333333  0.99993000  1
  Bi  Bi8  1  0.66666668  0.33333333  0.75000000  1
  Bi  Bi9  1  0.33333337  0.66666666  0.25000000  1
