# generated using pymatgen
data_Cd2O3
_symmetry_space_group_name_H-M   'P 1'
_cell_length_a   5.55324984
_cell_length_b   5.55324984
_cell_length_c   6.02233458
_cell_angle_alpha   62.54482269
_cell_angle_beta   62.54482269
_cell_angle_gamma   60.00000000
_symmetry_Int_Tables_number   1
_chemical_formula_structural   Cd2O3
_chemical_formula_sum   'Cd4 O6'
_cell_volume   136.15065306
_cell_formula_units_Z   2
loop_
 _symmetry_equiv_pos_site_id
 _symmetry_equiv_pos_as_xyz
  1  'x, y, z'
loop_
 _atom_site_type_symbol
 _atom_site_label
 _atom_site_symmetry_multiplicity
 _atom_site_fract_x
 _atom_site_fract_y
 _atom_site_fract_z
 _atom_site_occupancy
  Cd  Cd0  1  0.63432301  0.63432302  0.09703097  1
  Cd  Cd1  1  0.36567701  0.36567701  0.90296899  1
  Cd  Cd2  1  0.84558001  0.84558002  0.46325996  1
  Cd  Cd3  1  0.15442000  0.15442000  0.53674000  1
  O  O4  1  0.55620501  0.21208501  0.27085198  1
  O  O5  1  0.78791502  0.03914200  0.72914798  1
  O  O6  1  0.03914200  0.44379501  0.72914799  1
  O  O7  1  0.96085802  0.55620502  0.27085197  1
  O  O8  1  0.21208500  0.96085803  0.27085198  1
  O  O9  1  0.44379500  0.78791502  0.72914798  1
