# generated using pymatgen
data_Ho3Ni3Ge5
_symmetry_space_group_name_H-M   'P 1'
_cell_length_a   4.11229420
_cell_length_b   6.51315784
_cell_length_c   7.81160259
_cell_angle_alpha   114.63839722
_cell_angle_beta   105.26103973
_cell_angle_gamma   90.00000000
_symmetry_Int_Tables_number   1
_chemical_formula_structural   Ho3Ni3Ge5
_chemical_formula_sum   'Ho3 Ni3 Ge5'
_cell_volume   182.02907243
_cell_formula_units_Z   1
loop_
 _symmetry_equiv_pos_site_id
 _symmetry_equiv_pos_as_xyz
  1  'x, y, z'
loop_
 _atom_site_type_symbol
 _atom_site_label
 _atom_site_symmetry_multiplicity
 _atom_site_fract_x
 _atom_site_fract_y
 _atom_site_fract_z
 _atom_site_occupancy
  Ho  Ho0  1  0.12833000  0.12833001  0.25666001  1
  Ho  Ho1  1  0.87167003  0.87167004  0.74334008  1
  Ho  Ho2  1  0.00000003  0.50000002  0.00000002  1
  Ni  Ni3  1  0.66827001  0.47702602  0.33654005  1
  Ni  Ni4  1  0.33173000  0.14048601  0.66346003  1
  Ge  Ge5  1  0.66827004  0.85951404  0.33654007  1
  Ni  Ni6  1  0.33173002  0.52297403  0.66346005  1
  Ge  Ge7  1  0.50000000  0.18472401  0.00000003  1
  Ge  Ge8  1  0.50000004  0.81527604  0.00000006  1
  Ge  Ge9  1  0.21571304  0.71571303  0.43142605  1
  Ge  Ge10  1  0.78428699  0.28428701  0.56857405  1
