# generated using pymatgen
data_TbCoGe
_symmetry_space_group_name_H-M   'P 1'
_cell_length_a   4.13783598
_cell_length_b   4.13783598
_cell_length_c   7.81640339
_cell_angle_alpha   105.34848785
_cell_angle_beta   105.34848785
_cell_angle_gamma   90.00000000
_symmetry_Int_Tables_number   1
_chemical_formula_structural   TbCoGe
_chemical_formula_sum   'Tb2 Co2 Ge2'
_cell_volume   124.10012934
_cell_formula_units_Z   2
loop_
 _symmetry_equiv_pos_site_id
 _symmetry_equiv_pos_as_xyz
  1  'x, y, z'
loop_
 _atom_site_type_symbol
 _atom_site_label
 _atom_site_symmetry_multiplicity
 _atom_site_fract_x
 _atom_site_fract_y
 _atom_site_fract_z
 _atom_site_occupancy
  Tb  Tb0  1  0.75426099  0.25426100  0.50852197  1
  Tb  Tb1  1  0.00426100  0.00426100  0.00852200  1
  Ge  Ge2  1  0.33431299  0.83431300  0.66862597  1
  Ge  Ge3  1  0.58431299  0.58431300  0.16862598  1
  Co  Co4  1  0.16862599  0.66862600  0.33725198  1
  Co  Co5  1  0.41862599  0.41862600  0.83725197  1
