# generated using pymatgen
data_Tb2C3
_symmetry_space_group_name_H-M   'P 1'
_cell_length_a   7.23304081
_cell_length_b   7.23304081
_cell_length_c   7.23304081
_cell_angle_alpha   109.47122192
_cell_angle_beta   109.47122192
_cell_angle_gamma   109.47122192
_symmetry_Int_Tables_number   1
_chemical_formula_structural   Tb2C3
_chemical_formula_sum   'Tb8 C12'
_cell_volume   291.30023491
_cell_formula_units_Z   4
loop_
 _symmetry_equiv_pos_site_id
 _symmetry_equiv_pos_as_xyz
  1  'x, y, z'
loop_
 _atom_site_type_symbol
 _atom_site_label
 _atom_site_symmetry_multiplicity
 _atom_site_fract_x
 _atom_site_fract_y
 _atom_site_fract_z
 _atom_site_occupancy
  Tb  Tb0  1  0.00000003  0.50000001  0.60291302  1
  Tb  Tb1  1  0.39708702  0.39708701  0.89708702  1
  Tb  Tb2  1  0.50000000  0.10291300  0.50000001  1
  Tb  Tb3  1  0.10291306  1.00000003  1.00000004  1
  Tb  Tb4  1  0.89708705  0.89708702  0.39708707  1
  Tb  Tb5  1  0.00000003  0.50000001  0.10291303  1
  Tb  Tb6  1  0.50000004  0.60291302  0.50000004  1
  Tb  Tb7  1  0.60291306  1.00000003  1.00000006  1
  C  C8  1  0.95524901  0.20524901  0.75000002  1
  C  C9  1  0.54475102  0.29475101  0.25000003  1
  C  C10  1  0.70524902  0.45524901  0.25000004  1
  C  C11  1  0.79475100  0.04475100  0.75000001  1
  C  C12  1  0.20524901  0.25000001  0.45524901  1
  C  C13  1  0.29475105  0.75000002  0.04475105  1
  C  C14  1  0.45524905  0.75000002  0.20524905  1
  C  C15  1  0.04475102  0.25000001  0.29475101  1
  C  C16  1  0.75000003  0.54475101  0.79475104  1
  C  C17  1  0.25000006  0.95524902  0.70524905  1
  C  C18  1  0.25000005  0.79475102  0.54475104  1
  C  C19  1  0.75000004  0.70524902  0.95524904  1
