# generated using pymatgen
data_Cs4LiMgCl8
_symmetry_space_group_name_H-M   'P 1'
_cell_length_a   7.23608303
_cell_length_b   7.23635578
_cell_length_c   8.84202862
_cell_angle_alpha   114.15473175
_cell_angle_beta   90.00000000
_cell_angle_gamma   90.00000000
_symmetry_Int_Tables_number   1
_chemical_formula_structural   Cs4LiMgCl8
_chemical_formula_sum   'Cs4 Li1 Mg1 Cl8'
_cell_volume   422.45596581
_cell_formula_units_Z   1
loop_
 _symmetry_equiv_pos_site_id
 _symmetry_equiv_pos_as_xyz
  1  'x, y, z'
loop_
 _atom_site_type_symbol
 _atom_site_label
 _atom_site_symmetry_multiplicity
 _atom_site_fract_x
 _atom_site_fract_y
 _atom_site_fract_z
 _atom_site_occupancy
  Cs  Cs0  1  0.50000000  0.13948000  0.27895999  1
  Cs  Cs1  1  0.00000000  0.36052001  0.72103997  1
  Cs  Cs2  1  0.00000000  0.63948002  0.27895998  1
  Cs  Cs3  1  0.50000000  0.86052002  0.72103997  1
  Mg  Mg4  1  0.00000000  0.00000000  0.00000000  1
  Li  Li5  1  0.50000000  0.50000001  0.99999996  1
  Cl  Cl6  1  0.50000000  0.34847201  0.69694397  1
  Cl  Cl7  1  0.26152800  0.73846602  -0.00000001  1
  Cl  Cl8  1  0.00000000  0.15152800  0.30305599  1
  Cl  Cl9  1  1.00000000  0.84847202  0.69694397  1
  Cl  Cl10  1  0.23847200  0.23846601  0.99999996  1
  Cl  Cl11  1  0.73847200  0.26153401  -0.00000000  1
  Cl  Cl12  1  0.50000000  0.65152802  0.30305598  1
  Cl  Cl13  1  0.76152800  0.76153402  0.99999996  1
