# generated using pymatgen
data_Ba2LiGa(CuP3)2
_symmetry_space_group_name_H-M   'P 1'
_cell_length_a   5.13388920
_cell_length_b   6.42882013
_cell_length_c   6.42882013
_cell_angle_alpha   105.02246094
_cell_angle_beta   90.00000000
_cell_angle_gamma   90.00000000
_symmetry_Int_Tables_number   1
_chemical_formula_structural   Ba2LiGa(CuP3)2
_chemical_formula_sum   'Ba2 Li1 Ga1 Cu2 P6'
_cell_volume   204.93076693
_cell_formula_units_Z   1
loop_
 _symmetry_equiv_pos_site_id
 _symmetry_equiv_pos_as_xyz
  1  'x, y, z'
loop_
 _atom_site_type_symbol
 _atom_site_label
 _atom_site_symmetry_multiplicity
 _atom_site_fract_x
 _atom_site_fract_y
 _atom_site_fract_z
 _atom_site_occupancy
  Ba  Ba0  1  0.74999997  0.65341901  0.65341901  1
  Ba  Ba1  1  0.24999999  0.34658100  0.34658100  1
  Ga  Ga2  1  0.74999997  0.06024000  0.06024000  1
  Li  Li3  1  0.24999999  0.93976001  0.93976001  1
  P  P4  1  0.74999997  0.47534401  0.08173200  1
  P  P5  1  0.24999999  0.52465601  0.91826801  1
  P  P6  1  0.74999997  0.08173200  0.47534401  1
  P  P7  1  0.24999999  0.91826801  0.52465601  1
  P  P8  1  -0.00000000  0.20050500  0.79949501  1
  P  P9  1  -0.00000000  0.79949501  0.20050500  1
  Cu  Cu10  1  0.49999998  0.79949501  0.20050500  1
  Cu  Cu11  1  0.49999998  0.20050500  0.79949501  1
