# generated using pymatgen
data_Rb(PIr)2
_symmetry_space_group_name_H-M   'P 1'
_cell_length_a   3.99503803
_cell_length_b   3.99503803
_cell_length_c   7.01400995
_cell_angle_alpha   106.54628754
_cell_angle_beta   106.54628754
_cell_angle_gamma   90.00000000
_symmetry_Int_Tables_number   1
_chemical_formula_structural   Rb(PIr)2
_chemical_formula_sum   'Rb1 P2 Ir2'
_cell_volume   102.46502846
_cell_formula_units_Z   1
loop_
 _symmetry_equiv_pos_site_id
 _symmetry_equiv_pos_as_xyz
  1  'x, y, z'
loop_
 _atom_site_type_symbol
 _atom_site_label
 _atom_site_symmetry_multiplicity
 _atom_site_fract_x
 _atom_site_fract_y
 _atom_site_fract_z
 _atom_site_occupancy
  P  P0  1  0.65517298  0.65517299  0.31034597  1
  P  P1  1  0.34482699  0.34482699  0.68965397  1
  Rb  Rb2  1  0.00000000  0.00000000  0.00000000  1
  Ir  Ir3  1  0.74999998  0.25000000  0.49999997  1
  Ir  Ir4  1  0.24999998  0.74999999  0.49999997  1
