# generated using pymatgen
data_MgInF6
_symmetry_space_group_name_H-M   'P 1'
_cell_length_a   5.12254190
_cell_length_b   5.12254190
_cell_length_c   5.48302460
_cell_angle_alpha   62.15201569
_cell_angle_beta   62.15201569
_cell_angle_gamma   60.00000381
_symmetry_Int_Tables_number   1
_chemical_formula_structural   MgInF6
_chemical_formula_sum   'Mg1 In1 F6'
_cell_volume   104.92094223
_cell_formula_units_Z   1
loop_
 _symmetry_equiv_pos_site_id
 _symmetry_equiv_pos_as_xyz
  1  'x, y, z'
loop_
 _atom_site_type_symbol
 _atom_site_label
 _atom_site_symmetry_multiplicity
 _atom_site_fract_x
 _atom_site_fract_y
 _atom_site_fract_z
 _atom_site_occupancy
  Mg  Mg0  1  0.49999999  0.49999998  0.49999999  1
  In  In1  1  0.00000000  0.00000000  0.00000000  1
  F  F2  1  0.38006899  0.10564800  0.75470098  1
  F  F3  1  0.10564801  0.75958197  0.75470098  1
  F  F4  1  0.24041800  0.61993098  0.24529899  1
  F  F5  1  0.89435198  0.24041799  0.24529899  1
  F  F6  1  0.61993099  0.89435197  0.24529899  1
  F  F7  1  0.75958198  0.38006899  0.75470098  1
