# generated using pymatgen
data_Lu4Ge5Rh3
_symmetry_space_group_name_H-M   'P 1'
_cell_length_a   4.36050606
_cell_length_b   7.04347277
_cell_length_c   7.10913420
_cell_angle_alpha   90.00000000
_cell_angle_beta   90.00000000
_cell_angle_gamma   90.00000000
_symmetry_Int_Tables_number   1
_chemical_formula_structural   Lu4Ge5Rh3
_chemical_formula_sum   'Lu4 Ge5 Rh3'
_cell_volume   218.34358980
_cell_formula_units_Z   1
loop_
 _symmetry_equiv_pos_site_id
 _symmetry_equiv_pos_as_xyz
  1  'x, y, z'
loop_
 _atom_site_type_symbol
 _atom_site_label
 _atom_site_symmetry_multiplicity
 _atom_site_fract_x
 _atom_site_fract_y
 _atom_site_fract_z
 _atom_site_occupancy
  Lu  Lu0  1  0.25000000  0.98358703  0.81455398  1
  Lu  Lu1  1  0.74999999  0.01641300  0.18544599  1
  Lu  Lu2  1  0.25000000  0.48358702  0.68544598  1
  Lu  Lu3  1  0.74999999  0.51641302  0.31455399  1
  Ge  Ge4  1  0.25000000  0.30592701  0.10556700  1
  Ge  Ge5  1  0.74999999  0.69407302  0.89443298  1
  Rh  Rh6  1  0.25000000  0.80592703  0.39443299  1
  Ge  Ge7  1  0.74999999  0.19407301  0.60556698  1
  Ge  Ge8  1  0.74999999  0.84765803  0.56789098  1
  Rh  Rh9  1  0.25000000  0.15234201  0.43210899  1
  Rh  Rh10  1  0.74999999  0.34765801  0.93210897  1
  Ge  Ge11  1  0.25000000  0.65234202  0.06789100  1
