# generated using pymatgen
data_Cr2Se3
_symmetry_space_group_name_H-M   'P 1'
_cell_length_a   3.26544189
_cell_length_b   6.94340849
_cell_length_c   8.26844597
_cell_angle_alpha   78.94157410
_cell_angle_beta   78.61129761
_cell_angle_gamma   76.39971924
_symmetry_Int_Tables_number   1
_chemical_formula_structural   Cr2Se3
_chemical_formula_sum   'Cr4 Se6'
_cell_volume   176.53694938
_cell_formula_units_Z   2
loop_
 _symmetry_equiv_pos_site_id
 _symmetry_equiv_pos_as_xyz
  1  'x, y, z'
loop_
 _atom_site_type_symbol
 _atom_site_label
 _atom_site_symmetry_multiplicity
 _atom_site_fract_x
 _atom_site_fract_y
 _atom_site_fract_z
 _atom_site_occupancy
  Cr  Cr0  1  0.75196903  0.12438900  0.37167302  1
  Cr  Cr1  1  0.24803108  0.87561097  0.62832700  1
  Cr  Cr2  1  0.64947307  0.56624298  0.13481099  1
  Cr  Cr3  1  0.35052705  0.43375699  0.86518903  1
  Se  Se4  1  0.87273204  0.20751099  0.04702500  1
  Se  Se5  1  0.12726807  0.79248897  0.95297502  1
  Se  Se6  1  0.58539003  0.14362700  0.68559303  1
  Se  Se7  1  0.41461008  0.85637297  0.31440699  1
  Se  Se8  1  0.89536507  0.58045998  0.62881002  1
  Se  Se9  1  0.10463504  0.41953999  0.37119001  1
