# generated using pymatgen
data_Ba5S4
_symmetry_space_group_name_H-M   'P 1'
_cell_length_a   6.93621397
_cell_length_b   9.82996178
_cell_length_c   9.82996178
_cell_angle_alpha   120.00000000
_cell_angle_beta   90.00000000
_cell_angle_gamma   90.00000000
_symmetry_Int_Tables_number   1
_chemical_formula_structural   Ba5S4
_chemical_formula_sum   'Ba10 S8'
_cell_volume   580.43924938
_cell_formula_units_Z   2
loop_
 _symmetry_equiv_pos_site_id
 _symmetry_equiv_pos_as_xyz
  1  'x, y, z'
loop_
 _atom_site_type_symbol
 _atom_site_label
 _atom_site_symmetry_multiplicity
 _atom_site_fract_x
 _atom_site_fract_y
 _atom_site_fract_z
 _atom_site_occupancy
  Ba  Ba0  1  0.75000000  0.26934201  0.00000000  1
  Ba  Ba1  1  0.75000000  0.73065802  0.73065804  1
  Ba  Ba2  1  0.75000000  0.00000000  0.26934201  1
  Ba  Ba3  1  0.25000000  0.73065802  0.00000001  1
  Ba  Ba4  1  0.25000000  0.26934201  0.26934201  1
  Ba  Ba5  1  0.25000000  0.00000000  0.73065803  1
  Ba  Ba6  1  0.50000000  0.33333334  0.66666670  1
  Ba  Ba7  1  0.50000000  0.66666669  0.33333335  1
  Ba  Ba8  1  -0.00000000  0.66666669  0.33333335  1
  Ba  Ba9  1  0.00000000  0.33333334  0.66666670  1
  S  S10  1  0.50000000  0.00000000  -0.00000000  1
  S  S11  1  0.00000000  0.00000000  0.00000000  1
  S  S12  1  0.75000000  0.62145102  0.00000001  1
  S  S13  1  0.75000000  0.37854901  0.37854902  1
  S  S14  1  0.75000000  0.00000000  0.62145102  1
  S  S15  1  0.25000000  0.37854901  0.00000000  1
  S  S16  1  0.25000000  0.62145102  0.62145103  1
  S  S17  1  0.25000000  0.00000000  0.37854901  1
