# generated using pymatgen
data_Na3MoO5
_symmetry_space_group_name_H-M   'P 1'
_cell_length_a   5.39641619
_cell_length_b   5.61798286
_cell_length_c   10.63445854
_cell_angle_alpha   90.00000000
_cell_angle_beta   90.00000000
_cell_angle_gamma   93.28053284
_symmetry_Int_Tables_number   1
_chemical_formula_structural   Na3MoO5
_chemical_formula_sum   'Na6 Mo2 O10'
_cell_volume   321.87628076
_cell_formula_units_Z   2
loop_
 _symmetry_equiv_pos_site_id
 _symmetry_equiv_pos_as_xyz
  1  'x, y, z'
loop_
 _atom_site_type_symbol
 _atom_site_label
 _atom_site_symmetry_multiplicity
 _atom_site_fract_x
 _atom_site_fract_y
 _atom_site_fract_z
 _atom_site_occupancy
  Mo  Mo0  1  0.02385301  0.45250902  0.75665203  1
  Mo  Mo1  1  0.97614697  0.54749102  0.25665201  1
  Na  Na2  1  0.02454901  0.95214004  0.99861104  1
  Na  Na3  1  0.97545097  0.04786000  0.49861102  1
  Na  Na4  1  0.50459298  0.01264700  0.25260701  1
  Na  Na5  1  0.48364699  0.49881702  0.48347202  1
  Na  Na6  1  0.51635299  0.50118302  0.98347204  1
  Na  Na7  1  0.49540700  0.98735304  0.75260703  1
  O  O8  1  0.07176400  0.47164502  0.59217703  1
  O  O9  1  0.62066799  0.90437404  0.95008504  1
  O  O10  1  0.17211600  0.70013303  0.83852504  1
  O  O11  1  0.82788398  0.29986701  0.33852501  1
  O  O12  1  0.92823598  0.52835502  0.09217700  1
  O  O13  1  0.37933199  0.09562600  0.45008502  1
  O  O14  1  0.69946098  0.41480702  0.79051103  1
  O  O15  1  0.16280200  0.19410601  0.81846104  1
  O  O16  1  0.30053900  0.58519302  0.29051101  1
  O  O17  1  0.83719798  0.80589403  0.31846101  1
