# generated using pymatgen
data_EuNiGe2
_symmetry_space_group_name_H-M   'P 1'
_cell_length_a   4.23524284
_cell_length_b   4.27845383
_cell_length_c   9.00192070
_cell_angle_alpha   76.25263977
_cell_angle_beta   90.00000000
_cell_angle_gamma   90.00000000
_symmetry_Int_Tables_number   1
_chemical_formula_structural   EuNiGe2
_chemical_formula_sum   'Eu2 Ni2 Ge4'
_cell_volume   158.44460062
_cell_formula_units_Z   2
loop_
 _symmetry_equiv_pos_site_id
 _symmetry_equiv_pos_as_xyz
  1  'x, y, z'
loop_
 _atom_site_type_symbol
 _atom_site_label
 _atom_site_symmetry_multiplicity
 _atom_site_fract_x
 _atom_site_fract_y
 _atom_site_fract_z
 _atom_site_occupancy
  Eu  Eu0  1  0.25000001  0.89615003  0.20770002  1
  Eu  Eu1  1  0.75000003  0.10385000  0.79230002  1
  Ni  Ni2  1  0.25000001  0.67526502  0.64947002  1
  Ni  Ni3  1  0.75000003  0.32473501  0.35053001  1
  Ge  Ge4  1  0.25000001  0.24913701  0.50172602  1
  Ge  Ge5  1  0.75000003  0.75086302  0.49827402  1
  Ge  Ge6  1  0.25000001  0.53887902  0.92224203  1
  Ge  Ge7  1  0.75000003  0.46112102  0.07775801  1
