# generated using pymatgen
data_Lu(SiAg)4
_symmetry_space_group_name_H-M   'P 1'
_cell_length_a   3.86780000
_cell_length_b   6.62871218
_cell_length_c   6.62871218
_cell_angle_alpha   120.00000000
_cell_angle_beta   90.00000000
_cell_angle_gamma   90.00000000
_symmetry_Int_Tables_number   1
_chemical_formula_structural   Lu(SiAg)4
_chemical_formula_sum   'Lu1 Si4 Ag4'
_cell_volume   147.18141186
_cell_formula_units_Z   1
loop_
 _symmetry_equiv_pos_site_id
 _symmetry_equiv_pos_as_xyz
  1  'x, y, z'
loop_
 _atom_site_type_symbol
 _atom_site_label
 _atom_site_symmetry_multiplicity
 _atom_site_fract_x
 _atom_site_fract_y
 _atom_site_fract_z
 _atom_site_occupancy
  Lu  Lu0  1  0.50000000  0.58604998  0.99999998  1
  Ag  Ag1  1  0.50000000  0.41394999  0.41394999  1
  Ag  Ag2  1  0.50000000  0.00000000  0.58604999  1
  Si  Si3  1  0.00000000  0.23040699  0.99999998  1
  Ag  Ag4  1  1.00000000  0.76959298  0.76959298  1
  Ag  Ag5  1  1.00000000  0.00000000  0.23040699  1
  Si  Si6  1  1.00000000  0.33333332  0.66666665  1
  Si  Si7  1  1.00000000  0.66666665  0.33333333  1
  Si  Si8  1  0.50000000  0.00000000  -0.00000000  1
