# generated using pymatgen
data_MgSi5Pt6
_symmetry_space_group_name_H-M   'P 1'
_cell_length_a   3.46899796
_cell_length_b   6.59589386
_cell_length_c   7.85111380
_cell_angle_alpha   90.00000000
_cell_angle_beta   90.00000000
_cell_angle_gamma   90.00000000
_symmetry_Int_Tables_number   1
_chemical_formula_structural   MgSi5Pt6
_chemical_formula_sum   'Mg1 Si5 Pt6'
_cell_volume   179.64245209
_cell_formula_units_Z   1
loop_
 _symmetry_equiv_pos_site_id
 _symmetry_equiv_pos_as_xyz
  1  'x, y, z'
loop_
 _atom_site_type_symbol
 _atom_site_label
 _atom_site_symmetry_multiplicity
 _atom_site_fract_x
 _atom_site_fract_y
 _atom_site_fract_z
 _atom_site_occupancy
  Mg  Mg0  1  0.25000000  0.03936000  0.83019102  1
  Pt  Pt1  1  0.25000000  0.53936001  0.66980902  1
  Si  Si2  1  0.75000001  0.96064002  0.16980900  1
  Pt  Pt3  1  0.75000001  0.46064001  0.33019101  1
  Pt  Pt4  1  0.25000000  0.13053400  0.44051101  1
  Pt  Pt5  1  0.25000000  0.63053401  0.05948900  1
  Pt  Pt6  1  0.75000001  0.86946602  0.55948901  1
  Pt  Pt7  1  0.75000001  0.36946601  0.94051102  1
  Si  Si8  1  0.25000000  0.76058802  0.36349301  1
  Si  Si9  1  0.25000000  0.26058801  0.13650700  1
  Si  Si10  1  0.75000001  0.23941201  0.63650702  1
  Si  Si11  1  0.75000001  0.73941202  0.86349302  1
