# generated using pymatgen
data_HoGe2
_symmetry_space_group_name_H-M   'P 1'
_cell_length_a   4.53130579
_cell_length_b   7.21553278
_cell_length_c   7.21641588
_cell_angle_alpha   90.00000000
_cell_angle_beta   90.00000000
_cell_angle_gamma   90.00000000
_symmetry_Int_Tables_number   1
_chemical_formula_structural   HoGe2
_chemical_formula_sum   'Ho4 Ge8'
_cell_volume   235.94638549
_cell_formula_units_Z   4
loop_
 _symmetry_equiv_pos_site_id
 _symmetry_equiv_pos_as_xyz
  1  'x, y, z'
loop_
 _atom_site_type_symbol
 _atom_site_label
 _atom_site_symmetry_multiplicity
 _atom_site_fract_x
 _atom_site_fract_y
 _atom_site_fract_z
 _atom_site_occupancy
  Ho  Ho0  1  0.25000001  0.18825801  0.97936902  1
  Ho  Ho1  1  0.75000003  0.81174202  0.02063100  1
  Ho  Ho2  1  0.75000003  0.68825802  0.52063101  1
  Ho  Ho3  1  0.25000001  0.31174201  0.47936901  1
  Ge  Ge4  1  0.25000001  0.89398103  0.30273300  1
  Ge  Ge5  1  0.75000003  0.10601900  0.69726701  1
  Ge  Ge6  1  0.75000003  0.39398101  0.19726700  1
  Ge  Ge7  1  0.25000001  0.60601902  0.80273301  1
  Ge  Ge8  1  0.25000001  0.56690302  0.15149700  1
  Ge  Ge9  1  0.75000003  0.43309701  0.84850301  1
  Ge  Ge10  1  0.75000003  0.06690300  0.34850301  1
  Ge  Ge11  1  0.25000001  0.93309703  0.65149701  1
