# generated using pymatgen
data_Bi
_symmetry_space_group_name_H-M   'P 1'
_cell_length_a   7.26400995
_cell_length_b   7.26400995
_cell_length_c   7.26400995
_cell_angle_alpha   109.47122192
_cell_angle_beta   109.47122192
_cell_angle_gamma   109.47122192
_symmetry_Int_Tables_number   1
_chemical_formula_structural   Bi
_chemical_formula_sum   Bi8
_cell_volume   295.05799040
_cell_formula_units_Z   8
loop_
 _symmetry_equiv_pos_site_id
 _symmetry_equiv_pos_as_xyz
  1  'x, y, z'
loop_
 _atom_site_type_symbol
 _atom_site_label
 _atom_site_symmetry_multiplicity
 _atom_site_fract_x
 _atom_site_fract_y
 _atom_site_fract_z
 _atom_site_occupancy
  Bi  Bi0  1  0.55301603  0.55301601  0.05301604  1
  Bi  Bi1  1  1.00000002  0.50000001  0.44698404  1
  Bi  Bi2  1  0.50000002  0.44698401  0.50000002  1
  Bi  Bi3  1  0.00000003  0.50000001  0.94698401  1
  Bi  Bi4  1  0.50000005  0.94698402  0.50000005  1
  Bi  Bi5  1  0.05301600  0.05301600  0.55301599  1
  Bi  Bi6  1  0.44698399  0.00000000  0.00000001  1
  Bi  Bi7  1  0.94698399  0.00000000  0.00000002  1
