# generated using pymatgen
data_Nd2Co11BP4
_symmetry_space_group_name_H-M   'P 1'
_cell_length_a   5.35058308
_cell_length_b   5.35058308
_cell_length_c   7.51426601
_cell_angle_alpha   90.00000000
_cell_angle_beta   90.00000000
_cell_angle_gamma   90.00000000
_symmetry_Int_Tables_number   1
_chemical_formula_structural   Nd2Co11BP4
_chemical_formula_sum   'Nd2 Co11 B1 P4'
_cell_volume   215.12396244
_cell_formula_units_Z   1
loop_
 _symmetry_equiv_pos_site_id
 _symmetry_equiv_pos_as_xyz
  1  'x, y, z'
loop_
 _atom_site_type_symbol
 _atom_site_label
 _atom_site_symmetry_multiplicity
 _atom_site_fract_x
 _atom_site_fract_y
 _atom_site_fract_z
 _atom_site_occupancy
  Nd  Nd0  1  0.00000000  0.00000000  0.50000000  1
  Nd  Nd1  1  0.49999999  0.49999999  -0.00000000  1
  B  B2  1  0.32928300  0.00000000  0.14819800  1
  Co  Co3  1  0.67071699  0.00000000  0.14819800  1
  Co  Co4  1  0.49999999  0.83327699  0.65066100  1
  Co  Co5  1  0.49999999  0.16672300  0.65066100  1
  Co  Co6  1  0.16672300  0.49999999  0.34933900  1
  Co  Co7  1  0.83327699  0.49999999  0.34933900  1
  Co  Co8  1  0.00000000  0.67071699  0.85180200  1
  Co  Co9  1  0.00000000  0.32928300  0.85180200  1
  Co  Co10  1  0.74900999  0.00000000  0.85878500  1
  Co  Co11  1  0.25099000  0.00000000  0.85878500  1
  P  P12  1  0.49999999  0.25176100  0.34751300  1
  P  P13  1  0.49999999  0.74823899  0.34751300  1
  P  P14  1  0.74823899  0.49999999  0.65248700  1
  P  P15  1  0.25176100  0.49999999  0.65248700  1
  Co  Co16  1  0.00000000  0.25099000  0.14121500  1
  Co  Co17  1  0.00000000  0.74900999  0.14121500  1
