# generated using pymatgen
data_Na3La(Cu2O5)2
_symmetry_space_group_name_H-M   'P 1'
_cell_length_a   5.33166409
_cell_length_b   5.67215204
_cell_length_c   8.64454079
_cell_angle_alpha   109.15210724
_cell_angle_beta   107.96183014
_cell_angle_gamma   90.00000000
_symmetry_Int_Tables_number   1
_chemical_formula_structural   Na3La(Cu2O5)2
_chemical_formula_sum   'Na3 La1 Cu4 O10'
_cell_volume   233.42853730
_cell_formula_units_Z   1
loop_
 _symmetry_equiv_pos_site_id
 _symmetry_equiv_pos_as_xyz
  1  'x, y, z'
loop_
 _atom_site_type_symbol
 _atom_site_label
 _atom_site_symmetry_multiplicity
 _atom_site_fract_x
 _atom_site_fract_y
 _atom_site_fract_z
 _atom_site_occupancy
  La  La0  1  0.61322300  0.08548700  0.22090902  1
  Na  Na1  1  0.39231503  0.91451300  0.77909204  1
  Na  Na2  1  0.11322402  0.63542200  0.22091002  1
  Na  Na3  1  0.89231401  0.36457800  0.77909104  1
  Cu  Cu4  1  0.01146303  1.00000001  1.00000003  1
  Cu  Cu5  1  0.51146301  0.50000000  0.00000003  1
  Cu  Cu6  1  0.21709501  0.31703300  0.50000001  1
  Cu  Cu7  1  0.71709402  0.68296700  0.49999904  1
  O  O8  1  0.24284002  0.73002800  0.96885203  1
  O  O9  1  0.27398801  0.26997200  0.03114801  1
  O  O10  1  0.74284002  0.73882400  0.96885204  1
  O  O11  1  0.77398801  0.26117600  0.03114803  1
  O  O12  1  0.17527100  0.06663200  0.27501501  1
  O  O13  1  0.90025603  0.93336800  0.72498505  1
  O  O14  1  0.67527102  0.70838300  0.27501504  1
  O  O15  1  0.40025601  0.29161700  0.72498502  1
  O  O16  1  0.83754901  0.35414500  0.50000003  1
  O  O17  1  0.33755002  0.64585500  0.50000103  1
