# generated using pymatgen
data_BaInO2
_symmetry_space_group_name_H-M   'P 1'
_cell_length_a   5.70647573
_cell_length_b   5.70647573
_cell_length_c   6.08178425
_cell_angle_alpha   113.47110748
_cell_angle_beta   113.47110748
_cell_angle_gamma   91.98222351
_symmetry_Int_Tables_number   1
_chemical_formula_structural   BaInO2
_chemical_formula_sum   'Ba2 In2 O4'
_cell_volume   162.17632760
_cell_formula_units_Z   2
loop_
 _symmetry_equiv_pos_site_id
 _symmetry_equiv_pos_as_xyz
  1  'x, y, z'
loop_
 _atom_site_type_symbol
 _atom_site_label
 _atom_site_symmetry_multiplicity
 _atom_site_fract_x
 _atom_site_fract_y
 _atom_site_fract_z
 _atom_site_occupancy
  Ba  Ba0  1  0.13133902  0.86866099  0.74999997  1
  Ba  Ba1  1  0.86866098  0.13133900  0.24999995  1
  In  In2  1  0.40083401  0.59916599  0.24999996  1
  In  In3  1  0.59916600  0.40083399  0.74999996  1
  O  O4  1  0.75988800  0.62485099  0.22187494  1
  O  O5  1  0.37514900  0.24011200  0.27812497  1
  O  O6  1  0.62485101  0.75988799  0.72187495  1
  O  O7  1  0.24011200  0.37514899  0.77812498  1
