# generated using pymatgen
data_Tb3Ga11Co2
_symmetry_space_group_name_H-M   'P 1'
_cell_length_a   5.55503607
_cell_length_b   6.96498919
_cell_length_c   7.36034012
_cell_angle_alpha   90.00000000
_cell_angle_beta   90.00000000
_cell_angle_gamma   90.00000000
_symmetry_Int_Tables_number   1
_chemical_formula_structural   Tb3Ga11Co2
_chemical_formula_sum   'Tb3 Ga11 Co2'
_cell_volume   284.77719821
_cell_formula_units_Z   1
loop_
 _symmetry_equiv_pos_site_id
 _symmetry_equiv_pos_as_xyz
  1  'x, y, z'
loop_
 _atom_site_type_symbol
 _atom_site_label
 _atom_site_symmetry_multiplicity
 _atom_site_fract_x
 _atom_site_fract_y
 _atom_site_fract_z
 _atom_site_occupancy
  Tb  Tb0  1  0.36228000  0.74999998  0.02778000  1
  Ga  Ga1  1  0.13772000  0.74999998  0.52777999  1
  Tb  Tb2  1  0.63771999  0.24999999  0.97221998  1
  Tb  Tb3  1  0.86227999  0.24999999  0.47221999  1
  Ga  Ga4  1  0.63877899  0.74999998  0.38032799  1
  Ga  Ga5  1  0.86122099  0.74999998  0.88032799  1
  Co  Co6  1  0.36122100  0.24999999  0.61967199  1
  Co  Co7  1  0.13877900  0.24999999  0.11967200  1
  Ga  Ga8  1  0.90809799  0.55058799  0.18115900  1
  Ga  Ga9  1  0.59190199  0.94941197  0.68115899  1
  Ga  Ga10  1  0.09190200  0.05058800  0.81884099  1
  Ga  Ga11  1  0.40809800  0.44941199  0.31884099  1
  Ga  Ga12  1  0.09190200  0.44941199  0.81884099  1
  Ga  Ga13  1  0.40809800  0.05058800  0.31884099  1
  Ga  Ga14  1  0.90809799  0.94941197  0.18115900  1
  Ga  Ga15  1  0.59190199  0.55058799  0.68115899  1
