# generated using pymatgen
data_NdLuSe4
_symmetry_space_group_name_H-M   'P 1'
_cell_length_a   4.24412298
_cell_length_b   7.23897982
_cell_length_c   7.23897982
_cell_angle_alpha   90.00000000
_cell_angle_beta   90.00000000
_cell_angle_gamma   90.00000000
_symmetry_Int_Tables_number   1
_chemical_formula_structural   NdLuSe4
_chemical_formula_sum   'Nd1 Lu1 Se4'
_cell_volume   222.40404996
_cell_formula_units_Z   1
loop_
 _symmetry_equiv_pos_site_id
 _symmetry_equiv_pos_as_xyz
  1  'x, y, z'
loop_
 _atom_site_type_symbol
 _atom_site_label
 _atom_site_symmetry_multiplicity
 _atom_site_fract_x
 _atom_site_fract_y
 _atom_site_fract_z
 _atom_site_occupancy
  Lu  Lu0  1  0.00000000  0.00000000  0.00000000  1
  Nd  Nd1  1  0.50000000  0.50000001  0.50000001  1
  Se  Se2  1  0.00000000  0.29459301  0.29459301  1
  Se  Se3  1  0.00000000  0.70540702  0.70540702  1
  Se  Se4  1  0.50000000  0.20540701  0.79459302  1
  Se  Se5  1  0.50000000  0.79459302  0.20540701  1
