# generated using pymatgen
data_Ge2O3
_symmetry_space_group_name_H-M   'P 1'
_cell_length_a   3.10313392
_cell_length_b   4.86317778
_cell_length_c   5.46675682
_cell_angle_alpha   116.41025543
_cell_angle_beta   106.48824310
_cell_angle_gamma   90.00000000
_symmetry_Int_Tables_number   1
_chemical_formula_structural   Ge2O3
_chemical_formula_sum   'Ge2 O3'
_cell_volume   70.08093335
_cell_formula_units_Z   1
loop_
 _symmetry_equiv_pos_site_id
 _symmetry_equiv_pos_as_xyz
  1  'x, y, z'
loop_
 _atom_site_type_symbol
 _atom_site_label
 _atom_site_symmetry_multiplicity
 _atom_site_fract_x
 _atom_site_fract_y
 _atom_site_fract_z
 _atom_site_occupancy
  Ge  Ge0  1  0.67387503  0.42364801  0.34775100  1
  Ge  Ge1  1  0.32612401  0.07589700  0.65224801  1
  O  O2  1  0.19782601  0.24401601  0.39565200  1
  O  O3  1  0.80217404  0.84836402  0.60434799  1
  O  O4  1  0.50000003  0.40756801  -0.00000000  1
