# generated using pymatgen
data_Ba2La2B2I(Br2N)2
_symmetry_space_group_name_H-M   'P 1'
_cell_length_a   4.36081600
_cell_length_b   9.99765778
_cell_length_c   10.45510769
_cell_angle_alpha   107.92779541
_cell_angle_beta   90.00000000
_cell_angle_gamma   102.59698486
_symmetry_Int_Tables_number   1
_chemical_formula_structural   Ba2La2B2I(Br2N)2
_chemical_formula_sum   'Ba2 La2 B2 I1 Br4 N2'
_cell_volume   422.14160965
_cell_formula_units_Z   1
loop_
 _symmetry_equiv_pos_site_id
 _symmetry_equiv_pos_as_xyz
  1  'x, y, z'
loop_
 _atom_site_type_symbol
 _atom_site_label
 _atom_site_symmetry_multiplicity
 _atom_site_fract_x
 _atom_site_fract_y
 _atom_site_fract_z
 _atom_site_occupancy
  Ba  Ba0  1  0.48994602  0.97989204  0.74935396  1
  La  La1  1  0.50976200  0.01952400  0.25046499  1
  Ba  Ba2  1  0.86471102  0.72942203  0.93281295  1
  La  La3  1  0.13521401  0.27042801  0.06712599  1
  N  N4  1  0.68412200  0.00004800  0.00008000  1
  B  B5  1  0.31592600  0.00004800  0.00008000  1
  B  B6  1  0.00306400  0.00612800  0.09486600  1
  N  N7  1  0.99711302  0.99422604  0.90540495  1
  Br  Br8  1  0.31348202  0.62696402  0.68053196  1
  Br  Br9  1  0.68642101  0.37284201  0.31987398  1
  Br  Br10  1  0.67027501  0.34055001  0.85059496  1
  I  I11  1  0.32929602  0.65859203  0.14807798  1
  Br  Br12  1  0.98636802  0.97273604  0.49093197  1
