# generated using pymatgen
data_Li9(CoO4)2
_symmetry_space_group_name_H-M   'P 1'
_cell_length_a   4.08198929
_cell_length_b   6.49437523
_cell_length_c   7.45733833
_cell_angle_alpha   106.70179749
_cell_angle_beta   105.88391876
_cell_angle_gamma   90.00000000
_symmetry_Int_Tables_number   1
_chemical_formula_structural   Li9(CoO4)2
_chemical_formula_sum   'Li9 Co2 O8'
_cell_volume   181.45889296
_cell_formula_units_Z   1
loop_
 _symmetry_equiv_pos_site_id
 _symmetry_equiv_pos_as_xyz
  1  'x, y, z'
loop_
 _atom_site_type_symbol
 _atom_site_label
 _atom_site_symmetry_multiplicity
 _atom_site_fract_x
 _atom_site_fract_y
 _atom_site_fract_z
 _atom_site_occupancy
  Li  Li0  1  0.50000000  0.49999998  0.00000001  1
  Li  Li1  1  0.04316700  0.22333699  0.08633400  1
  Li  Li2  1  0.95683299  0.77666297  0.91366600  1
  Li  Li3  1  0.32081300  0.57569098  0.64162498  1
  Li  Li4  1  0.67918699  0.42430898  0.35837501  1
  Li  Li5  1  0.40190300  0.02867100  0.80380799  1
  Li  Li6  1  0.59809700  0.97132896  0.19619200  1
  Li  Li7  1  0.85620499  0.29114599  0.71241101  1
  Li  Li8  1  0.14379500  0.70885397  0.28758898  1
  Co  Co9  1  0.22030000  0.18089499  0.44060099  1
  Co  Co10  1  0.77969999  0.81910497  0.55939900  1
  O  O11  1  0.09908900  0.96384296  0.19817898  1
  O  O12  1  0.90091099  0.03615700  0.80182101  1
  O  O13  1  0.17785800  0.42929598  0.35571499  1
  O  O14  1  0.82214199  0.57070398  0.64428500  1
  O  O15  1  0.35825000  0.29595999  0.71649999  1
  O  O16  1  0.64175000  0.70403997  0.28350000  1
  O  O17  1  0.54373300  0.23386799  0.08746501  1
  O  O18  1  0.45626700  0.76613197  0.91253498  1
