# generated using pymatgen
data_Mg7Ga
_symmetry_space_group_name_H-M   'P 1'
_cell_length_a   5.04770803
_cell_length_b   6.31479979
_cell_length_c   6.31479979
_cell_angle_alpha   120.00000000
_cell_angle_beta   90.00000000
_cell_angle_gamma   90.00000000
_symmetry_Int_Tables_number   1
_chemical_formula_structural   Mg7Ga
_chemical_formula_sum   'Mg7 Ga1'
_cell_volume   174.31872055
_cell_formula_units_Z   1
loop_
 _symmetry_equiv_pos_site_id
 _symmetry_equiv_pos_as_xyz
  1  'x, y, z'
loop_
 _atom_site_type_symbol
 _atom_site_label
 _atom_site_symmetry_multiplicity
 _atom_site_fract_x
 _atom_site_fract_y
 _atom_site_fract_z
 _atom_site_occupancy
  Mg  Mg0  1  0.25000000  0.17140100  0.34280200  1
  Mg  Mg1  1  0.25000000  0.65719702  0.82859799  1
  Mg  Mg2  1  0.25000000  0.17140100  0.82859800  1
  Ga  Ga3  1  0.74999999  0.82859902  0.65719799  1
  Mg  Mg4  1  0.74999999  0.34280301  0.17140199  1
  Mg  Mg5  1  0.74999999  0.82859902  0.17140198  1
  Mg  Mg6  1  0.74999999  0.33333334  0.66666666  1
  Mg  Mg7  1  0.25000000  0.66666668  0.33333332  1
