# generated using pymatgen
data_In3S4
_symmetry_space_group_name_H-M   'P 1'
_cell_length_a   7.59681559
_cell_length_b   7.59919310
_cell_length_c   7.61653757
_cell_angle_alpha   60.88375473
_cell_angle_beta   60.75478363
_cell_angle_gamma   60.84790802
_symmetry_Int_Tables_number   1
_chemical_formula_structural   In3S4
_chemical_formula_sum   'In6 S8'
_cell_volume   316.72530125
_cell_formula_units_Z   2
loop_
 _symmetry_equiv_pos_site_id
 _symmetry_equiv_pos_as_xyz
  1  'x, y, z'
loop_
 _atom_site_type_symbol
 _atom_site_label
 _atom_site_symmetry_multiplicity
 _atom_site_fract_x
 _atom_site_fract_y
 _atom_site_fract_z
 _atom_site_occupancy
  In  In0  1  0.49998997  0.50001201  0.50001501  1
  In  In1  1  0.50001396  0.99998802  0.99999800  1
  In  In2  1  0.99999197  0.00000200  0.49999600  1
  In  In3  1  0.12459798  0.62462901  0.12475201  1
  In  In4  1  0.87541097  0.37537101  0.87525400  1
  In  In5  1  0.49999099  0.00001100  0.49999199  1
  S  S6  1  0.26709399  0.22720601  0.26736900  1
  S  S7  1  0.73224297  0.23229601  0.27302901  1
  S  S8  1  0.74447897  0.24432001  0.74449400  1
  S  S9  1  0.27296799  0.23254601  0.73228999  1
  S  S10  1  0.25553697  0.75567002  0.25551002  1
  S  S11  1  0.72703496  0.76744002  0.26770802  1
  S  S12  1  0.73290696  0.77278702  0.73262501  1
  S  S13  1  0.26773697  0.76772202  0.72696700  1
