# generated using pymatgen
data_La4Mg3RuO12
_symmetry_space_group_name_H-M   'P 1'
_cell_length_a   5.45761108
_cell_length_b   5.59719181
_cell_length_c   7.82960463
_cell_angle_alpha   90.00000000
_cell_angle_beta   90.53353882
_cell_angle_gamma   90.00000000
_symmetry_Int_Tables_number   1
_chemical_formula_structural   La4Mg3RuO12
_chemical_formula_sum   'La4 Mg3 Ru1 O12'
_cell_volume   239.16288087
_cell_formula_units_Z   1
loop_
 _symmetry_equiv_pos_site_id
 _symmetry_equiv_pos_as_xyz
  1  'x, y, z'
loop_
 _atom_site_type_symbol
 _atom_site_label
 _atom_site_symmetry_multiplicity
 _atom_site_fract_x
 _atom_site_fract_y
 _atom_site_fract_z
 _atom_site_occupancy
  La  La0  1  0.48826499  0.05225500  0.75421200  1
  La  La1  1  0.01173500  0.55225502  0.74578798  1
  La  La2  1  0.51173499  0.94774503  0.24578801  1
  La  La3  1  0.98826499  0.44774502  0.25421202  1
  Mg  Mg4  1  0.00000000  0.00000000  0.49999999  1
  Mg  Mg5  1  0.49999999  0.50000002  0.00000001  1
  Mg  Mg6  1  0.00000000  0.00000000  0.00000000  1
  Ru  Ru7  1  0.49999999  0.50000002  0.50000000  1
  O  O8  1  0.19964900  0.29450001  0.54868199  1
  O  O9  1  0.30035100  0.79450003  0.95131799  1
  O  O10  1  0.80035099  0.70550002  0.45131801  1
  O  O11  1  0.69964899  0.20550001  0.04868202  1
  O  O12  1  0.69230999  0.21465401  0.45181801  1
  O  O13  1  0.80768999  0.71465402  0.04818202  1
  O  O14  1  0.30769000  0.78534603  0.54818200  1
  O  O15  1  0.19231000  0.28534601  0.95181798  1
  O  O16  1  0.59198499  0.47066002  0.75189400  1
  O  O17  1  0.90801499  0.97066003  0.74810601  1
  O  O18  1  0.09198500  0.02934000  0.25189400  1
  O  O19  1  0.40801499  0.52934002  0.24810601  1
