# generated using pymatgen
data_Mn3OF6
_symmetry_space_group_name_H-M   'P 1'
_cell_length_a   5.22515774
_cell_length_b   7.31995821
_cell_length_c   7.87191010
_cell_angle_alpha   117.70645142
_cell_angle_beta   104.41844177
_cell_angle_gamma   90.00000000
_symmetry_Int_Tables_number   1
_chemical_formula_structural   Mn3OF6
_chemical_formula_sum   'Mn6 O2 F12'
_cell_volume   255.80251198
_cell_formula_units_Z   2
loop_
 _symmetry_equiv_pos_site_id
 _symmetry_equiv_pos_as_xyz
  1  'x, y, z'
loop_
 _atom_site_type_symbol
 _atom_site_label
 _atom_site_symmetry_multiplicity
 _atom_site_fract_x
 _atom_site_fract_y
 _atom_site_fract_z
 _atom_site_occupancy
  Mn  Mn0  1  0.75000004  0.47981300  1.00000001  1
  Mn  Mn1  1  0.25000002  0.52018700  1.00000001  1
  Mn  Mn2  1  0.25830901  0.01366100  0.66503798  1
  Mn  Mn3  1  0.75830904  0.65137701  0.66503803  1
  Mn  Mn4  1  0.74169105  0.98633901  0.33496207  1
  Mn  Mn5  1  0.24169102  0.34862300  0.33496202  1
  O  O6  1  0.44542902  0.27747300  0.89136100  1
  F  F7  1  0.94542905  0.61388801  0.89136103  1
  F  F8  1  0.50924104  0.84889301  0.76071405  1
  F  F9  1  0.00924103  0.91182101  0.76071405  1
  F  F10  1  0.99165903  0.18828700  0.60593700  1
  F  F11  1  0.49165903  0.41765000  0.60593702  1
  F  F12  1  0.50000001  0.00000000  0.49999999  1
  F  F13  1  1.00000004  0.50000000  0.50000003  1
  F  F14  1  0.50834103  0.58235001  0.39406304  1
  F  F15  1  0.00834103  0.81171301  0.39406305  1
  F  F16  1  0.49075902  0.15110700  0.23928601  1
  F  F17  1  0.99075903  0.08817900  0.23928600  1
  F  F18  1  0.55457104  0.72252701  0.10863905  1
  O  O19  1  0.05457101  0.38611200  0.10863903  1
