# generated using pymatgen
data_AgF
_symmetry_space_group_name_H-M   'P 1'
_cell_length_a   3.09384799
_cell_length_b   6.30874157
_cell_length_c   6.48940754
_cell_angle_alpha   107.84503937
_cell_angle_beta   103.79075623
_cell_angle_gamma   90.00000000
_symmetry_Int_Tables_number   1
_chemical_formula_structural   AgF
_chemical_formula_sum   'Ag4 F4'
_cell_volume   116.72646701
_cell_formula_units_Z   4
loop_
 _symmetry_equiv_pos_site_id
 _symmetry_equiv_pos_as_xyz
  1  'x, y, z'
loop_
 _atom_site_type_symbol
 _atom_site_label
 _atom_site_symmetry_multiplicity
 _atom_site_fract_x
 _atom_site_fract_y
 _atom_site_fract_z
 _atom_site_occupancy
  Ag  Ag0  1  0.00000001  0.50000002  0.00000002  1
  F  F1  1  0.50000000  0.00000000  1.00000004  1
  Ag  Ag2  1  0.73484303  0.78935004  0.46968605  1
  F  F3  1  0.26515701  0.21065001  0.53031403  1
  Ag  Ag4  1  0.43863101  0.27779401  0.87726204  1
  Ag  Ag5  1  0.09839401  0.16787901  0.19678801  1
  F  F6  1  0.90160603  0.83212104  0.80321206  1
  F  F7  1  0.56136902  0.72220603  0.12273803  1
