# generated using pymatgen
data_TbGa3
_symmetry_space_group_name_H-M   'P 1'
_cell_length_a   4.32791519
_cell_length_b   4.32791519
_cell_length_c   9.74529362
_cell_angle_alpha   90.00000000
_cell_angle_beta   90.00000000
_cell_angle_gamma   90.00000000
_symmetry_Int_Tables_number   1
_chemical_formula_structural   TbGa3
_chemical_formula_sum   'Tb2 Ga6'
_cell_volume   182.53763204
_cell_formula_units_Z   2
loop_
 _symmetry_equiv_pos_site_id
 _symmetry_equiv_pos_as_xyz
  1  'x, y, z'
loop_
 _atom_site_type_symbol
 _atom_site_label
 _atom_site_symmetry_multiplicity
 _atom_site_fract_x
 _atom_site_fract_y
 _atom_site_fract_z
 _atom_site_occupancy
  Tb  Tb0  1  0.00000000  0.49999998  0.75076303  1
  Tb  Tb1  1  0.49999998  0.00000000  0.24923701  1
  Ga  Ga2  1  0.00000000  0.00000000  0.50000002  1
  Ga  Ga3  1  0.49999998  0.49999998  0.50000002  1
  Ga  Ga4  1  0.00000000  0.00000000  0.00000000  1
  Ga  Ga5  1  0.49999998  0.49999998  -0.00000000  1
  Ga  Ga6  1  0.00000000  0.49999998  0.31000301  1
  Ga  Ga7  1  0.49999998  0.00000000  0.68999703  1
