# generated using pymatgen
data_BaInS2
_symmetry_space_group_name_H-M   'P 1'
_cell_length_a   4.22594213
_cell_length_b   7.46260786
_cell_length_c   14.26382732
_cell_angle_alpha   90.00000000
_cell_angle_beta   90.00000000
_cell_angle_gamma   90.00000000
_symmetry_Int_Tables_number   1
_chemical_formula_structural   BaInS2
_chemical_formula_sum   'Ba4 In4 S8'
_cell_volume   449.83188924
_cell_formula_units_Z   4
loop_
 _symmetry_equiv_pos_site_id
 _symmetry_equiv_pos_as_xyz
  1  'x, y, z'
loop_
 _atom_site_type_symbol
 _atom_site_label
 _atom_site_symmetry_multiplicity
 _atom_site_fract_x
 _atom_site_fract_y
 _atom_site_fract_z
 _atom_site_occupancy
  Ba  Ba0  1  0.74999998  0.15470000  0.64036999  1
  Ba  Ba1  1  0.24999999  0.84530002  0.35962999  1
  Ba  Ba2  1  0.74999998  0.65470001  0.85962998  1
  Ba  Ba3  1  0.24999999  0.34530001  0.14037000  1
  In  In4  1  0.74999998  0.32665801  0.38127899  1
  In  In5  1  0.74999998  0.82665802  0.11872100  1
  In  In6  1  0.24999999  0.67334201  0.61872099  1
  In  In7  1  0.24999999  0.17334200  0.88127898  1
  S  S8  1  0.74999998  0.26389900  0.96993698  1
  S  S9  1  0.24999999  0.73610101  0.03006300  1
  S  S10  1  0.74999998  0.76389901  0.53006299  1
  S  S11  1  0.24999999  0.23610100  0.46993699  1
  S  S12  1  0.24999999  0.42285501  0.73777598  1
  S  S13  1  0.74999998  0.07714500  0.23777599  1
  S  S14  1  0.24999999  0.92285502  0.76222398  1
  S  S15  1  0.74999998  0.57714501  0.26222399  1
