# generated using pymatgen
data_Sr2Co2O5
_symmetry_space_group_name_H-M   'P 1'
_cell_length_a   3.90308404
_cell_length_b   5.48735285
_cell_length_c   10.62791538
_cell_angle_alpha   89.85411835
_cell_angle_beta   90.00000000
_cell_angle_gamma   90.00000000
_symmetry_Int_Tables_number   1
_chemical_formula_structural   Sr2Co2O5
_chemical_formula_sum   'Sr4 Co4 O10'
_cell_volume   227.62369547
_cell_formula_units_Z   2
loop_
 _symmetry_equiv_pos_site_id
 _symmetry_equiv_pos_as_xyz
  1  'x, y, z'
loop_
 _atom_site_type_symbol
 _atom_site_label
 _atom_site_symmetry_multiplicity
 _atom_site_fract_x
 _atom_site_fract_y
 _atom_site_fract_z
 _atom_site_occupancy
  Sr  Sr0  1  0.49999999  0.19776801  0.13830300  1
  Sr  Sr1  1  0.49999999  0.80645402  0.86583301  1
  Sr  Sr2  1  0.49999999  0.68981202  0.35628701  1
  Sr  Sr3  1  0.49999999  0.30703701  0.63870901  1
  Co  Co4  1  0.00000000  0.21077201  0.39232600  1
  Co  Co5  1  0.00000000  0.79073402  0.60567201  1
  Co  Co6  1  0.00000000  0.71178202  0.10868501  1
  Co  Co7  1  0.00000000  0.28988101  0.89377901  1
  O  O8  1  0.49999999  0.21338901  0.40194500  1
  O  O9  1  0.49999999  0.78516302  0.60327601  1
  O  O10  1  0.49999999  0.70976202  0.10158001  1
  O  O11  1  0.49999999  0.28843301  0.88822701  1
  O  O12  1  0.00000000  0.49741301  0.50211501  1
  O  O13  1  0.00000000  0.98539803  0.99043901  1
  O  O14  1  0.00000000  0.45244601  0.22638900  1
  O  O15  1  0.00000000  0.56528802  0.78498801  1
  O  O16  1  0.00000000  0.93205003  0.28950001  1
  O  O17  1  0.00000000  0.06642000  0.71194700  1
