# generated using pymatgen
data_Hg
_symmetry_space_group_name_H-M   'P 1'
_cell_length_a   5.47131681
_cell_length_b   6.86429405
_cell_length_c   6.86429405
_cell_angle_alpha   60.00000000
_cell_angle_beta   90.00000000
_cell_angle_gamma   90.00000000
_symmetry_Int_Tables_number   1
_chemical_formula_structural   Hg
_chemical_formula_sum   Hg8
_cell_volume   223.26171366
_cell_formula_units_Z   8
loop_
 _symmetry_equiv_pos_site_id
 _symmetry_equiv_pos_as_xyz
  1  'x, y, z'
loop_
 _atom_site_type_symbol
 _atom_site_label
 _atom_site_symmetry_multiplicity
 _atom_site_fract_x
 _atom_site_fract_y
 _atom_site_fract_z
 _atom_site_occupancy
  Hg  Hg0  1  0.75000003  0.66328699  0.16835700  1
  Hg  Hg1  1  0.75000003  0.16835600  0.66328800  1
  Hg  Hg2  1  0.75000003  0.16835600  0.16835700  1
  Hg  Hg3  1  0.25000001  0.83164399  0.83164299  1
  Hg  Hg4  1  0.25000001  0.83164399  0.33671200  1
  Hg  Hg5  1  0.25000001  0.33671300  0.83164299  1
  Hg  Hg6  1  0.75000003  0.66666666  0.66666666  1
  Hg  Hg7  1  0.25000001  0.33333333  0.33333333  1
