# generated using pymatgen
data_LuCuS2
_symmetry_space_group_name_H-M   'P 1'
_cell_length_a   6.45763016
_cell_length_b   7.19878912
_cell_length_c   6.89906120
_cell_angle_alpha   90.00000000
_cell_angle_beta   82.19664001
_cell_angle_gamma   90.00000000
_symmetry_Int_Tables_number   1
_chemical_formula_structural   LuCuS2
_chemical_formula_sum   'Lu4 Cu4 S8'
_cell_volume   317.74758803
_cell_formula_units_Z   4
loop_
 _symmetry_equiv_pos_site_id
 _symmetry_equiv_pos_as_xyz
  1  'x, y, z'
loop_
 _atom_site_type_symbol
 _atom_site_label
 _atom_site_symmetry_multiplicity
 _atom_site_fract_x
 _atom_site_fract_y
 _atom_site_fract_z
 _atom_site_occupancy
  Lu  Lu0  1  0.31100099  0.44808999  0.80048200  1
  Lu  Lu1  1  0.68899898  0.94808998  0.69951801  1
  Lu  Lu2  1  0.68899898  0.55190999  0.19951801  1
  Lu  Lu3  1  0.31100099  0.05191000  0.30048200  1
  Cu  Cu4  1  0.93075997  0.16630100  0.03890802  1
  Cu  Cu5  1  0.06924000  0.83369899  0.96109199  1
  Cu  Cu6  1  0.06924000  0.66630099  0.46109200  1
  Cu  Cu7  1  0.93075997  0.33369899  0.53890801  1
  S  S8  1  0.09051000  0.11641800  0.71675000  1
  S  S9  1  0.90948998  0.61641799  0.78325001  1
  S  S10  1  0.90948998  0.88358199  0.28325001  1
  S  S11  1  0.09051000  0.38358199  0.21675000  1
  S  S12  1  0.58775098  0.27340900  0.50003401  1
  S  S13  1  0.58775098  0.22659100  0.00003401  1
  S  S14  1  0.41224899  0.72659099  0.49996600  1
  S  S15  1  0.41224899  0.77340899  0.99996600  1
