# generated using pymatgen
data_SrCoO3
_symmetry_space_group_name_H-M   'P 1'
_cell_length_a   5.50161600
_cell_length_b   6.70338869
_cell_length_c   6.70387554
_cell_angle_alpha   69.76109314
_cell_angle_beta   90.05776978
_cell_angle_gamma   90.05631256
_symmetry_Int_Tables_number   1
_chemical_formula_structural   SrCoO3
_chemical_formula_sum   'Sr4 Co4 O12'
_cell_volume   231.97048420
_cell_formula_units_Z   4
loop_
 _symmetry_equiv_pos_site_id
 _symmetry_equiv_pos_as_xyz
  1  'x, y, z'
loop_
 _atom_site_type_symbol
 _atom_site_label
 _atom_site_symmetry_multiplicity
 _atom_site_fract_x
 _atom_site_fract_y
 _atom_site_fract_z
 _atom_site_occupancy
  Sr  Sr0  1  0.00017800  0.00165700  0.99863798  1
  Sr  Sr1  1  0.00019001  0.49858303  0.50172896  1
  Sr  Sr2  1  0.49956100  0.75022504  0.74968096  1
  Sr  Sr3  1  0.49967799  0.24972201  0.25033200  1
  Co  Co4  1  0.50207100  0.75015204  0.25012197  1
  Co  Co5  1  0.49783699  0.25011101  0.75030799  1
  Co  Co6  1  0.99907799  0.99906705  0.49915697  1
  Co  Co7  1  0.99918099  0.50115603  0.00132101  1
  O  O8  1  0.00022501  0.74992704  0.74993694  1
  O  O9  1  0.00000300  0.25011101  0.25004998  1
  O  O10  1  0.49877301  0.99982805  0.00008295  1
  O  O11  1  0.49883700  0.50013603  0.49977698  1
  O  O12  1  0.25817400  0.12557401  0.62555099  1
  O  O13  1  0.24580600  0.62488803  0.12492097  1
  O  O14  1  0.74263400  0.87377005  0.37370097  1
  O  O15  1  0.75595099  0.37457702  0.87466299  1
  O  O16  1  0.24607101  0.87512605  0.37503894  1
  O  O17  1  0.25742300  0.37416602  0.87369397  1
  O  O18  1  0.75540999  0.12497601  0.62498002  1
  O  O19  1  0.74291999  0.62624703  0.12631599  1
