# generated using pymatgen
data_Te2Mo
_symmetry_space_group_name_H-M   'P 1'
_cell_length_a   3.50001192
_cell_length_b   3.50001168
_cell_length_c   39.60453033
_cell_angle_alpha   90.00000000
_cell_angle_beta   90.00000000
_cell_angle_gamma   120.00000000
_symmetry_Int_Tables_number   1
_chemical_formula_structural   Te2Mo
_chemical_formula_sum   'Te8 Mo4'
_cell_volume   420.15981832
_cell_formula_units_Z   4
loop_
 _symmetry_equiv_pos_site_id
 _symmetry_equiv_pos_as_xyz
  1  'x, y, z'
loop_
 _atom_site_type_symbol
 _atom_site_label
 _atom_site_symmetry_multiplicity
 _atom_site_fract_x
 _atom_site_fract_y
 _atom_site_fract_z
 _atom_site_occupancy
  Te  Te0  1  0.00000000  0.00000000  0.29596099  1
  Te  Te1  1  0.66666667  0.33333333  0.95229097  1
  Te  Te2  1  0.66666667  0.33333333  0.57683898  1
  Te  Te3  1  0.66666667  0.33333333  0.85984797  1
  Te  Te4  1  0.66666667  0.33333333  0.48384398  1
  Te  Te5  1  0.00000000  0.00000000  0.38896399  1
  Mo  Mo6  1  0.00000000  0.00000000  0.90607697  1
  Mo  Mo7  1  0.66666667  0.33333333  0.71820198  1
  Mo  Mo8  1  0.00000000  0.00000000  0.53036198  1
  Mo  Mo9  1  0.66666667  0.33333333  0.34244799  1
  Te  Te10  1  0.00000000  0.00000000  0.67735498  1
  Te  Te11  1  0.00000000  0.00000000  0.75905997  1
