# generated using pymatgen
data_Ga3Se4
_symmetry_space_group_name_H-M   'P 1'
_cell_length_a   7.36066198
_cell_length_b   7.36699581
_cell_length_c   7.36740208
_cell_angle_alpha   60.03895187
_cell_angle_beta   60.05863953
_cell_angle_gamma   60.03129959
_symmetry_Int_Tables_number   1
_chemical_formula_structural   Ga3Se4
_chemical_formula_sum   'Ga6 Se8'
_cell_volume   282.76740230
_cell_formula_units_Z   2
loop_
 _symmetry_equiv_pos_site_id
 _symmetry_equiv_pos_as_xyz
  1  'x, y, z'
loop_
 _atom_site_type_symbol
 _atom_site_label
 _atom_site_symmetry_multiplicity
 _atom_site_fract_x
 _atom_site_fract_y
 _atom_site_fract_z
 _atom_site_occupancy
  Ga  Ga0  1  0.12534400  0.12504500  0.12495700  1
  Ga  Ga1  1  0.87466500  0.87496201  0.87503101  1
  Ga  Ga2  1  0.49993900  0.49998400  0.50009701  1
  Ga  Ga3  1  0.50002600  0.49996600  0.99999702  1
  Ga  Ga4  1  0.50001099  0.00000700  0.49998103  1
  Ga  Ga5  1  0.00000001  0.50000500  0.49997699  1
  Se  Se6  1  0.26134800  0.26154400  0.26126400  1
  Se  Se7  1  0.74663100  0.74702900  0.28127300  1
  Se  Se8  1  0.28164501  0.74679000  0.74683900  1
  Se  Se9  1  0.74660599  0.28121200  0.74709503  1
  Se  Se10  1  0.71835999  0.25323200  0.25316602  1
  Se  Se11  1  0.25340801  0.71879200  0.25288799  1
  Se  Se12  1  0.73866700  0.73846900  0.73871101  1
  Se  Se13  1  0.25335600  0.25295900  0.71872302  1
