# generated using pymatgen
data_Ho2Ga6Co
_symmetry_space_group_name_H-M   'P 1'
_cell_length_a   3.90857506
_cell_length_b   7.36330605
_cell_length_c   7.36330700
_cell_angle_alpha   120.00000000
_cell_angle_beta   90.00000000
_cell_angle_gamma   90.00000000
_symmetry_Int_Tables_number   1
_chemical_formula_structural   Ho2Ga6Co
_chemical_formula_sum   'Ho2 Ga6 Co1'
_cell_volume   183.52483726
_cell_formula_units_Z   1
loop_
 _symmetry_equiv_pos_site_id
 _symmetry_equiv_pos_as_xyz
  1  'x, y, z'
loop_
 _atom_site_type_symbol
 _atom_site_label
 _atom_site_symmetry_multiplicity
 _atom_site_fract_x
 _atom_site_fract_y
 _atom_site_fract_z
 _atom_site_occupancy
  Ho  Ho0  1  0.49999999  0.66666669  0.33333337  1
  Ho  Ho1  1  0.49999999  0.33333334  0.66666668  1
  Co  Co2  1  0.00000000  0.00000000  0.00000000  1
  Ga  Ga3  1  0.49999999  0.78779602  0.78779604  1
  Ga  Ga4  1  0.49999999  0.00000000  0.21220399  1
  Ga  Ga5  1  0.49999999  0.21220401  0.00000002  1
  Ga  Ga6  1  0.99999999  0.32521401  0.32521402  1
  Ga  Ga7  1  0.00000000  0.00000000  0.67478598  1
  Ga  Ga8  1  0.99999999  0.67478602  0.00000005  1
