# generated using pymatgen
data_MoOsS6
_symmetry_space_group_name_H-M   'P 1'
_cell_length_a   5.23466921
_cell_length_b   5.66770601
_cell_length_c   5.66770554
_cell_angle_alpha   120.00000000
_cell_angle_beta   90.00000000
_cell_angle_gamma   90.00000000
_symmetry_Int_Tables_number   1
_chemical_formula_structural   MoOsS6
_chemical_formula_sum   'Mo1 Os1 S6'
_cell_volume   145.62450697
_cell_formula_units_Z   1
loop_
 _symmetry_equiv_pos_site_id
 _symmetry_equiv_pos_as_xyz
  1  'x, y, z'
loop_
 _atom_site_type_symbol
 _atom_site_label
 _atom_site_symmetry_multiplicity
 _atom_site_fract_x
 _atom_site_fract_y
 _atom_site_fract_z
 _atom_site_occupancy
  S  S0  1  0.49999998  0.00000000  0.66158002  1
  S  S1  1  0.00000000  0.00000000  0.33842001  1
  S  S2  1  0.99999996  0.33841999  1.00000001  1
  S  S3  1  0.49999998  0.33841999  0.33842000  1
  S  S4  1  0.49999998  0.66157999  -0.00000003  1
  S  S5  1  -0.00000000  0.66157999  0.66157999  1
  Os  Os6  1  0.24999999  0.33333333  0.66666667  1
  Mo  Mo7  1  0.74999997  0.66666665  0.33333332  1
