# generated using pymatgen
data_V2O3F
_symmetry_space_group_name_H-M   'P 1'
_cell_length_a   2.88205385
_cell_length_b   4.33252096
_cell_length_c   9.35426235
_cell_angle_alpha   90.00000000
_cell_angle_beta   90.00000000
_cell_angle_gamma   89.99999237
_symmetry_Int_Tables_number   1
_chemical_formula_structural   V2O3F
_chemical_formula_sum   'V4 O6 F2'
_cell_volume   116.80254621
_cell_formula_units_Z   2
loop_
 _symmetry_equiv_pos_site_id
 _symmetry_equiv_pos_as_xyz
  1  'x, y, z'
loop_
 _atom_site_type_symbol
 _atom_site_label
 _atom_site_symmetry_multiplicity
 _atom_site_fract_x
 _atom_site_fract_y
 _atom_site_fract_z
 _atom_site_occupancy
  O  O0  1  0.25001001  0.26263100  0.49866098  1
  F  F1  1  0.24999001  0.23736900  0.99866096  1
  O  O2  1  0.74999004  0.73736899  0.50133898  1
  F  F3  1  0.75001004  0.76263099  0.00133900  1
  O  O4  1  0.75015602  0.04315600  0.75833997  1
  O  O5  1  0.74984403  0.45684399  0.25833999  1
  O  O6  1  0.24984403  0.95684398  0.24165999  1
  O  O7  1  0.25015602  0.54315599  0.74165997  1
  V  V8  1  0.74995202  0.11631100  0.14690799  1
  V  V9  1  0.75004803  0.38368899  0.64690798  1
  V  V10  1  0.25004803  0.88368898  0.85309197  1
  V  V11  1  0.24995202  0.61631099  0.35309199  1
