# generated using pymatgen
data_BaSr2(AsO4)2
_symmetry_space_group_name_H-M   'P 1'
_cell_length_a   5.67508030
_cell_length_b   5.67508030
_cell_length_c   7.53057623
_cell_angle_alpha   67.86422729
_cell_angle_beta   67.86422729
_cell_angle_gamma   59.99999619
_symmetry_Int_Tables_number   1
_chemical_formula_structural   BaSr2(AsO4)2
_chemical_formula_sum   'Ba1 Sr2 As2 O8'
_cell_volume   189.11721291
_cell_formula_units_Z   1
loop_
 _symmetry_equiv_pos_site_id
 _symmetry_equiv_pos_as_xyz
  1  'x, y, z'
loop_
 _atom_site_type_symbol
 _atom_site_label
 _atom_site_symmetry_multiplicity
 _atom_site_fract_x
 _atom_site_fract_y
 _atom_site_fract_z
 _atom_site_occupancy
  Ba  Ba0  1  0.00000000  0.00000000  0.00000000  1
  Sr  Sr1  1  0.20487701  0.20487700  0.38536898  1
  Sr  Sr2  1  0.79512304  0.79512301  0.61463093  1
  As  As3  1  0.59297103  0.59297101  0.22108695  1
  As  As4  1  0.40702902  0.40702900  0.77891296  1
  O  O5  1  0.26869303  0.76620901  0.69640495  1
  O  O6  1  0.23379102  0.73130701  0.30359496  1
  O  O7  1  0.67706303  0.67706301  0.96881093  1
  O  O8  1  0.32293702  0.32293700  0.03118898  1
  O  O9  1  0.73130704  0.73130701  0.30359494  1
  O  O10  1  0.26869301  0.26869300  0.69640497  1
  O  O11  1  0.76620902  0.26869300  0.69640495  1
  O  O12  1  0.73130702  0.23379100  0.30359496  1
