# generated using pymatgen
data_Li2VF4
_symmetry_space_group_name_H-M   'P 1'
_cell_length_a   5.88700724
_cell_length_b   5.88762712
_cell_length_c   5.88988495
_cell_angle_alpha   62.38022232
_cell_angle_beta   62.44216156
_cell_angle_gamma   94.19868469
_symmetry_Int_Tables_number   1
_chemical_formula_structural   Li2VF4
_chemical_formula_sum   'Li4 V2 F8'
_cell_volume   149.21783423
_cell_formula_units_Z   2
loop_
 _symmetry_equiv_pos_site_id
 _symmetry_equiv_pos_as_xyz
  1  'x, y, z'
loop_
 _atom_site_type_symbol
 _atom_site_label
 _atom_site_symmetry_multiplicity
 _atom_site_fract_x
 _atom_site_fract_y
 _atom_site_fract_z
 _atom_site_occupancy
  Li  Li0  1  0.87502100  0.62499699  0.74996496  1
  V  V1  1  0.37498902  0.62499599  0.25001897  1
  Li  Li2  1  0.37501299  0.12499700  0.25003399  1
  Li  Li3  1  0.37502702  0.62505599  0.74999996  1
  V  V4  1  0.99371702  0.99388699  0.99999094  1
  Li  Li5  1  0.74563299  0.24549800  0.49997198  1
  F  F6  1  0.15856501  0.37579300  0.21713498  1
  F  F7  1  0.62692302  0.84404599  0.78297895  1
  F  F8  1  0.12576902  0.40834100  0.71731397  1
  F  F9  1  0.59380903  0.87682499  0.28311696  1
  F  F10  1  0.59293500  0.37567000  0.78286397  1
  F  F11  1  0.62704200  0.40986300  0.21703498  1
  F  F12  1  0.12564504  0.84307399  0.28266596  1
  F  F13  1  0.15991104  0.87695499  0.71691095  1
