# generated using pymatgen
data_BaLa3MgW3O10
_symmetry_space_group_name_H-M   'P 1'
_cell_length_a   5.75961018
_cell_length_b   5.98661995
_cell_length_c   8.84783649
_cell_angle_alpha   109.77393341
_cell_angle_beta   108.99473572
_cell_angle_gamma   90.00000000
_symmetry_Int_Tables_number   1
_chemical_formula_structural   BaLa3MgW3O10
_chemical_formula_sum   'Ba1 La3 Mg1 W3 O10'
_cell_volume   269.37055450
_cell_formula_units_Z   1
loop_
 _symmetry_equiv_pos_site_id
 _symmetry_equiv_pos_as_xyz
  1  'x, y, z'
loop_
 _atom_site_type_symbol
 _atom_site_label
 _atom_site_symmetry_multiplicity
 _atom_site_fract_x
 _atom_site_fract_y
 _atom_site_fract_z
 _atom_site_occupancy
  Ba  Ba0  1  0.39798600  0.86486201  0.78597603  1
  La  La1  1  0.61200999  0.13513800  0.21402301  1
  La  La2  1  0.89798699  0.42111501  0.78597703  1
  La  La3  1  0.11200901  0.57888501  0.21402201  1
  W  W4  1  0.99842799  1.00000002  0.00000003  1
  Mg  Mg5  1  0.49842800  0.50000001  0.00000002  1
  W  W6  1  0.79537599  0.81945901  0.50000003  1
  W  W7  1  0.29537700  0.18054100  0.50000101  1
  O  O8  1  0.76473699  0.75824301  0.02590202  1
  O  O9  1  0.73883499  0.24175700  0.97409803  1
  O  O10  1  0.26473701  0.76765901  0.02590202  1
  O  O11  1  0.23883500  0.23234100  0.97409802  1
  O  O12  1  0.83787499  0.79233901  0.72334304  1
  O  O13  1  0.11453200  0.20766100  0.27665701  1
  O  O14  1  0.33787500  0.43100401  0.72334302  1
  O  O15  1  0.61453199  0.56899601  0.27665702  1
  O  O16  1  0.14704201  0.87208601  0.50000002  1
  O  O17  1  0.64704199  0.12791400  0.50000002  1
