# generated using pymatgen
data_CsHoS2
_symmetry_space_group_name_H-M   'P 1'
_cell_length_a   4.08286762
_cell_length_b   4.08286762
_cell_length_c   8.38877296
_cell_angle_alpha   75.91548157
_cell_angle_beta   75.91548157
_cell_angle_gamma   60.00000381
_symmetry_Int_Tables_number   1
_chemical_formula_structural   CsHoS2
_chemical_formula_sum   'Cs1 Ho1 S2'
_cell_volume   116.22477851
_cell_formula_units_Z   1
loop_
 _symmetry_equiv_pos_site_id
 _symmetry_equiv_pos_as_xyz
  1  'x, y, z'
loop_
 _atom_site_type_symbol
 _atom_site_label
 _atom_site_symmetry_multiplicity
 _atom_site_fract_x
 _atom_site_fract_y
 _atom_site_fract_z
 _atom_site_occupancy
  Cs  Cs0  1  0.00000000  0.00000000  0.00000000  1
  Ho  Ho1  1  0.49999997  0.50000001  0.50000003  1
  S  S2  1  0.22731399  0.22731400  0.31805801  1
  S  S3  1  0.77268595  0.77268602  0.68194205  1
