# generated using pymatgen
data_NaMgF4
_symmetry_space_group_name_H-M   'P 1'
_cell_length_a   5.12289095
_cell_length_b   5.49018002
_cell_length_c   5.30982065
_cell_angle_alpha   90.00000000
_cell_angle_beta   83.62985229
_cell_angle_gamma   90.00000000
_symmetry_Int_Tables_number   1
_chemical_formula_structural   NaMgF4
_chemical_formula_sum   'Na2 Mg2 F8'
_cell_volume   148.41980003
_cell_formula_units_Z   2
loop_
 _symmetry_equiv_pos_site_id
 _symmetry_equiv_pos_as_xyz
  1  'x, y, z'
loop_
 _atom_site_type_symbol
 _atom_site_label
 _atom_site_symmetry_multiplicity
 _atom_site_fract_x
 _atom_site_fract_y
 _atom_site_fract_z
 _atom_site_occupancy
  Na  Na0  1  0.00000000  0.23206000  0.25000000  1
  Na  Na1  1  0.00000000  0.76794000  0.74999999  1
  Mg  Mg2  1  0.50000000  0.30513500  0.75000002  1
  Mg  Mg3  1  0.50000000  0.69486500  0.25000003  1
  F  F4  1  0.73277800  0.43467700  0.99645304  1
  F  F5  1  0.26722200  0.43467700  0.50354701  1
  F  F6  1  0.26722200  0.56532300  0.00354702  1
  F  F7  1  0.73277800  0.56532300  0.49645304  1
  F  F8  1  0.24817900  0.91603200  0.40229401  1
  F  F9  1  0.75182100  0.91603200  0.09770605  1
  F  F10  1  0.75182100  0.08396800  0.59770604  1
  F  F11  1  0.24817900  0.08396800  0.90229401  1
