# generated using pymatgen
data_Ga3Co2
_symmetry_space_group_name_H-M   'P 1'
_cell_length_a   6.57963276
_cell_length_b   6.57963276
_cell_length_c   6.57963324
_cell_angle_alpha   89.94960022
_cell_angle_beta   89.94960022
_cell_angle_gamma   89.94959259
_symmetry_Int_Tables_number   1
_chemical_formula_structural   Ga3Co2
_chemical_formula_sum   'Ga9 Co6'
_cell_volume   284.84230423
_cell_formula_units_Z   3
loop_
 _symmetry_equiv_pos_site_id
 _symmetry_equiv_pos_as_xyz
  1  'x, y, z'
loop_
 _atom_site_type_symbol
 _atom_site_label
 _atom_site_symmetry_multiplicity
 _atom_site_fract_x
 _atom_site_fract_y
 _atom_site_fract_z
 _atom_site_occupancy
  Ga  Ga0  1  0.00000000  0.00000000  0.00000000  1
  Co  Co1  1  0.43893397  0.77330500  0.58391893  1
  Co  Co2  1  0.58391899  0.43893400  0.77330493  1
  Co  Co3  1  0.77330498  0.58391900  0.43893392  1
  Co  Co4  1  0.56106599  0.22669500  0.41608095  1
  Co  Co5  1  0.41608098  0.56106600  0.22669495  1
  Co  Co6  1  0.22669499  0.41608100  0.56106595  1
  Ga  Ga7  1  0.75914398  0.75914400  0.75914391  1
  Ga  Ga8  1  0.24085599  0.24085600  0.24085597  1
  Ga  Ga9  1  0.87296899  0.25916200  0.62484193  1
  Ga  Ga10  1  0.62484197  0.87296900  0.25916192  1
  Ga  Ga11  1  0.25916198  0.62484200  0.87296894  1
  Ga  Ga12  1  0.12702998  0.74083800  0.37515795  1
  Ga  Ga13  1  0.37515800  0.12703000  0.74083796  1
  Ga  Ga14  1  0.74083799  0.37515800  0.12703094  1
