# generated using pymatgen
data_LuCo4B
_symmetry_space_group_name_H-M   'P 1'
_cell_length_a   5.04179811
_cell_length_b   5.06646824
_cell_length_c   6.84308386
_cell_angle_alpha   90.03919220
_cell_angle_beta   90.00921631
_cell_angle_gamma   119.80191040
_symmetry_Int_Tables_number   1
_chemical_formula_structural   LuCo4B
_chemical_formula_sum   'Lu2 Co8 B2'
_cell_volume   151.68286642
_cell_formula_units_Z   2
loop_
 _symmetry_equiv_pos_site_id
 _symmetry_equiv_pos_as_xyz
  1  'x, y, z'
loop_
 _atom_site_type_symbol
 _atom_site_label
 _atom_site_symmetry_multiplicity
 _atom_site_fract_x
 _atom_site_fract_y
 _atom_site_fract_z
 _atom_site_occupancy
  Lu  Lu0  1  0.99946897  0.99889296  0.00243402  1
  Lu  Lu1  1  0.00038600  0.00074700  0.49367999  1
  Co  Co2  1  0.50073699  0.50135398  0.71315899  1
  Co  Co3  1  0.00056998  0.50133498  0.71319401  1
  Co  Co4  1  0.66739200  0.33452099  0.00277900  1
  Co  Co5  1  0.33158698  0.66321097  0.00299802  1
  Co  Co6  1  0.49953997  0.99913896  0.28745103  1
  Co  Co7  1  0.49964099  0.49942198  0.28893500  1
  Co  Co8  1  0.99972899  0.49947998  0.28884399  1
  Co  Co9  1  0.50051401  0.00114300  0.71266897  1
  B  B10  1  0.66540900  0.33102199  0.49694499  1
  B  B11  1  0.33482698  0.66953397  0.49691401  1
