# generated using pymatgen
data_Ho(Si2Rh3)2
_symmetry_space_group_name_H-M   'P 1'
_cell_length_a   3.66284704
_cell_length_b   6.96522379
_cell_length_c   6.96522427
_cell_angle_alpha   120.00000000
_cell_angle_beta   90.00000000
_cell_angle_gamma   90.00000000
_symmetry_Int_Tables_number   1
_chemical_formula_structural   Ho(Si2Rh3)2
_chemical_formula_sum   'Ho1 Si4 Rh6'
_cell_volume   153.89325798
_cell_formula_units_Z   1
loop_
 _symmetry_equiv_pos_site_id
 _symmetry_equiv_pos_as_xyz
  1  'x, y, z'
loop_
 _atom_site_type_symbol
 _atom_site_label
 _atom_site_symmetry_multiplicity
 _atom_site_fract_x
 _atom_site_fract_y
 _atom_site_fract_z
 _atom_site_occupancy
  Ho  Ho0  1  0.00000000  0.00000000  0.00000000  1
  Si  Si1  1  0.49999999  0.81344603  0.18655400  1
  Si  Si2  1  0.49999999  0.37310801  0.18655400  1
  Si  Si3  1  0.49999999  0.81344603  0.62689199  1
  Si  Si4  1  0.00000000  0.33333334  0.66666665  1
  Rh  Rh5  1  0.49999999  0.19649701  0.80350298  1
  Rh  Rh6  1  0.49999999  0.60700602  0.80350298  1
  Rh  Rh7  1  0.49999999  0.19649701  0.39299399  1
  Rh  Rh8  1  0.00000000  0.53584702  0.46415199  1
  Rh  Rh9  1  0.00000000  0.92830503  0.46415199  1
  Rh  Rh10  1  0.00000000  0.53584702  0.07169400  1
