# generated using pymatgen
data_NbCoSi
_symmetry_space_group_name_H-M   'P 1'
_cell_length_a   3.74826193
_cell_length_b   3.74826193
_cell_length_c   6.21289492
_cell_angle_alpha   90.00000000
_cell_angle_beta   90.00000000
_cell_angle_gamma   90.00000000
_symmetry_Int_Tables_number   1
_chemical_formula_structural   NbCoSi
_chemical_formula_sum   'Nb2 Co2 Si2'
_cell_volume   87.28786512
_cell_formula_units_Z   2
loop_
 _symmetry_equiv_pos_site_id
 _symmetry_equiv_pos_as_xyz
  1  'x, y, z'
loop_
 _atom_site_type_symbol
 _atom_site_label
 _atom_site_symmetry_multiplicity
 _atom_site_fract_x
 _atom_site_fract_y
 _atom_site_fract_z
 _atom_site_occupancy
  Nb  Nb0  1  0.50000001  0.00000000  0.34579400  1
  Nb  Nb1  1  0.00000000  0.50000001  0.65420601  1
  Co  Co2  1  0.50000001  0.50000001  -0.00000000  1
  Co  Co3  1  0.00000000  0.00000000  0.00000000  1
  Si  Si4  1  0.50000001  0.00000000  0.77571001  1
  Si  Si5  1  0.00000000  0.50000001  0.22429000  1
