# generated using pymatgen
data_Ga8P
_symmetry_space_group_name_H-M   'P 1'
_cell_length_a   5.68971491
_cell_length_b   8.24559212
_cell_length_c   8.24559116
_cell_angle_alpha   120.00000763
_cell_angle_beta   90.00000000
_cell_angle_gamma   90.00000000
_symmetry_Int_Tables_number   1
_chemical_formula_structural   Ga8P
_chemical_formula_sum   'Ga16 P2'
_cell_volume   335.01538351
_cell_formula_units_Z   2
loop_
 _symmetry_equiv_pos_site_id
 _symmetry_equiv_pos_as_xyz
  1  'x, y, z'
loop_
 _atom_site_type_symbol
 _atom_site_label
 _atom_site_symmetry_multiplicity
 _atom_site_fract_x
 _atom_site_fract_y
 _atom_site_fract_z
 _atom_site_occupancy
  Ga  Ga0  1  0.75000001  0.77680602  0.77680604  1
  Ga  Ga1  1  0.25000000  0.22319401  0.22319401  1
  Ga  Ga2  1  0.75000001  0.00000000  0.22319400  1
  Ga  Ga3  1  0.25000000  0.00000000  0.77680599  1
  Ga  Ga4  1  0.75000001  0.22319401  1.00000000  1
  Ga  Ga5  1  0.25000000  0.77680602  0.00000006  1
  Ga  Ga6  1  0.00000000  0.66666668  0.33333338  1
  Ga  Ga7  1  0.00000000  0.33333334  0.66666668  1
  Ga  Ga8  1  0.50000001  0.33333334  0.66666668  1
  Ga  Ga9  1  0.50000001  0.66666668  0.33333338  1
  Ga  Ga10  1  0.75000001  0.40319801  0.40319802  1
  Ga  Ga11  1  0.25000000  0.59680201  0.59680203  1
  Ga  Ga12  1  0.75000001  0.00000000  0.59680199  1
  Ga  Ga13  1  0.25000000  0.00000000  0.40319799  1
  Ga  Ga14  1  0.75000001  0.59680201  0.00000004  1
  Ga  Ga15  1  0.25000000  0.40319801  0.00000003  1
  P  P16  1  0.00000000  0.00000000  0.00000000  1
  P  P17  1  0.50000001  0.00000000  -0.00000000  1
