# generated using pymatgen
data_Cs(CrS2)2
_symmetry_space_group_name_H-M   'P 1'
_cell_length_a   3.58331800
_cell_length_b   5.85242224
_cell_length_c   8.49481869
_cell_angle_alpha   102.93139648
_cell_angle_beta   102.17580414
_cell_angle_gamma   90.00000000
_symmetry_Int_Tables_number   1
_chemical_formula_structural   Cs(CrS2)2
_chemical_formula_sum   'Cs1 Cr2 S4'
_cell_volume   169.51345397
_cell_formula_units_Z   1
loop_
 _symmetry_equiv_pos_site_id
 _symmetry_equiv_pos_as_xyz
  1  'x, y, z'
loop_
 _atom_site_type_symbol
 _atom_site_label
 _atom_site_symmetry_multiplicity
 _atom_site_fract_x
 _atom_site_fract_y
 _atom_site_fract_z
 _atom_site_occupancy
  Cs  Cs0  1  0.50000001  0.49999998  0.00000000  1
  Cr  Cr1  1  0.24565000  0.22905199  0.49129999  1
  Cr  Cr2  1  0.75435001  0.77094798  0.50869999  1
  S  S3  1  0.66274001  0.02712300  0.32548000  1
  S  S4  1  0.33726001  0.97287697  0.67451997  1
  S  S5  1  0.17614701  0.54451098  0.35229399  1
  S  S6  1  0.82385301  0.45548899  0.64770599  1
