# generated using pymatgen
data_Lu4Co5Si11
_symmetry_space_group_name_H-M   'P 1'
_cell_length_a   5.52290201
_cell_length_b   7.88929462
_cell_length_c   7.88929462
_cell_angle_alpha   74.56523895
_cell_angle_beta   69.51115417
_cell_angle_gamma   69.51115417
_symmetry_Int_Tables_number   1
_chemical_formula_structural   Lu4Co5Si11
_chemical_formula_sum   'Lu4 Co5 Si11'
_cell_volume   297.56743956
_cell_formula_units_Z   1
loop_
 _symmetry_equiv_pos_site_id
 _symmetry_equiv_pos_as_xyz
  1  'x, y, z'
loop_
 _atom_site_type_symbol
 _atom_site_label
 _atom_site_symmetry_multiplicity
 _atom_site_fract_x
 _atom_site_fract_y
 _atom_site_fract_z
 _atom_site_occupancy
  Lu  Lu0  1  0.86513402  0.86770700  0.40202510  1
  Lu  Lu1  1  0.36513501  0.40202500  0.86770606  1
  Lu  Lu2  1  0.63486501  0.59797500  0.13229406  1
  Lu  Lu3  1  0.13486600  0.13229300  0.59797503  1
  Co  Co4  1  0.74999998  0.00000000  1.00000005  1
  Co  Co5  1  0.24999999  0.00000000  1.00000004  1
  Co  Co6  1  0.86189100  0.52926300  0.74695408  1
  Si  Si7  1  0.63810800  0.25304700  0.47073705  1
  Co  Co8  1  0.36189202  0.74695300  0.52926307  1
  Co  Co9  1  0.13810902  0.47073700  0.25304604  1
  Si  Si10  1  0.52421800  0.22578200  0.22578204  1
  Si  Si11  1  0.47578202  0.77421800  0.77421809  1
  Si  Si12  1  0.02421801  0.22578200  0.22578202  1
  Si  Si13  1  0.10089003  0.74003300  0.05818705  1
  Si  Si14  1  0.89910999  0.25996700  0.94181307  1
  Si  Si15  1  0.75000000  0.50000000  0.50000007  1
  Si  Si16  1  0.25000001  0.50000000  0.50000005  1
  Si  Si17  1  0.39911003  0.94181300  0.25996708  1
  Si  Si18  1  0.60088999  0.05818700  0.74003305  1
  Si  Si19  1  0.97578201  0.77421800  0.77421810  1
