# generated using pymatgen
data_Co3O4
_symmetry_space_group_name_H-M   'P 1'
_cell_length_a   5.68607378
_cell_length_b   5.68607378
_cell_length_c   5.68607330
_cell_angle_alpha   60.39760208
_cell_angle_beta   60.39760208
_cell_angle_gamma   60.39760971
_symmetry_Int_Tables_number   1
_chemical_formula_structural   Co3O4
_chemical_formula_sum   'Co6 O8'
_cell_volume   131.16261876
_cell_formula_units_Z   2
loop_
 _symmetry_equiv_pos_site_id
 _symmetry_equiv_pos_as_xyz
  1  'x, y, z'
loop_
 _atom_site_type_symbol
 _atom_site_label
 _atom_site_symmetry_multiplicity
 _atom_site_fract_x
 _atom_site_fract_y
 _atom_site_fract_z
 _atom_site_occupancy
  Co  Co0  1  0.12450000  0.12450000  0.12450001  1
  Co  Co1  1  0.87550001  0.87550000  0.87550004  1
  Co  Co2  1  0.50000001  0.50000000  0.50000002  1
  Co  Co3  1  0.00000001  0.50000000  0.50000002  1
  Co  Co4  1  0.50000000  0.00000000  0.50000002  1
  Co  Co5  1  0.50000001  0.50000000  1.00000004  1
  O  O6  1  0.26464701  0.71017500  0.26464701  1
  O  O7  1  0.71017501  0.26464700  0.26464702  1
  O  O8  1  0.73745601  0.73745600  0.73745603  1
  O  O9  1  0.26464700  0.26464700  0.71017503  1
  O  O10  1  0.73535301  0.73535300  0.28982502  1
  O  O11  1  0.26254400  0.26254400  0.26254401  1
  O  O12  1  0.28982501  0.73535300  0.73535303  1
  O  O13  1  0.73535301  0.28982500  0.73535303  1
