# generated using pymatgen
data_CdAuO2
_symmetry_space_group_name_H-M   'P 1'
_cell_length_a   3.49044394
_cell_length_b   3.49044466
_cell_length_c   12.96247768
_cell_angle_alpha   90.00000000
_cell_angle_beta   90.00000000
_cell_angle_gamma   119.99999237
_symmetry_Int_Tables_number   1
_chemical_formula_structural   CdAuO2
_chemical_formula_sum   'Cd2 Au2 O4'
_cell_volume   136.76661917
_cell_formula_units_Z   2
loop_
 _symmetry_equiv_pos_site_id
 _symmetry_equiv_pos_as_xyz
  1  'x, y, z'
loop_
 _atom_site_type_symbol
 _atom_site_label
 _atom_site_symmetry_multiplicity
 _atom_site_fract_x
 _atom_site_fract_y
 _atom_site_fract_z
 _atom_site_occupancy
  Cd  Cd0  1  0.00000000  0.00000000  0.00000000  1
  Cd  Cd1  1  0.00000000  0.00000000  0.50000001  1
  Au  Au2  1  0.33333333  0.66666667  0.25000001  1
  Au  Au3  1  0.66666667  0.33333334  0.75000002  1
  O  O4  1  0.66666667  0.33333334  0.58781601  1
  O  O5  1  0.66666667  0.33333334  0.91218402  1
  O  O6  1  0.33333333  0.66666667  0.41218401  1
  O  O7  1  0.33333333  0.66666667  0.08781600  1
