# generated using pymatgen
data_NaAlF4
_symmetry_space_group_name_H-M   'P 1'
_cell_length_a   5.26081419
_cell_length_b   5.26081419
_cell_length_c   6.75274944
_cell_angle_alpha   112.92533875
_cell_angle_beta   112.92533875
_cell_angle_gamma   90.00000000
_symmetry_Int_Tables_number   1
_chemical_formula_structural   NaAlF4
_chemical_formula_sum   'Na2 Al2 F8'
_cell_volume   155.97561356
_cell_formula_units_Z   2
loop_
 _symmetry_equiv_pos_site_id
 _symmetry_equiv_pos_as_xyz
  1  'x, y, z'
loop_
 _atom_site_type_symbol
 _atom_site_label
 _atom_site_symmetry_multiplicity
 _atom_site_fract_x
 _atom_site_fract_y
 _atom_site_fract_z
 _atom_site_occupancy
  Na  Na0  1  0.25000003  0.74999999  0.50000005  1
  Na  Na1  1  0.00000000  0.00000000  0.00000000  1
  Al  Al2  1  0.75000000  0.25000000  0.50000004  1
  Al  Al3  1  0.50000001  0.49999999  0.00000004  1
  F  F4  1  0.99660901  0.58325599  0.67939907  1
  F  F5  1  0.68278999  0.09614300  0.67939903  1
  F  F6  1  0.83265200  0.42399900  0.17242305  1
  F  F7  1  0.33977003  0.74842299  0.17242205  1
  F  F8  1  0.25157600  0.16734800  0.82757802  1
  F  F9  1  0.57600102  0.66022899  0.82757705  1
  F  F10  1  0.41674401  0.31721000  0.32060103  1
  F  F11  1  0.90385698  0.00339100  0.32060103  1
