# generated using pymatgen
data_CsB2MoO8
_symmetry_space_group_name_H-M   'P 1'
_cell_length_a   5.01656199
_cell_length_b   5.01656294
_cell_length_c   7.96907806
_cell_angle_alpha   90.00000000
_cell_angle_beta   90.00000000
_cell_angle_gamma   119.99999237
_symmetry_Int_Tables_number   1
_chemical_formula_structural   CsB2MoO8
_chemical_formula_sum   'Cs1 B2 Mo1 O8'
_cell_volume   173.68055345
_cell_formula_units_Z   1
loop_
 _symmetry_equiv_pos_site_id
 _symmetry_equiv_pos_as_xyz
  1  'x, y, z'
loop_
 _atom_site_type_symbol
 _atom_site_label
 _atom_site_symmetry_multiplicity
 _atom_site_fract_x
 _atom_site_fract_y
 _atom_site_fract_z
 _atom_site_occupancy
  Cs  Cs0  1  0.00000000  0.00000000  0.00000000  1
  Mo  Mo1  1  0.00000000  0.00000000  0.50000000  1
  B  B2  1  0.33333330  0.66666662  0.29427100  1
  B  B3  1  0.66666665  0.33333331  0.70572899  1
  O  O4  1  0.65508696  0.82754295  0.35658500  1
  O  O5  1  0.17245598  0.34491198  0.35658500  1
  O  O6  1  0.17245596  0.82754295  0.35658500  1
  O  O7  1  0.82754397  0.65508796  0.64341499  1
  O  O8  1  0.66666665  0.33333331  0.88854999  1
  O  O9  1  0.33333330  0.66666662  0.11145000  1
  O  O10  1  0.82754399  0.17245699  0.64341499  1
  O  O11  1  0.34491299  0.17245699  0.64341499  1
