# generated using pymatgen
data_BaCu4P3
_symmetry_space_group_name_H-M   'P 1'
_cell_length_a   3.87136889
_cell_length_b   3.87136889
_cell_length_c   9.00831032
_cell_angle_alpha   90.00000000
_cell_angle_beta   90.00000000
_cell_angle_gamma   90.00000000
_symmetry_Int_Tables_number   1
_chemical_formula_structural   BaCu4P3
_chemical_formula_sum   'Ba1 Cu4 P3'
_cell_volume   135.01202426
_cell_formula_units_Z   1
loop_
 _symmetry_equiv_pos_site_id
 _symmetry_equiv_pos_as_xyz
  1  'x, y, z'
loop_
 _atom_site_type_symbol
 _atom_site_label
 _atom_site_symmetry_multiplicity
 _atom_site_fract_x
 _atom_site_fract_y
 _atom_site_fract_z
 _atom_site_occupancy
  P  P0  1  0.00000000  0.00000000  0.00000000  1
  P  P1  1  0.50000001  0.50000001  0.72303297  1
  P  P2  1  0.50000001  0.50000001  0.27696699  1
  Ba  Ba3  1  0.00000000  0.00000000  0.49999998  1
  Cu  Cu4  1  0.00000000  0.50000001  0.15039399  1
  Cu  Cu5  1  0.50000001  0.00000000  0.15039399  1
  Cu  Cu6  1  0.00000000  0.50000001  0.84960597  1
  Cu  Cu7  1  0.50000001  0.00000000  0.84960597  1
