# generated using pymatgen
data_Pr(GeIr)2
_symmetry_space_group_name_H-M   'P 1'
_cell_length_a   4.24774218
_cell_length_b   4.24774218
_cell_length_c   5.84124422
_cell_angle_alpha   111.32139587
_cell_angle_beta   111.32139587
_cell_angle_gamma   90.00000000
_symmetry_Int_Tables_number   1
_chemical_formula_structural   Pr(GeIr)2
_chemical_formula_sum   'Pr1 Ge2 Ir2'
_cell_volume   90.39407586
_cell_formula_units_Z   1
loop_
 _symmetry_equiv_pos_site_id
 _symmetry_equiv_pos_as_xyz
  1  'x, y, z'
loop_
 _atom_site_type_symbol
 _atom_site_label
 _atom_site_symmetry_multiplicity
 _atom_site_fract_x
 _atom_site_fract_y
 _atom_site_fract_z
 _atom_site_occupancy
  Pr  Pr0  1  0.00000000  0.00000000  0.00000000  1
  Ge  Ge1  1  0.61977001  0.61976999  0.23954005  1
  Ge  Ge2  1  0.38023001  0.38022999  0.76046002  1
  Ir  Ir3  1  0.25000003  0.74999999  0.50000004  1
  Ir  Ir4  1  0.74999999  0.25000000  0.50000003  1
