# generated using pymatgen
data_LaEu8Hg7Br2
_symmetry_space_group_name_H-M   'P 1'
_cell_length_a   6.97328997
_cell_length_b   9.80468845
_cell_length_c   9.80468845
_cell_angle_alpha   120.00000000
_cell_angle_beta   90.00000000
_cell_angle_gamma   90.00000000
_symmetry_Int_Tables_number   1
_chemical_formula_structural   LaEu8Hg7Br2
_chemical_formula_sum   'La1 Eu8 Hg7 Br2'
_cell_volume   580.54508572
_cell_formula_units_Z   1
loop_
 _symmetry_equiv_pos_site_id
 _symmetry_equiv_pos_as_xyz
  1  'x, y, z'
loop_
 _atom_site_type_symbol
 _atom_site_label
 _atom_site_symmetry_multiplicity
 _atom_site_fract_x
 _atom_site_fract_y
 _atom_site_fract_z
 _atom_site_occupancy
  La  La0  1  0.75000000  0.26580799  0.99999997  1
  Eu  Eu1  1  0.25000000  0.00000000  0.73419197  1
  Eu  Eu2  1  0.25000000  0.26580799  0.26580799  1
  Hg  Hg3  1  0.50000000  0.66666664  0.33333333  1
  Eu  Eu4  1  0.25000000  0.73419197  0.99999997  1
  Eu  Eu5  1  0.75000000  0.00000000  0.26580799  1
  Eu  Eu6  1  0.50000000  0.33333332  0.66666664  1
  Eu  Eu7  1  0.75000000  0.73419197  0.73419198  1
  Eu  Eu8  1  1.00000000  0.66666664  0.33333333  1
  Eu  Eu9  1  1.00000000  0.33333332  0.66666664  1
  Hg  Hg10  1  0.25000000  0.60829197  0.60829198  1
  Hg  Hg11  1  0.75000000  0.00000000  0.60829198  1
  Hg  Hg12  1  0.75000000  0.39170798  0.39170799  1
  Hg  Hg13  1  0.25000000  0.00000000  0.39170799  1
  Hg  Hg14  1  0.75000000  0.60829197  0.99999997  1
  Hg  Hg15  1  0.25000000  0.39170798  0.99999997  1
  Br  Br16  1  0.50000000  0.00000000  -0.00000000  1
  Br  Br17  1  0.00000000  0.00000000  0.00000000  1
