# generated using pymatgen
data_MgSi4Pt7
_symmetry_space_group_name_H-M   'P 1'
_cell_length_a   3.83079195
_cell_length_b   6.37204218
_cell_length_c   7.52137709
_cell_angle_alpha   90.00000000
_cell_angle_beta   90.00000000
_cell_angle_gamma   90.00000000
_symmetry_Int_Tables_number   1
_chemical_formula_structural   MgSi4Pt7
_chemical_formula_sum   'Mg1 Si4 Pt7'
_cell_volume   183.59657315
_cell_formula_units_Z   1
loop_
 _symmetry_equiv_pos_site_id
 _symmetry_equiv_pos_as_xyz
  1  'x, y, z'
loop_
 _atom_site_type_symbol
 _atom_site_label
 _atom_site_symmetry_multiplicity
 _atom_site_fract_x
 _atom_site_fract_y
 _atom_site_fract_z
 _atom_site_occupancy
  Si  Si0  1  0.75000001  0.25145399  0.38608300  1
  Si  Si1  1  0.75000001  0.75145398  0.11391700  1
  Si  Si2  1  0.25000000  0.74854598  0.61391699  1
  Si  Si3  1  0.25000000  0.24854599  0.88608299  1
  Pt  Pt4  1  0.75000001  0.14260700  0.07138100  1
  Pt  Pt5  1  0.75000001  0.64260698  0.42861900  1
  Pt  Pt6  1  0.25000000  0.85739298  0.92861899  1
  Pt  Pt7  1  0.25000000  0.35739299  0.57138099  1
  Mg  Mg8  1  0.75000001  0.52645499  0.83308799  1
  Pt  Pt9  1  0.75000001  0.02645500  0.66691199  1
  Pt  Pt10  1  0.25000000  0.47354499  0.16691200  1
  Pt  Pt11  1  0.25000000  0.97354497  0.33308800  1
