# generated using pymatgen
data_Ho2Ga
_symmetry_space_group_name_H-M   'P 1'
_cell_length_a   4.21430016
_cell_length_b   8.13200188
_cell_length_c   8.13200283
_cell_angle_alpha   120.00000000
_cell_angle_beta   90.00000000
_cell_angle_gamma   90.00000000
_symmetry_Int_Tables_number   1
_chemical_formula_structural   Ho2Ga
_chemical_formula_sum   'Ho6 Ga3'
_cell_volume   241.35210292
_cell_formula_units_Z   3
loop_
 _symmetry_equiv_pos_site_id
 _symmetry_equiv_pos_as_xyz
  1  'x, y, z'
loop_
 _atom_site_type_symbol
 _atom_site_label
 _atom_site_symmetry_multiplicity
 _atom_site_fract_x
 _atom_site_fract_y
 _atom_site_fract_z
 _atom_site_occupancy
  Ho  Ho0  1  0.49999998  0.76928303  0.76928301  1
  Ho  Ho1  1  0.49999998  1.00000004  0.23071704  1
  Ho  Ho2  1  0.49999998  0.23071701  0.00000001  1
  Ho  Ho3  1  0.00000000  0.38765502  0.38765501  1
  Ho  Ho4  1  0.00000000  1.00000004  0.61234503  1
  Ho  Ho5  1  0.00000000  0.61234502  0.00000003  1
  Ga  Ga6  1  0.00000000  0.00000000  0.00000000  1
  Ga  Ga7  1  0.49999998  0.66666669  0.33333336  1
  Ga  Ga8  1  0.49999998  0.33333335  0.66666666  1
