# generated using pymatgen
data_SrCu7(SO2)2
_symmetry_space_group_name_H-M   'P 1'
_cell_length_a   3.41908789
_cell_length_b   3.41908717
_cell_length_c   17.27271461
_cell_angle_alpha   90.00000000
_cell_angle_beta   90.00000000
_cell_angle_gamma   120.00000763
_symmetry_Int_Tables_number   1
_chemical_formula_structural   SrCu7(SO2)2
_chemical_formula_sum   'Sr1 Cu7 S2 O4'
_cell_volume   174.86851973
_cell_formula_units_Z   1
loop_
 _symmetry_equiv_pos_site_id
 _symmetry_equiv_pos_as_xyz
  1  'x, y, z'
loop_
 _atom_site_type_symbol
 _atom_site_label
 _atom_site_symmetry_multiplicity
 _atom_site_fract_x
 _atom_site_fract_y
 _atom_site_fract_z
 _atom_site_occupancy
  Sr  Sr0  1  0.00000000  0.00000000  0.49999998  1
  Cu  Cu1  1  0.00000000  0.00000000  0.00000000  1
  Cu  Cu2  1  0.66666668  0.33333332  0.63297798  1
  Cu  Cu3  1  0.33333333  0.66666664  0.36702199  1
  Cu  Cu4  1  0.33333333  0.66666664  0.13297800  1
  Cu  Cu5  1  0.66666668  0.33333332  0.86702197  1
  Cu  Cu6  1  0.66666668  0.33333332  0.24999999  1
  Cu  Cu7  1  0.33333333  0.66666664  0.74999997  1
  S  S8  1  0.66666668  0.33333332  0.09138500  1
  S  S9  1  0.33333333  0.66666664  0.90861497  1
  O  O10  1  0.33333333  0.66666664  0.59138498  1
  O  O11  1  0.66666668  0.33333332  0.40861499  1
  O  O12  1  0.66666668  0.33333332  0.74999997  1
  O  O13  1  0.33333333  0.66666664  0.24999999  1
