# generated using pymatgen
data_Ga3Co2
_symmetry_space_group_name_H-M   'P 1'
_cell_length_a   4.10551405
_cell_length_b   6.53036308
_cell_length_c   11.54636192
_cell_angle_alpha   90.00000000
_cell_angle_beta   90.00000000
_cell_angle_gamma   108.32099915
_symmetry_Int_Tables_number   1
_chemical_formula_structural   Ga3Co2
_chemical_formula_sum   'Ga12 Co8'
_cell_volume   293.87202538
_cell_formula_units_Z   4
loop_
 _symmetry_equiv_pos_site_id
 _symmetry_equiv_pos_as_xyz
  1  'x, y, z'
loop_
 _atom_site_type_symbol
 _atom_site_label
 _atom_site_symmetry_multiplicity
 _atom_site_fract_x
 _atom_site_fract_y
 _atom_site_fract_z
 _atom_site_occupancy
  Ga  Ga0  1  0.83153498  0.66306998  0.47363300  1
  Ga  Ga1  1  0.16846499  0.33692999  0.52636700  1
  Co  Co2  1  0.83153498  0.66306998  0.02636700  1
  Co  Co3  1  0.16846499  0.33692999  0.97363301  1
  Ga  Ga4  1  0.49999999  0.00000000  0.50000000  1
  Co  Co5  1  0.49999999  0.00000000  0.00000000  1
  Co  Co6  1  0.65916099  0.31832099  0.37745200  1
  Co  Co7  1  0.34083898  0.68167898  0.62254800  1
  Co  Co8  1  0.65916099  0.31832099  0.12254800  1
  Ga  Ga9  1  0.34083898  0.68167898  0.87745201  1
  Ga  Ga10  1  0.01991400  0.03982800  0.38044500  1
  Co  Co11  1  0.98008597  0.96017197  0.61955500  1
  Ga  Ga12  1  0.01991400  0.03982800  0.11955500  1
  Ga  Ga13  1  0.98008597  0.96017197  0.88044501  1
  Ga  Ga14  1  0.83889298  0.67778698  0.25000000  1
  Co  Co15  1  0.16110699  0.32221299  0.75000000  1
  Ga  Ga16  1  0.20768399  0.41536799  0.25000000  1
  Ga  Ga17  1  0.79231598  0.58463198  0.75000000  1
  Ga  Ga18  1  0.46785097  0.93570198  0.25000000  1
  Ga  Ga19  1  0.53214899  0.06429800  0.75000000  1
