# generated using pymatgen
data_HoMg16Ga
_symmetry_space_group_name_H-M   'P 1'
_cell_length_a   5.51268530
_cell_length_b   5.51268530
_cell_length_c   14.17867279
_cell_angle_alpha   90.00000000
_cell_angle_beta   90.00000000
_cell_angle_gamma   119.66941833
_symmetry_Int_Tables_number   1
_chemical_formula_structural   HoMg16Ga
_chemical_formula_sum   'Ho1 Mg16 Ga1'
_cell_volume   374.39470734
_cell_formula_units_Z   1
loop_
 _symmetry_equiv_pos_site_id
 _symmetry_equiv_pos_as_xyz
  1  'x, y, z'
loop_
 _atom_site_type_symbol
 _atom_site_label
 _atom_site_symmetry_multiplicity
 _atom_site_fract_x
 _atom_site_fract_y
 _atom_site_fract_z
 _atom_site_occupancy
  Ho  Ho0  1  0.82093404  0.82093403  0.88448401  1
  Mg  Mg1  1  0.17906601  0.17906601  0.11551600  1
  Mg  Mg2  1  0.82093404  0.82093403  0.61551601  1
  Mg  Mg3  1  0.17906601  0.17906601  0.38448401  1
  Mg  Mg4  1  0.49071801  0.16396301  0.92420501  1
  Mg  Mg5  1  0.83603703  0.50928202  0.07579500  1
  Mg  Mg6  1  0.67281502  0.17033801  0.25000000  1
  Mg  Mg7  1  0.16396302  0.49071802  0.92420501  1
  Mg  Mg8  1  0.50928204  0.83603703  0.42420501  1
  Mg  Mg9  1  0.16396302  0.49071802  0.57579501  1
  Mg  Mg10  1  0.50928204  0.83603703  0.07579500  1
  Mg  Mg11  1  0.17033803  0.67281502  0.25000000  1
  Mg  Mg12  1  0.67043903  0.67043902  0.25000000  1
  Mg  Mg13  1  0.82966202  0.32718501  0.75000001  1
  Mg  Mg14  1  0.32718503  0.82966203  0.75000001  1
  Mg  Mg15  1  0.83603703  0.50928202  0.42420501  1
  Mg  Mg16  1  0.49071801  0.16396301  0.57579501  1
  Ga  Ga17  1  0.32956102  0.32956101  0.75000001  1
