# generated using pymatgen
data_Ga16P
_symmetry_space_group_name_H-M   'P 1'
_cell_length_a   3.31832194
_cell_length_b   10.35573959
_cell_length_c   10.35573959
_cell_angle_alpha   120.00000000
_cell_angle_beta   90.00000000
_cell_angle_gamma   90.00000000
_symmetry_Int_Tables_number   1
_chemical_formula_structural   Ga16P
_chemical_formula_sum   'Ga16 P1'
_cell_volume   308.18492614
_cell_formula_units_Z   1
loop_
 _symmetry_equiv_pos_site_id
 _symmetry_equiv_pos_as_xyz
  1  'x, y, z'
loop_
 _atom_site_type_symbol
 _atom_site_label
 _atom_site_symmetry_multiplicity
 _atom_site_fract_x
 _atom_site_fract_y
 _atom_site_fract_z
 _atom_site_occupancy
  Ga  Ga0  1  0.50000001  0.53703501  0.79912094  1
  Ga  Ga1  1  0.00000000  0.45849201  0.99999994  1
  Ga  Ga2  1  0.50000001  0.20087900  0.73791396  1
  Ga  Ga3  1  0.50000001  0.79912101  0.53703494  1
  Ga  Ga4  1  0.50000001  0.46296501  0.26208597  1
  Ga  Ga5  1  0.50000001  0.73791401  0.20087895  1
  Ga  Ga6  1  1.00000002  0.54150801  0.54150795  1
  Ga  Ga7  1  0.50000001  0.26208600  0.46296497  1
  Ga  Ga8  1  0.00000000  1.00000001  0.45849193  1
  Ga  Ga9  1  0.00000000  0.66666668  0.33333329  1
  Ga  Ga10  1  1.00000002  0.33333334  0.66666662  1
  Ga  Ga11  1  1.00000002  0.29425900  0.29425897  1
  P  P12  1  0.50000001  0.72517401  0.72517394  1
  Ga  Ga13  1  0.50000001  0.27482600  0.99999995  1
  Ga  Ga14  1  0.50000001  1.00000001  0.27482594  1
  Ga  Ga15  1  0.00000000  1.00000001  0.70574092  1
  Ga  Ga16  1  1.00000002  0.70574101  -0.00000004  1
