# generated using pymatgen
data_Ba2Cu5O8
_symmetry_space_group_name_H-M   'P 1'
_cell_length_a   3.90584993
_cell_length_b   3.92856598
_cell_length_c   13.95306206
_cell_angle_alpha   90.00000000
_cell_angle_beta   98.04575348
_cell_angle_gamma   90.00000000
_symmetry_Int_Tables_number   1
_chemical_formula_structural   Ba2Cu5O8
_chemical_formula_sum   'Ba2 Cu5 O8'
_cell_volume   211.99373394
_cell_formula_units_Z   1
loop_
 _symmetry_equiv_pos_site_id
 _symmetry_equiv_pos_as_xyz
  1  'x, y, z'
loop_
 _atom_site_type_symbol
 _atom_site_label
 _atom_site_symmetry_multiplicity
 _atom_site_fract_x
 _atom_site_fract_y
 _atom_site_fract_z
 _atom_site_occupancy
  Ba  Ba0  1  0.63564801  0.50000000  0.27129600  1
  Ba  Ba1  1  0.36435200  0.50000000  0.72870401  1
  Cu  Cu2  1  0.50000000  0.50000000  1.00000002  1
  Cu  Cu3  1  0.93792701  1.00000001  0.87585401  1
  Cu  Cu4  1  0.06207300  0.00000000  0.12414600  1
  Cu  Cu5  1  0.78746801  1.00000001  0.57493600  1
  Cu  Cu6  1  0.21253200  0.00000000  0.42506401  1
  O  O7  1  0.85425501  1.00000001  0.70851001  1
  O  O8  1  0.14574500  0.00000000  0.29149001  1
  O  O9  1  0.55382000  1.00000001  0.10763999  1
  O  O10  1  0.44618000  0.00000000  0.89236002  1
  O  O11  1  0.71909301  1.00000001  0.43818600  1
  O  O12  1  0.28090700  0.00000000  0.56181401  1
  O  O13  1  0.94600501  0.50000000  0.89201001  1
  O  O14  1  0.05399500  0.50000000  0.10799000  1
