# generated using pymatgen
data_Ge7Te
_symmetry_space_group_name_H-M   'P 1'
_cell_length_a   3.94033098
_cell_length_b   4.02916813
_cell_length_c   10.65443611
_cell_angle_alpha   100.89933777
_cell_angle_beta   90.00000000
_cell_angle_gamma   90.00000000
_symmetry_Int_Tables_number   1
_chemical_formula_structural   Ge7Te
_chemical_formula_sum   'Ge7 Te1'
_cell_volume   166.10119520
_cell_formula_units_Z   1
loop_
 _symmetry_equiv_pos_site_id
 _symmetry_equiv_pos_as_xyz
  1  'x, y, z'
loop_
 _atom_site_type_symbol
 _atom_site_label
 _atom_site_symmetry_multiplicity
 _atom_site_fract_x
 _atom_site_fract_y
 _atom_site_fract_z
 _atom_site_occupancy
  Ge  Ge0  1  0.75000000  0.91734398  0.83468804  1
  Ge  Ge1  1  0.25000000  0.08265600  0.16531201  1
  Ge  Ge2  1  0.75000000  0.19103400  0.38206801  1
  Ge  Ge3  1  0.25000000  0.80896598  0.61793203  1
  Ge  Ge4  1  0.75000000  0.31060499  0.62121002  1
  Ge  Ge5  1  0.25000000  0.68939498  0.37879002  1
  Ge  Ge6  1  0.75000000  0.53963699  0.07927401  1
  Te  Te7  1  0.25000000  0.46036299  0.92072603  1
