# generated using pymatgen
data_GaS3
_symmetry_space_group_name_H-M   'P 1'
_cell_length_a   6.04585218
_cell_length_b   6.04585218
_cell_length_c   7.59848595
_cell_angle_alpha   66.55723572
_cell_angle_beta   66.55723572
_cell_angle_gamma   60.00000000
_symmetry_Int_Tables_number   1
_chemical_formula_structural   GaS3
_chemical_formula_sum   'Ga2 S6'
_cell_volume   213.65033244
_cell_formula_units_Z   2
loop_
 _symmetry_equiv_pos_site_id
 _symmetry_equiv_pos_as_xyz
  1  'x, y, z'
loop_
 _atom_site_type_symbol
 _atom_site_label
 _atom_site_symmetry_multiplicity
 _atom_site_fract_x
 _atom_site_fract_y
 _atom_site_fract_z
 _atom_site_occupancy
  Ga  Ga0  1  0.66666670  0.66666665  -0.00000002  1
  Ga  Ga1  1  0.33333335  0.33333333  -0.00000001  1
  S  S2  1  0.57735104  0.93423898  0.19733297  1
  S  S3  1  0.70892302  0.42264899  0.80266696  1
  S  S4  1  0.29107703  0.57735099  0.19733298  1
  S  S5  1  0.06576103  0.70892299  0.80266696  1
  S  S6  1  0.42264900  0.06576100  0.80266697  1
  S  S7  1  0.93423901  0.29107699  0.19733298  1
