# generated using pymatgen
data_Cs(MgS)2
_symmetry_space_group_name_H-M   'P 1'
_cell_length_a   4.09865999
_cell_length_b   4.09865999
_cell_length_c   7.14507294
_cell_angle_alpha   106.66750336
_cell_angle_beta   106.66750336
_cell_angle_gamma   90.00000000
_symmetry_Int_Tables_number   1
_chemical_formula_structural   Cs(MgS)2
_chemical_formula_sum   'Cs1 Mg2 S2'
_cell_volume   109.71255762
_cell_formula_units_Z   1
loop_
 _symmetry_equiv_pos_site_id
 _symmetry_equiv_pos_as_xyz
  1  'x, y, z'
loop_
 _atom_site_type_symbol
 _atom_site_label
 _atom_site_symmetry_multiplicity
 _atom_site_fract_x
 _atom_site_fract_y
 _atom_site_fract_z
 _atom_site_occupancy
  Cs  Cs0  1  0.00000000  0.00000000  0.00000000  1
  S  S1  1  0.35625300  0.35625300  0.71250602  1
  S  S2  1  0.64374700  0.64374700  0.28749401  1
  Mg  Mg3  1  0.75000000  0.25000000  0.50000002  1
  Mg  Mg4  1  0.25000000  0.75000000  0.50000002  1
