# generated using pymatgen
data_Li(CoO)4
_symmetry_space_group_name_H-M   'P 1'
_cell_length_a   2.79708600
_cell_length_b   5.24646425
_cell_length_c   6.98636913
_cell_angle_alpha   72.02423096
_cell_angle_beta   78.45241547
_cell_angle_gamma   74.53981781
_symmetry_Int_Tables_number   1
_chemical_formula_structural   Li(CoO)4
_chemical_formula_sum   'Li1 Co4 O4'
_cell_volume   93.20984930
_cell_formula_units_Z   1
loop_
 _symmetry_equiv_pos_site_id
 _symmetry_equiv_pos_as_xyz
  1  'x, y, z'
loop_
 _atom_site_type_symbol
 _atom_site_label
 _atom_site_symmetry_multiplicity
 _atom_site_fract_x
 _atom_site_fract_y
 _atom_site_fract_z
 _atom_site_occupancy
  Co  Co0  1  0.35239803  0.41596501  0.87923899  1
  Co  Co1  1  0.63366805  0.59355802  0.13910599  1
  Li  Li2  1  0.96404805  0.53798901  0.53391498  1
  Co  Co3  1  0.84292201  0.04923300  0.26492299  1
  Co  Co4  1  0.14627007  0.96950802  0.73795199  1
  O  O5  1  0.43292106  0.78668202  0.34747599  1
  O  O6  1  0.54921902  0.23303501  0.66852699  1
  O  O7  1  0.26105502  0.30719701  0.17069299  1
  O  O8  1  0.73849706  0.70383702  0.81916899  1
