# generated using pymatgen
data_HoGeMo
_symmetry_space_group_name_H-M   'P 1'
_cell_length_a   4.19684982
_cell_length_b   7.05486012
_cell_length_c   7.05486012
_cell_angle_alpha   120.00000000
_cell_angle_beta   90.00000000
_cell_angle_gamma   90.00000000
_symmetry_Int_Tables_number   1
_chemical_formula_structural   HoGeMo
_chemical_formula_sum   'Ho3 Ge3 Mo3'
_cell_volume   180.89679588
_cell_formula_units_Z   3
loop_
 _symmetry_equiv_pos_site_id
 _symmetry_equiv_pos_as_xyz
  1  'x, y, z'
loop_
 _atom_site_type_symbol
 _atom_site_label
 _atom_site_symmetry_multiplicity
 _atom_site_fract_x
 _atom_site_fract_y
 _atom_site_fract_z
 _atom_site_occupancy
  Ho  Ho0  1  0.50000002  0.58080999  0.00000000  1
  Ho  Ho1  1  0.50000002  0.41918999  0.41919000  1
  Ho  Ho2  1  0.50000002  0.00000000  0.58080999  1
  Ge  Ge3  1  0.00000000  0.33333333  0.66666666  1
  Ge  Ge4  1  0.00000000  0.66666666  0.33333333  1
  Ge  Ge5  1  0.50000002  0.00000000  -0.00000000  1
  Mo  Mo6  1  0.00000000  0.24976300  0.99999999  1
  Mo  Mo7  1  0.00000000  0.75023699  0.75023699  1
  Mo  Mo8  1  -0.00000000  0.00000000  0.24976300  1
