# generated using pymatgen
data_Li(MoSe3)3
_symmetry_space_group_name_H-M   'P 1'
_cell_length_a   7.42870426
_cell_length_b   7.42870426
_cell_length_c   7.42870426
_cell_angle_alpha   60.00000000
_cell_angle_beta   60.00000000
_cell_angle_gamma   60.00000000
_symmetry_Int_Tables_number   1
_chemical_formula_structural   Li(MoSe3)3
_chemical_formula_sum   'Li1 Mo3 Se9'
_cell_volume   289.88397653
_cell_formula_units_Z   1
loop_
 _symmetry_equiv_pos_site_id
 _symmetry_equiv_pos_as_xyz
  1  'x, y, z'
loop_
 _atom_site_type_symbol
 _atom_site_label
 _atom_site_symmetry_multiplicity
 _atom_site_fract_x
 _atom_site_fract_y
 _atom_site_fract_z
 _atom_site_occupancy
  Mo  Mo0  1  0.60218198  0.19345599  0.60218098  1
  Mo  Mo1  1  0.60218198  0.60218098  0.60218098  1
  Mo  Mo2  1  0.60218198  0.60218098  0.19345599  1
  Li  Li3  1  0.19345699  0.60218098  0.60218098  1
  Se  Se4  1  0.00000000  0.00000000  0.00000000  1
  Se  Se5  1  0.36436699  0.90689897  0.36436699  1
  Se  Se6  1  0.36436699  0.36436699  0.36436699  1
  Se  Se7  1  0.36436699  0.36436699  0.90689897  1
  Se  Se8  1  0.90689897  0.36436699  0.36436699  1
  Se  Se9  1  0.86423297  0.40729899  0.86423397  1
  Se  Se10  1  0.86423297  0.86423397  0.86423397  1
  Se  Se11  1  0.86423297  0.86423397  0.40729899  1
  Se  Se12  1  0.40729799  0.86423397  0.86423397  1
