# generated using pymatgen
data_La2MgGaO6
_symmetry_space_group_name_H-M   'P 1'
_cell_length_a   5.58916378
_cell_length_b   5.67450523
_cell_length_c   7.90643549
_cell_angle_alpha   90.00000000
_cell_angle_beta   89.97811890
_cell_angle_gamma   90.00000000
_symmetry_Int_Tables_number   1
_chemical_formula_structural   La2MgGaO6
_chemical_formula_sum   'La4 Mg2 Ga2 O12'
_cell_volume   250.75842710
_cell_formula_units_Z   2
loop_
 _symmetry_equiv_pos_site_id
 _symmetry_equiv_pos_as_xyz
  1  'x, y, z'
loop_
 _atom_site_type_symbol
 _atom_site_label
 _atom_site_symmetry_multiplicity
 _atom_site_fract_x
 _atom_site_fract_y
 _atom_site_fract_z
 _atom_site_occupancy
  La  La0  1  0.00731000  0.21068899  0.74999201  1
  La  La1  1  0.50731002  0.78931097  0.24999198  1
  La  La2  1  0.48951102  0.70265697  0.74811999  1
  La  La3  1  0.98951104  0.29734299  0.24811996  1
  Mg  Mg4  1  0.49959702  0.24789899  0.49972699  1
  Mg  Mg5  1  0.99959704  0.75210097  0.99972697  1
  Ga  Ga6  1  0.49987602  0.24757399  0.99989799  1
  Ga  Ga7  1  0.99987604  0.75242597  0.49989797  1
  O  O8  1  0.41509602  0.23395699  0.24420399  1
  O  O9  1  0.78530803  0.04766200  0.04214997  1
  O  O10  1  0.80131803  0.03642000  0.45651097  1
  O  O11  1  0.30131801  0.96357996  0.95651100  1
  O  O12  1  0.28530801  0.95233796  0.54214999  1
  O  O13  1  0.91509604  0.76604297  0.74420397  1
  O  O14  1  0.06794600  0.72939197  0.25574000  1
  O  O15  1  0.72313503  0.53938098  0.46374698  1
  O  O16  1  0.71090203  0.52344498  0.03991197  1
  O  O17  1  0.21090201  0.47655498  0.53991200  1
  O  O18  1  0.22313501  0.46061898  0.96374700  1
  O  O19  1  0.56794602  0.27060799  0.75573999  1
