# generated using pymatgen
data_SmGe2
_symmetry_space_group_name_H-M   'P 1'
_cell_length_a   4.45218182
_cell_length_b   5.65142679
_cell_length_c   5.75927353
_cell_angle_alpha   78.49031830
_cell_angle_beta   67.26168823
_cell_angle_gamma   66.80268097
_symmetry_Int_Tables_number   1
_chemical_formula_structural   SmGe2
_chemical_formula_sum   'Sm2 Ge4'
_cell_volume   122.65153645
_cell_formula_units_Z   2
loop_
 _symmetry_equiv_pos_site_id
 _symmetry_equiv_pos_as_xyz
  1  'x, y, z'
loop_
 _atom_site_type_symbol
 _atom_site_label
 _atom_site_symmetry_multiplicity
 _atom_site_fract_x
 _atom_site_fract_y
 _atom_site_fract_z
 _atom_site_occupancy
  Sm  Sm0  1  0.46360203  0.28568599  0.78711001  1
  Sm  Sm1  1  0.53639807  0.71431397  0.21289000  1
  Ge  Ge2  1  0.83736307  0.71291197  0.61236201  1
  Ge  Ge3  1  0.16263703  0.28708799  0.38763800  1
  Ge  Ge4  1  0.16318108  0.88295396  0.79068397  1
  Ge  Ge5  1  0.83681902  0.11704599  0.20931604  1
