# generated using pymatgen
data_Ga
_symmetry_space_group_name_H-M   'P 1'
_cell_length_a   6.55732203
_cell_length_b   7.49711657
_cell_length_c   7.35776186
_cell_angle_alpha   119.38700104
_cell_angle_beta   90.00000000
_cell_angle_gamma   115.93319702
_symmetry_Int_Tables_number   1
_chemical_formula_structural   Ga
_chemical_formula_sum   Ga18
_cell_volume   272.59879220
_cell_formula_units_Z   18
loop_
 _symmetry_equiv_pos_site_id
 _symmetry_equiv_pos_as_xyz
  1  'x, y, z'
loop_
 _atom_site_type_symbol
 _atom_site_label
 _atom_site_symmetry_multiplicity
 _atom_site_fract_x
 _atom_site_fract_y
 _atom_site_fract_z
 _atom_site_occupancy
  Ga  Ga0  1  0.81386598  0.56643998  0.03321997  1
  Ga  Ga1  1  0.24742599  0.43355999  0.96678000  1
  Ga  Ga2  1  0.66566100  0.00104300  0.75052101  1
  Ga  Ga3  1  0.66461697  0.99895597  0.24947795  1
  Ga  Ga4  1  0.23630799  0.39020599  0.44510299  1
  Ga  Ga5  1  0.84610198  0.60979398  0.55489698  1
  Ga  Ga6  1  0.91267999  0.33333199  0.16886299  1
  Ga  Ga7  1  0.57934798  0.66666898  0.83113798  1
  Ga  Ga8  1  0.57934898  0.66666998  0.33553197  1
  Ga  Ga9  1  0.91267899  0.33333099  0.66446900  1
  Ga  Ga10  1  0.21819497  0.93441997  0.21720996  1
  Ga  Ga11  1  0.28377500  0.06558000  0.78279001  1
  Ga  Ga12  1  0.24659998  0.75064698  0.41453897  1
  Ga  Ga13  1  0.49595399  0.24935399  0.58546200  1
  Ga  Ga14  1  0.49595299  0.24935299  0.16389199  1
  Ga  Ga15  1  0.24660098  0.75064798  0.83610898  1
  Ga  Ga16  1  0.99764300  0.00000000  -0.00000000  1
  Ga  Ga17  1  0.99764300  0.00000000  0.50000001  1
