# generated using pymatgen
data_Na3CuF4
_symmetry_space_group_name_H-M   'P 1'
_cell_length_a   3.14602399
_cell_length_b   5.77559376
_cell_length_c   5.77559376
_cell_angle_alpha   108.39571381
_cell_angle_beta   90.00000000
_cell_angle_gamma   90.00000000
_symmetry_Int_Tables_number   1
_chemical_formula_structural   Na3CuF4
_chemical_formula_sum   'Na3 Cu1 F4'
_cell_volume   99.58079295
_cell_formula_units_Z   1
loop_
 _symmetry_equiv_pos_site_id
 _symmetry_equiv_pos_as_xyz
  1  'x, y, z'
loop_
 _atom_site_type_symbol
 _atom_site_label
 _atom_site_symmetry_multiplicity
 _atom_site_fract_x
 _atom_site_fract_y
 _atom_site_fract_z
 _atom_site_occupancy
  Na  Na0  1  1.00000000  0.50000001  -0.00000001  1
  Na  Na1  1  0.00000000  0.00000000  0.49999999  1
  Cu  Cu2  1  0.50000000  0.50000001  0.49999998  1
  Na  Na3  1  0.50000000  0.00000000  -0.00000000  1
  F  F4  1  0.50000000  0.79932502  0.20067498  1
  F  F5  1  1.00000000  0.32078701  0.32078698  1
  F  F6  1  1.00000000  0.67921302  0.67921297  1
  F  F7  1  0.50000000  0.20067500  0.79932497  1
