# generated using pymatgen
data_Mg(GaO2)2
_symmetry_space_group_name_H-M   'P 1'
_cell_length_a   6.00276947
_cell_length_b   6.01435900
_cell_length_c   6.03830910
_cell_angle_alpha   119.86869812
_cell_angle_beta   119.80542755
_cell_angle_gamma   90.00003815
_symmetry_Int_Tables_number   1
_chemical_formula_structural   Mg(GaO2)2
_chemical_formula_sum   'Mg2 Ga4 O8'
_cell_volume   154.90530099
_cell_formula_units_Z   2
loop_
 _symmetry_equiv_pos_site_id
 _symmetry_equiv_pos_as_xyz
  1  'x, y, z'
loop_
 _atom_site_type_symbol
 _atom_site_label
 _atom_site_symmetry_multiplicity
 _atom_site_fract_x
 _atom_site_fract_y
 _atom_site_fract_z
 _atom_site_occupancy
  Mg  Mg0  1  0.37499994  0.62499996  0.25000090  1
  Mg  Mg1  1  0.87499993  0.62499896  0.24999986  1
  Ga  Ga2  1  0.00557200  0.00557700  0.01114100  1
  Ga  Ga3  1  0.74442897  0.24442699  0.48885492  1
  Ga  Ga4  1  0.37499798  0.12499699  0.75000096  1
  Ga  Ga5  1  0.37500194  0.62500396  0.74999790  1
  O  O6  1  0.61157596  0.36737698  0.22315191  1
  O  O7  1  0.61157492  0.85577295  0.22315286  1
  O  O8  1  0.13842496  0.39422698  0.27684895  1
  O  O9  1  0.13842392  0.88262095  0.27684889  1
  O  O10  1  0.13831797  0.37322798  0.74645595  1
  O  O11  1  0.60813796  0.37322698  0.74645492  1
  O  O12  1  0.14186192  0.87677095  0.75354589  1
  O  O13  1  0.61168291  0.87677095  0.75354386  1
