# generated using pymatgen
data_Cs4Ag3S7
_symmetry_space_group_name_H-M   'P 1'
_cell_length_a   7.36381102
_cell_length_b   7.63347912
_cell_length_c   9.32637310
_cell_angle_alpha   90.00000000
_cell_angle_beta   71.12934875
_cell_angle_gamma   90.00000000
_symmetry_Int_Tables_number   1
_chemical_formula_structural   Cs4Ag3S7
_chemical_formula_sum   'Cs4 Ag3 S7'
_cell_volume   496.07160001
_cell_formula_units_Z   1
loop_
 _symmetry_equiv_pos_site_id
 _symmetry_equiv_pos_as_xyz
  1  'x, y, z'
loop_
 _atom_site_type_symbol
 _atom_site_label
 _atom_site_symmetry_multiplicity
 _atom_site_fract_x
 _atom_site_fract_y
 _atom_site_fract_z
 _atom_site_occupancy
  Cs  Cs0  1  0.77857298  0.25000000  0.42591503  1
  Cs  Cs1  1  0.22142700  0.74999999  0.57408500  1
  Cs  Cs2  1  0.70565999  0.25000000  0.95535301  1
  Cs  Cs3  1  0.29433999  0.74999999  0.04464701  1
  Ag  Ag4  1  0.28194699  0.25000000  0.79386900  1
  Ag  Ag5  1  0.71805299  0.74999999  0.20613103  1
  S  S6  1  0.10687800  0.25000000  0.06479300  1
  Ag  Ag7  1  0.89312198  0.74999999  0.93520702  1
  S  S8  1  0.07477800  0.25000000  0.63720799  1
  S  S9  1  0.92522198  0.74999999  0.36279203  1
  S  S10  1  0.50024099  0.99920998  0.73360101  1
  S  S11  1  0.49975899  0.49920999  0.26639902  1
  S  S12  1  0.49975899  0.00079000  0.26639902  1
  S  S13  1  0.50024099  0.50078999  0.73360101  1
