# generated using pymatgen
data_Tb2InGe3
_symmetry_space_group_name_H-M   'P 1'
_cell_length_a   4.05956984
_cell_length_b   5.55838013
_cell_length_c   5.72109413
_cell_angle_alpha   90.00000000
_cell_angle_beta   90.00000000
_cell_angle_gamma   111.41838837
_symmetry_Int_Tables_number   1
_chemical_formula_structural   Tb2InGe3
_chemical_formula_sum   'Tb2 In1 Ge3'
_cell_volume   120.17895486
_cell_formula_units_Z   1
loop_
 _symmetry_equiv_pos_site_id
 _symmetry_equiv_pos_as_xyz
  1  'x, y, z'
loop_
 _atom_site_type_symbol
 _atom_site_label
 _atom_site_symmetry_multiplicity
 _atom_site_fract_x
 _atom_site_fract_y
 _atom_site_fract_z
 _atom_site_occupancy
  Tb  Tb0  1  0.30991296  0.61982600  0.74999998  1
  Tb  Tb1  1  0.69008700  0.38017400  0.24999999  1
  In  In2  1  0.00000000  0.00000000  0.49999999  1
  Ge  Ge3  1  0.00000000  0.00000000  0.00000000  1
  Ge  Ge4  1  0.60675501  0.21351000  0.74999998  1
  Ge  Ge5  1  0.39324495  0.78649000  0.24999999  1
