# generated using pymatgen
data_LiCo5O8
_symmetry_space_group_name_H-M   'P 1'
_cell_length_a   5.70834160
_cell_length_b   5.70900011
_cell_length_c   5.92924213
_cell_angle_alpha   91.11696625
_cell_angle_beta   118.33767700
_cell_angle_gamma   119.02799988
_symmetry_Int_Tables_number   1
_chemical_formula_structural   LiCo5O8
_chemical_formula_sum   'Li1 Co5 O8'
_cell_volume   140.65543601
_cell_formula_units_Z   1
loop_
 _symmetry_equiv_pos_site_id
 _symmetry_equiv_pos_as_xyz
  1  'x, y, z'
loop_
 _atom_site_type_symbol
 _atom_site_label
 _atom_site_symmetry_multiplicity
 _atom_site_fract_x
 _atom_site_fract_y
 _atom_site_fract_z
 _atom_site_occupancy
  Li  Li0  1  0.00000004  0.50000303  0.50000499  1
  Co  Co1  1  0.49998908  0.99998607  0.49999301  1
  Co  Co2  1  0.99999009  0.99998207  0.99999703  1
  Co  Co3  1  0.50003704  0.50001603  0.00001102  1
  Co  Co4  1  0.99999805  0.50002603  0.00000605  1
  Co  Co5  1  0.49997908  0.99997807  0.99999101  1
  O  O6  1  0.99093607  0.74740605  0.21530304  1
  O  O7  1  0.46942802  0.22068701  0.21296502  1
  O  O8  1  0.53901803  0.25864502  0.80391902  1
  O  O9  1  0.96025603  0.23594802  0.20074804  1
  O  O10  1  0.03975505  0.76406605  0.79927499  1
  O  O11  1  0.46097606  0.74133405  0.19608001  1
  O  O12  1  0.53058806  0.77932305  0.78704601  1
  O  O13  1  0.00905002  0.25260002  0.78466399  1
