# generated using pymatgen
data_GaO
_symmetry_space_group_name_H-M   'P 1'
_cell_length_a   3.00936007
_cell_length_b   4.76442719
_cell_length_c   9.27944756
_cell_angle_alpha   89.99913788
_cell_angle_beta   89.99999237
_cell_angle_gamma   90.00057220
_symmetry_Int_Tables_number   1
_chemical_formula_structural   GaO
_chemical_formula_sum   'Ga6 O6'
_cell_volume   133.04757720
_cell_formula_units_Z   6
loop_
 _symmetry_equiv_pos_site_id
 _symmetry_equiv_pos_as_xyz
  1  'x, y, z'
loop_
 _atom_site_type_symbol
 _atom_site_label
 _atom_site_symmetry_multiplicity
 _atom_site_fract_x
 _atom_site_fract_y
 _atom_site_fract_z
 _atom_site_occupancy
  Ga  Ga0  1  0.24999896  0.52289998  0.63967104  1
  Ga  Ga1  1  0.24999894  0.97712496  0.13964803  1
  Ga  Ga2  1  0.75000095  0.47749198  0.36035302  1
  Ga  Ga3  1  0.74999898  0.02258600  0.86036104  1
  O  O4  1  0.25000198  0.25867299  0.28437302  1
  O  O5  1  0.24999998  0.24132999  0.78434304  1
  O  O6  1  0.75000094  0.74130197  0.71562804  1
  O  O7  1  0.75000094  0.75862897  0.21565202  1
  O  O8  1  0.25001596  0.68040997  0.45262703  1
  Ga  Ga9  1  0.24998395  0.81956997  0.95266006  1
  O  O10  1  0.74998496  0.31975999  0.54734003  1
  Ga  Ga11  1  0.75001397  0.18022299  0.04734500  1
