# generated using pymatgen
data_Si(AgS2)2
_symmetry_space_group_name_H-M   'P 1'
_cell_length_a   3.86982608
_cell_length_b   3.86982608
_cell_length_c   6.85344887
_cell_angle_alpha   106.39913177
_cell_angle_beta   106.39913177
_cell_angle_gamma   90.00000000
_symmetry_Int_Tables_number   1
_chemical_formula_structural   Si(AgS2)2
_chemical_formula_sum   'Si1 Ag2 S4'
_cell_volume   94.09843000
_cell_formula_units_Z   1
loop_
 _symmetry_equiv_pos_site_id
 _symmetry_equiv_pos_as_xyz
  1  'x, y, z'
loop_
 _atom_site_type_symbol
 _atom_site_label
 _atom_site_symmetry_multiplicity
 _atom_site_fract_x
 _atom_site_fract_y
 _atom_site_fract_z
 _atom_site_occupancy
  Ag  Ag0  1  0.63961799  0.63961799  0.27923600  1
  Ag  Ag1  1  0.36023300  0.36023299  0.72046599  1
  Si  Si2  1  0.00191500  0.00191500  0.00383000  1
  S  S3  1  0.99444299  0.49444299  0.98888599  1
  S  S4  1  0.49444300  0.99444298  0.98888599  1
  S  S5  1  0.83549699  0.83549699  0.67099400  1
  S  S6  1  0.17385100  0.17385100  0.34770199  1
