# generated using pymatgen
data_SrCuO3
_symmetry_space_group_name_H-M   'P 1'
_cell_length_a   3.26335406
_cell_length_b   5.36079359
_cell_length_c   7.47387791
_cell_angle_alpha   90.00000000
_cell_angle_beta   90.00000000
_cell_angle_gamma   107.72040558
_symmetry_Int_Tables_number   1
_chemical_formula_structural   SrCuO3
_chemical_formula_sum   'Sr2 Cu2 O6'
_cell_volume   124.54563004
_cell_formula_units_Z   2
loop_
 _symmetry_equiv_pos_site_id
 _symmetry_equiv_pos_as_xyz
  1  'x, y, z'
loop_
 _atom_site_type_symbol
 _atom_site_label
 _atom_site_symmetry_multiplicity
 _atom_site_fract_x
 _atom_site_fract_y
 _atom_site_fract_z
 _atom_site_occupancy
  Sr  Sr0  1  0.24984704  0.49969402  0.75000001  1
  Sr  Sr1  1  0.75015303  0.50030602  0.25000000  1
  Cu  Cu2  1  0.00000000  0.00000000  0.50000001  1
  Cu  Cu3  1  0.00000000  0.00000000  0.00000000  1
  O  O4  1  0.94593306  0.89186604  0.75000001  1
  O  O5  1  0.05406701  0.10813400  0.25000000  1
  O  O6  1  0.62234301  0.24468601  0.95472201  1
  O  O7  1  0.37765706  0.75531403  0.04527800  1
  O  O8  1  0.62234301  0.24468601  0.54527801  1
  O  O9  1  0.37765706  0.75531403  0.45472201  1
