# generated using pymatgen
data_CsMoIO4F11
_symmetry_space_group_name_H-M   'P 1'
_cell_length_a   4.94220877
_cell_length_b   6.29306412
_cell_length_c   9.49849224
_cell_angle_alpha   90.00000000
_cell_angle_beta   99.17488098
_cell_angle_gamma   90.00000000
_symmetry_Int_Tables_number   1
_chemical_formula_structural   CsMoIO4F11
_chemical_formula_sum   'Cs1 Mo1 I1 O4 F11'
_cell_volume   291.63914604
_cell_formula_units_Z   1
loop_
 _symmetry_equiv_pos_site_id
 _symmetry_equiv_pos_as_xyz
  1  'x, y, z'
loop_
 _atom_site_type_symbol
 _atom_site_label
 _atom_site_symmetry_multiplicity
 _atom_site_fract_x
 _atom_site_fract_y
 _atom_site_fract_z
 _atom_site_occupancy
  F  F0  1  0.29189801  0.25000000  0.88971100  1
  F  F1  1  0.70810203  0.74999999  0.11028898  1
  Mo  Mo2  1  0.90383703  0.74999999  0.73324598  1
  I  I3  1  0.09616300  0.25000000  0.26675400  1
  O  O4  1  0.65681902  0.74999999  0.57843698  1
  O  O5  1  0.34318101  0.25000000  0.42156299  1
  O  O6  1  0.49508002  0.74999999  0.47425699  1
  O  O7  1  0.50492002  0.25000000  0.52574299  1
  Cs  Cs8  1  0.12658800  0.52796399  0.66800800  1
  F  F9  1  0.87341203  0.02796400  0.33199197  1
  F  F10  1  0.87341203  0.47203599  0.33199197  1
  F  F11  1  0.12658800  0.97203598  0.66800800  1
  F  F12  1  0.72929803  0.96803698  0.83440198  1
  F  F13  1  0.27070201  0.46803699  0.16559799  1
  F  F14  1  0.27070201  0.03196300  0.16559799  1
  F  F15  1  0.72929803  0.53196299  0.83440198  1
  F  F16  1  0.17783201  0.74999999  0.90657500  1
  F  F17  1  0.82216803  0.25000000  0.09342497  1
