# generated using pymatgen
data_Bi7SbO12
_symmetry_space_group_name_H-M   'P 1'
_cell_length_a   5.80790806
_cell_length_b   6.05302095
_cell_length_c   8.36928177
_cell_angle_alpha   90.00000000
_cell_angle_beta   89.90224457
_cell_angle_gamma   90.00000000
_symmetry_Int_Tables_number   1
_chemical_formula_structural   Bi7SbO12
_chemical_formula_sum   'Bi7 Sb1 O12'
_cell_volume   294.22492946
_cell_formula_units_Z   1
loop_
 _symmetry_equiv_pos_site_id
 _symmetry_equiv_pos_as_xyz
  1  'x, y, z'
loop_
 _atom_site_type_symbol
 _atom_site_label
 _atom_site_symmetry_multiplicity
 _atom_site_fract_x
 _atom_site_fract_y
 _atom_site_fract_z
 _atom_site_occupancy
  Bi  Bi0  1  0.48449800  0.44463800  0.75256103  1
  Bi  Bi1  1  0.98449799  0.05536200  0.25256099  1
  Bi  Bi2  1  0.51550199  0.55536200  0.24743900  1
  Bi  Bi3  1  0.01550200  0.94463801  0.74743904  1
  Bi  Bi4  1  0.00000000  0.50000000  0.50000002  1
  Bi  Bi5  1  0.50000000  0.00000000  -0.00000001  1
  Bi  Bi6  1  0.99999999  0.50000000  1.00000003  1
  Sb  Sb7  1  0.50000000  0.00000000  0.50000001  1
  O  O8  1  0.61795699  0.05246700  0.72694702  1
  O  O9  1  0.11795700  0.44753300  0.22694701  1
  O  O10  1  0.38204300  0.94753301  0.27305300  1
  O  O11  1  0.88204299  0.55246700  0.77305302  1
  O  O12  1  0.21608600  0.17707400  0.55606602  1
  O  O13  1  0.71608599  0.32292600  0.05606599  1
  O  O14  1  0.78391399  0.82292601  0.44393400  1
  O  O15  1  0.28391400  0.67707401  0.94393404  1
  O  O16  1  0.16920300  0.21924500  0.93103704  1
  O  O17  1  0.66920299  0.28075500  0.43103701  1
  O  O18  1  0.83079699  0.78075501  0.06896298  1
  O  O19  1  0.33079700  0.71924501  0.56896302  1
