# generated using pymatgen
data_In(AgSe2)2
_symmetry_space_group_name_H-M   'P 1'
_cell_length_a   3.88121200
_cell_length_b   6.98979855
_cell_length_c   7.39650822
_cell_angle_alpha   117.49736023
_cell_angle_beta   105.21060944
_cell_angle_gamma   90.00000000
_symmetry_Int_Tables_number   1
_chemical_formula_structural   In(AgSe2)2
_chemical_formula_sum   'In1 Ag2 Se4'
_cell_volume   170.02691765
_cell_formula_units_Z   1
loop_
 _symmetry_equiv_pos_site_id
 _symmetry_equiv_pos_as_xyz
  1  'x, y, z'
loop_
 _atom_site_type_symbol
 _atom_site_label
 _atom_site_symmetry_multiplicity
 _atom_site_fract_x
 _atom_site_fract_y
 _atom_site_fract_z
 _atom_site_occupancy
  Ag  Ag0  1  0.99800297  0.99694297  0.99600590  1
  Ag  Ag1  1  0.75062098  0.70636498  0.50124194  1
  In  In2  1  0.25085899  0.29482399  0.50171796  1
  Se  Se3  1  0.89021098  0.54545298  0.78042194  1
  Se  Se4  1  0.10871399  0.44852099  0.21742796  1
  Se  Se5  1  0.63745197  0.97066997  0.27490392  1
  Se  Se6  1  0.36414100  0.03722400  0.72828198  1
