# generated using pymatgen
data_CuGe4Te7
_symmetry_space_group_name_H-M   'P 1'
_cell_length_a   3.81107593
_cell_length_b   6.51686049
_cell_length_c   11.37948418
_cell_angle_alpha   104.95174408
_cell_angle_beta   90.00000000
_cell_angle_gamma   107.00177002
_symmetry_Int_Tables_number   1
_chemical_formula_structural   CuGe4Te7
_chemical_formula_sum   'Cu1 Ge4 Te7'
_cell_volume   260.24944238
_cell_formula_units_Z   1
loop_
 _symmetry_equiv_pos_site_id
 _symmetry_equiv_pos_as_xyz
  1  'x, y, z'
loop_
 _atom_site_type_symbol
 _atom_site_label
 _atom_site_symmetry_multiplicity
 _atom_site_fract_x
 _atom_site_fract_y
 _atom_site_fract_z
 _atom_site_occupancy
  Ge  Ge0  1  0.30666404  0.61332802  0.20835000  1
  Ge  Ge1  1  0.69284303  0.38568601  0.80124398  1
  Ge  Ge2  1  0.00171300  0.00342600  0.00813400  1
  Ge  Ge3  1  0.88728006  0.77456003  0.56192599  1
  Cu  Cu4  1  0.11530801  0.23061601  0.42538299  1
  Te  Te5  1  0.25168603  0.50337202  0.63137299  1
  Te  Te6  1  0.72575904  0.45151802  0.35252599  1
  Te  Te7  1  0.66429603  0.32859201  0.05251300  1
  Te  Te8  1  0.34054704  0.68109402  0.94752198  1
  Te  Te9  1  0.97002507  0.94005003  0.23279200  1
  Te  Te10  1  0.03516200  0.07032400  0.78463098  1
  Te  Te11  1  0.50871801  0.01743600  0.49360699  1
