# generated using pymatgen
data_Cu2AgF6
_symmetry_space_group_name_H-M   'P 1'
_cell_length_a   5.62413502
_cell_length_b   5.97066307
_cell_length_c   9.16421795
_cell_angle_alpha   102.40451050
_cell_angle_beta   90.00000000
_cell_angle_gamma   90.00000000
_symmetry_Int_Tables_number   1
_chemical_formula_structural   Cu2AgF6
_chemical_formula_sum   'Cu4 Ag2 F12'
_cell_volume   300.54883879
_cell_formula_units_Z   2
loop_
 _symmetry_equiv_pos_site_id
 _symmetry_equiv_pos_as_xyz
  1  'x, y, z'
loop_
 _atom_site_type_symbol
 _atom_site_label
 _atom_site_symmetry_multiplicity
 _atom_site_fract_x
 _atom_site_fract_y
 _atom_site_fract_z
 _atom_site_occupancy
  Ag  Ag0  1  0.25486300  0.06732300  0.17322001  1
  Ag  Ag1  1  0.75486300  0.93267699  0.82678003  1
  Cu  Cu2  1  0.73059800  0.42164600  0.14966101  1
  Cu  Cu3  1  0.23059800  0.57835399  0.85033903  1
  Cu  Cu4  1  0.76206700  0.26763000  0.57222802  1
  Cu  Cu5  1  0.26206700  0.73236999  0.42777202  1
  F  F6  1  0.06658000  0.48815099  0.34949201  1
  F  F7  1  0.56658000  0.51184899  0.65050802  1
  F  F8  1  0.50123800  0.33601600  0.00614900  1
  F  F9  1  0.00123800  0.66398399  0.99385104  1
  F  F10  1  0.57953200  0.29161100  0.29246501  1
  F  F11  1  0.07953200  0.70838899  0.70753503  1
  F  F12  1  0.06513700  0.97110799  0.41207902  1
  F  F13  1  0.56513700  0.02889200  0.58792102  1
  F  F14  1  0.42424800  0.83033499  0.93354403  1
  F  F15  1  0.92424800  0.16966500  0.06645600  1
  F  F16  1  0.43665700  0.76034499  0.25972401  1
  F  F17  1  0.93665700  0.23965500  0.74027603  1
