# generated using pymatgen
data_Ba2Se5
_symmetry_space_group_name_H-M   'P 1'
_cell_length_a   4.46476603
_cell_length_b   4.46517992
_cell_length_c   22.65240860
_cell_angle_alpha   84.34382629
_cell_angle_beta   90.00000000
_cell_angle_gamma   90.00000000
_symmetry_Int_Tables_number   1
_chemical_formula_structural   Ba2Se5
_chemical_formula_sum   'Ba4 Se10'
_cell_volume   449.39932841
_cell_formula_units_Z   2
loop_
 _symmetry_equiv_pos_site_id
 _symmetry_equiv_pos_as_xyz
  1  'x, y, z'
loop_
 _atom_site_type_symbol
 _atom_site_label
 _atom_site_symmetry_multiplicity
 _atom_site_fract_x
 _atom_site_fract_y
 _atom_site_fract_z
 _atom_site_occupancy
  Ba  Ba0  1  0.75000000  0.09771400  0.80457201  1
  Ba  Ba1  1  0.25000000  0.90228601  0.19542801  1
  Ba  Ba2  1  0.75000000  0.30675600  0.38648801  1
  Ba  Ba3  1  0.25000000  0.69324401  0.61351201  1
  Se  Se4  1  0.75000000  0.95861602  0.08276801  1
  Se  Se5  1  0.25000000  0.04138400  0.91723202  1
  Se  Se6  1  0.75000000  0.54183901  0.91632202  1
  Se  Se7  1  0.25000000  0.45816101  0.08367800  1
  Se  Se8  1  0.75000000  0.74998601  0.50002801  1
  Se  Se9  1  0.25000000  0.25001400  0.49997201  1
  Se  Se10  1  0.75000000  0.17258600  0.65482801  1
  Se  Se11  1  0.25000000  0.82741401  0.34517201  1
  Se  Se12  1  0.75000000  0.38019301  0.23961401  1
  Se  Se13  1  0.25000000  0.61980701  0.76038602  1
