# generated using pymatgen
data_Ba3CuBi6S4O5
_symmetry_space_group_name_H-M   'P 1'
_cell_length_a   3.90133595
_cell_length_b   9.00650406
_cell_length_c   12.91255856
_cell_angle_alpha   106.97554779
_cell_angle_beta   90.00000000
_cell_angle_gamma   102.50849152
_symmetry_Int_Tables_number   1
_chemical_formula_structural   Ba3CuBi6S4O5
_chemical_formula_sum   'Ba3 Cu1 Bi6 S4 O5'
_cell_volume   422.67237817
_cell_formula_units_Z   1
loop_
 _symmetry_equiv_pos_site_id
 _symmetry_equiv_pos_as_xyz
  1  'x, y, z'
loop_
 _atom_site_type_symbol
 _atom_site_label
 _atom_site_symmetry_multiplicity
 _atom_site_fract_x
 _atom_site_fract_y
 _atom_site_fract_z
 _atom_site_occupancy
  Bi  Bi0  1  0.09622097  0.19244200  0.51301701  1
  Cu  Cu1  1  0.90377888  0.80755799  0.48698298  1
  Bi  Bi2  1  0.28669091  0.57338199  0.94522501  1
  Bi  Bi3  1  0.71330894  0.42661799  0.05477498  1
  Ba  Ba4  1  0.58840898  0.17681800  0.77518502  1
  Bi  Bi5  1  0.41159087  0.82318199  0.22481497  1
  Ba  Ba6  1  0.80172391  0.60344799  0.66233300  1
  Ba  Ba7  1  0.19827594  0.39655199  0.33766699  1
  S  S8  1  0.00000000  0.00000000  0.00000000  1
  O  O9  1  0.02221699  0.04443400  0.63341202  1
  S  S10  1  0.97778286  0.95556599  0.36658797  1
  S  S11  1  0.15343595  0.30687200  0.97170902  1
  S  S12  1  0.84656390  0.69312799  0.02829097  1
  O  O13  1  0.66397496  0.32795000  0.50336900  1
  O  O14  1  0.33602490  0.67204999  0.49663099  1
  O  O15  1  0.24073293  0.48146599  0.76037600  1
  O  O16  1  0.75926693  0.51853399  0.23962398  1
  Bi  Bi17  1  0.45715286  0.91430599  0.83413399  1
  Bi  Bi18  1  0.54284699  0.08569400  0.16586600  1
