# generated using pymatgen
data_Mg3O5
_symmetry_space_group_name_H-M   'P 1'
_cell_length_a   3.99357200
_cell_length_b   5.61429548
_cell_length_c   10.44133759
_cell_angle_alpha   90.00000000
_cell_angle_beta   90.00000000
_cell_angle_gamma   110.83396149
_symmetry_Int_Tables_number   1
_chemical_formula_structural   Mg3O5
_chemical_formula_sum   'Mg6 O10'
_cell_volume   218.79917537
_cell_formula_units_Z   2
loop_
 _symmetry_equiv_pos_site_id
 _symmetry_equiv_pos_as_xyz
  1  'x, y, z'
loop_
 _atom_site_type_symbol
 _atom_site_label
 _atom_site_symmetry_multiplicity
 _atom_site_fract_x
 _atom_site_fract_y
 _atom_site_fract_z
 _atom_site_occupancy
  Mg  Mg0  1  0.81803500  0.63607001  0.25000001  1
  Mg  Mg1  1  0.18196500  0.36393001  0.75000003  1
  Mg  Mg2  1  0.13639800  0.27279600  0.43320902  1
  Mg  Mg3  1  0.86360200  0.72720401  0.56679102  1
  Mg  Mg4  1  0.86360200  0.72720401  0.93320904  1
  Mg  Mg5  1  0.13639800  0.27279600  0.06679100  1
  O  O6  1  0.77621300  0.55242601  0.75000003  1
  O  O7  1  0.22378700  0.44757401  0.25000001  1
  O  O8  1  0.30627000  0.61254001  0.93948604  1
  O  O9  1  0.69373000  0.38746001  0.06051400  1
  O  O10  1  0.69373000  0.38746001  0.43948602  1
  O  O11  1  0.30627000  0.61254001  0.56051402  1
  O  O12  1  0.94857001  0.89714001  0.38709002  1
  O  O13  1  0.05143000  0.10286000  0.61291002  1
  O  O14  1  0.94857001  0.89714001  0.11291000  1
  O  O15  1  0.05143000  0.10286000  0.88709004  1
