# generated using pymatgen
data_CsCoBr3
_symmetry_space_group_name_H-M   'P 1'
_cell_length_a   6.33636379
_cell_length_b   7.69590807
_cell_length_c   7.69590807
_cell_angle_alpha   60.00000000
_cell_angle_beta   90.00000000
_cell_angle_gamma   90.00000000
_symmetry_Int_Tables_number   1
_chemical_formula_structural   CsCoBr3
_chemical_formula_sum   'Cs2 Co2 Br6'
_cell_volume   325.00532588
_cell_formula_units_Z   2
loop_
 _symmetry_equiv_pos_site_id
 _symmetry_equiv_pos_as_xyz
  1  'x, y, z'
loop_
 _atom_site_type_symbol
 _atom_site_label
 _atom_site_symmetry_multiplicity
 _atom_site_fract_x
 _atom_site_fract_y
 _atom_site_fract_z
 _atom_site_occupancy
  Cs  Cs0  1  0.25000001  0.33333333  0.33333333  1
  Cs  Cs1  1  0.75000002  0.66666666  0.66666666  1
  Co  Co2  1  0.50000002  0.00000000  0.00000000  1
  Co  Co3  1  0.00000000  0.00000000  0.00000000  1
  Br  Br4  1  0.75000002  0.15222200  0.69555600  1
  Br  Br5  1  0.75000002  0.69555600  0.15222199  1
  Br  Br6  1  0.75000002  0.15222200  0.15222200  1
  Br  Br7  1  0.25000001  0.84777800  0.30444399  1
  Br  Br8  1  0.25000001  0.30444400  0.84777800  1
  Br  Br9  1  0.25000001  0.84777800  0.84777800  1
