# generated using pymatgen
data_LuSc3(Mn3Ge4)2
_symmetry_space_group_name_H-M   'P 1'
_cell_length_a   6.75995016
_cell_length_b   6.93827105
_cell_length_c   6.87224579
_cell_angle_alpha   90.00000000
_cell_angle_beta   71.11938477
_cell_angle_gamma   90.00000000
_symmetry_Int_Tables_number   1
_chemical_formula_structural   LuSc3(Mn3Ge4)2
_chemical_formula_sum   'Lu1 Sc3 Mn6 Ge8'
_cell_volume   304.98188203
_cell_formula_units_Z   1
loop_
 _symmetry_equiv_pos_site_id
 _symmetry_equiv_pos_as_xyz
  1  'x, y, z'
loop_
 _atom_site_type_symbol
 _atom_site_label
 _atom_site_symmetry_multiplicity
 _atom_site_fract_x
 _atom_site_fract_y
 _atom_site_fract_z
 _atom_site_occupancy
  Lu  Lu0  1  0.06222600  0.83015899  0.80918100  1
  Sc  Sc1  1  0.56222599  0.66984100  0.80918098  1
  Sc  Sc2  1  0.93777399  0.16984100  0.19081896  1
  Sc  Sc3  1  0.43777400  0.33015900  0.19081898  1
  Ge  Ge4  1  0.86861099  0.45503200  0.90967296  1
  Ge  Ge5  1  0.37185100  0.63144900  0.49520199  1
  Ge  Ge6  1  0.12814900  0.13144900  0.50479800  1
  Ge  Ge7  1  0.63138899  0.95503199  0.09032697  1
  Ge  Ge8  1  0.87185099  0.86855099  0.49520196  1
  Ge  Ge9  1  0.62814899  0.36855100  0.50479797  1
  Ge  Ge10  1  0.36861100  0.04496800  0.90967299  1
  Ge  Ge11  1  0.13138900  0.54496800  0.09032699  1
  Mn  Mn12  1  0.74894499  0.16266300  0.75039897  1
  Mn  Mn13  1  0.75105499  0.66266300  0.24960097  1
  Mn  Mn14  1  0.25105500  0.83733699  0.24960099  1
  Mn  Mn15  1  0.24894500  0.33733700  0.75039899  1
  Mn  Mn16  1  -0.00000000  0.50000000  0.50000000  1
  Mn  Mn17  1  0.50000000  0.00000000  0.49999998  1
