# generated using pymatgen
data_Ho4Ge5Rh3
_symmetry_space_group_name_H-M   'P 1'
_cell_length_a   4.29490900
_cell_length_b   6.91845894
_cell_length_c   7.19020796
_cell_angle_alpha   90.00000000
_cell_angle_beta   90.00000000
_cell_angle_gamma   90.00000000
_symmetry_Int_Tables_number   1
_chemical_formula_structural   Ho4Ge5Rh3
_chemical_formula_sum   'Ho4 Ge5 Rh3'
_cell_volume   213.65092905
_cell_formula_units_Z   1
loop_
 _symmetry_equiv_pos_site_id
 _symmetry_equiv_pos_as_xyz
  1  'x, y, z'
loop_
 _atom_site_type_symbol
 _atom_site_label
 _atom_site_symmetry_multiplicity
 _atom_site_fract_x
 _atom_site_fract_y
 _atom_site_fract_z
 _atom_site_occupancy
  Ho  Ho0  1  0.25000000  0.82735601  0.50690200  1
  Ho  Ho1  1  0.75000000  0.32735600  0.99309801  1
  Ho  Ho2  1  0.25000000  0.67264401  0.00690200  1
  Ho  Ho3  1  0.75000000  0.17264400  0.49309800  1
  Ge  Ge4  1  0.75000000  0.61156201  0.31047900  1
  Rh  Rh5  1  0.75000000  0.88843801  0.81047900  1
  Rh  Rh6  1  0.25000000  0.38843800  0.68952100  1
  Ge  Ge7  1  0.25000000  0.11156200  0.18952100  1
  Rh  Rh8  1  0.75000000  0.92658301  0.14813600  1
  Ge  Ge9  1  0.75000000  0.57341701  0.64813600  1
  Ge  Ge10  1  0.25000000  0.42658300  0.35186400  1
  Ge  Ge11  1  0.25000000  0.07341700  0.85186400  1
