# generated using pymatgen
data_In
_symmetry_space_group_name_H-M   'P 1'
_cell_length_a   4.37668991
_cell_length_b   4.45981121
_cell_length_c   19.16614532
_cell_angle_alpha   90.00000000
_cell_angle_beta   90.00000000
_cell_angle_gamma   90.00000000
_symmetry_Int_Tables_number   1
_chemical_formula_structural   In
_chemical_formula_sum   In14
_cell_volume   374.10802948
_cell_formula_units_Z   14
loop_
 _symmetry_equiv_pos_site_id
 _symmetry_equiv_pos_as_xyz
  1  'x, y, z'
loop_
 _atom_site_type_symbol
 _atom_site_label
 _atom_site_symmetry_multiplicity
 _atom_site_fract_x
 _atom_site_fract_y
 _atom_site_fract_z
 _atom_site_occupancy
  In  In0  1  0.00000000  0.49999998  0.87082103  1
  In  In1  1  0.00000000  0.00000000  0.30108101  1
  In  In2  1  0.50000001  0.49999998  0.69891902  1
  In  In3  1  0.50000001  0.00000000  0.12917900  1
  In  In4  1  0.00000000  0.00000000  0.73517003  1
  In  In5  1  0.50000001  0.00000000  0.42464401  1
  In  In6  1  0.50000001  0.00000000  0.84353803  1
  In  In7  1  0.50000001  0.00000000  0.57668202  1
  In  In8  1  0.50000001  0.49999998  0.26483001  1
  In  In9  1  0.00000000  0.49999998  0.42331801  1
  In  In10  1  0.00000000  0.49999998  0.57535602  1
  In  In11  1  0.00000000  0.49999998  0.15646201  1
  In  In12  1  0.00000000  0.00000000  0.99843404  1
  In  In13  1  0.50000001  0.49999998  0.00156600  1
