# generated using pymatgen
data_Cs5Li6SbBr8
_symmetry_space_group_name_H-M   'P 1'
_cell_length_a   8.61297894
_cell_length_b   8.61297894
_cell_length_c   8.61297894
_cell_angle_alpha   107.74740601
_cell_angle_beta   107.74740601
_cell_angle_gamma   107.74741364
_symmetry_Int_Tables_number   1
_chemical_formula_structural   Cs5Li6SbBr8
_chemical_formula_sum   'Cs5 Li6 Sb1 Br8'
_cell_volume   520.88573206
_cell_formula_units_Z   1
loop_
 _symmetry_equiv_pos_site_id
 _symmetry_equiv_pos_as_xyz
  1  'x, y, z'
loop_
 _atom_site_type_symbol
 _atom_site_label
 _atom_site_symmetry_multiplicity
 _atom_site_fract_x
 _atom_site_fract_y
 _atom_site_fract_z
 _atom_site_occupancy
  Sb  Sb0  1  0.52178103  0.52178101  0.52178102  1
  Li  Li1  1  0.02228401  0.08948900  0.28605200  1
  Li  Li2  1  0.28605200  0.02228400  0.08948900  1
  Li  Li3  1  0.08948902  0.28605201  0.02228401  1
  Li  Li4  1  0.70529807  0.96103402  0.89610004  1
  Li  Li5  1  0.89610004  0.70529801  0.96103403  1
  Li  Li6  1  0.96103406  0.89610002  0.70529804  1
  Br  Br7  1  0.99943007  0.99943002  0.99943004  1
  Br  Br8  1  0.92309105  0.77298701  0.30503803  1
  Cs  Cs9  1  0.30503807  0.92309102  0.77298704  1
  Cs  Cs10  1  0.77298701  0.30503801  0.92309101  1
  Br  Br11  1  0.15836204  0.45411201  0.38041902  1
  Br  Br12  1  0.38041901  0.15836200  0.45411201  1
  Br  Br13  1  0.45411202  0.38041901  0.15836202  1
  Cs  Cs14  1  0.68898199  0.07462700  0.21904700  1
  Cs  Cs15  1  0.21904706  0.68898201  0.07462703  1
  Cs  Cs16  1  0.07462702  0.21904700  0.68898201  1
  Br  Br17  1  0.53399704  0.61271901  0.85095103  1
  Br  Br18  1  0.85095103  0.53399701  0.61271902  1
  Br  Br19  1  0.61271906  0.85095102  0.53399704  1
