# generated using pymatgen
data_Ba3(MoO4)2
_symmetry_space_group_name_H-M   'P 1'
_cell_length_a   6.04878664
_cell_length_b   6.04878664
_cell_length_c   8.00745201
_cell_angle_alpha   67.80886841
_cell_angle_beta   67.80886841
_cell_angle_gamma   59.99999237
_symmetry_Int_Tables_number   1
_chemical_formula_structural   Ba3(MoO4)2
_chemical_formula_sum   'Ba3 Mo2 O8'
_cell_volume   228.32235786
_cell_formula_units_Z   1
loop_
 _symmetry_equiv_pos_site_id
 _symmetry_equiv_pos_as_xyz
  1  'x, y, z'
loop_
 _atom_site_type_symbol
 _atom_site_label
 _atom_site_symmetry_multiplicity
 _atom_site_fract_x
 _atom_site_fract_y
 _atom_site_fract_z
 _atom_site_occupancy
  Ba  Ba0  1  0.98880902  0.98880901  0.03357290  1
  Ba  Ba1  1  0.80167502  0.80167501  0.59497488  1
  Ba  Ba2  1  0.20603900  0.20603900  0.38188296  1
  Mo  Mo3  1  0.59416101  0.59416101  0.21751593  1
  Mo  Mo4  1  0.40842601  0.40842600  0.77472091  1
  O  O5  1  0.72848501  0.23514200  0.30788893  1
  O  O6  1  0.72848501  0.72848501  0.30788891  1
  O  O7  1  0.23514201  0.72848501  0.30788893  1
  O  O8  1  0.27170301  0.76107301  0.69551991  1
  O  O9  1  0.27170301  0.27170300  0.69551993  1
  O  O10  1  0.76107401  0.27170300  0.69551991  1
  O  O11  1  0.67827901  0.67827901  0.96516188  1
  O  O12  1  0.32601901  0.32601800  0.02194397  1
