# generated using pymatgen
data_Cs4F7
_symmetry_space_group_name_H-M   'P 1'
_cell_length_a   4.21571589
_cell_length_b   4.21571589
_cell_length_c   17.58173943
_cell_angle_alpha   90.00000000
_cell_angle_beta   90.00000000
_cell_angle_gamma   120.00000000
_symmetry_Int_Tables_number   1
_chemical_formula_structural   Cs4F7
_chemical_formula_sum   'Cs4 F7'
_cell_volume   270.60457790
_cell_formula_units_Z   1
loop_
 _symmetry_equiv_pos_site_id
 _symmetry_equiv_pos_as_xyz
  1  'x, y, z'
loop_
 _atom_site_type_symbol
 _atom_site_label
 _atom_site_symmetry_multiplicity
 _atom_site_fract_x
 _atom_site_fract_y
 _atom_site_fract_z
 _atom_site_occupancy
  Cs  Cs0  1  0.33333333  0.66666666  0.10076900  1
  Cs  Cs1  1  0.66666668  0.33333333  0.89923098  1
  Cs  Cs2  1  0.00000000  0.00000000  0.30208299  1
  Cs  Cs3  1  0.00000000  0.00000000  0.69791698  1
  F  F4  1  0.33333333  0.66666666  0.54780499  1
  F  F5  1  0.66666668  0.33333333  0.45219499  1
  F  F6  1  0.33333333  0.66666666  0.40997799  1
  F  F7  1  0.66666668  0.33333333  0.59002199  1
  F  F8  1  0.33333333  0.66666666  0.79717598  1
  F  F9  1  0.66666668  0.33333333  0.20282400  1
  F  F10  1  0.00000000  0.00000000  0.00000000  1
