# generated using pymatgen
data_BaNd2N2
_symmetry_space_group_name_H-M   'P 1'
_cell_length_a   4.33071613
_cell_length_b   4.33071613
_cell_length_c   6.91518211
_cell_angle_alpha   90.00000000
_cell_angle_beta   90.00000000
_cell_angle_gamma   120.00000000
_symmetry_Int_Tables_number   1
_chemical_formula_structural   BaNd2N2
_chemical_formula_sum   'Ba1 Nd2 N2'
_cell_volume   112.31911923
_cell_formula_units_Z   1
loop_
 _symmetry_equiv_pos_site_id
 _symmetry_equiv_pos_as_xyz
  1  'x, y, z'
loop_
 _atom_site_type_symbol
 _atom_site_label
 _atom_site_symmetry_multiplicity
 _atom_site_fract_x
 _atom_site_fract_y
 _atom_site_fract_z
 _atom_site_occupancy
  Ba  Ba0  1  0.00000000  0.00000000  0.00000000  1
  Nd  Nd1  1  0.33333332  0.66666663  0.63985999  1
  Nd  Nd2  1  0.66666664  0.33333332  0.36013999  1
  N  N3  1  0.33333332  0.66666663  0.26920700  1
  N  N4  1  0.66666664  0.33333332  0.73079299  1
