# generated using pymatgen
data_Ho
_symmetry_space_group_name_H-M   'P 1'
_cell_length_a   5.77196503
_cell_length_b   7.28760576
_cell_length_c   7.28760624
_cell_angle_alpha   60.00000000
_cell_angle_beta   90.00000000
_cell_angle_gamma   90.00000000
_symmetry_Int_Tables_number   1
_chemical_formula_structural   Ho
_chemical_formula_sum   Ho8
_cell_volume   265.47528288
_cell_formula_units_Z   8
loop_
 _symmetry_equiv_pos_site_id
 _symmetry_equiv_pos_as_xyz
  1  'x, y, z'
loop_
 _atom_site_type_symbol
 _atom_site_label
 _atom_site_symmetry_multiplicity
 _atom_site_fract_x
 _atom_site_fract_y
 _atom_site_fract_z
 _atom_site_occupancy
  Ho  Ho0  1  0.75000000  0.66582702  0.16708599  1
  Ho  Ho1  1  0.75000000  0.16708701  0.16708599  1
  Ho  Ho2  1  0.75000000  0.16708701  0.66582598  1
  Ho  Ho3  1  0.25000000  0.33417301  0.83291398  1
  Ho  Ho4  1  0.25000000  0.83291303  0.83291397  1
  Ho  Ho5  1  0.25000000  0.83291303  0.33417399  1
  Ho  Ho6  1  0.25000000  0.33333335  0.33333332  1
  Ho  Ho7  1  0.75000000  0.66666669  0.66666665  1
