# generated using pymatgen
data_CeGa17
_symmetry_space_group_name_H-M   'P 1'
_cell_length_a   6.38243008
_cell_length_b   8.46428967
_cell_length_c   8.46428967
_cell_angle_alpha   60.00000000
_cell_angle_beta   90.00000000
_cell_angle_gamma   90.00000000
_symmetry_Int_Tables_number   1
_chemical_formula_structural   CeGa17
_chemical_formula_sum   'Ce1 Ga17'
_cell_volume   396.00232159
_cell_formula_units_Z   1
loop_
 _symmetry_equiv_pos_site_id
 _symmetry_equiv_pos_as_xyz
  1  'x, y, z'
loop_
 _atom_site_type_symbol
 _atom_site_label
 _atom_site_symmetry_multiplicity
 _atom_site_fract_x
 _atom_site_fract_y
 _atom_site_fract_z
 _atom_site_occupancy
  Ga  Ga0  1  0.99999999  0.66666668  0.66666670  1
  Ga  Ga1  1  0.99999999  0.33333334  0.33333335  1
  Ga  Ga2  1  0.49999999  0.33333334  0.33333335  1
  Ce  Ce3  1  0.49999999  0.66666668  0.66666670  1
  Ga  Ga4  1  0.25000000  0.22399700  0.00000000  1
  Ga  Ga5  1  0.25000000  0.00000000  0.77600303  1
  Ga  Ga6  1  0.25000000  0.77600301  0.22399702  1
  Ga  Ga7  1  0.74999999  0.77600301  0.00000001  1
  Ga  Ga8  1  0.74999999  0.00000000  0.22399701  1
  Ga  Ga9  1  0.74999999  0.22399700  0.77600303  1
  Ga  Ga10  1  0.25000000  0.59283301  0.00000001  1
  Ga  Ga11  1  0.25000000  0.00000000  0.40716702  1
  Ga  Ga12  1  0.25000000  0.40716701  0.59283303  1
  Ga  Ga13  1  0.74999999  0.40716701  0.00000000  1
  Ga  Ga14  1  0.74999999  0.00000000  0.59283302  1
  Ga  Ga15  1  0.74999999  0.59283301  0.40716702  1
  Ga  Ga16  1  0.00000000  0.00000000  0.00000000  1
  Ga  Ga17  1  0.49999999  0.00000000  -0.00000000  1
