# generated using pymatgen
data_Cr3O4
_symmetry_space_group_name_H-M   'P 1'
_cell_length_a   5.92626381
_cell_length_b   5.92625380
_cell_length_c   5.92629051
_cell_angle_alpha   118.41256714
_cell_angle_beta   118.41267395
_cell_angle_gamma   92.77188873
_symmetry_Int_Tables_number   1
_chemical_formula_structural   Cr3O4
_chemical_formula_sum   'Cr6 O8'
_cell_volume   150.51428136
_cell_formula_units_Z   2
loop_
 _symmetry_equiv_pos_site_id
 _symmetry_equiv_pos_as_xyz
  1  'x, y, z'
loop_
 _atom_site_type_symbol
 _atom_site_label
 _atom_site_symmetry_multiplicity
 _atom_site_fract_x
 _atom_site_fract_y
 _atom_site_fract_z
 _atom_site_occupancy
  Cr  Cr0  1  0.62499502  0.37499000  0.74999303  1
  Cr  Cr1  1  0.62499603  0.87500299  0.25000504  1
  Cr  Cr2  1  0.12499901  0.37500300  0.74999500  1
  Cr  Cr3  1  0.62500802  0.37500300  0.25000404  1
  Cr  Cr4  1  0.25000203  0.75000199  0.50000401  1
  Cr  Cr5  1  0.99999904  0.99999799  0.99999705  1
  O  O6  1  0.37952501  0.16013100  0.78060602  1
  O  O7  1  0.37952402  0.59891799  0.21939402  1
  O  O8  1  0.87048701  0.15107500  0.28059005  1
  O  O9  1  0.87048603  0.58989699  0.71941105  1
  O  O10  1  0.40108102  0.62047499  0.78060602  1
  O  O11  1  0.83987003  0.62047499  0.21939405  1
  O  O12  1  0.41010201  0.12951400  0.28058902  1
  O  O13  1  0.84892501  0.12951400  0.71941105  1
