# generated using pymatgen
data_LuPPd
_symmetry_space_group_name_H-M   'P 1'
_cell_length_a   3.98954606
_cell_length_b   6.59133291
_cell_length_c   7.45097589
_cell_angle_alpha   90.00000000
_cell_angle_beta   90.00000000
_cell_angle_gamma   90.00000000
_symmetry_Int_Tables_number   1
_chemical_formula_structural   LuPPd
_chemical_formula_sum   'Lu4 P4 Pd4'
_cell_volume   195.93403815
_cell_formula_units_Z   4
loop_
 _symmetry_equiv_pos_site_id
 _symmetry_equiv_pos_as_xyz
  1  'x, y, z'
loop_
 _atom_site_type_symbol
 _atom_site_label
 _atom_site_symmetry_multiplicity
 _atom_site_fract_x
 _atom_site_fract_y
 _atom_site_fract_z
 _atom_site_occupancy
  Lu  Lu0  1  0.25000000  0.01858300  0.31793500  1
  Lu  Lu1  1  0.25000000  0.51858301  0.18206500  1
  Lu  Lu2  1  0.74999999  0.98141701  0.68206501  1
  Lu  Lu3  1  0.74999999  0.48141701  0.81793501  1
  P  P4  1  0.25000000  0.27860300  0.61840601  1
  P  P5  1  0.25000000  0.77860301  0.88159401  1
  P  P6  1  0.74999999  0.72139701  0.38159401  1
  P  P7  1  0.74999999  0.22139700  0.11840600  1
  Pd  Pd8  1  0.25000000  0.15197500  0.93495301  1
  Pd  Pd9  1  0.25000000  0.65197501  0.56504701  1
  Pd  Pd10  1  0.74999999  0.84802501  0.06504700  1
  Pd  Pd11  1  0.74999999  0.34802500  0.43495301  1
