# generated using pymatgen
data_Cs3PbF6
_symmetry_space_group_name_H-M   'P 1'
_cell_length_a   3.94802594
_cell_length_b   11.00358295
_cell_length_c   11.20936298
_cell_angle_alpha   109.05455017
_cell_angle_beta   90.00000000
_cell_angle_gamma   90.00000000
_symmetry_Int_Tables_number   1
_chemical_formula_structural   Cs3PbF6
_chemical_formula_sum   'Cs6 Pb2 F12'
_cell_volume   460.28044455
_cell_formula_units_Z   2
loop_
 _symmetry_equiv_pos_site_id
 _symmetry_equiv_pos_as_xyz
  1  'x, y, z'
loop_
 _atom_site_type_symbol
 _atom_site_label
 _atom_site_symmetry_multiplicity
 _atom_site_fract_x
 _atom_site_fract_y
 _atom_site_fract_z
 _atom_site_occupancy
  Cs  Cs0  1  0.25000000  0.44921100  0.80397695  1
  F  F1  1  0.75000001  0.55078899  0.19602297  1
  Cs  Cs2  1  0.25000000  0.82070699  0.00000397  1
  Cs  Cs3  1  0.75000001  0.17929300  0.99999595  1
  Pb  Pb4  1  0.25000000  0.05646100  0.66592097  1
  Cs  Cs5  1  0.75000001  0.94353899  0.33407895  1
  Cs  Cs6  1  0.25000000  0.33913100  0.41287297  1
  Pb  Pb7  1  0.75000001  0.66086899  0.58712695  1
  F  F8  1  0.25000000  0.02209600  0.88832796  1
  F  F9  1  0.75000001  0.97790399  0.11167196  1
  F  F10  1  0.25000000  0.69791199  0.74857794  1
  F  F11  1  0.75000001  0.30208800  0.25142198  1
  F  F12  1  0.25000000  0.10731400  0.44240098  1
  F  F13  1  0.75000001  0.89268599  0.55759894  1
  F  F14  1  0.25000000  0.58077899  0.40762696  1
  F  F15  1  0.75000001  0.41922100  0.59237296  1
  F  F16  1  0.25000000  0.76969099  0.23018996  1
  F  F17  1  0.75000001  0.23030900  0.76980996  1
  Cs  Cs18  1  0.25000000  0.37874800  0.03610798  1
  F  F19  1  0.75000001  0.62125199  0.96389193  1
