# generated using pymatgen
data_NaV3O4
_symmetry_space_group_name_H-M   'P 1'
_cell_length_a   3.46734905
_cell_length_b   7.63072014
_cell_length_c   7.63071966
_cell_angle_alpha   120.00000000
_cell_angle_beta   90.00000000
_cell_angle_gamma   90.00000000
_symmetry_Int_Tables_number   1
_chemical_formula_structural   NaV3O4
_chemical_formula_sum   'Na2 V6 O8'
_cell_volume   174.84741655
_cell_formula_units_Z   2
loop_
 _symmetry_equiv_pos_site_id
 _symmetry_equiv_pos_as_xyz
  1  'x, y, z'
loop_
 _atom_site_type_symbol
 _atom_site_label
 _atom_site_symmetry_multiplicity
 _atom_site_fract_x
 _atom_site_fract_y
 _atom_site_fract_z
 _atom_site_occupancy
  Na  Na0  1  0.25000000  0.66666665  0.33333332  1
  Na  Na1  1  0.74999999  0.33333332  0.66666666  1
  O  O2  1  0.25000000  0.40161799  0.94985899  1
  O  O3  1  0.74999999  0.94985897  0.54824097  1
  O  O4  1  0.74999999  0.45175899  0.40161799  1
  O  O5  1  0.25000000  0.54824098  0.59838199  1
  O  O6  1  0.00000000  0.00000000  0.00000000  1
  O  O7  1  0.74999999  0.59838198  0.05014098  1
  O  O8  1  0.49999999  0.00000000  -0.00000000  1
  O  O9  1  0.25000000  0.05014100  0.45175900  1
  V  V10  1  0.25000000  0.25345399  0.32948499  1
  V  V11  1  0.25000000  0.67051498  0.92396898  1
  V  V12  1  0.74999999  0.32948499  0.07603099  1
  V  V13  1  0.74999999  0.92396897  0.25345397  1
  V  V14  1  0.74999999  0.74654598  0.67051498  1
  V  V15  1  0.25000000  0.07603100  0.74654600  1
