# generated using pymatgen
data_Rb2GeF6
_symmetry_space_group_name_H-M   'P 1'
_cell_length_a   5.85285807
_cell_length_b   5.85285759
_cell_length_c   9.55239964
_cell_angle_alpha   90.00000000
_cell_angle_beta   90.00000000
_cell_angle_gamma   120.00000000
_symmetry_Int_Tables_number   1
_chemical_formula_structural   Rb2GeF6
_chemical_formula_sum   'Rb4 Ge2 F12'
_cell_volume   283.38643945
_cell_formula_units_Z   2
loop_
 _symmetry_equiv_pos_site_id
 _symmetry_equiv_pos_as_xyz
  1  'x, y, z'
loop_
 _atom_site_type_symbol
 _atom_site_label
 _atom_site_symmetry_multiplicity
 _atom_site_fract_x
 _atom_site_fract_y
 _atom_site_fract_z
 _atom_site_occupancy
  Rb  Rb0  1  0.00000000  0.00000000  0.90566803  1
  Rb  Rb1  1  0.00000000  0.00000000  0.40566802  1
  Rb  Rb2  1  0.33333328  0.66666662  0.62881202  1
  Rb  Rb3  1  0.66666664  0.33333331  0.12881200  1
  Ge  Ge4  1  0.33333328  0.66666662  0.24228601  1
  Ge  Ge5  1  0.66666664  0.33333331  0.74228603  1
  F  F6  1  0.48023893  0.96047793  0.35502401  1
  F  F7  1  0.96047795  0.48023897  0.85502403  1
  F  F8  1  0.51976096  0.48023897  0.85502403  1
  F  F9  1  0.48023896  0.51976096  0.35502401  1
  F  F10  1  0.03952196  0.51976096  0.35502401  1
  F  F11  1  0.51976099  0.03952200  0.85502403  1
  F  F12  1  0.81735995  0.63471995  0.63605402  1
  F  F13  1  0.63472094  0.81736094  0.13605401  1
  F  F14  1  0.18263994  0.81736094  0.13605401  1
  F  F15  1  0.81735998  0.18263899  0.63605402  1
  F  F16  1  0.36527898  0.18263899  0.63605402  1
  F  F17  1  0.18263997  0.36527997  0.13605401  1
