# generated using pymatgen
data_Bi8PtS
_symmetry_space_group_name_H-M   'P 1'
_cell_length_a   4.07097578
_cell_length_b   4.07097626
_cell_length_c   18.22854233
_cell_angle_alpha   90.00000000
_cell_angle_beta   90.00000000
_cell_angle_gamma   120.00000000
_symmetry_Int_Tables_number   1
_chemical_formula_structural   Bi8PtS
_chemical_formula_sum   'Bi8 Pt1 S1'
_cell_volume   261.62525273
_cell_formula_units_Z   1
loop_
 _symmetry_equiv_pos_site_id
 _symmetry_equiv_pos_as_xyz
  1  'x, y, z'
loop_
 _atom_site_type_symbol
 _atom_site_label
 _atom_site_symmetry_multiplicity
 _atom_site_fract_x
 _atom_site_fract_y
 _atom_site_fract_z
 _atom_site_occupancy
  Bi  Bi0  1  0.00000000  0.00000000  0.89433403  1
  Bi  Bi1  1  0.00000000  0.00000000  0.39433401  1
  Bi  Bi2  1  0.00000000  0.00000000  0.10566600  1
  Bi  Bi3  1  0.00000000  0.00000000  0.60566602  1
  Bi  Bi4  1  0.33333339  0.66666669  0.00179300  1
  S  S5  1  0.66666672  0.33333335  0.50179302  1
  Bi  Bi6  1  0.66666672  0.33333335  0.99820704  1
  Pt  Pt7  1  0.33333339  0.66666669  0.49820702  1
  Bi  Bi8  1  0.33333339  0.66666669  0.75000003  1
  Bi  Bi9  1  0.66666672  0.33333335  0.25000001  1
