# generated using pymatgen
data_Lu3Ir
_symmetry_space_group_name_H-M   'P 1'
_cell_length_a   6.43188906
_cell_length_b   7.28632593
_cell_length_c   9.27204514
_cell_angle_alpha   90.00000000
_cell_angle_beta   90.00000000
_cell_angle_gamma   90.00000000
_symmetry_Int_Tables_number   1
_chemical_formula_structural   Lu3Ir
_chemical_formula_sum   'Lu12 Ir4'
_cell_volume   434.53291199
_cell_formula_units_Z   4
loop_
 _symmetry_equiv_pos_site_id
 _symmetry_equiv_pos_as_xyz
  1  'x, y, z'
loop_
 _atom_site_type_symbol
 _atom_site_label
 _atom_site_symmetry_multiplicity
 _atom_site_fract_x
 _atom_site_fract_y
 _atom_site_fract_z
 _atom_site_occupancy
  Lu  Lu0  1  0.63137599  0.03618300  0.25000000  1
  Lu  Lu1  1  0.36862400  0.96381701  0.74999999  1
  Lu  Lu2  1  0.13137600  0.46381700  0.74999999  1
  Lu  Lu3  1  0.86862399  0.53618301  0.25000000  1
  Lu  Lu4  1  0.17221100  0.17711700  0.06341000  1
  Lu  Lu5  1  0.82778899  0.82288301  0.93658999  1
  Lu  Lu6  1  0.67221099  0.32288300  0.93658999  1
  Lu  Lu7  1  0.82778899  0.82288301  0.56340999  1
  Lu  Lu8  1  0.32778900  0.67711701  0.06341000  1
  Lu  Lu9  1  0.17221100  0.17711700  0.43658999  1
  Lu  Lu10  1  0.32778900  0.67711701  0.43658999  1
  Lu  Lu11  1  0.67221099  0.32288300  0.56340999  1
  Ir  Ir12  1  0.45685400  0.38331400  0.25000000  1
  Ir  Ir13  1  0.54314600  0.61668601  0.74999999  1
  Ir  Ir14  1  0.95685399  0.11668600  0.74999999  1
  Ir  Ir15  1  0.04314600  0.88331401  0.25000000  1
