# generated using pymatgen
data_Tb2Co3Si4Ge
_symmetry_space_group_name_H-M   'P 1'
_cell_length_a   3.99548292
_cell_length_b   3.99548292
_cell_length_c   9.77031994
_cell_angle_alpha   90.00000000
_cell_angle_beta   90.00000000
_cell_angle_gamma   90.00000000
_symmetry_Int_Tables_number   1
_chemical_formula_structural   Tb2Co3Si4Ge
_chemical_formula_sum   'Tb2 Co3 Si4 Ge1'
_cell_volume   155.97225196
_cell_formula_units_Z   1
loop_
 _symmetry_equiv_pos_site_id
 _symmetry_equiv_pos_as_xyz
  1  'x, y, z'
loop_
 _atom_site_type_symbol
 _atom_site_label
 _atom_site_symmetry_multiplicity
 _atom_site_fract_x
 _atom_site_fract_y
 _atom_site_fract_z
 _atom_site_occupancy
  Tb  Tb0  1  0.50000001  0.00000000  0.74948400  1
  Tb  Tb1  1  0.00000000  0.50000001  0.25051600  1
  Co  Co2  1  0.00000000  0.00000000  0.50000000  1
  Si  Si3  1  0.00000000  0.00000000  0.00000000  1
  Co  Co4  1  0.50000001  0.50000001  0.50000000  1
  Si  Si5  1  0.50000001  0.50000001  0.00000000  1
  Ge  Ge6  1  0.00000000  0.50000001  0.88660701  1
  Si  Si7  1  0.50000001  0.00000000  0.38819300  1
  Co  Co8  1  0.50000001  0.00000000  0.11339300  1
  Si  Si9  1  0.00000000  0.50000001  0.61180700  1
