# generated using pymatgen
data_Ba4CaCo3F12
_symmetry_space_group_name_H-M   'P 1'
_cell_length_a   6.00925684
_cell_length_b   6.07406664
_cell_length_c   8.58505630
_cell_angle_alpha   89.55256653
_cell_angle_beta   90.69125366
_cell_angle_gamma   89.84227753
_symmetry_Int_Tables_number   1
_chemical_formula_structural   Ba4CaCo3F12
_chemical_formula_sum   'Ba4 Ca1 Co3 F12'
_cell_volume   313.32630401
_cell_formula_units_Z   1
loop_
 _symmetry_equiv_pos_site_id
 _symmetry_equiv_pos_as_xyz
  1  'x, y, z'
loop_
 _atom_site_type_symbol
 _atom_site_label
 _atom_site_symmetry_multiplicity
 _atom_site_fract_x
 _atom_site_fract_y
 _atom_site_fract_z
 _atom_site_occupancy
  Ba  Ba0  1  0.49495015  0.53149046  0.74921617  1
  Ba  Ba1  1  0.50504979  0.46850954  0.25078387  1
  Co  Co2  1  0.00936670  0.03989995  0.74453925  1
  Ba  Ba3  1  0.99063324  0.96010006  0.25546079  1
  Ba  Ba4  1  -0.00000003  0.50000000  -0.00000002  1
  Ca  Ca5  1  0.50000000  0.00000000  0.50000004  1
  Co  Co6  1  0.50000000  0.00000000  0.00000002  1
  Co  Co7  1  -0.00000003  0.50000000  0.50000000  1
  F  F8  1  0.76829095  0.18555076  0.06580108  1
  F  F9  1  0.72777068  0.69084542  0.47410187  1
  F  F10  1  0.23170899  0.81444925  0.93419896  1
  F  F11  1  0.27222926  0.30915459  0.52589817  1
  F  F12  1  0.69033285  0.73169176  0.04111578  1
  F  F13  1  0.82351752  0.22171750  0.44361176  1
  F  F14  1  0.30966709  0.26830825  0.95888425  1
  F  F15  1  0.17648242  0.77828251  0.55638828  1
  F  F16  1  0.61319791  0.99978600  0.77391973  1
  F  F17  1  0.93703141  0.43669014  0.72814608  1
  F  F18  1  0.38680203  0.00021401  0.22608030  1
  F  F19  1  0.06296853  0.56330987  0.27185396  1
