# generated using pymatgen
data_Mn5WO5F7
_symmetry_space_group_name_H-M   'P 1'
_cell_length_a   3.03833508
_cell_length_b   4.67607594
_cell_length_c   13.95335579
_cell_angle_alpha   90.00000000
_cell_angle_beta   90.00000000
_cell_angle_gamma   90.00000000
_symmetry_Int_Tables_number   1
_chemical_formula_structural   Mn5WO5F7
_chemical_formula_sum   'Mn5 W1 O5 F7'
_cell_volume   198.24210109
_cell_formula_units_Z   1
loop_
 _symmetry_equiv_pos_site_id
 _symmetry_equiv_pos_as_xyz
  1  'x, y, z'
loop_
 _atom_site_type_symbol
 _atom_site_label
 _atom_site_symmetry_multiplicity
 _atom_site_fract_x
 _atom_site_fract_y
 _atom_site_fract_z
 _atom_site_occupancy
  W  W0  1  0.49999999  0.92462201  0.67377601  1
  Mn  Mn1  1  0.49999999  0.00000000  0.00000000  1
  Mn  Mn2  1  0.49999999  0.07537800  0.32622400  1
  Mn  Mn3  1  0.00000000  0.42462201  0.82622401  1
  Mn  Mn4  1  0.00000000  0.57537801  0.17377600  1
  Mn  Mn5  1  0.00000000  0.50000001  0.50000001  1
  O  O6  1  0.00000000  0.17865800  0.93483501  1
  F  F7  1  0.00000000  0.26120900  0.26691100  1
  O  O8  1  0.49999999  0.23879100  0.76691101  1
  O  O9  1  0.49999999  0.32134200  0.43483501  1
  F  F10  1  0.49999999  0.76120901  0.23308900  1
  O  O11  1  0.49999999  0.67865801  0.56516501  1
  O  O12  1  0.00000000  0.73879101  0.73308901  1
  F  F13  1  0.00000000  0.82134201  0.06516500  1
  F  F14  1  0.00000000  0.14651700  0.60831001  1
  F  F15  1  0.49999999  0.35348300  0.10831000  1
  F  F16  1  0.49999999  0.64651701  0.89169001  1
  F  F17  1  0.00000000  0.85348301  0.39169001  1
