# generated using pymatgen
data_ZnGeO3
_symmetry_space_group_name_H-M   'P 1'
_cell_length_a   5.28981876
_cell_length_b   5.98004103
_cell_length_c   7.61327696
_cell_angle_alpha   90.00000000
_cell_angle_beta   91.32415009
_cell_angle_gamma   90.00000000
_symmetry_Int_Tables_number   1
_chemical_formula_structural   ZnGeO3
_chemical_formula_sum   'Zn4 Ge4 O12'
_cell_volume   240.76901437
_cell_formula_units_Z   4
loop_
 _symmetry_equiv_pos_site_id
 _symmetry_equiv_pos_as_xyz
  1  'x, y, z'
loop_
 _atom_site_type_symbol
 _atom_site_label
 _atom_site_symmetry_multiplicity
 _atom_site_fract_x
 _atom_site_fract_y
 _atom_site_fract_z
 _atom_site_occupancy
  Zn  Zn0  1  0.00000000  0.50000000  0.50000001  1
  Zn  Zn1  1  0.50000002  0.00000000  0.00000000  1
  Zn  Zn2  1  0.00000000  0.50000000  0.00000000  1
  Zn  Zn3  1  0.50000002  0.00000000  0.50000001  1
  Ge  Ge4  1  0.50470002  0.46451400  0.24796801  1
  Ge  Ge5  1  0.99530004  0.96451400  0.25203201  1
  Ge  Ge6  1  0.49530002  0.53548600  0.75203202  1
  Ge  Ge7  1  0.00470000  0.03548600  0.74796801  1
  O  O8  1  0.17471501  0.42379800  0.24512501  1
  O  O9  1  0.32528501  0.92379800  0.25487501  1
  O  O10  1  0.82528504  0.57620200  0.75487502  1
  O  O11  1  0.67471503  0.07620200  0.74512502  1
  O  O12  1  0.61431003  0.30240100  0.07576701  1
  O  O13  1  0.88569004  0.80240100  0.42423301  1
  O  O14  1  0.38439802  0.69782600  0.57414601  1
  O  O15  1  0.11560201  0.19782600  0.92585401  1
  O  O16  1  0.38569002  0.69759900  0.92423302  1
  O  O17  1  0.11431001  0.19759900  0.57576701  1
  O  O18  1  0.61560203  0.30217400  0.42585401  1
  O  O19  1  0.88439804  0.80217400  0.07414601  1
