# generated using pymatgen
data_Mg2P5Rh2
_symmetry_space_group_name_H-M   'P 1'
_cell_length_a   5.19423819
_cell_length_b   6.90389919
_cell_length_c   7.35912609
_cell_angle_alpha   90.00000000
_cell_angle_beta   110.66548920
_cell_angle_gamma   90.00000000
_symmetry_Int_Tables_number   1
_chemical_formula_structural   Mg2P5Rh2
_chemical_formula_sum   'Mg4 P10 Rh4'
_cell_volume   246.92161562
_cell_formula_units_Z   2
loop_
 _symmetry_equiv_pos_site_id
 _symmetry_equiv_pos_as_xyz
  1  'x, y, z'
loop_
 _atom_site_type_symbol
 _atom_site_label
 _atom_site_symmetry_multiplicity
 _atom_site_fract_x
 _atom_site_fract_y
 _atom_site_fract_z
 _atom_site_occupancy
  Mg  Mg0  1  0.10443700  0.59839698  0.20887400  1
  Mg  Mg1  1  0.89556297  0.40160299  0.79112598  1
  Mg  Mg2  1  0.39556299  0.09839700  0.79112598  1
  Mg  Mg3  1  0.60443698  0.90160297  0.20887399  1
  P  P4  1  0.81152297  0.24999999  0.12304600  1
  P  P5  1  0.68847697  0.74999998  0.87695398  1
  P  P6  1  0.18847699  0.74999998  0.87695398  1
  P  P7  1  0.31152299  0.24999999  0.12304600  1
  P  P8  1  0.18246499  0.97687197  0.36492999  1
  P  P9  1  0.81753497  0.02312800  0.63506999  1
  P  P10  1  0.31753499  0.47687199  0.63506999  1
  P  P11  1  0.68246497  0.52312799  0.36492999  1
  P  P12  1  0.00000000  0.00000000  0.00000000  1
  Rh  Rh13  1  0.49999998  0.49999999  0.99999998  1
  Rh  Rh14  1  0.97710096  0.24999999  0.45420199  1
  Rh  Rh15  1  0.52289898  0.74999998  0.54579799  1
  P  P16  1  0.02289900  0.74999998  0.54579799  1
  Rh  Rh17  1  0.47710098  0.24999999  0.45420199  1
