# generated using pymatgen
data_TbGe2
_symmetry_space_group_name_H-M   'P 1'
_cell_length_a   4.25594378
_cell_length_b   7.17761278
_cell_length_c   7.91238785
_cell_angle_alpha   90.00000000
_cell_angle_beta   90.00000000
_cell_angle_gamma   90.00000000
_symmetry_Int_Tables_number   1
_chemical_formula_structural   TbGe2
_chemical_formula_sum   'Tb4 Ge8'
_cell_volume   241.70379785
_cell_formula_units_Z   4
loop_
 _symmetry_equiv_pos_site_id
 _symmetry_equiv_pos_as_xyz
  1  'x, y, z'
loop_
 _atom_site_type_symbol
 _atom_site_label
 _atom_site_symmetry_multiplicity
 _atom_site_fract_x
 _atom_site_fract_y
 _atom_site_fract_z
 _atom_site_occupancy
  Tb  Tb0  1  0.25000001  0.02708200  0.32282401  1
  Tb  Tb1  1  0.25000001  0.52708202  0.17717600  1
  Tb  Tb2  1  0.75000004  0.97291803  0.67717601  1
  Tb  Tb3  1  0.75000004  0.47291801  0.82282402  1
  Ge  Ge4  1  0.25000001  0.14145700  0.93611502  1
  Ge  Ge5  1  0.25000001  0.64145702  0.56388501  1
  Ge  Ge6  1  0.75000004  0.85854303  0.06388500  1
  Ge  Ge7  1  0.75000004  0.35854301  0.43611501  1
  Ge  Ge8  1  0.25000001  0.28287501  0.61837601  1
  Ge  Ge9  1  0.25000001  0.78287502  0.88162402  1
  Ge  Ge10  1  0.75000004  0.71712502  0.38162401  1
  Ge  Ge11  1  0.75000004  0.21712501  0.11837600  1
