# generated using pymatgen
data_HoCo4B
_symmetry_space_group_name_H-M   'P 1'
_cell_length_a   4.99243546
_cell_length_b   4.99395990
_cell_length_c   6.82815695
_cell_angle_alpha   90.00000000
_cell_angle_beta   90.00000000
_cell_angle_gamma   119.98989868
_symmetry_Int_Tables_number   1
_chemical_formula_structural   HoCo4B
_chemical_formula_sum   'Ho2 Co8 B2'
_cell_volume   147.44696357
_cell_formula_units_Z   2
loop_
 _symmetry_equiv_pos_site_id
 _symmetry_equiv_pos_as_xyz
  1  'x, y, z'
loop_
 _atom_site_type_symbol
 _atom_site_label
 _atom_site_symmetry_multiplicity
 _atom_site_fract_x
 _atom_site_fract_y
 _atom_site_fract_z
 _atom_site_occupancy
  Ho  Ho0  1  0.99999004  0.00000000  -0.00000000  1
  Ho  Ho1  1  0.99999604  0.00000000  0.50000000  1
  Co  Co2  1  0.33325698  0.66666664  0.00000000  1
  Co  Co3  1  0.66666668  0.33339999  0.00000000  1
  Co  Co4  1  0.49999902  0.00000000  0.28835200  1
  Co  Co5  1  0.49999499  0.50000398  0.28840000  1
  Co  Co6  1  0.99999101  0.49999598  0.28840000  1
  Co  Co7  1  0.49999902  0.00000000  0.71164801  1
  Co  Co8  1  0.49999499  0.50000398  0.71160001  1
  Co  Co9  1  0.99999101  0.49999598  0.71160001  1
  B  B10  1  0.33325898  0.66658797  0.50000000  1
  B  B11  1  0.66666668  0.33341199  0.50000000  1
