# generated using pymatgen
data_Ga2Se
_symmetry_space_group_name_H-M   'P 1'
_cell_length_a   3.53821039
_cell_length_b   3.53821039
_cell_length_c   5.53443813
_cell_angle_alpha   86.76959991
_cell_angle_beta   86.76959991
_cell_angle_gamma   63.40596390
_symmetry_Int_Tables_number   1
_chemical_formula_structural   Ga2Se
_chemical_formula_sum   'Ga2 Se1'
_cell_volume   61.81888882
_cell_formula_units_Z   1
loop_
 _symmetry_equiv_pos_site_id
 _symmetry_equiv_pos_as_xyz
  1  'x, y, z'
loop_
 _atom_site_type_symbol
 _atom_site_label
 _atom_site_symmetry_multiplicity
 _atom_site_fract_x
 _atom_site_fract_y
 _atom_site_fract_z
 _atom_site_occupancy
  Ga  Ga0  1  0.00000000  0.00000000  0.00000000  1
  Se  Se1  1  0.32380700  0.32380701  0.23111901  1
  Ga  Ga2  1  0.67619300  0.67619302  0.76888103  1
