# generated using pymatgen
data_TbInAu
_symmetry_space_group_name_H-M   'P 1'
_cell_length_a   4.41597605
_cell_length_b   7.44867611
_cell_length_c   8.25450039
_cell_angle_alpha   90.00000000
_cell_angle_beta   90.00000000
_cell_angle_gamma   90.00000000
_symmetry_Int_Tables_number   1
_chemical_formula_structural   TbInAu
_chemical_formula_sum   'Tb4 In4 Au4'
_cell_volume   271.51672818
_cell_formula_units_Z   4
loop_
 _symmetry_equiv_pos_site_id
 _symmetry_equiv_pos_as_xyz
  1  'x, y, z'
loop_
 _atom_site_type_symbol
 _atom_site_label
 _atom_site_symmetry_multiplicity
 _atom_site_fract_x
 _atom_site_fract_y
 _atom_site_fract_z
 _atom_site_occupancy
  Tb  Tb0  1  0.25000000  0.48135199  0.18087699  1
  Tb  Tb1  1  0.25000000  0.98135199  0.31912298  1
  Tb  Tb2  1  0.74999999  0.01864800  0.68087697  1
  Tb  Tb3  1  0.74999999  0.51864799  0.81912296  1
  In  In4  1  0.74999999  0.14479800  0.06445400  1
  In  In5  1  0.74999999  0.64479799  0.43554598  1
  In  In6  1  0.25000000  0.35520199  0.56445397  1
  In  In7  1  0.25000000  0.85520199  0.93554596  1
  Au  Au8  1  0.74999999  0.77014399  0.11469599  1
  Au  Au9  1  0.74999999  0.27014400  0.38530398  1
  Au  Au10  1  0.25000000  0.72985599  0.61469597  1
  Au  Au11  1  0.25000000  0.22985600  0.88530396  1
