# generated using pymatgen
data_Tb4MnGe8
_symmetry_space_group_name_H-M   'P 1'
_cell_length_a   3.96816707
_cell_length_b   4.08307695
_cell_length_c   16.02800941
_cell_angle_alpha   90.00000000
_cell_angle_beta   90.00000000
_cell_angle_gamma   90.00000000
_symmetry_Int_Tables_number   1
_chemical_formula_structural   Tb4MnGe8
_chemical_formula_sum   'Tb4 Mn1 Ge8'
_cell_volume   259.69112180
_cell_formula_units_Z   1
loop_
 _symmetry_equiv_pos_site_id
 _symmetry_equiv_pos_as_xyz
  1  'x, y, z'
loop_
 _atom_site_type_symbol
 _atom_site_label
 _atom_site_symmetry_multiplicity
 _atom_site_fract_x
 _atom_site_fract_y
 _atom_site_fract_z
 _atom_site_occupancy
  Tb  Tb0  1  0.25000000  0.00000000  0.09693100  1
  Tb  Tb1  1  0.25000000  0.50000001  0.61004698  1
  Tb  Tb2  1  0.74999999  0.50000001  0.39941699  1
  Tb  Tb3  1  0.74999999  0.00000000  0.89485198  1
  Ge  Ge4  1  0.25000000  0.00000000  0.46761799  1
  Ge  Ge5  1  0.25000000  0.50000001  0.94024198  1
  Ge  Ge6  1  0.74999999  0.50000001  0.04785000  1
  Ge  Ge7  1  0.74999999  0.00000000  0.57097699  1
  Ge  Ge8  1  0.25000000  0.50000001  0.22887499  1
  Ge  Ge9  1  0.25000000  0.00000000  0.75031898  1
  Ge  Ge10  1  0.74999999  0.00000000  0.22724199  1
  Ge  Ge11  1  0.74999999  0.50000001  0.75513898  1
  Mn  Mn12  1  0.25000000  0.00000000  0.31749199  1
