# generated using pymatgen
data_EuIn2
_symmetry_space_group_name_H-M   'P 1'
_cell_length_a   4.81988716
_cell_length_b   7.61475277
_cell_length_c   9.04720974
_cell_angle_alpha   90.00000000
_cell_angle_beta   90.00000000
_cell_angle_gamma   90.00000000
_symmetry_Int_Tables_number   1
_chemical_formula_structural   EuIn2
_chemical_formula_sum   'Eu4 In8'
_cell_volume   332.05294561
_cell_formula_units_Z   4
loop_
 _symmetry_equiv_pos_site_id
 _symmetry_equiv_pos_as_xyz
  1  'x, y, z'
loop_
 _atom_site_type_symbol
 _atom_site_label
 _atom_site_symmetry_multiplicity
 _atom_site_fract_x
 _atom_site_fract_y
 _atom_site_fract_z
 _atom_site_occupancy
  In  In0  1  0.74999997  0.34616801  0.07405300  1
  In  In1  1  0.24999999  0.65383202  0.92594703  1
  In  In2  1  0.74999997  0.84616803  0.42594701  1
  In  In3  1  0.24999999  0.15383200  0.57405302  1
  Eu  Eu4  1  0.24999999  0.01988800  0.17758301  1
  Eu  Eu5  1  0.74999997  0.98011203  0.82241702  1
  Eu  Eu6  1  0.24999999  0.51988802  0.32241701  1
  Eu  Eu7  1  0.74999997  0.48011201  0.67758302  1
  In  In8  1  0.24999999  0.75242802  0.60559402  1
  In  In9  1  0.74999997  0.24757201  0.39440601  1
  In  In10  1  0.24999999  0.25242801  0.89440603  1
  In  In11  1  0.74999997  0.74757202  0.10559400  1
