# generated using pymatgen
data_BaZn2F11
_symmetry_space_group_name_H-M   'P 1'
_cell_length_a   3.96872997
_cell_length_b   3.96872997
_cell_length_c   12.93976116
_cell_angle_alpha   98.82135010
_cell_angle_beta   98.82135010
_cell_angle_gamma   90.00000000
_symmetry_Int_Tables_number   1
_chemical_formula_structural   BaZn2F11
_chemical_formula_sum   'Ba1 Zn2 F11'
_cell_volume   198.96095241
_cell_formula_units_Z   1
loop_
 _symmetry_equiv_pos_site_id
 _symmetry_equiv_pos_as_xyz
  1  'x, y, z'
loop_
 _atom_site_type_symbol
 _atom_site_label
 _atom_site_symmetry_multiplicity
 _atom_site_fract_x
 _atom_site_fract_y
 _atom_site_fract_z
 _atom_site_occupancy
  Ba  Ba0  1  0.00000000  0.00000000  0.00000000  1
  Zn  Zn1  1  0.41199700  0.41199700  0.82399402  1
  Zn  Zn2  1  0.58800301  0.58800300  0.17600601  1
  F  F3  1  0.20134300  0.20134300  0.40268601  1
  F  F4  1  0.79865701  0.79865701  0.59731402  1
  F  F5  1  0.08079400  0.58079400  0.16158800  1
  F  F6  1  0.58079400  0.08079400  0.16158800  1
  F  F7  1  0.91920601  0.41920600  0.83841202  1
  F  F8  1  0.41920600  0.91920601  0.83841202  1
  F  F9  1  0.75000001  0.25000000  0.50000001  1
  F  F10  1  0.50000000  0.50000000  0.00000000  1
  F  F11  1  0.33720400  0.33720400  0.67440802  1
  F  F12  1  0.66279601  0.66279601  0.32559201  1
  F  F13  1  0.25000000  0.75000001  0.50000001  1
