# generated using pymatgen
data_BaPd3Pb2
_symmetry_space_group_name_H-M   'P 1'
_cell_length_a   4.59251118
_cell_length_b   5.79589987
_cell_length_c   5.79590034
_cell_angle_alpha   60.00000000
_cell_angle_beta   90.00000000
_cell_angle_gamma   90.00000000
_symmetry_Int_Tables_number   1
_chemical_formula_structural   BaPd3Pb2
_chemical_formula_sum   'Ba1 Pd3 Pb2'
_cell_volume   133.60497714
_cell_formula_units_Z   1
loop_
 _symmetry_equiv_pos_site_id
 _symmetry_equiv_pos_as_xyz
  1  'x, y, z'
loop_
 _atom_site_type_symbol
 _atom_site_label
 _atom_site_symmetry_multiplicity
 _atom_site_fract_x
 _atom_site_fract_y
 _atom_site_fract_z
 _atom_site_occupancy
  Ba  Ba0  1  0.00000000  0.00000000  0.00000000  1
  Pb  Pb1  1  0.00000000  0.66666669  0.66666664  1
  Pd  Pd2  1  0.49999998  0.00000000  0.50000000  1
  Pb  Pb3  1  0.49999998  0.50000002  -0.00000002  1
  Pd  Pd4  1  0.49999998  0.50000002  0.49999998  1
  Pd  Pd5  1  0.00000000  0.33333335  0.33333332  1
