# generated using pymatgen
data_WOF3
_symmetry_space_group_name_H-M   'P 1'
_cell_length_a   5.20143318
_cell_length_b   5.64252281
_cell_length_c   6.33419704
_cell_angle_alpha   106.39978790
_cell_angle_beta   111.32367706
_cell_angle_gamma   90.43289185
_symmetry_Int_Tables_number   1
_chemical_formula_structural   WOF3
_chemical_formula_sum   'W2 O2 F6'
_cell_volume   164.86263811
_cell_formula_units_Z   2
loop_
 _symmetry_equiv_pos_site_id
 _symmetry_equiv_pos_as_xyz
  1  'x, y, z'
loop_
 _atom_site_type_symbol
 _atom_site_label
 _atom_site_symmetry_multiplicity
 _atom_site_fract_x
 _atom_site_fract_y
 _atom_site_fract_z
 _atom_site_occupancy
  W  W0  1  0.99840200  0.49590402  0.99896401  1
  W  W1  1  0.50204602  0.99851304  0.00285502  1
  F  F2  1  0.15530700  0.16462101  0.86107098  1
  O  O3  1  0.33154301  0.50634502  0.26860200  1
  F  F4  1  0.84428601  0.82874603  0.14158903  1
  F  F5  1  0.77988400  0.33440001  0.14623203  1
  O  O6  1  0.67702200  0.50262002  0.72615801  1
  F  F7  1  0.59524599  0.00897400  0.73671801  1
  F  F8  1  0.22800001  0.66217003  0.86122698  1
  F  F9  1  0.40361700  0.00287700  0.26911401  1
