# generated using pymatgen
data_LuGa5Co3
_symmetry_space_group_name_H-M   'P 1'
_cell_length_a   4.05095816
_cell_length_b   8.74662876
_cell_length_c   8.74827766
_cell_angle_alpha   119.99377441
_cell_angle_beta   90.00000000
_cell_angle_gamma   90.00000000
_symmetry_Int_Tables_number   1
_chemical_formula_structural   LuGa5Co3
_chemical_formula_sum   'Lu2 Ga10 Co6'
_cell_volume   268.45956545
_cell_formula_units_Z   2
loop_
 _symmetry_equiv_pos_site_id
 _symmetry_equiv_pos_as_xyz
  1  'x, y, z'
loop_
 _atom_site_type_symbol
 _atom_site_label
 _atom_site_symmetry_multiplicity
 _atom_site_fract_x
 _atom_site_fract_y
 _atom_site_fract_z
 _atom_site_occupancy
  Lu  Lu0  1  0.49999998  0.33333335  0.66666670  1
  Lu  Lu1  1  0.49999998  0.66666670  0.33333339  1
  Ga  Ga2  1  0.99999996  0.00023100  0.00000000  1
  Ga  Ga3  1  0.99999996  0.49575902  0.00000004  1
  Ga  Ga4  1  0.00000000  0.50416102  0.50401905  1
  Co  Co5  1  0.99999996  0.00014200  0.49598101  1
  Ga  Ga6  1  0.49999998  0.72958003  0.00000005  1
  Co  Co7  1  0.49999998  0.27059901  0.27055903  1
  Ga  Ga8  1  0.49999998  0.00004000  0.72944101  1
  Ga  Ga9  1  0.99999996  0.18013301  0.36103602  1
  Ga  Ga10  1  0.99999996  0.18068401  0.81964803  1
  Co  Co11  1  0.00000000  0.63896403  0.81920406  1
  Co  Co12  1  0.00000000  0.81909704  0.63896407  1
  Co  Co13  1  0.99999996  0.36103602  0.18035203  1
  Co  Co14  1  0.99999996  0.81976004  0.18079606  1
  Ga  Ga15  1  0.49999998  0.29592701  0.00000002  1
  Ga  Ga16  1  0.49999998  0.70370403  0.70363607  1
  Ga  Ga17  1  0.49999998  0.00006800  0.29636401  1
