# generated using pymatgen
data_LaAu
_symmetry_space_group_name_H-M   'P 1'
_cell_length_a   4.26016283
_cell_length_b   5.94508410
_cell_length_c   7.92924881
_cell_angle_alpha   90.00000000
_cell_angle_beta   90.00000000
_cell_angle_gamma   90.00000000
_symmetry_Int_Tables_number   1
_chemical_formula_structural   LaAu
_chemical_formula_sum   'La4 Au4'
_cell_volume   200.82429303
_cell_formula_units_Z   4
loop_
 _symmetry_equiv_pos_site_id
 _symmetry_equiv_pos_as_xyz
  1  'x, y, z'
loop_
 _atom_site_type_symbol
 _atom_site_label
 _atom_site_symmetry_multiplicity
 _atom_site_fract_x
 _atom_site_fract_y
 _atom_site_fract_z
 _atom_site_occupancy
  La  La0  1  0.00000000  0.11934300  0.68138402  1
  La  La1  1  0.00000000  0.88065699  0.18138400  1
  La  La2  1  0.50000002  0.37562999  0.32032901  1
  La  La3  1  0.50000002  0.62436999  0.82032902  1
  Au  Au4  1  0.50000002  0.89301099  0.45675201  1
  Au  Au5  1  0.50000002  0.10698900  0.95675202  1
  Au  Au6  1  0.00000000  0.60997599  0.54153501  1
  Au  Au7  1  0.00000000  0.39002399  0.04153500  1
