# generated using pymatgen
data_MoBr5O
_symmetry_space_group_name_H-M   'P 1'
_cell_length_a   4.08295012
_cell_length_b   7.25835896
_cell_length_c   7.84046268
_cell_angle_alpha   106.29121399
_cell_angle_beta   90.00000000
_cell_angle_gamma   106.33532715
_symmetry_Int_Tables_number   1
_chemical_formula_structural   MoBr5O
_chemical_formula_sum   'Mo1 Br5 O1'
_cell_volume   213.23695222
_cell_formula_units_Z   1
loop_
 _symmetry_equiv_pos_site_id
 _symmetry_equiv_pos_as_xyz
  1  'x, y, z'
loop_
 _atom_site_type_symbol
 _atom_site_label
 _atom_site_symmetry_multiplicity
 _atom_site_fract_x
 _atom_site_fract_y
 _atom_site_fract_z
 _atom_site_occupancy
  Mo  Mo0  1  0.44319099  0.00000000  0.50000000  1
  Br  Br1  1  0.99968697  0.00000000  1.00000000  1
  Br  Br2  1  0.37457995  0.72304001  0.20010401  1
  Br  Br3  1  0.64745597  0.26800200  0.33544100  1
  Br  Br4  1  0.65153997  0.27696000  0.79989600  1
  Br  Br5  1  0.37945395  0.73199801  0.66455901  1
  O  O6  1  0.00479200  0.00000000  0.50000000  1
