# generated using pymatgen
data_NaNi2B2N
_symmetry_space_group_name_H-M   'P 1'
_cell_length_a   3.53771591
_cell_length_b   3.53771591
_cell_length_c   5.75791979
_cell_angle_alpha   107.89083099
_cell_angle_beta   107.89083099
_cell_angle_gamma   90.00000000
_symmetry_Int_Tables_number   1
_chemical_formula_structural   NaNi2B2N
_chemical_formula_sum   'Na1 Ni2 B2 N1'
_cell_volume   64.90664222
_cell_formula_units_Z   1
loop_
 _symmetry_equiv_pos_site_id
 _symmetry_equiv_pos_as_xyz
  1  'x, y, z'
loop_
 _atom_site_type_symbol
 _atom_site_label
 _atom_site_symmetry_multiplicity
 _atom_site_fract_x
 _atom_site_fract_y
 _atom_site_fract_z
 _atom_site_occupancy
  Na  Na0  1  0.50000000  0.50000001  -0.00000001  1
  Ni  Ni1  1  0.75000001  0.25000000  0.49999999  1
  Ni  Ni2  1  0.25000000  0.75000001  0.49999999  1
  B  B3  1  0.14546600  0.14546600  0.29093200  1
  B  B4  1  0.85453401  0.85453402  0.70906799  1
  N  N5  1  0.00000000  0.00000000  0.00000000  1
