# generated using pymatgen
data_TaCoGe
_symmetry_space_group_name_H-M   'P 1'
_cell_length_a   4.87824202
_cell_length_b   4.87824249
_cell_length_c   7.90673923
_cell_angle_alpha   90.00000000
_cell_angle_beta   90.00000000
_cell_angle_gamma   120.00000000
_symmetry_Int_Tables_number   1
_chemical_formula_structural   TaCoGe
_chemical_formula_sum   'Ta4 Co4 Ge4'
_cell_volume   162.95015389
_cell_formula_units_Z   4
loop_
 _symmetry_equiv_pos_site_id
 _symmetry_equiv_pos_as_xyz
  1  'x, y, z'
loop_
 _atom_site_type_symbol
 _atom_site_label
 _atom_site_symmetry_multiplicity
 _atom_site_fract_x
 _atom_site_fract_y
 _atom_site_fract_z
 _atom_site_occupancy
  Ta  Ta0  1  0.33333337  0.66666668  0.56836798  1
  Ta  Ta1  1  0.66666668  0.33333334  0.43163199  1
  Ta  Ta2  1  0.66666668  0.33333334  0.05602500  1
  Ta  Ta3  1  0.33333337  0.66666668  0.94397497  1
  Ge  Ge4  1  0.00000000  0.00000000  0.49999999  1
  Ge  Ge5  1  0.00000000  0.00000000  0.00000000  1
  Co  Co6  1  0.33866901  0.16933400  0.75527098  1
  Co  Co7  1  0.83066504  0.66133001  0.75527098  1
  Ge  Ge8  1  0.83066501  0.16933400  0.75527098  1
  Ge  Ge9  1  0.66133105  0.83066601  0.24472899  1
  Co  Co10  1  0.16933502  0.33867001  0.24472899  1
  Co  Co11  1  0.16933505  0.83066601  0.24472899  1
