# generated using pymatgen
data_LiCo7O8
_symmetry_space_group_name_H-M   'P 1'
_cell_length_a   5.36356401
_cell_length_b   5.44972801
_cell_length_c   6.79641533
_cell_angle_alpha   99.00871277
_cell_angle_beta   101.07283783
_cell_angle_gamma   105.51296997
_symmetry_Int_Tables_number   1
_chemical_formula_structural   LiCo7O8
_chemical_formula_sum   'Li1 Co7 O8'
_cell_volume   183.25964954
_cell_formula_units_Z   1
loop_
 _symmetry_equiv_pos_site_id
 _symmetry_equiv_pos_as_xyz
  1  'x, y, z'
loop_
 _atom_site_type_symbol
 _atom_site_label
 _atom_site_symmetry_multiplicity
 _atom_site_fract_x
 _atom_site_fract_y
 _atom_site_fract_z
 _atom_site_occupancy
  Li  Li0  1  0.47399801  0.21264200  0.55678400  1
  Co  Co1  1  0.57377403  0.65218999  0.85139499  1
  Co  Co2  1  0.42128504  0.89602998  0.14846398  1
  Co  Co3  1  0.41798102  0.38479699  0.12946000  1
  Co  Co4  1  0.03562702  0.44194799  0.74409297  1
  Co  Co5  1  0.03903503  0.94280898  0.74054695  1
  Co  Co6  1  0.94405101  0.05232100  0.25894704  1
  Co  Co7  1  0.95066203  0.55470099  0.26188002  1
  O  O8  1  0.26597903  0.77447698  0.85855997  1
  O  O9  1  0.29086201  0.27683099  0.81640399  1
  O  O10  1  0.19519802  0.37719899  0.32972399  1
  O  O11  1  0.19450503  0.88762798  0.33309297  1
  O  O12  1  0.79019803  0.61098199  0.66521300  1
  O  O13  1  0.80863701  0.11100000  0.63224102  1
  O  O14  1  0.70337003  0.71666399  0.15648000  1
  O  O15  1  0.70093901  0.22833000  0.19281402  1
