# generated using pymatgen
data_Lu3(Ga5Co3)2
_symmetry_space_group_name_H-M   'P 1'
_cell_length_a   6.35399961
_cell_length_b   6.35399961
_cell_length_c   6.35399914
_cell_angle_alpha   82.88075256
_cell_angle_beta   82.88075256
_cell_angle_gamma   82.88075256
_symmetry_Int_Tables_number   1
_chemical_formula_structural   Lu3(Ga5Co3)2
_chemical_formula_sum   'Lu3 Ga10 Co6'
_cell_volume   251.05134229
_cell_formula_units_Z   1
loop_
 _symmetry_equiv_pos_site_id
 _symmetry_equiv_pos_as_xyz
  1  'x, y, z'
loop_
 _atom_site_type_symbol
 _atom_site_label
 _atom_site_symmetry_multiplicity
 _atom_site_fract_x
 _atom_site_fract_y
 _atom_site_fract_z
 _atom_site_occupancy
  Lu  Lu0  1  0.65640898  0.65640899  0.65640898  1
  Lu  Lu1  1  0.34346199  0.34346199  0.34346199  1
  Ga  Ga2  1  0.99832697  0.99832698  0.50459897  1
  Ga  Ga3  1  0.50459897  0.99832698  0.99832698  1
  Ga  Ga4  1  0.99832697  0.50459899  0.99832698  1
  Lu  Lu5  1  0.09266500  0.09266500  0.09266500  1
  Co  Co6  1  0.71386898  0.28564300  0.00015298  1
  Ga  Ga7  1  0.00015299  0.71386899  0.28564299  1
  Ga  Ga8  1  0.28564299  0.00015300  0.71386900  1
  Co  Co9  1  0.00015300  0.28564300  0.71386900  1
  Ga  Ga10  1  0.71386899  0.00015300  0.28564299  1
  Co  Co11  1  0.28564298  0.71386899  0.00015299  1
  Co  Co12  1  0.34305499  0.34305499  0.84707699  1
  Co  Co13  1  0.84707698  0.34305499  0.34305498  1
  Co  Co14  1  0.34305498  0.84707699  0.34305498  1
  Ga  Ga15  1  0.65592298  0.65592299  0.15730598  1
  Ga  Ga16  1  0.15730599  0.65592299  0.65592299  1
  Ga  Ga17  1  0.65592299  0.15730600  0.65592299  1
  Ga  Ga18  1  0.90453997  0.90453999  0.90453998  1
