# generated using pymatgen
data_Lu4I5
_symmetry_space_group_name_H-M   'P 1'
_cell_length_a   3.93273807
_cell_length_b   8.75291348
_cell_length_c   9.46427345
_cell_angle_alpha   103.36987305
_cell_angle_beta   101.99155426
_cell_angle_gamma   90.00000000
_symmetry_Int_Tables_number   1
_chemical_formula_structural   Lu4I5
_chemical_formula_sum   'Lu4 I5'
_cell_volume   309.64633456
_cell_formula_units_Z   1
loop_
 _symmetry_equiv_pos_site_id
 _symmetry_equiv_pos_as_xyz
  1  'x, y, z'
loop_
 _atom_site_type_symbol
 _atom_site_label
 _atom_site_symmetry_multiplicity
 _atom_site_fract_x
 _atom_site_fract_y
 _atom_site_fract_z
 _atom_site_occupancy
  Lu  Lu0  1  0.99960497  0.19606400  0.99920996  1
  Lu  Lu1  1  0.00039499  0.80393598  0.00079003  1
  Lu  Lu2  1  0.36652697  0.93252298  0.73305400  1
  Lu  Lu3  1  0.63347298  0.06747700  0.26694598  1
  I  I4  1  0.83210096  0.65349199  0.66420198  1
  I  I5  1  0.16789899  0.34650799  0.33579800  1
  I  I6  1  0.82541397  0.17524600  0.65082797  1
  I  I7  1  0.17458598  0.82475398  0.34917201  1
  I  I8  1  0.49999998  0.49999999  0.00000000  1
