# generated using pymatgen
data_Mo2Se5
_symmetry_space_group_name_H-M   'P 1'
_cell_length_a   4.14215040
_cell_length_b   4.14215040
_cell_length_c   13.51412964
_cell_angle_alpha   81.18452454
_cell_angle_beta   81.18452454
_cell_angle_gamma   59.99999619
_symmetry_Int_Tables_number   1
_chemical_formula_structural   Mo2Se5
_chemical_formula_sum   'Mo2 Se5'
_cell_volume   197.63400214
_cell_formula_units_Z   1
loop_
 _symmetry_equiv_pos_site_id
 _symmetry_equiv_pos_as_xyz
  1  'x, y, z'
loop_
 _atom_site_type_symbol
 _atom_site_label
 _atom_site_symmetry_multiplicity
 _atom_site_fract_x
 _atom_site_fract_y
 _atom_site_fract_z
 _atom_site_occupancy
  Se  Se0  1  0.00000000  0.00000000  0.00000000  1
  Se  Se1  1  0.76335993  0.76335996  0.70992001  1
  Se  Se2  1  0.23663998  0.23663999  0.29008000  1
  Se  Se3  1  0.87095392  0.87095396  0.38713801  1
  Mo  Mo4  1  0.69982694  0.69982697  0.90051900  1
  Se  Se5  1  0.12904599  0.12904599  0.61286200  1
  Mo  Mo6  1  0.30017297  0.30017299  0.09948100  1
