# generated using pymatgen
data_Na4Co5O11
_symmetry_space_group_name_H-M   'P 1'
_cell_length_a   5.36564779
_cell_length_b   5.61934710
_cell_length_c   7.42521620
_cell_angle_alpha   90.00000000
_cell_angle_beta   90.00000000
_cell_angle_gamma   90.00000000
_symmetry_Int_Tables_number   1
_chemical_formula_structural   Na4Co5O11
_chemical_formula_sum   'Na4 Co5 O11'
_cell_volume   223.88094093
_cell_formula_units_Z   1
loop_
 _symmetry_equiv_pos_site_id
 _symmetry_equiv_pos_as_xyz
  1  'x, y, z'
loop_
 _atom_site_type_symbol
 _atom_site_label
 _atom_site_symmetry_multiplicity
 _atom_site_fract_x
 _atom_site_fract_y
 _atom_site_fract_z
 _atom_site_occupancy
  Na  Na0  1  0.01938800  0.43224999  0.24999999  1
  Na  Na1  1  0.98061204  0.56774999  0.74999998  1
  Na  Na2  1  0.51938802  0.06775000  0.74999998  1
  Na  Na3  1  0.48061202  0.93224998  0.24999999  1
  Co  Co4  1  0.00000000  0.00000000  0.00000000  1
  Co  Co5  1  0.50000002  0.49999999  -0.00000000  1
  Co  Co6  1  0.00000000  0.00000000  0.49999999  1
  Co  Co7  1  0.50000002  0.49999999  0.49999999  1
  O  O8  1  0.30275501  0.20484900  0.04860400  1
  O  O9  1  0.69724503  0.79515099  0.95139597  1
  O  O10  1  0.80275503  0.29515099  0.95139597  1
  O  O11  1  0.69724503  0.79515099  0.54860399  1
  O  O12  1  0.19724501  0.70484899  0.04860400  1
  O  O13  1  0.30275501  0.20484900  0.45139599  1
  O  O14  1  0.19724501  0.70484899  0.45139599  1
  O  O15  1  0.80275503  0.29515099  0.54860399  1
  O  O16  1  0.60156002  0.53057499  0.24999999  1
  O  O17  1  0.39844002  0.46942499  0.74999998  1
  Co  Co18  1  0.10156000  0.96942498  0.74999998  1
  O  O19  1  0.89844003  0.03057500  0.24999999  1
