# generated using pymatgen
data_P9Os
_symmetry_space_group_name_H-M   'P 1'
_cell_length_a   6.53830624
_cell_length_b   6.58038044
_cell_length_c   7.12142134
_cell_angle_alpha   116.62057495
_cell_angle_beta   90.00000000
_cell_angle_gamma   119.78871155
_symmetry_Int_Tables_number   1
_chemical_formula_structural   P9Os
_chemical_formula_sum   'P9 Os1'
_cell_volume   227.72677245
_cell_formula_units_Z   1
loop_
 _symmetry_equiv_pos_site_id
 _symmetry_equiv_pos_as_xyz
  1  'x, y, z'
loop_
 _atom_site_type_symbol
 _atom_site_label
 _atom_site_symmetry_multiplicity
 _atom_site_fract_x
 _atom_site_fract_y
 _atom_site_fract_z
 _atom_site_occupancy
  P  P0  1  0.86222893  0.59402498  0.38076596  1
  Os  Os1  1  0.73179593  0.59402498  0.88076595  1
  P  P2  1  0.55453291  0.91303197  0.37037594  1
  P  P3  1  0.35849892  0.91303197  0.87037593  1
  P  P4  1  0.57334296  0.31958299  0.49702497  1
  P  P5  1  0.74623995  0.31958299  0.99702496  1
  P  P6  1  0.23986294  0.65571598  0.48679695  1
  P  P7  1  0.41585294  0.65571598  0.98679694  1
  P  P8  1  0.08846492  0.99564496  0.01603595  1
  P  P9  1  0.90717989  0.99564496  0.51603593  1
