# generated using pymatgen
data_Ga11Co
_symmetry_space_group_name_H-M   'P 1'
_cell_length_a   5.01108503
_cell_length_b   6.13331413
_cell_length_c   6.13331413
_cell_angle_alpha   90.00000000
_cell_angle_beta   90.00000000
_cell_angle_gamma   90.00000000
_symmetry_Int_Tables_number   1
_chemical_formula_structural   Ga11Co
_chemical_formula_sum   'Ga11 Co1'
_cell_volume   188.50470296
_cell_formula_units_Z   1
loop_
 _symmetry_equiv_pos_site_id
 _symmetry_equiv_pos_as_xyz
  1  'x, y, z'
loop_
 _atom_site_type_symbol
 _atom_site_label
 _atom_site_symmetry_multiplicity
 _atom_site_fract_x
 _atom_site_fract_y
 _atom_site_fract_z
 _atom_site_occupancy
  Ga  Ga0  1  0.50000000  0.66728599  0.15912600  1
  Ga  Ga1  1  0.50000000  0.33271399  0.84087398  1
  Ga  Ga2  1  0.50000000  0.84087398  0.66728599  1
  Ga  Ga3  1  0.50000000  0.15912600  0.33271399  1
  Ga  Ga4  1  0.00000000  0.33271399  0.15912600  1
  Ga  Ga5  1  0.00000000  0.66728599  0.84087398  1
  Ga  Ga6  1  0.99999999  0.15912600  0.66728599  1
  Ga  Ga7  1  0.99999999  0.84087398  0.33271399  1
  Ga  Ga8  1  0.25000000  0.00000000  0.00000000  1
  Ga  Ga9  1  0.74999999  0.00000000  0.00000000  1
  Co  Co10  1  0.25000000  0.49999999  0.49999999  1
  Ga  Ga11  1  0.74999999  0.49999999  0.49999999  1
