# generated using pymatgen
data_InGaAgSe4
_symmetry_space_group_name_H-M   'P 1'
_cell_length_a   6.03834009
_cell_length_b   6.95057440
_cell_length_c   6.03834009
_cell_angle_alpha   64.25434113
_cell_angle_beta   90.00000000
_cell_angle_gamma   115.74565887
_symmetry_Int_Tables_number   1
_chemical_formula_structural   InGaAgSe4
_chemical_formula_sum   'In1 Ga1 Ag1 Se4'
_cell_volume   199.97328475
_cell_formula_units_Z   1
loop_
 _symmetry_equiv_pos_site_id
 _symmetry_equiv_pos_as_xyz
  1  'x, y, z'
loop_
 _atom_site_type_symbol
 _atom_site_label
 _atom_site_symmetry_multiplicity
 _atom_site_fract_x
 _atom_site_fract_y
 _atom_site_fract_z
 _atom_site_occupancy
  Ga  Ga0  1  0.49999999  0.00000000  0.49999999  1
  In  In1  1  0.24999995  0.49999996  0.25000004  1
  Ag  Ag2  1  0.74999995  0.49999996  0.75000003  1
  Se  Se3  1  0.64710292  0.78132493  0.85327605  1
  Se  Se4  1  0.13422193  0.78132493  0.36539906  1
  Se  Se5  1  0.85327597  0.21867498  0.13422202  1
  Se  Se6  1  0.36539898  0.21867498  0.64710301  1
