# generated using pymatgen
data_BP3Rh7
_symmetry_space_group_name_H-M   'P 1'
_cell_length_a   5.60284376
_cell_length_b   5.60284376
_cell_length_c   6.59856653
_cell_angle_alpha   65.61367035
_cell_angle_beta   65.61367035
_cell_angle_gamma   88.79949951
_symmetry_Int_Tables_number   1
_chemical_formula_structural   BP3Rh7
_chemical_formula_sum   'B1 P3 Rh7'
_cell_volume   169.01417363
_cell_formula_units_Z   1
loop_
 _symmetry_equiv_pos_site_id
 _symmetry_equiv_pos_as_xyz
  1  'x, y, z'
loop_
 _atom_site_type_symbol
 _atom_site_label
 _atom_site_symmetry_multiplicity
 _atom_site_fract_x
 _atom_site_fract_y
 _atom_site_fract_z
 _atom_site_occupancy
  P  P0  1  0.22295300  0.76217002  0.51374199  1
  P  P1  1  0.50152301  0.50152301  0.96651698  1
  P  P2  1  0.76217002  0.22295301  0.51374199  1
  B  B3  1  0.04161100  0.04161100  0.97632598  1
  Rh  Rh4  1  0.83393102  0.83393102  0.85389298  1
  Rh  Rh5  1  0.36743201  0.89355702  0.74894698  1
  Rh  Rh6  1  0.06527600  0.65378202  0.24384599  1
  Rh  Rh7  1  0.89355702  0.36743201  0.74894698  1
  Rh  Rh8  1  0.38798501  0.38798501  0.70905398  1
  Rh  Rh9  1  0.65378202  0.06527600  0.24384599  1
  Rh  Rh10  1  0.14478100  0.14478100  0.23114099  1
