# generated using pymatgen
data_Li3Ag3F14
_symmetry_space_group_name_H-M   'P 1'
_cell_length_a   5.36671114
_cell_length_b   5.45576620
_cell_length_c   7.83429623
_cell_angle_alpha   90.00000000
_cell_angle_beta   90.00000000
_cell_angle_gamma   90.00000000
_symmetry_Int_Tables_number   1
_chemical_formula_structural   Li3Ag3F14
_chemical_formula_sum   'Li3 Ag3 F14'
_cell_volume   229.38444282
_cell_formula_units_Z   1
loop_
 _symmetry_equiv_pos_site_id
 _symmetry_equiv_pos_as_xyz
  1  'x, y, z'
loop_
 _atom_site_type_symbol
 _atom_site_label
 _atom_site_symmetry_multiplicity
 _atom_site_fract_x
 _atom_site_fract_y
 _atom_site_fract_z
 _atom_site_occupancy
  Li  Li0  1  0.01292100  0.01564500  0.24999999  1
  Li  Li1  1  0.51292099  0.48435498  0.74999998  1
  Li  Li2  1  0.48707899  0.51564498  0.24999999  1
  F  F3  1  0.98707897  0.98435496  0.74999998  1
  F  F4  1  0.49999999  0.00000000  0.00000000  1
  Ag  Ag5  1  0.49999999  0.00000000  0.49999999  1
  Ag  Ag6  1  0.00000000  0.49999998  -0.00000000  1
  Ag  Ag7  1  0.00000000  0.49999998  0.49999999  1
  F  F8  1  0.63675898  0.09370100  0.74999998  1
  F  F9  1  0.16244300  0.16632699  0.57448998  1
  F  F10  1  0.16244300  0.16632699  0.92550997  1
  F  F11  1  0.66244298  0.33367299  0.07449000  1
  F  F12  1  0.66244298  0.33367299  0.42550999  1
  F  F13  1  0.13675900  0.40629899  0.24999999  1
  F  F14  1  0.86324098  0.59370098  0.74999998  1
  F  F15  1  0.33755699  0.66632698  0.92550997  1
  F  F16  1  0.33755699  0.66632698  0.57448998  1
  F  F17  1  0.83755698  0.83367297  0.07449000  1
  F  F18  1  0.83755698  0.83367297  0.42550999  1
  F  F19  1  0.36324099  0.90629897  0.24999999  1
