# generated using pymatgen
data_Tb(AlSi)2
_symmetry_space_group_name_H-M   'P 1'
_cell_length_a   4.29212379
_cell_length_b   4.29212284
_cell_length_c   6.57145977
_cell_angle_alpha   90.00000000
_cell_angle_beta   90.00000000
_cell_angle_gamma   120.00000763
_symmetry_Int_Tables_number   1
_chemical_formula_structural   Tb(AlSi)2
_chemical_formula_sum   'Tb1 Al2 Si2'
_cell_volume   104.84237111
_cell_formula_units_Z   1
loop_
 _symmetry_equiv_pos_site_id
 _symmetry_equiv_pos_as_xyz
  1  'x, y, z'
loop_
 _atom_site_type_symbol
 _atom_site_label
 _atom_site_symmetry_multiplicity
 _atom_site_fract_x
 _atom_site_fract_y
 _atom_site_fract_z
 _atom_site_occupancy
  Tb  Tb0  1  0.00000000  0.00000000  0.00000000  1
  Al  Al1  1  0.33333332  0.66666664  0.64483702  1
  Al  Al2  1  0.66666669  0.33333332  0.35516301  1
  Si  Si3  1  0.33333332  0.66666664  0.25625501  1
  Si  Si4  1  0.66666669  0.33333332  0.74374503  1
