# generated using pymatgen
data_Cs2BaH2F8
_symmetry_space_group_name_H-M   'P 1'
_cell_length_a   5.80177450
_cell_length_b   5.80177450
_cell_length_c   7.86611319
_cell_angle_alpha   69.84332275
_cell_angle_beta   69.84332275
_cell_angle_gamma   60.51269150
_symmetry_Int_Tables_number   1
_chemical_formula_structural   Cs2BaH2F8
_chemical_formula_sum   'Cs2 Ba1 H2 F8'
_cell_volume   211.34568572
_cell_formula_units_Z   1
loop_
 _symmetry_equiv_pos_site_id
 _symmetry_equiv_pos_as_xyz
  1  'x, y, z'
loop_
 _atom_site_type_symbol
 _atom_site_label
 _atom_site_symmetry_multiplicity
 _atom_site_fract_x
 _atom_site_fract_y
 _atom_site_fract_z
 _atom_site_occupancy
  Ba  Ba0  1  0.50000001  0.49999999  -0.00000002  1
  Cs  Cs1  1  0.29411000  0.29410999  0.61553898  1
  Cs  Cs2  1  0.70589001  0.70588999  0.38446097  1
  H  H3  1  0.10649500  0.10649500  0.18095999  1
  H  H4  1  0.89350501  0.89350498  0.81903996  1
  F  F5  1  0.22383702  0.80231299  0.24800498  1
  F  F6  1  0.80231300  0.22383700  0.24800498  1
  F  F7  1  0.22144000  0.22144000  0.25912899  1
  F  F8  1  0.77616300  0.19768700  0.75199497  1
  F  F9  1  0.19768702  0.77616299  0.75199497  1
  F  F10  1  0.77856001  0.77855999  0.74087096  1
  F  F11  1  0.17294200  0.17294200  0.97739198  1
  F  F12  1  0.82705801  0.82705799  0.02260797  1
