# generated using pymatgen
data_CdHOF
_symmetry_space_group_name_H-M   'P 1'
_cell_length_a   3.53435874
_cell_length_b   4.84468699
_cell_length_c   5.62795973
_cell_angle_alpha   90.00000000
_cell_angle_beta   90.08310699
_cell_angle_gamma   90.00000000
_symmetry_Int_Tables_number   1
_chemical_formula_structural   CdHOF
_chemical_formula_sum   'Cd2 H2 O2 F2'
_cell_volume   96.36667520
_cell_formula_units_Z   2
loop_
 _symmetry_equiv_pos_site_id
 _symmetry_equiv_pos_as_xyz
  1  'x, y, z'
loop_
 _atom_site_type_symbol
 _atom_site_label
 _atom_site_symmetry_multiplicity
 _atom_site_fract_x
 _atom_site_fract_y
 _atom_site_fract_z
 _atom_site_occupancy
  Cd  Cd0  1  0.74775601  0.75453200  0.98336898  1
  Cd  Cd1  1  0.25224400  0.25453200  0.51663099  1
  H  H2  1  0.74969901  0.68416700  0.52240398  1
  H  H3  1  0.25030100  0.18416700  0.97759599  1
  O  O4  1  0.24815900  0.02155300  0.86969199  1
  O  O5  1  0.75184101  0.52155300  0.63030798  1
  F  F6  1  0.24887400  0.47974800  0.14419799  1
  F  F7  1  0.75112601  0.97974800  0.35580198  1
