# generated using pymatgen
data_NdNiGe2
_symmetry_space_group_name_H-M   'P 1'
_cell_length_a   4.18499804
_cell_length_b   4.31360197
_cell_length_c   8.76025295
_cell_angle_alpha   104.25294495
_cell_angle_beta   90.00000000
_cell_angle_gamma   90.00000000
_symmetry_Int_Tables_number   1
_chemical_formula_structural   NdNiGe2
_chemical_formula_sum   'Nd2 Ni2 Ge4'
_cell_volume   153.27578887
_cell_formula_units_Z   2
loop_
 _symmetry_equiv_pos_site_id
 _symmetry_equiv_pos_as_xyz
  1  'x, y, z'
loop_
 _atom_site_type_symbol
 _atom_site_label
 _atom_site_symmetry_multiplicity
 _atom_site_fract_x
 _atom_site_fract_y
 _atom_site_fract_z
 _atom_site_occupancy
  Nd  Nd0  1  0.25000000  0.10785300  0.21570600  1
  Nd  Nd1  1  0.74999999  0.89214702  0.78429401  1
  Ni  Ni2  1  0.25000000  0.31896901  0.63793799  1
  Ni  Ni3  1  0.74999999  0.68103101  0.36206201  1
  Ge  Ge4  1  0.25000000  0.45626901  0.91253799  1
  Ge  Ge5  1  0.74999999  0.54373101  0.08746201  1
  Ge  Ge6  1  0.25000000  0.75044702  0.50089401  1
  Ge  Ge7  1  0.74999999  0.24955301  0.49910599  1
