# generated using pymatgen
data_Ho
_symmetry_space_group_name_H-M   'P 1'
_cell_length_a   5.78794479
_cell_length_b   7.12041378
_cell_length_c   7.12041473
_cell_angle_alpha   60.00000381
_cell_angle_beta   90.00000000
_cell_angle_gamma   90.00000000
_symmetry_Int_Tables_number   1
_chemical_formula_structural   Ho
_chemical_formula_sum   Ho8
_cell_volume   254.13562588
_cell_formula_units_Z   8
loop_
 _symmetry_equiv_pos_site_id
 _symmetry_equiv_pos_as_xyz
  1  'x, y, z'
loop_
 _atom_site_type_symbol
 _atom_site_label
 _atom_site_symmetry_multiplicity
 _atom_site_fract_x
 _atom_site_fract_y
 _atom_site_fract_z
 _atom_site_occupancy
  Ho  Ho0  1  0.75000003  0.66679101  0.16660501  1
  Ho  Ho1  1  0.75000003  0.16660400  0.16660500  1
  Ho  Ho2  1  0.75000003  0.16660400  0.66679198  1
  Ho  Ho3  1  0.25000001  0.33320901  0.83339498  1
  Ho  Ho4  1  0.25000001  0.83339601  0.83339500  1
  Ho  Ho5  1  0.25000001  0.83339601  0.33320801  1
  Ho  Ho6  1  0.25000001  0.33333334  0.33333333  1
  Ho  Ho7  1  0.75000003  0.66666668  0.66666667  1
