# generated using pymatgen
data_Ba3F4
_symmetry_space_group_name_H-M   'P 1'
_cell_length_a   7.70755529
_cell_length_b   7.70771646
_cell_length_c   7.70820045
_cell_angle_alpha   60.93972397
_cell_angle_beta   60.93986893
_cell_angle_gamma   60.95675659
_symmetry_Int_Tables_number   1
_chemical_formula_structural   Ba3F4
_chemical_formula_sum   'Ba6 F8'
_cell_volume   330.70090597
_cell_formula_units_Z   2
loop_
 _symmetry_equiv_pos_site_id
 _symmetry_equiv_pos_as_xyz
  1  'x, y, z'
loop_
 _atom_site_type_symbol
 _atom_site_label
 _atom_site_symmetry_multiplicity
 _atom_site_fract_x
 _atom_site_fract_y
 _atom_site_fract_z
 _atom_site_occupancy
  Ba  Ba0  1  0.49999802  0.50002000  0.49999701  1
  Ba  Ba1  1  0.99999003  1.00000000  0.50000102  1
  Ba  Ba2  1  0.00000200  0.49999000  0.00000002  1
  Ba  Ba3  1  0.62459602  0.12456900  0.12461799  1
  Ba  Ba4  1  0.37541301  0.87543000  0.87537804  1
  Ba  Ba5  1  0.00000800  0.49999100  0.50000203  1
  F  F6  1  0.23206701  0.26681500  0.26679101  1
  F  F7  1  0.23322101  0.26792800  0.73320902  1
  F  F8  1  0.24569301  0.74574600  0.74568903  1
  F  F9  1  0.23320101  0.73318300  0.26794002  1
  F  F10  1  0.75427902  0.25426900  0.25432299  1
  F  F11  1  0.76679402  0.26681800  0.73206200  1
  F  F12  1  0.76793602  0.73316600  0.73321502  1
  F  F13  1  0.76680402  0.73207400  0.26677001  1
