# generated using pymatgen
data_PrGe2
_symmetry_space_group_name_H-M   'P 1'
_cell_length_a   4.28289318
_cell_length_b   7.53788996
_cell_length_c   7.53788996
_cell_angle_alpha   120.00000000
_cell_angle_beta   90.00000000
_cell_angle_gamma   90.00000000
_symmetry_Int_Tables_number   1
_chemical_formula_structural   PrGe2
_chemical_formula_sum   'Pr3 Ge6'
_cell_volume   210.74994050
_cell_formula_units_Z   3
loop_
 _symmetry_equiv_pos_site_id
 _symmetry_equiv_pos_as_xyz
  1  'x, y, z'
loop_
 _atom_site_type_symbol
 _atom_site_label
 _atom_site_symmetry_multiplicity
 _atom_site_fract_x
 _atom_site_fract_y
 _atom_site_fract_z
 _atom_site_occupancy
  Pr  Pr0  1  0.49999998  0.58534100  -0.00000001  1
  Pr  Pr1  1  0.49999998  0.41465900  0.41465898  1
  Pr  Pr2  1  0.49999998  1.00000000  0.58534097  1
  Ge  Ge3  1  0.00000000  0.24538200  -0.00000000  1
  Ge  Ge4  1  0.00000000  0.75461800  0.75461797  1
  Ge  Ge5  1  0.99999996  1.00000000  0.24538198  1
  Ge  Ge6  1  0.00000000  0.33333333  0.66666665  1
  Ge  Ge7  1  0.99999996  0.66666666  0.33333331  1
  Ge  Ge8  1  0.49999998  0.00000000  -0.00000000  1
