# generated using pymatgen
data_Li(AuO2)2
_symmetry_space_group_name_H-M   'P 1'
_cell_length_a   3.12649488
_cell_length_b   5.04966450
_cell_length_c   5.04966450
_cell_angle_alpha   107.10462189
_cell_angle_beta   90.00000000
_cell_angle_gamma   90.00000000
_symmetry_Int_Tables_number   1
_chemical_formula_structural   Li(AuO2)2
_chemical_formula_sum   'Li1 Au2 O4'
_cell_volume   76.19664406
_cell_formula_units_Z   1
loop_
 _symmetry_equiv_pos_site_id
 _symmetry_equiv_pos_as_xyz
  1  'x, y, z'
loop_
 _atom_site_type_symbol
 _atom_site_label
 _atom_site_symmetry_multiplicity
 _atom_site_fract_x
 _atom_site_fract_y
 _atom_site_fract_z
 _atom_site_occupancy
  Li  Li0  1  0.50000002  0.00000000  0.49999998  1
  Au  Au1  1  0.50000002  0.49999997  -0.00000002  1
  Au  Au2  1  0.00000000  0.00000000  0.00000000  1
  O  O3  1  1.00000004  0.23645699  0.76354296  1
  O  O4  1  0.50000002  0.23069399  0.23069398  1
  O  O5  1  0.50000002  0.76930596  0.76930593  1
  O  O6  1  1.00000004  0.76354296  0.23645695  1
