# generated using pymatgen
data_LuGa2
_symmetry_space_group_name_H-M   'P 1'
_cell_length_a   4.37282801
_cell_length_b   5.64640617
_cell_length_c   5.65046215
_cell_angle_alpha   76.14627075
_cell_angle_beta   67.23550415
_cell_angle_gamma   67.21823120
_symmetry_Int_Tables_number   1
_chemical_formula_structural   LuGa2
_chemical_formula_sum   'Lu2 Ga4'
_cell_volume   117.94960645
_cell_formula_units_Z   2
loop_
 _symmetry_equiv_pos_site_id
 _symmetry_equiv_pos_as_xyz
  1  'x, y, z'
loop_
 _atom_site_type_symbol
 _atom_site_label
 _atom_site_symmetry_multiplicity
 _atom_site_fract_x
 _atom_site_fract_y
 _atom_site_fract_z
 _atom_site_occupancy
  Lu  Lu0  1  0.54376300  0.19743201  0.71504201  1
  Lu  Lu1  1  0.45623700  0.80256804  0.28495796  1
  Ga  Ga2  1  0.16028700  0.39254902  0.28687699  1
  Ga  Ga3  1  0.83971300  0.60745103  0.71312299  1
  Ga  Ga4  1  0.82327100  0.22721801  0.12623999  1
  Ga  Ga5  1  0.17672900  0.77278204  0.87375998  1
