# generated using pymatgen
data_PbF5
_symmetry_space_group_name_H-M   'P 1'
_cell_length_a   4.53501797
_cell_length_b   5.36763906
_cell_length_c   5.36763906
_cell_angle_alpha   79.72015381
_cell_angle_beta   65.01123047
_cell_angle_gamma   65.01123047
_symmetry_Int_Tables_number   1
_chemical_formula_structural   PbF5
_chemical_formula_sum   'Pb1 F5'
_cell_volume   107.34366370
_cell_formula_units_Z   1
loop_
 _symmetry_equiv_pos_site_id
 _symmetry_equiv_pos_as_xyz
  1  'x, y, z'
loop_
 _atom_site_type_symbol
 _atom_site_label
 _atom_site_symmetry_multiplicity
 _atom_site_fract_x
 _atom_site_fract_y
 _atom_site_fract_z
 _atom_site_occupancy
  F  F0  1  0.00000000  0.00000000  0.00000000  1
  F  F1  1  0.72424702  0.38006699  0.17143902  1
  Pb  Pb2  1  0.49999999  0.00000000  0.00000003  1
  F  F3  1  0.27575305  0.61993298  0.82856099  1
  F  F4  1  0.89568606  0.82856098  0.38006702  1
  F  F5  1  0.10431401  0.17143900  0.61993300  1
