# generated using pymatgen
data_AuF3
_symmetry_space_group_name_H-M   'P 1'
_cell_length_a   3.08007002
_cell_length_b   6.29626989
_cell_length_c   6.45184994
_cell_angle_alpha   117.68155670
_cell_angle_beta   90.00000000
_cell_angle_gamma   90.00000000
_symmetry_Int_Tables_number   1
_chemical_formula_structural   AuF3
_chemical_formula_sum   'Au2 F6'
_cell_volume   110.79953579
_cell_formula_units_Z   2
loop_
 _symmetry_equiv_pos_site_id
 _symmetry_equiv_pos_as_xyz
  1  'x, y, z'
loop_
 _atom_site_type_symbol
 _atom_site_label
 _atom_site_symmetry_multiplicity
 _atom_site_fract_x
 _atom_site_fract_y
 _atom_site_fract_z
 _atom_site_occupancy
  F  F0  1  0.00000000  0.50000002  0.00000002  1
  F  F1  1  0.00000000  0.50000002  0.50000002  1
  Au  Au2  1  0.50000000  0.00000000  0.50000000  1
  Au  Au3  1  0.00000000  0.00000000  0.00000000  1
  F  F4  1  0.50000000  0.90535003  0.76594003  1
  F  F5  1  0.99999999  0.23991001  0.63943001  1
  F  F6  1  0.99999999  0.76009002  0.36057002  1
  F  F7  1  0.50000000  0.09465000  0.23406000  1
