# generated using pymatgen
data_Tb3In13
_symmetry_space_group_name_H-M   'P 1'
_cell_length_a   6.54106379
_cell_length_b   6.54106379
_cell_length_c   10.51026726
_cell_angle_alpha   90.00000000
_cell_angle_beta   90.00000000
_cell_angle_gamma   101.76470184
_symmetry_Int_Tables_number   1
_chemical_formula_structural   Tb3In13
_chemical_formula_sum   'Tb3 In13'
_cell_volume   440.24070700
_cell_formula_units_Z   1
loop_
 _symmetry_equiv_pos_site_id
 _symmetry_equiv_pos_as_xyz
  1  'x, y, z'
loop_
 _atom_site_type_symbol
 _atom_site_label
 _atom_site_symmetry_multiplicity
 _atom_site_fract_x
 _atom_site_fract_y
 _atom_site_fract_z
 _atom_site_occupancy
  Tb  Tb0  1  0.12386100  0.12386100  0.74999998  1
  In  In1  1  0.87613897  0.87613898  0.24999999  1
  Tb  Tb2  1  0.70599198  0.29400799  0.49999999  1
  In  In3  1  0.70599198  0.29400799  -0.00000000  1
  Tb  Tb4  1  0.29400798  0.70599198  0.49999999  1
  In  In5  1  0.29400798  0.70599198  -0.00000000  1
  In  In6  1  0.57099597  0.99823698  0.74999998  1
  In  In7  1  0.00176299  0.42900399  0.24999999  1
  In  In8  1  0.42900399  0.00176300  0.24999999  1
  In  In9  1  0.99823697  0.57099599  0.74999998  1
  In  In10  1  0.80487197  0.80487198  0.95511998  1
  In  In11  1  0.19512799  0.19512800  0.04488000  1
  In  In12  1  0.80487197  0.80487198  0.54487999  1
  In  In13  1  0.19512799  0.19512800  0.45511999  1
  In  In14  1  0.51832398  0.51832399  0.74999998  1
  In  In15  1  0.48167598  0.48167599  0.24999999  1
