# generated using pymatgen
data_BaSiP3Pd
_symmetry_space_group_name_H-M   'P 1'
_cell_length_a   4.08434105
_cell_length_b   4.96842194
_cell_length_c   4.96842241
_cell_angle_alpha   60.00000381
_cell_angle_beta   90.00000000
_cell_angle_gamma   90.00000000
_symmetry_Int_Tables_number   1
_chemical_formula_structural   BaSiP3Pd
_chemical_formula_sum   'Ba1 Si1 P3 Pd1'
_cell_volume   87.31515523
_cell_formula_units_Z   1
loop_
 _symmetry_equiv_pos_site_id
 _symmetry_equiv_pos_as_xyz
  1  'x, y, z'
loop_
 _atom_site_type_symbol
 _atom_site_label
 _atom_site_symmetry_multiplicity
 _atom_site_fract_x
 _atom_site_fract_y
 _atom_site_fract_z
 _atom_site_occupancy
  Ba  Ba0  1  0.00000000  0.00000000  0.00000000  1
  Si  Si1  1  0.99999999  0.33333333  0.33333334  1
  P  P2  1  0.99999999  0.66666666  0.66666668  1
  P  P3  1  0.49999999  0.00000000  0.49999999  1
  P  P4  1  0.49999999  0.50000000  0.00000002  1
  Pd  Pd5  1  0.49999999  0.50000000  0.50000001  1
