# generated using pymatgen
data_GaAg3OF5
_symmetry_space_group_name_H-M   'P 1'
_cell_length_a   3.46639991
_cell_length_b   3.46640038
_cell_length_c   12.74871063
_cell_angle_alpha   90.00000000
_cell_angle_beta   90.00000000
_cell_angle_gamma   119.99999237
_symmetry_Int_Tables_number   1
_chemical_formula_structural   GaAg3OF5
_chemical_formula_sum   'Ga1 Ag3 O1 F5'
_cell_volume   132.66437567
_cell_formula_units_Z   1
loop_
 _symmetry_equiv_pos_site_id
 _symmetry_equiv_pos_as_xyz
  1  'x, y, z'
loop_
 _atom_site_type_symbol
 _atom_site_label
 _atom_site_symmetry_multiplicity
 _atom_site_fract_x
 _atom_site_fract_y
 _atom_site_fract_z
 _atom_site_occupancy
  Ga  Ga0  1  0.66666666  0.33333333  0.25000001  1
  Ag  Ag1  1  0.33333330  0.66666666  0.75000002  1
  Ag  Ag2  1  0.00000000  0.00000000  0.00000000  1
  Ag  Ag3  1  0.00000000  0.00000000  0.50000001  1
  F  F4  1  0.00000000  0.00000000  0.75000002  1
  O  O5  1  0.00000000  0.00000000  0.25000001  1
  F  F6  1  0.66666666  0.33333333  0.41763301  1
  F  F7  1  0.66666666  0.33333333  0.08236700  1
  F  F8  1  0.33333330  0.66666666  0.58236702  1
  F  F9  1  0.33333330  0.66666666  0.91763303  1
