# generated using pymatgen
data_Ga8Te7Se
_symmetry_space_group_name_H-M   'P 1'
_cell_length_a   7.06468010
_cell_length_b   7.48678303
_cell_length_c   8.39297009
_cell_angle_alpha   90.00000000
_cell_angle_beta   90.00000000
_cell_angle_gamma   90.00000000
_symmetry_Int_Tables_number   1
_chemical_formula_structural   Ga8Te7Se
_chemical_formula_sum   'Ga8 Te7 Se1'
_cell_volume   443.91868300
_cell_formula_units_Z   1
loop_
 _symmetry_equiv_pos_site_id
 _symmetry_equiv_pos_as_xyz
  1  'x, y, z'
loop_
 _atom_site_type_symbol
 _atom_site_label
 _atom_site_symmetry_multiplicity
 _atom_site_fract_x
 _atom_site_fract_y
 _atom_site_fract_z
 _atom_site_occupancy
  Se  Se0  1  0.50401899  0.34388200  -0.00000000  1
  Te  Te1  1  0.00401900  0.65611800  0.49999999  1
  Te  Te2  1  0.51611099  0.82630100  0.24904900  1
  Te  Te3  1  0.01611100  0.17369900  0.25095100  1
  Te  Te4  1  0.01611100  0.17369900  0.74904899  1
  Te  Te5  1  0.51611099  0.82630100  0.75095099  1
  Te  Te6  1  0.00123700  0.66162900  0.00000000  1
  Te  Te7  1  0.50123699  0.33837100  0.49999999  1
  Ga  Ga8  1  0.86209499  0.34203400  -0.00000000  1
  Ga  Ga9  1  0.36209499  0.65796600  0.49999999  1
  Ga  Ga10  1  0.89181399  0.83256100  0.25506100  1
  Ga  Ga11  1  0.39181399  0.16743900  0.24493900  1
  Ga  Ga12  1  0.39181399  0.16743900  0.75506099  1
  Ga  Ga13  1  0.89181399  0.83256100  0.74493899  1
  Ga  Ga14  1  0.36929799  0.65456700  0.00000000  1
  Ga  Ga15  1  0.86929799  0.34543300  0.49999999  1
