# generated using pymatgen
data_InBiTe9Mo8
_symmetry_space_group_name_H-M   'P 1'
_cell_length_a   8.44639206
_cell_length_b   8.44639206
_cell_length_c   8.44639206
_cell_angle_alpha   109.47122192
_cell_angle_beta   109.47122192
_cell_angle_gamma   109.47122192
_symmetry_Int_Tables_number   1
_chemical_formula_structural   InBiTe9Mo8
_chemical_formula_sum   'In1 Bi1 Te9 Mo8'
_cell_volume   463.86520579
_cell_formula_units_Z   1
loop_
 _symmetry_equiv_pos_site_id
 _symmetry_equiv_pos_as_xyz
  1  'x, y, z'
loop_
 _atom_site_type_symbol
 _atom_site_label
 _atom_site_symmetry_multiplicity
 _atom_site_fract_x
 _atom_site_fract_y
 _atom_site_fract_z
 _atom_site_occupancy
  In  In0  1  0.48979204  0.18735402  0.30243804  1
  Te  Te1  1  0.51020808  0.81264608  0.69756210  1
  Te  Te2  1  0.11508406  0.81264608  0.30243806  1
  Te  Te3  1  0.88491607  0.18735402  0.69756207  1
  Mo  Mo4  1  0.18735406  0.69756207  0.88491609  1
  Te  Te5  1  0.81264607  0.30243803  0.11508404  1
  Te  Te6  1  0.81264610  0.69756207  0.51020809  1
  Bi  Bi7  1  0.18735403  0.30243803  0.48979205  1
  Mo  Mo8  1  0.30243803  0.11508401  0.81264606  1
  Te  Te9  1  0.69756210  0.88491608  0.18735408  1
  Te  Te10  1  0.69756208  0.51020805  0.81264609  1
  Te  Te11  1  0.30243805  0.48979205  0.18735404  1
  Te  Te12  1  0.00000000  0.00000000  0.00000000  1
  Mo  Mo13  1  0.50000009  0.87717708  0.37717708  1
  Mo  Mo14  1  0.50000004  0.12282301  0.62282305  1
  Mo  Mo15  1  0.12282305  0.62282306  0.50000007  1
  Mo  Mo16  1  0.87717708  0.37717704  0.50000007  1
  Mo  Mo17  1  0.62282307  0.50000005  0.12282305  1
  Mo  Mo18  1  0.37717706  0.50000005  0.87717709  1
