# generated using pymatgen
data_EuMg2Ga
_symmetry_space_group_name_H-M   'P 1'
_cell_length_a   4.34034586
_cell_length_b   5.98833609
_cell_length_c   8.18679142
_cell_angle_alpha   90.00000000
_cell_angle_beta   90.00000000
_cell_angle_gamma   111.24765778
_symmetry_Int_Tables_number   1
_chemical_formula_structural   EuMg2Ga
_chemical_formula_sum   'Eu2 Mg4 Ga2'
_cell_volume   198.32191744
_cell_formula_units_Z   2
loop_
 _symmetry_equiv_pos_site_id
 _symmetry_equiv_pos_as_xyz
  1  'x, y, z'
loop_
 _atom_site_type_symbol
 _atom_site_label
 _atom_site_symmetry_multiplicity
 _atom_site_fract_x
 _atom_site_fract_y
 _atom_site_fract_z
 _atom_site_occupancy
  Eu  Eu0  1  0.06075799  0.12151600  0.24999999  1
  Eu  Eu1  1  0.93924195  0.87848399  0.74999996  1
  Mg  Mg2  1  0.34547595  0.69095199  0.05266200  1
  Mg  Mg3  1  0.34547595  0.69095199  0.44733798  1
  Mg  Mg4  1  0.65452399  0.30904800  0.94733795  1
  Mg  Mg5  1  0.65452399  0.30904800  0.55266197  1
  Ga  Ga6  1  0.78001197  0.56002399  0.24999999  1
  Ga  Ga7  1  0.21998797  0.43997599  0.74999996  1
