# generated using pymatgen
data_ScCo2
_symmetry_space_group_name_H-M   'P 1'
_cell_length_a   4.77807188
_cell_length_b   4.77807188
_cell_length_c   4.77807188
_cell_angle_alpha   60.00000000
_cell_angle_beta   60.00000000
_cell_angle_gamma   60.00000000
_symmetry_Int_Tables_number   1
_chemical_formula_structural   ScCo2
_chemical_formula_sum   'Sc2 Co4'
_cell_volume   77.13350010
_cell_formula_units_Z   2
loop_
 _symmetry_equiv_pos_site_id
 _symmetry_equiv_pos_as_xyz
  1  'x, y, z'
loop_
 _atom_site_type_symbol
 _atom_site_label
 _atom_site_symmetry_multiplicity
 _atom_site_fract_x
 _atom_site_fract_y
 _atom_site_fract_z
 _atom_site_occupancy
  Sc  Sc0  1  0.00000000  0.00000000  0.00000000  1
  Sc  Sc1  1  0.74999999  0.74999999  0.74999999  1
  Co  Co2  1  0.37668700  0.86993899  0.37668700  1
  Co  Co3  1  0.37668700  0.37668700  0.37668700  1
  Co  Co4  1  0.37668700  0.37668700  0.86993899  1
  Co  Co5  1  0.86993899  0.37668700  0.37668700  1
