# generated using pymatgen
data_Pr2Co17
_symmetry_space_group_name_H-M   'P 1'
_cell_length_a   6.39122820
_cell_length_b   6.39122820
_cell_length_c   6.39122772
_cell_angle_alpha   82.96871948
_cell_angle_beta   82.96871948
_cell_angle_gamma   82.96871185
_symmetry_Int_Tables_number   1
_chemical_formula_structural   Pr2Co17
_chemical_formula_sum   'Pr2 Co17'
_cell_volume   255.62169067
_cell_formula_units_Z   1
loop_
 _symmetry_equiv_pos_site_id
 _symmetry_equiv_pos_as_xyz
  1  'x, y, z'
loop_
 _atom_site_type_symbol
 _atom_site_label
 _atom_site_symmetry_multiplicity
 _atom_site_fract_x
 _atom_site_fract_y
 _atom_site_fract_z
 _atom_site_occupancy
  Pr  Pr0  1  0.34652899  0.34652901  0.34652900  1
  Pr  Pr1  1  0.65347097  0.65347101  0.65347101  1
  Co  Co2  1  0.09559300  0.09559300  0.09559300  1
  Co  Co3  1  0.90440696  0.90440702  0.90440701  1
  Co  Co4  1  0.00000000  0.00000000  0.50000002  1
  Co  Co5  1  -0.00000003  0.50000001  -0.00000000  1
  Co  Co6  1  0.50000001  0.00000000  -0.00000001  1
  Co  Co7  1  0.71175700  0.28824301  -0.00000001  1
  Co  Co8  1  0.28824295  1.00000002  0.71175701  1
  Co  Co9  1  -0.00000004  0.71175702  0.28824300  1
  Co  Co10  1  0.71175701  0.00000000  0.28824300  1
  Co  Co11  1  -0.00000002  0.28824301  0.71175702  1
  Co  Co12  1  0.28824296  0.71175702  -0.00000001  1
  Co  Co13  1  0.66075397  0.66075401  0.15248899  1
  Co  Co14  1  0.66075400  0.15248900  0.66075401  1
  Co  Co15  1  0.15248897  0.66075401  0.66075401  1
  Co  Co16  1  0.33924599  0.33924601  0.84751102  1
  Co  Co17  1  0.33924596  0.84751102  0.33924600  1
  Co  Co18  1  0.84751099  0.33924601  0.33924600  1
