# generated using pymatgen
data_AlCu2(BO3)2
_symmetry_space_group_name_H-M   'P 1'
_cell_length_a   2.95215011
_cell_length_b   4.67319250
_cell_length_c   7.64043427
_cell_angle_alpha   89.65039825
_cell_angle_beta   101.13916016
_cell_angle_gamma   90.00000000
_symmetry_Int_Tables_number   1
_chemical_formula_structural   AlCu2(BO3)2
_chemical_formula_sum   'Al1 Cu2 B2 O6'
_cell_volume   103.41938813
_cell_formula_units_Z   1
loop_
 _symmetry_equiv_pos_site_id
 _symmetry_equiv_pos_as_xyz
  1  'x, y, z'
loop_
 _atom_site_type_symbol
 _atom_site_label
 _atom_site_symmetry_multiplicity
 _atom_site_fract_x
 _atom_site_fract_y
 _atom_site_fract_z
 _atom_site_occupancy
  Al  Al0  1  0.00000001  0.49999999  0.00000002  1
  Cu  Cu1  1  0.35571901  0.96939897  0.71143803  1
  Cu  Cu2  1  0.64428098  0.03060100  0.28856201  1
  B  B3  1  0.17945601  0.60260198  0.35891202  1
  B  B4  1  0.82054399  0.39739799  0.64108803  1
  O  O5  1  0.54388500  0.72674898  0.08777004  1
  O  O6  1  0.45611499  0.27325099  0.91223001  1
  O  O7  1  0.11564100  0.28691099  0.23128201  1
  O  O8  1  0.88435899  0.71308898  0.76871804  1
  O  O9  1  0.20314201  0.80285998  0.40628403  1
  O  O10  1  0.79685798  0.19713999  0.59371602  1
