# generated using pymatgen
data_Li3Co5O8
_symmetry_space_group_name_H-M   'P 1'
_cell_length_a   5.85241938
_cell_length_b   5.85241938
_cell_length_c   5.86376905
_cell_angle_alpha   60.06401062
_cell_angle_beta   60.06401062
_cell_angle_gamma   60.00000763
_symmetry_Int_Tables_number   1
_chemical_formula_structural   Li3Co5O8
_chemical_formula_sum   'Li3 Co5 O8'
_cell_volume   142.15177119
_cell_formula_units_Z   1
loop_
 _symmetry_equiv_pos_site_id
 _symmetry_equiv_pos_as_xyz
  1  'x, y, z'
loop_
 _atom_site_type_symbol
 _atom_site_label
 _atom_site_symmetry_multiplicity
 _atom_site_fract_x
 _atom_site_fract_y
 _atom_site_fract_z
 _atom_site_occupancy
  Li  Li0  1  0.49999999  0.00000000  0.00000002  1
  Li  Li1  1  0.49999998  0.49999999  0.00000004  1
  Co  Co2  1  0.00000000  0.00000000  0.00000000  1
  Li  Li3  1  -0.00000001  0.49999999  0.00000002  1
  Co  Co4  1  0.49999998  0.49999999  0.50000002  1
  Co  Co5  1  -0.00000001  0.49999999  0.50000001  1
  Co  Co6  1  0.00000000  0.00000000  0.49999999  1
  Co  Co7  1  0.49999999  0.00000000  0.50000000  1
  O  O8  1  0.25024298  0.77804299  0.72147102  1
  O  O9  1  0.25024299  0.25024300  0.72147100  1
  O  O10  1  0.75443297  0.75443299  0.73670104  1
  O  O11  1  0.77804298  0.25024300  0.72147102  1
  O  O12  1  0.74975698  0.22195700  0.27852903  1
  O  O13  1  0.74975697  0.74975699  0.27852905  1
  O  O14  1  0.24556699  0.24556700  0.26329901  1
  O  O15  1  0.22195698  0.74975699  0.27852903  1
