# generated using pymatgen
data_Ga5S9
_symmetry_space_group_name_H-M   'P 1'
_cell_length_a   7.19238091
_cell_length_b   7.19238091
_cell_length_c   7.19849730
_cell_angle_alpha   60.02810287
_cell_angle_beta   60.02810287
_cell_angle_gamma   60.00001144
_symmetry_Int_Tables_number   1
_chemical_formula_structural   Ga5S9
_chemical_formula_sum   'Ga5 S9'
_cell_volume   263.42475883
_cell_formula_units_Z   1
loop_
 _symmetry_equiv_pos_site_id
 _symmetry_equiv_pos_as_xyz
  1  'x, y, z'
loop_
 _atom_site_type_symbol
 _atom_site_label
 _atom_site_symmetry_multiplicity
 _atom_site_fract_x
 _atom_site_fract_y
 _atom_site_fract_z
 _atom_site_occupancy
  Ga  Ga0  1  0.37492803  0.37492800  0.87521597  1
  Ga  Ga1  1  0.62507205  0.62507200  0.12478395  1
  Ga  Ga2  1  0.00000003  0.50000000  0.49999997  1
  Ga  Ga3  1  0.00000000  0.00000000  0.50000000  1
  Ga  Ga4  1  0.50000001  0.00000000  0.49999998  1
  S  S5  1  0.00000000  0.00000000  0.00000000  1
  S  S6  1  0.23916702  0.23916700  0.28249898  1
  S  S7  1  0.24222005  0.78109000  0.73446995  1
  S  S8  1  0.24222002  0.24222000  0.73446998  1
  S  S9  1  0.78109003  0.24222000  0.73446996  1
  S  S10  1  0.76083306  0.76083300  0.71750094  1
  S  S11  1  0.75778003  0.21891000  0.26552997  1
  S  S12  1  0.75778006  0.75778000  0.26552994  1
  S  S13  1  0.21891005  0.75778000  0.26552996  1
