# generated using pymatgen
data_HoGe2
_symmetry_space_group_name_H-M   'P 1'
_cell_length_a   4.38046408
_cell_length_b   5.68664026
_cell_length_c   5.69159222
_cell_angle_alpha   76.54719543
_cell_angle_beta   67.36750793
_cell_angle_gamma   67.34670258
_symmetry_Int_Tables_number   1
_chemical_formula_structural   HoGe2
_chemical_formula_sum   'Ho2 Ge4'
_cell_volume   120.16994384
_cell_formula_units_Z   2
loop_
 _symmetry_equiv_pos_site_id
 _symmetry_equiv_pos_as_xyz
  1  'x, y, z'
loop_
 _atom_site_type_symbol
 _atom_site_label
 _atom_site_symmetry_multiplicity
 _atom_site_fract_x
 _atom_site_fract_y
 _atom_site_fract_z
 _atom_site_occupancy
  Ho  Ho0  1  0.45498600  0.30446799  0.78556004  1
  Ho  Ho1  1  0.54501401  0.69553197  0.21444002  1
  Ge  Ge2  1  0.15939703  0.89598396  0.78522203  1
  Ge  Ge3  1  0.84060298  0.10401600  0.21477803  1
  Ge  Ge4  1  0.82256201  0.72739897  0.62747705  1
  Ge  Ge5  1  0.17743801  0.27260099  0.37252302  1
