# generated using pymatgen
data_Cs2NbSnS4
_symmetry_space_group_name_H-M   'P 1'
_cell_length_a   4.04941607
_cell_length_b   4.04941607
_cell_length_c   16.05115891
_cell_angle_alpha   90.00000000
_cell_angle_beta   90.00000000
_cell_angle_gamma   120.00000000
_symmetry_Int_Tables_number   1
_chemical_formula_structural   Cs2NbSnS4
_chemical_formula_sum   'Cs2 Nb1 Sn1 S4'
_cell_volume   227.94067444
_cell_formula_units_Z   1
loop_
 _symmetry_equiv_pos_site_id
 _symmetry_equiv_pos_as_xyz
  1  'x, y, z'
loop_
 _atom_site_type_symbol
 _atom_site_label
 _atom_site_symmetry_multiplicity
 _atom_site_fract_x
 _atom_site_fract_y
 _atom_site_fract_z
 _atom_site_occupancy
  Cs  Cs0  1  0.66666665  0.33333332  0.75000000  1
  Cs  Cs1  1  0.33333332  0.66666663  0.25000000  1
  Sn  Sn2  1  0.00000000  0.00000000  0.50000000  1
  Nb  Nb3  1  0.00000000  0.00000000  0.00000000  1
  S  S4  1  0.66666665  0.33333332  0.08978600  1
  S  S5  1  0.33333332  0.66666663  0.91021401  1
  S  S6  1  0.33333332  0.66666663  0.58978600  1
  S  S7  1  0.66666665  0.33333332  0.41021400  1
