# generated using pymatgen
data_Sr6Cu2BiO11
_symmetry_space_group_name_H-M   'P 1'
_cell_length_a   5.67729807
_cell_length_b   5.67729807
_cell_length_c   10.41354561
_cell_angle_alpha   90.00000000
_cell_angle_beta   90.00000000
_cell_angle_gamma   90.00000000
_symmetry_Int_Tables_number   1
_chemical_formula_structural   Sr6Cu2BiO11
_chemical_formula_sum   'Sr6 Cu2 Bi1 O11'
_cell_volume   335.64641716
_cell_formula_units_Z   1
loop_
 _symmetry_equiv_pos_site_id
 _symmetry_equiv_pos_as_xyz
  1  'x, y, z'
loop_
 _atom_site_type_symbol
 _atom_site_label
 _atom_site_symmetry_multiplicity
 _atom_site_fract_x
 _atom_site_fract_y
 _atom_site_fract_z
 _atom_site_occupancy
  Sr  Sr0  1  0.18421100  0.18421100  0.34450501  1
  Sr  Sr1  1  0.31578900  0.68421099  0.84450503  1
  O  O2  1  0.68421099  0.31578900  0.84450503  1
  Sr  Sr3  1  0.68421099  0.31578900  0.15549501  1
  O  O4  1  0.31578900  0.68421099  0.15549501  1
  Sr  Sr5  1  0.18421100  0.18421100  0.65549502  1
  Sr  Sr6  1  0.81578899  0.81578899  0.34450501  1
  Sr  Sr7  1  0.81578899  0.81578899  0.65549502  1
  Cu  Cu8  1  0.32053500  0.67946499  0.50000002  1
  O  O9  1  0.82053499  0.82053499  -0.00000000  1
  Bi  Bi10  1  0.17946500  0.17946500  -0.00000000  1
  Cu  Cu11  1  0.67946499  0.32053500  0.50000002  1
  O  O12  1  0.00000000  0.00000000  0.14527201  1
  O  O13  1  0.49999999  0.49999999  0.64527202  1
  O  O14  1  0.49999999  0.00000000  0.50000002  1
  O  O15  1  0.49999999  0.49999999  0.35472801  1
  O  O16  1  0.00000000  0.00000000  0.85472803  1
  O  O17  1  0.49999999  0.00000000  -0.00000000  1
  O  O18  1  0.00000000  0.49999999  -0.00000000  1
  O  O19  1  0.00000000  0.49999999  0.50000002  1
