# generated using pymatgen
data_Cs(USe)3
_symmetry_space_group_name_H-M   'P 1'
_cell_length_a   4.62852097
_cell_length_b   10.01834774
_cell_length_c   10.01834679
_cell_angle_alpha   120.00000000
_cell_angle_beta   90.00000000
_cell_angle_gamma   90.00000000
_symmetry_Int_Tables_number   1
_chemical_formula_structural   Cs(USe)3
_chemical_formula_sum   'Cs2 U6 Se6'
_cell_volume   402.31389268
_cell_formula_units_Z   2
loop_
 _symmetry_equiv_pos_site_id
 _symmetry_equiv_pos_as_xyz
  1  'x, y, z'
loop_
 _atom_site_type_symbol
 _atom_site_label
 _atom_site_symmetry_multiplicity
 _atom_site_fract_x
 _atom_site_fract_y
 _atom_site_fract_z
 _atom_site_occupancy
  Cs  Cs0  1  0.75000001  0.66666667  0.33333331  1
  Cs  Cs1  1  0.25000000  0.33333333  0.66666668  1
  Se  Se2  1  0.75000001  0.65132700  0.70092400  1
  Se  Se3  1  0.75000001  0.04959700  0.34867401  1
  Se  Se4  1  0.75000001  0.29907700  0.95040403  1
  Se  Se5  1  0.25000000  0.34867300  0.29907600  1
  Se  Se6  1  0.25000000  0.70092300  0.04959597  1
  Se  Se7  1  0.25000000  0.95040300  0.65132598  1
  U  U8  1  0.75000001  0.16400000  0.14034200  1
  U  U9  1  0.75000001  0.85965800  0.02365796  1
  U  U10  1  0.75000001  0.97634200  0.83599999  1
  U  U11  1  0.25000000  0.83600000  0.85965800  1
  U  U12  1  0.25000000  0.02365800  0.16400001  1
  U  U13  1  0.25000000  0.14034200  0.97634204  1
