# generated using pymatgen
data_BaCo2F12
_symmetry_space_group_name_H-M   'P 1'
_cell_length_a   5.59356785
_cell_length_b   6.35184050
_cell_length_c   6.66170597
_cell_angle_alpha   101.34719086
_cell_angle_beta   90.00000000
_cell_angle_gamma   116.12371063
_symmetry_Int_Tables_number   1
_chemical_formula_structural   BaCo2F12
_chemical_formula_sum   'Ba1 Co2 F12'
_cell_volume   207.34278390
_cell_formula_units_Z   1
loop_
 _symmetry_equiv_pos_site_id
 _symmetry_equiv_pos_as_xyz
  1  'x, y, z'
loop_
 _atom_site_type_symbol
 _atom_site_label
 _atom_site_symmetry_multiplicity
 _atom_site_fract_x
 _atom_site_fract_y
 _atom_site_fract_z
 _atom_site_occupancy
  Ba  Ba0  1  0.32235597  0.64471199  0.83678399  1
  F  F1  1  0.67764400  0.35528799  0.16321598  1
  Co  Co2  1  0.77201002  0.00000000  0.50000002  1
  Co  Co3  1  0.22799001  0.00000000  0.50000002  1
  F  F4  1  0.00000000  0.00000000  0.00000000  1
  F  F5  1  0.13460199  0.26920399  0.55380200  1
  F  F6  1  0.86539798  0.73079599  0.44619797  1
  F  F7  1  0.61060900  0.22121800  0.53106600  1
  F  F8  1  0.38939096  0.77878198  0.46893397  1
  F  F9  1  0.83015598  0.66031199  0.93980999  1
  F  F10  1  0.24466395  0.99947898  0.20442594  1
  F  F11  1  0.24518501  0.00052100  0.79557403  1
  F  F12  1  0.75533602  0.00052100  0.79557403  1
  F  F13  1  0.75481496  0.99947898  0.20442594  1
  F  F14  1  0.16984398  0.33968799  0.06018998  1
