# generated using pymatgen
data_Ho15In
_symmetry_space_group_name_H-M   'P 1'
_cell_length_a   5.81854486
_cell_length_b   9.27625370
_cell_length_c   9.27625370
_cell_angle_alpha   84.35519409
_cell_angle_beta   71.72212982
_cell_angle_gamma   71.72212219
_symmetry_Int_Tables_number   1
_chemical_formula_structural   Ho15In
_chemical_formula_sum   'Ho15 In1'
_cell_volume   451.43190091
_cell_formula_units_Z   1
loop_
 _symmetry_equiv_pos_site_id
 _symmetry_equiv_pos_as_xyz
  1  'x, y, z'
loop_
 _atom_site_type_symbol
 _atom_site_label
 _atom_site_symmetry_multiplicity
 _atom_site_fract_x
 _atom_site_fract_y
 _atom_site_fract_z
 _atom_site_occupancy
  Ho  Ho0  1  0.58406101  0.13830400  0.69357398  1
  Ho  Ho1  1  0.41593901  0.86169599  0.30642600  1
  Ho  Ho2  1  0.08406101  0.69357399  0.13830400  1
  Ho  Ho3  1  0.91593901  0.30642600  0.86169598  1
  Ho  Ho4  1  0.27763501  0.30642600  0.13830400  1
  Ho  Ho5  1  0.72236501  0.69357399  0.86169598  1
  Ho  Ho6  1  0.22236501  0.86169599  0.69357397  1
  Ho  Ho7  1  0.77763501  0.13830400  0.30642600  1
  Ho  Ho8  1  0.75000001  0.49999999  0.49999999  1
  Ho  Ho9  1  0.25000001  0.49999999  0.49999998  1
  Ho  Ho10  1  0.66207401  0.49999999  0.17585101  1
  In  In11  1  0.33792601  0.49999999  0.82414897  1
  Ho  Ho12  1  0.16207500  0.17585100  0.49999998  1
  Ho  Ho13  1  0.83792502  0.82414899  0.50000000  1
  Ho  Ho14  1  0.75000001  0.00000000  0.00000002  1
  Ho  Ho15  1  0.25000000  0.00000000  0.00000001  1
