# generated using pymatgen
data_EuHg2
_symmetry_space_group_name_H-M   'P 1'
_cell_length_a   4.93992186
_cell_length_b   6.10872269
_cell_length_c   6.38566494
_cell_angle_alpha   75.35811615
_cell_angle_beta   67.24460602
_cell_angle_gamma   66.15063477
_symmetry_Int_Tables_number   1
_chemical_formula_structural   EuHg2
_chemical_formula_sum   'Eu2 Hg4'
_cell_volume   161.46093179
_cell_formula_units_Z   2
loop_
 _symmetry_equiv_pos_site_id
 _symmetry_equiv_pos_as_xyz
  1  'x, y, z'
loop_
 _atom_site_type_symbol
 _atom_site_label
 _atom_site_symmetry_multiplicity
 _atom_site_fract_x
 _atom_site_fract_y
 _atom_site_fract_z
 _atom_site_occupancy
  Eu  Eu0  1  0.54892501  0.20245300  0.69969701  1
  Eu  Eu1  1  0.45107500  0.79754702  0.30030302  1
  Hg  Hg2  1  0.82991602  0.23010000  0.11006800  1
  Hg  Hg3  1  0.17008399  0.76990002  0.88993203  1
  Hg  Hg4  1  0.15879900  0.38807801  0.29432401  1
  Hg  Hg5  1  0.84120102  0.61192201  0.70567602  1
