# generated using pymatgen
data_Zn3Cd4TeS8
_symmetry_space_group_name_H-M   'P 1'
_cell_length_a   3.96166372
_cell_length_b   6.26460361
_cell_length_c   13.48432159
_cell_angle_alpha   90.00000000
_cell_angle_beta   90.00000000
_cell_angle_gamma   90.00000000
_symmetry_Int_Tables_number   1
_chemical_formula_structural   Zn3Cd4TeS8
_chemical_formula_sum   'Zn3 Cd4 Te1 S8'
_cell_volume   334.65730324
_cell_formula_units_Z   1
loop_
 _symmetry_equiv_pos_site_id
 _symmetry_equiv_pos_as_xyz
  1  'x, y, z'
loop_
 _atom_site_type_symbol
 _atom_site_label
 _atom_site_symmetry_multiplicity
 _atom_site_fract_x
 _atom_site_fract_y
 _atom_site_fract_z
 _atom_site_occupancy
  Cd  Cd0  1  0.24617921  0.75008932  0.63349100  1
  Cd  Cd1  1  0.74617922  0.74991066  0.36650900  1
  Cd  Cd2  1  0.75382082  0.25008933  0.86650901  1
  Cd  Cd3  1  0.25382081  0.24991067  0.13349100  1
  Zn  Zn4  1  0.75646573  0.62423262  0.04455540  1
  Zn  Zn5  1  0.24353430  0.12423263  0.45544460  1
  S  S6  1  0.25646572  0.87576736  0.95544461  1
  Zn  Zn7  1  0.74353431  0.37576736  0.54455540  1
  S  S8  1  0.74651651  0.50827668  0.70363284  1
  S  S9  1  0.24651650  0.99172329  0.29636716  1
  S  S10  1  0.25348352  0.00827669  0.79636717  1
  S  S11  1  0.75348353  0.49172330  0.20363284  1
  S  S12  1  0.74546682  0.99752635  0.53952232  1
  S  S13  1  0.75453322  0.00247363  0.03952232  1
  Te  Te14  1  0.25453321  0.49752636  0.96047769  1
  S  S15  1  0.24546681  0.50247362  0.46047768  1
