# generated using pymatgen
data_Ba2BiO4
_symmetry_space_group_name_H-M   'P 1'
_cell_length_a   4.22909880
_cell_length_b   4.22909880
_cell_length_c   14.17652225
_cell_angle_alpha   90.00000000
_cell_angle_beta   90.00000000
_cell_angle_gamma   90.00000000
_symmetry_Int_Tables_number   1
_chemical_formula_structural   Ba2BiO4
_chemical_formula_sum   'Ba4 Bi2 O8'
_cell_volume   253.55102223
_cell_formula_units_Z   2
loop_
 _symmetry_equiv_pos_site_id
 _symmetry_equiv_pos_as_xyz
  1  'x, y, z'
loop_
 _atom_site_type_symbol
 _atom_site_label
 _atom_site_symmetry_multiplicity
 _atom_site_fract_x
 _atom_site_fract_y
 _atom_site_fract_z
 _atom_site_occupancy
  Ba  Ba0  1  0.00000000  0.50000002  0.89799798  1
  Ba  Ba1  1  0.50000002  0.00000000  0.10200200  1
  Ba  Ba2  1  0.00000000  0.50000002  0.62052999  1
  Ba  Ba3  1  0.50000002  0.00000000  0.37946999  1
  Bi  Bi4  1  0.50000002  0.00000000  0.76801899  1
  Bi  Bi5  1  0.00000000  0.50000002  0.23198100  1
  O  O6  1  0.50000002  0.50000002  0.25837400  1
  O  O7  1  0.00000000  0.00000000  0.25837400  1
  O  O8  1  0.50000002  0.00000000  0.91857898  1
  O  O9  1  0.00000000  0.50000002  0.08142100  1
  O  O10  1  0.00000000  0.00000000  0.74162599  1
  O  O11  1  0.50000002  0.50000002  0.74162599  1
  O  O12  1  0.00000000  0.50000002  0.42783399  1
  O  O13  1  0.50000002  0.00000000  0.57216599  1
