# generated using pymatgen
data_Ho
_symmetry_space_group_name_H-M   'P 1'
_cell_length_a   5.71821022
_cell_length_b   7.21859217
_cell_length_c   7.21859264
_cell_angle_alpha   60.00000381
_cell_angle_beta   90.00000000
_cell_angle_gamma   90.00000000
_symmetry_Int_Tables_number   1
_chemical_formula_structural   Ho
_chemical_formula_sum   Ho8
_cell_volume   258.04521267
_cell_formula_units_Z   8
loop_
 _symmetry_equiv_pos_site_id
 _symmetry_equiv_pos_as_xyz
  1  'x, y, z'
loop_
 _atom_site_type_symbol
 _atom_site_label
 _atom_site_symmetry_multiplicity
 _atom_site_fract_x
 _atom_site_fract_y
 _atom_site_fract_z
 _atom_site_occupancy
  Ho  Ho0  1  0.74999997  0.66061698  0.16969100  1
  Ho  Ho1  1  0.24999999  0.83030798  0.33938401  1
  Ho  Ho2  1  0.24999999  0.83030798  0.83030902  1
  Ho  Ho3  1  0.74999997  0.16969200  0.16969100  1
  Ho  Ho4  1  0.74999997  0.16969200  0.66061602  1
  Ho  Ho5  1  0.24999999  0.33938299  0.83030902  1
  Ho  Ho6  1  0.74999997  0.66666665  0.66666668  1
  Ho  Ho7  1  0.24999999  0.33333333  0.33333334  1
