# generated using pymatgen
data_Ba2CuCl4
_symmetry_space_group_name_H-M   'P 1'
_cell_length_a   4.25973892
_cell_length_b   4.31707287
_cell_length_c   8.34803772
_cell_angle_alpha   104.98511505
_cell_angle_beta   90.00000000
_cell_angle_gamma   90.00000000
_symmetry_Int_Tables_number   1
_chemical_formula_structural   Ba2CuCl4
_chemical_formula_sum   'Ba2 Cu1 Cl4'
_cell_volume   148.29645114
_cell_formula_units_Z   1
loop_
 _symmetry_equiv_pos_site_id
 _symmetry_equiv_pos_as_xyz
  1  'x, y, z'
loop_
 _atom_site_type_symbol
 _atom_site_label
 _atom_site_symmetry_multiplicity
 _atom_site_fract_x
 _atom_site_fract_y
 _atom_site_fract_z
 _atom_site_occupancy
  Ba  Ba0  1  0.25000000  0.10377000  0.20753999  1
  Ba  Ba1  1  0.75000001  0.89846403  0.79692798  1
  Cu  Cu2  1  0.25000000  0.30453301  0.60906598  1
  Cl  Cl3  1  0.25000000  0.45053202  0.90106497  1
  Cl  Cl4  1  0.75000001  0.55359902  0.10719800  1
  Cl  Cl5  1  0.25000000  0.74564503  0.49129099  1
  Cl  Cl6  1  0.75000001  0.24845601  0.49691198  1
