# generated using pymatgen
data_MgP7
_symmetry_space_group_name_H-M   'P 1'
_cell_length_a   6.31492615
_cell_length_b   6.51177979
_cell_length_c   7.69611311
_cell_angle_alpha   90.00000000
_cell_angle_beta   90.00000000
_cell_angle_gamma   90.00000000
_symmetry_Int_Tables_number   1
_chemical_formula_structural   MgP7
_chemical_formula_sum   'Mg2 P14'
_cell_volume   316.47501052
_cell_formula_units_Z   2
loop_
 _symmetry_equiv_pos_site_id
 _symmetry_equiv_pos_as_xyz
  1  'x, y, z'
loop_
 _atom_site_type_symbol
 _atom_site_label
 _atom_site_symmetry_multiplicity
 _atom_site_fract_x
 _atom_site_fract_y
 _atom_site_fract_z
 _atom_site_occupancy
  P  P0  1  0.50864999  0.32450001  0.74848999  1
  P  P1  1  0.50864999  0.32450001  0.25151000  1
  P  P2  1  0.00865000  0.67550002  0.75150999  1
  P  P3  1  0.00865000  0.67550002  0.24849000  1
  P  P4  1  0.50171499  0.81949703  0.49999999  1
  P  P5  1  0.00171500  0.18050301  0.00000000  1
  Mg  Mg6  1  0.00595500  0.15407201  0.49999999  1
  P  P7  1  0.50595499  0.84592803  -0.00000000  1
  P  P8  1  0.84263098  0.78755603  0.49999999  1
  P  P9  1  0.34263099  0.21244401  -0.00000000  1
  P  P10  1  0.41615199  0.14050800  0.49999999  1
  Mg  Mg11  1  0.91615198  0.85949203  -0.00000000  1
  P  P12  1  0.87212298  0.34347401  0.77856099  1
  P  P13  1  0.87212298  0.34347401  0.22143900  1
  P  P14  1  0.37212299  0.65652602  0.72143899  1
  P  P15  1  0.37212299  0.65652602  0.27856100  1
