# generated using pymatgen
data_Eu4MgGa2BiO12
_symmetry_space_group_name_H-M   'P 1'
_cell_length_a   5.60349417
_cell_length_b   5.68031883
_cell_length_c   7.87582684
_cell_angle_alpha   90.00000000
_cell_angle_beta   89.54821777
_cell_angle_gamma   90.00000000
_symmetry_Int_Tables_number   1
_chemical_formula_structural   Eu4MgGa2BiO12
_chemical_formula_sum   'Eu4 Mg1 Ga2 Bi1 O12'
_cell_volume   250.67688819
_cell_formula_units_Z   1
loop_
 _symmetry_equiv_pos_site_id
 _symmetry_equiv_pos_as_xyz
  1  'x, y, z'
loop_
 _atom_site_type_symbol
 _atom_site_label
 _atom_site_symmetry_multiplicity
 _atom_site_fract_x
 _atom_site_fract_y
 _atom_site_fract_z
 _atom_site_occupancy
  O  O0  1  0.00000000  0.00000000  0.00000000  1
  Mg  Mg1  1  0.49999999  0.50000001  0.50000000  1
  Eu  Eu2  1  0.98864797  0.45257301  0.24795701  1
  Eu  Eu3  1  0.01135200  0.54742702  0.75204300  1
  Eu  Eu4  1  0.51135198  0.95257303  0.25204300  1
  Eu  Eu5  1  0.48864799  0.04742700  0.74795700  1
  Ga  Ga6  1  0.00000000  1.00000003  0.50000000  1
  Ga  Ga7  1  0.49999999  0.50000001  0.00000000  1
  O  O8  1  0.78070098  0.69676902  0.04651900  1
  O  O9  1  0.21929899  0.30323101  0.95348100  1
  O  O10  1  0.71929898  0.19676901  0.45348100  1
  O  O11  1  0.28070099  0.80323102  0.54651900  1
  O  O12  1  0.69382598  0.21796901  0.04895200  1
  O  O13  1  0.30617399  0.78203102  0.95104800  1
  O  O14  1  0.80617398  0.71796902  0.45104800  1
  O  O15  1  0.19382599  0.28203101  0.54895200  1
  Bi  Bi16  1  0.09002900  0.02477300  0.25977100  1
  O  O17  1  0.90997097  0.97522703  0.74022901  1
  O  O18  1  0.40997099  0.52477302  0.24022900  1
  O  O19  1  0.59002898  0.47522701  0.75977100  1
