# generated using pymatgen
data_Ba2In6PbAu
_symmetry_space_group_name_H-M   'P 1'
_cell_length_a   5.03028822
_cell_length_b   5.03028822
_cell_length_c   12.43790340
_cell_angle_alpha   90.00000000
_cell_angle_beta   90.00000000
_cell_angle_gamma   90.00000000
_symmetry_Int_Tables_number   1
_chemical_formula_structural   Ba2In6PbAu
_chemical_formula_sum   'Ba2 In6 Pb1 Au1'
_cell_volume   314.72621482
_cell_formula_units_Z   1
loop_
 _symmetry_equiv_pos_site_id
 _symmetry_equiv_pos_as_xyz
  1  'x, y, z'
loop_
 _atom_site_type_symbol
 _atom_site_label
 _atom_site_symmetry_multiplicity
 _atom_site_fract_x
 _atom_site_fract_y
 _atom_site_fract_z
 _atom_site_occupancy
  Ba  Ba0  1  0.00000000  0.49999998  0.74721698  1
  Ba  Ba1  1  0.49999998  0.00000000  0.25278299  1
  Pb  Pb2  1  0.49999998  0.00000000  0.63574398  1
  In  In3  1  0.00000000  0.49999998  0.36425599  1
  In  In4  1  0.49999998  0.49999998  -0.00000000  1
  In  In5  1  0.00000000  0.00000000  0.00000000  1
  Au  Au6  1  0.49999998  0.00000000  0.86532897  1
  In  In7  1  0.00000000  0.49999998  0.13467100  1
  In  In8  1  0.00000000  0.00000000  0.49999998  1
  In  In9  1  0.49999998  0.49999998  0.49999998  1
