# generated using pymatgen
data_HoGe7
_symmetry_space_group_name_H-M   'P 1'
_cell_length_a   3.92508411
_cell_length_b   4.03108978
_cell_length_c   10.64000130
_cell_angle_alpha   79.08042908
_cell_angle_beta   90.00000000
_cell_angle_gamma   90.00000000
_symmetry_Int_Tables_number   1
_chemical_formula_structural   HoGe7
_chemical_formula_sum   'Ho1 Ge7'
_cell_volume   165.30186555
_cell_formula_units_Z   1
loop_
 _symmetry_equiv_pos_site_id
 _symmetry_equiv_pos_as_xyz
  1  'x, y, z'
loop_
 _atom_site_type_symbol
 _atom_site_label
 _atom_site_symmetry_multiplicity
 _atom_site_fract_x
 _atom_site_fract_y
 _atom_site_fract_z
 _atom_site_occupancy
  Ho  Ho0  1  0.24999999  0.41784902  0.16430201  1
  Ge  Ge1  1  0.74999998  0.58215103  0.83569801  1
  Ge  Ge2  1  0.24999999  0.81073504  0.37853002  1
  Ge  Ge3  1  0.74999998  0.18926501  0.62147000  1
  Ge  Ge4  1  0.74999998  0.96049604  0.07900802  1
  Ge  Ge5  1  0.24999999  0.03950400  0.92099200  1
  Ge  Ge6  1  0.74999998  0.30908801  0.38182401  1
  Ge  Ge7  1  0.24999999  0.69091203  0.61817601  1
