# generated using pymatgen
data_EuP2Pd3
_symmetry_space_group_name_H-M   'P 1'
_cell_length_a   5.18105078
_cell_length_b   6.33212233
_cell_length_c   6.33212233
_cell_angle_alpha   101.06699371
_cell_angle_beta   90.00000000
_cell_angle_gamma   90.00000000
_symmetry_Int_Tables_number   1
_chemical_formula_structural   EuP2Pd3
_chemical_formula_sum   'Eu2 P4 Pd6'
_cell_volume   203.87501321
_cell_formula_units_Z   2
loop_
 _symmetry_equiv_pos_site_id
 _symmetry_equiv_pos_as_xyz
  1  'x, y, z'
loop_
 _atom_site_type_symbol
 _atom_site_label
 _atom_site_symmetry_multiplicity
 _atom_site_fract_x
 _atom_site_fract_y
 _atom_site_fract_z
 _atom_site_occupancy
  Eu  Eu0  1  1.00000004  0.68904700  0.68904703  1
  Eu  Eu1  1  0.50000002  0.31032900  0.31032902  1
  Pd  Pd2  1  0.74483103  0.77459300  0.21877304  1
  Pd  Pd3  1  0.25516901  0.77459300  0.21877304  1
  Pd  Pd4  1  0.74483103  0.21877300  0.77459301  1
  Pd  Pd5  1  0.25516901  0.21877300  0.77459301  1
  Pd  Pd6  1  -0.00000000  0.08845400  0.08845400  1
  Pd  Pd7  1  0.50000002  0.93618400  0.93618405  1
  P  P8  1  -0.00000000  0.46030900  0.07574103  1
  P  P9  1  0.50000002  0.91051700  0.54268705  1
  P  P10  1  0.50000002  0.54268700  0.91051702  1
  P  P11  1  -0.00000000  0.07574100  0.46030900  1
