# generated using pymatgen
data_HoGa2Co3
_symmetry_space_group_name_H-M   'P 1'
_cell_length_a   4.01290417
_cell_length_b   5.15299606
_cell_length_c   5.15299654
_cell_angle_alpha   60.00000381
_cell_angle_beta   90.00000000
_cell_angle_gamma   90.00000000
_symmetry_Int_Tables_number   1
_chemical_formula_structural   HoGa2Co3
_chemical_formula_sum   'Ho1 Ga2 Co3'
_cell_volume   92.28032137
_cell_formula_units_Z   1
loop_
 _symmetry_equiv_pos_site_id
 _symmetry_equiv_pos_as_xyz
  1  'x, y, z'
loop_
 _atom_site_type_symbol
 _atom_site_label
 _atom_site_symmetry_multiplicity
 _atom_site_fract_x
 _atom_site_fract_y
 _atom_site_fract_z
 _atom_site_occupancy
  Ho  Ho0  1  0.00000000  0.66666665  0.66666667  1
  Ga  Ga1  1  0.00000000  0.00000000  0.00000000  1
  Ga  Ga2  1  0.00000000  0.33333333  0.33333333  1
  Co  Co3  1  0.49999998  0.16734300  0.16734300  1
  Co  Co4  1  0.49999998  0.16734300  0.66531399  1
  Co  Co5  1  0.49999998  0.66531399  0.16734301  1
