# generated using pymatgen
data_Ga
_symmetry_space_group_name_H-M   'P 1'
_cell_length_a   5.68454504
_cell_length_b   7.78928947
_cell_length_c   7.78928947
_cell_angle_alpha   114.28240204
_cell_angle_beta   104.07922363
_cell_angle_gamma   104.07922363
_symmetry_Int_Tables_number   1
_chemical_formula_structural   Ga
_chemical_formula_sum   Ga14
_cell_volume   281.01529146
_cell_formula_units_Z   14
loop_
 _symmetry_equiv_pos_site_id
 _symmetry_equiv_pos_as_xyz
  1  'x, y, z'
loop_
 _atom_site_type_symbol
 _atom_site_label
 _atom_site_symmetry_multiplicity
 _atom_site_fract_x
 _atom_site_fract_y
 _atom_site_fract_z
 _atom_site_occupancy
  Ga  Ga0  1  0.72109894  0.74630798  0.12468495  1
  Ga  Ga1  1  0.59641393  0.87531498  0.62162295  1
  Ga  Ga2  1  0.97479098  0.37837699  0.25369196  1
  Ga  Ga3  1  0.27890098  0.25369199  0.87531499  1
  Ga  Ga4  1  0.40358599  0.12468500  0.37837699  1
  Ga  Ga5  1  0.02520895  0.62162298  0.74630798  1
  Ga  Ga6  1  0.00000000  0.00000000  0.00000000  1
  Ga  Ga7  1  0.49999992  0.99999997  0.99999995  1
  Ga  Ga8  1  0.44863796  0.51105099  0.67520197  1
  Ga  Ga9  1  0.77343598  0.32479799  0.83584897  1
  Ga  Ga10  1  0.93758699  0.16415100  0.48894898  1
  Ga  Ga11  1  0.55136196  0.48894899  0.32479797  1
  Ga  Ga12  1  0.22656395  0.67520198  0.16415097  1
  Ga  Ga13  1  0.06241293  0.83584898  0.51105097  1
