# generated using pymatgen
data_Cs14HgF5
_symmetry_space_group_name_H-M   'P 1'
_cell_length_a   4.37681389
_cell_length_b   10.45064735
_cell_length_c   15.76345921
_cell_angle_alpha   102.51560211
_cell_angle_beta   90.00000000
_cell_angle_gamma   90.00000000
_symmetry_Int_Tables_number   1
_chemical_formula_structural   Cs14HgF5
_chemical_formula_sum   'Cs14 Hg1 F5'
_cell_volume   703.89532117
_cell_formula_units_Z   1
loop_
 _symmetry_equiv_pos_site_id
 _symmetry_equiv_pos_as_xyz
  1  'x, y, z'
loop_
 _atom_site_type_symbol
 _atom_site_label
 _atom_site_symmetry_multiplicity
 _atom_site_fract_x
 _atom_site_fract_y
 _atom_site_fract_z
 _atom_site_occupancy
  Cs  Cs0  1  0.68647302  0.71520397  0.94582602  1
  Cs  Cs1  1  0.68647302  0.78479597  0.55417401  1
  Cs  Cs2  1  0.31352701  0.21520399  0.44582601  1
  Cs  Cs3  1  0.31352701  0.28479599  0.05417400  1
  F  F4  1  0.79455602  0.24999999  0.75000002  1
  F  F5  1  0.20544401  0.74999997  0.25000000  1
  F  F6  1  0.37260101  0.53265098  0.70279301  1
  Cs  Cs7  1  0.37260101  0.96734896  0.79720701  1
  Cs  Cs8  1  0.62739902  0.03265100  0.20279301  1
  F  F9  1  0.62739902  0.46734898  0.29720700  1
  Cs  Cs10  1  0.81919702  0.10015900  0.88230302  1
  Cs  Cs11  1  0.70438302  0.89718897  0.34342000  1
  Cs  Cs12  1  0.29561701  0.10281100  0.65658002  1
  Cs  Cs13  1  0.18080300  0.89984097  0.11769699  1
  Cs  Cs14  1  0.18080300  0.60015898  0.38230300  1
  Cs  Cs15  1  0.70438302  0.60281098  0.15658000  1
  Hg  Hg16  1  0.08003200  0.74999997  0.75000001  1
  Cs  Cs17  1  0.29561701  0.39718899  0.84342002  1
  Cs  Cs18  1  0.81919702  0.39984099  0.61769701  1
  F  F19  1  0.91996802  0.24999999  0.25000000  1
