# generated using pymatgen
data_Ho(HO)3
_symmetry_space_group_name_H-M   'P 1'
_cell_length_a   3.48495889
_cell_length_b   6.32688379
_cell_length_c   6.32688379
_cell_angle_alpha   120.00000000
_cell_angle_beta   90.00000000
_cell_angle_gamma   90.00000000
_symmetry_Int_Tables_number   1
_chemical_formula_structural   Ho(HO)3
_chemical_formula_sum   'Ho2 H6 O6'
_cell_volume   120.81142479
_cell_formula_units_Z   2
loop_
 _symmetry_equiv_pos_site_id
 _symmetry_equiv_pos_as_xyz
  1  'x, y, z'
loop_
 _atom_site_type_symbol
 _atom_site_label
 _atom_site_symmetry_multiplicity
 _atom_site_fract_x
 _atom_site_fract_y
 _atom_site_fract_z
 _atom_site_occupancy
  Ho  Ho0  1  0.25000001  0.33333334  0.66666666  1
  Ho  Ho1  1  0.75000002  0.66666668  0.33333332  1
  H  H2  1  0.25000001  0.28144701  0.14349899  1
  H  H3  1  0.75000002  0.14349900  0.86205199  1
  H  H4  1  0.25000001  0.85650102  0.13794798  1
  H  H5  1  0.75000002  0.71855302  0.85650098  1
  H  H6  1  0.75000002  0.13794800  0.28144700  1
  H  H7  1  0.25000001  0.86205202  0.71855298  1
  O  O8  1  0.75000002  0.08640200  0.68762500  1
  O  O9  1  0.25000001  0.39877701  0.08640199  1
  O  O10  1  0.25000001  0.91359802  0.31237498  1
  O  O11  1  0.75000002  0.60122301  0.91359798  1
  O  O12  1  0.75000002  0.31237501  0.39877699  1
  O  O13  1  0.25000001  0.68762501  0.60122298  1
