# generated using pymatgen
data_Tb(CuGe)2
_symmetry_space_group_name_H-M   'P 1'
_cell_length_a   4.13409996
_cell_length_b   4.13409996
_cell_length_c   5.80333948
_cell_angle_alpha   110.86595917
_cell_angle_beta   110.86595917
_cell_angle_gamma   90.00000000
_symmetry_Int_Tables_number   1
_chemical_formula_structural   Tb(CuGe)2
_chemical_formula_sum   'Tb1 Cu2 Ge2'
_cell_volume   85.68152383
_cell_formula_units_Z   1
loop_
 _symmetry_equiv_pos_site_id
 _symmetry_equiv_pos_as_xyz
  1  'x, y, z'
loop_
 _atom_site_type_symbol
 _atom_site_label
 _atom_site_symmetry_multiplicity
 _atom_site_fract_x
 _atom_site_fract_y
 _atom_site_fract_z
 _atom_site_occupancy
  Tb  Tb0  1  0.00000000  0.00000000  0.00000000  1
  Ge  Ge1  1  0.61532205  0.61532202  0.23064406  1
  Ge  Ge2  1  0.38467803  0.38467801  0.76935603  1
  Cu  Cu3  1  0.25000004  0.75000003  0.50000005  1
  Cu  Cu4  1  0.75000003  0.25000001  0.50000004  1
