# generated using pymatgen
data_Hg
_symmetry_space_group_name_H-M   'P 1'
_cell_length_a   2.87479401
_cell_length_b   2.87479401
_cell_length_c   9.46987438
_cell_angle_alpha   81.26954651
_cell_angle_beta   81.26954651
_cell_angle_gamma   60.00000000
_symmetry_Int_Tables_number   1
_chemical_formula_structural   Hg
_chemical_formula_sum   Hg4
_cell_volume   66.72878557
_cell_formula_units_Z   4
loop_
 _symmetry_equiv_pos_site_id
 _symmetry_equiv_pos_as_xyz
  1  'x, y, z'
loop_
 _atom_site_type_symbol
 _atom_site_label
 _atom_site_symmetry_multiplicity
 _atom_site_fract_x
 _atom_site_fract_y
 _atom_site_fract_z
 _atom_site_occupancy
  Hg  Hg0  1  0.99803099  0.99803100  0.00590700  1
  Hg  Hg1  1  0.50182900  0.50182900  0.49451298  1
  Hg  Hg2  1  0.24850800  0.24850800  0.25447599  1
  Hg  Hg3  1  0.75163200  0.75163200  0.74510397  1
