# generated using pymatgen
data_Hg
_symmetry_space_group_name_H-M   'P 1'
_cell_length_a   5.55766296
_cell_length_b   7.04882002
_cell_length_c   7.04882002
_cell_angle_alpha   120.00000000
_cell_angle_beta   90.00000000
_cell_angle_gamma   90.00000000
_symmetry_Int_Tables_number   1
_chemical_formula_structural   Hg
_chemical_formula_sum   Hg8
_cell_volume   239.14190311
_cell_formula_units_Z   8
loop_
 _symmetry_equiv_pos_site_id
 _symmetry_equiv_pos_as_xyz
  1  'x, y, z'
loop_
 _atom_site_type_symbol
 _atom_site_label
 _atom_site_symmetry_multiplicity
 _atom_site_fract_x
 _atom_site_fract_y
 _atom_site_fract_z
 _atom_site_occupancy
  Hg  Hg0  1  0.75000000  0.82918299  0.17081698  1
  Hg  Hg1  1  0.75000000  0.34163400  0.17081699  1
  Hg  Hg2  1  0.75000000  0.82918299  0.65836597  1
  Hg  Hg3  1  0.25000000  0.17081700  0.34163399  1
  Hg  Hg4  1  0.25000000  0.65836599  0.82918297  1
  Hg  Hg5  1  0.25000000  0.17081700  0.82918298  1
  Hg  Hg6  1  0.75000000  0.33333333  0.66666664  1
  Hg  Hg7  1  0.25000000  0.66666666  0.33333331  1
