# generated using pymatgen
data_Ba4GaO4
_symmetry_space_group_name_H-M   'P 1'
_cell_length_a   6.61461020
_cell_length_b   6.62399960
_cell_length_c   9.87030506
_cell_angle_alpha   71.88506317
_cell_angle_beta   80.09440613
_cell_angle_gamma   66.97888947
_symmetry_Int_Tables_number   1
_chemical_formula_structural   Ba4GaO4
_chemical_formula_sum   'Ba8 Ga2 O8'
_cell_volume   377.67005856
_cell_formula_units_Z   2
loop_
 _symmetry_equiv_pos_site_id
 _symmetry_equiv_pos_as_xyz
  1  'x, y, z'
loop_
 _atom_site_type_symbol
 _atom_site_label
 _atom_site_symmetry_multiplicity
 _atom_site_fract_x
 _atom_site_fract_y
 _atom_site_fract_z
 _atom_site_occupancy
  Ba  Ba0  1  0.77751198  0.04063700  0.38221501  1
  Ba  Ba1  1  0.22248795  0.95936305  0.61778499  1
  Ba  Ba2  1  0.74213595  0.58828403  0.16678499  1
  Ba  Ba3  1  0.25786397  0.41171602  0.83321502  1
  Ba  Ba4  1  0.24260196  0.76376004  0.02588397  1
  Ba  Ba5  1  0.75739797  0.23624001  0.97411603  1
  Ba  Ba6  1  0.27329797  0.51270003  0.44142100  1
  Ba  Ba7  1  0.72670195  0.48730003  0.55857901  1
  Ga  Ga8  1  0.27684298  0.15428901  0.24621400  1
  Ga  Ga9  1  0.72315694  0.84571105  0.75378600  1
  O  O10  1  0.03974598  0.29083602  0.37788801  1
  O  O11  1  0.96025394  0.70916404  0.62211200  1
  O  O12  1  0.54188598  0.15501701  0.64781202  1
  O  O13  1  0.45811394  0.84498305  0.35218799  1
  O  O14  1  0.46222797  0.34156202  0.19098600  1
  O  O15  1  0.53777195  0.65843804  0.80901401  1
  O  O16  1  0.13229899  0.15947501  0.08605000  1
  O  O17  1  0.86770093  0.84052505  0.91395001  1
