# generated using pymatgen
data_In5MoF12
_symmetry_space_group_name_H-M   'P 1'
_cell_length_a   4.96815443
_cell_length_b   4.96815443
_cell_length_c   10.58080864
_cell_angle_alpha   90.00000000
_cell_angle_beta   90.00000000
_cell_angle_gamma   89.63661957
_symmetry_Int_Tables_number   1
_chemical_formula_structural   In5MoF12
_chemical_formula_sum   'In5 Mo1 F12'
_cell_volume   261.15617526
_cell_formula_units_Z   1
loop_
 _symmetry_equiv_pos_site_id
 _symmetry_equiv_pos_as_xyz
  1  'x, y, z'
loop_
 _atom_site_type_symbol
 _atom_site_label
 _atom_site_symmetry_multiplicity
 _atom_site_fract_x
 _atom_site_fract_y
 _atom_site_fract_z
 _atom_site_occupancy
  Mo  Mo0  1  0.00000000  0.00000000  0.00000000  1
  In  In1  1  0.00000000  0.00000000  0.32530801  1
  In  In2  1  0.00000000  0.00000000  0.67469202  1
  In  In3  1  0.49999997  0.50000000  0.15744601  1
  In  In4  1  0.49999997  0.50000000  0.50000002  1
  In  In5  1  0.49999997  0.50000000  0.84255403  1
  F  F6  1  0.80529399  0.19470600  0.50000002  1
  F  F7  1  0.79489499  0.20510500  0.16563401  1
  F  F8  1  0.79489499  0.20510500  0.83436603  1
  F  F9  1  0.71123196  0.71123200  -0.00000000  1
  F  F10  1  0.69707896  0.69707900  0.33258901  1
  F  F11  1  0.69707896  0.69707900  0.66741102  1
  F  F12  1  0.30292098  0.30292100  0.33258901  1
  F  F13  1  0.30292098  0.30292100  0.66741102  1
  F  F14  1  0.28876799  0.28876800  -0.00000000  1
  F  F15  1  0.20510496  0.79489500  0.16563401  1
  F  F16  1  0.20510496  0.79489500  0.83436603  1
  F  F17  1  0.19470596  0.80529400  0.50000002  1
