# generated using pymatgen
data_Ga4Pd5
_symmetry_space_group_name_H-M   'P 1'
_cell_length_a   5.28019810
_cell_length_b   5.28019810
_cell_length_c   5.28019810
_cell_angle_alpha   60.00000000
_cell_angle_beta   60.00000000
_cell_angle_gamma   60.00000000
_symmetry_Int_Tables_number   1
_chemical_formula_structural   Ga4Pd5
_chemical_formula_sum   'Ga4 Pd5'
_cell_volume   104.09638575
_cell_formula_units_Z   1
loop_
 _symmetry_equiv_pos_site_id
 _symmetry_equiv_pos_as_xyz
  1  'x, y, z'
loop_
 _atom_site_type_symbol
 _atom_site_label
 _atom_site_symmetry_multiplicity
 _atom_site_fract_x
 _atom_site_fract_y
 _atom_site_fract_z
 _atom_site_occupancy
  Ga  Ga0  1  0.25000001  0.25000001  0.25000001  1
  Pd  Pd1  1  0.75000002  0.75000002  0.75000002  1
  Pd  Pd2  1  0.76887303  0.76887303  0.23112701  1
  Ga  Ga3  1  0.23112701  0.76887303  0.76887303  1
  Pd  Pd4  1  0.23112701  0.76887303  0.23112701  1
  Pd  Pd5  1  0.23112701  0.23112701  0.76887303  1
  Pd  Pd6  1  0.76887303  0.23112701  0.23112701  1
  Ga  Ga7  1  0.76887303  0.23112701  0.76887303  1
  Ga  Ga8  1  0.00000000  0.00000000  0.00000000  1
