# generated using pymatgen
data_CsGeN
_symmetry_space_group_name_H-M   'P 1'
_cell_length_a   5.04687023
_cell_length_b   6.00231552
_cell_length_c   6.00231552
_cell_angle_alpha   118.96231842
_cell_angle_beta   90.00000000
_cell_angle_gamma   90.00000000
_symmetry_Int_Tables_number   1
_chemical_formula_structural   CsGeN
_chemical_formula_sum   'Cs2 Ge2 N2'
_cell_volume   159.08793282
_cell_formula_units_Z   2
loop_
 _symmetry_equiv_pos_site_id
 _symmetry_equiv_pos_as_xyz
  1  'x, y, z'
loop_
 _atom_site_type_symbol
 _atom_site_label
 _atom_site_symmetry_multiplicity
 _atom_site_fract_x
 _atom_site_fract_y
 _atom_site_fract_z
 _atom_site_occupancy
  Cs  Cs0  1  0.24999999  0.17946000  0.82054001  1
  Cs  Cs1  1  0.74999997  0.82054002  0.17946004  1
  Ge  Ge2  1  -0.00000000  0.50000001  0.50000003  1
  Ge  Ge3  1  0.49999998  0.50000001  0.50000003  1
  N  N4  1  0.24999999  0.62957602  0.37042403  1
  N  N5  1  0.74999997  0.37042401  0.62957602  1
