# generated using pymatgen
data_Ba4GaP7
_symmetry_space_group_name_H-M   'P 1'
_cell_length_a   6.42052412
_cell_length_b   6.42052412
_cell_length_c   6.42052412
_cell_angle_alpha   90.00000000
_cell_angle_beta   90.00000000
_cell_angle_gamma   90.00000000
_symmetry_Int_Tables_number   1
_chemical_formula_structural   Ba4GaP7
_chemical_formula_sum   'Ba4 Ga1 P7'
_cell_volume   264.67410035
_cell_formula_units_Z   1
loop_
 _symmetry_equiv_pos_site_id
 _symmetry_equiv_pos_as_xyz
  1  'x, y, z'
loop_
 _atom_site_type_symbol
 _atom_site_label
 _atom_site_symmetry_multiplicity
 _atom_site_fract_x
 _atom_site_fract_y
 _atom_site_fract_z
 _atom_site_occupancy
  Ba  Ba0  1  0.36644999  0.86644998  0.63354999  1
  Ba  Ba1  1  0.86644998  0.63354999  0.36644999  1
  Ba  Ba2  1  0.63354999  0.36644999  0.86644998  1
  Ba  Ba3  1  0.13355000  0.13355000  0.13355000  1
  P  P4  1  0.66158099  0.16158100  0.33841899  1
  Ga  Ga5  1  0.16158100  0.33841899  0.66158099  1
  P  P6  1  0.33841899  0.66158099  0.16158100  1
  P  P7  1  0.83841898  0.83841898  0.83841898  1
  P  P8  1  0.07701200  0.57701199  0.92298798  1
  P  P9  1  0.57701199  0.92298798  0.07701200  1
  P  P10  1  0.92298798  0.07701200  0.57701199  1
  P  P11  1  0.42298799  0.42298799  0.42298799  1
