# generated using pymatgen
data_Ba2(PbO)7
_symmetry_space_group_name_H-M   'P 1'
_cell_length_a   3.95830488
_cell_length_b   6.25358295
_cell_length_c   13.47791576
_cell_angle_alpha   90.00000000
_cell_angle_beta   90.00000000
_cell_angle_gamma   90.00000000
_symmetry_Int_Tables_number   1
_chemical_formula_structural   Ba2(PbO)7
_chemical_formula_sum   'Ba2 Pb7 O7'
_cell_volume   333.62677309
_cell_formula_units_Z   1
loop_
 _symmetry_equiv_pos_site_id
 _symmetry_equiv_pos_as_xyz
  1  'x, y, z'
loop_
 _atom_site_type_symbol
 _atom_site_label
 _atom_site_symmetry_multiplicity
 _atom_site_fract_x
 _atom_site_fract_y
 _atom_site_fract_z
 _atom_site_occupancy
  Ba  Ba0  1  0.25000001  0.00233800  0.63312801  1
  Ba  Ba1  1  0.75000002  0.50233800  0.86687202  1
  Pb  Pb2  1  0.75000002  0.99766201  0.36687201  1
  Pb  Pb3  1  0.25000001  0.49766200  0.13312800  1
  Pb  Pb4  1  0.25000001  0.37529700  0.45285701  1
  Pb  Pb5  1  0.75000002  0.62470300  0.54714301  1
  Pb  Pb6  1  0.25000001  0.12470300  0.95285702  1
  Pb  Pb7  1  0.75000002  0.87529701  0.04714300  1
  O  O8  1  0.75000002  0.24748600  0.53832001  1
  O  O9  1  0.75000002  0.76315401  0.70504801  1
  O  O10  1  0.25000001  0.75251401  0.46168001  1
  Pb  Pb11  1  0.75000002  0.25251400  0.03832000  1
  O  O12  1  0.25000001  0.23684600  0.29495201  1
  O  O13  1  0.25000001  0.74748601  0.96168002  1
  O  O14  1  0.25000001  0.26315400  0.79495201  1
  O  O15  1  0.75000002  0.73684601  0.20504800  1
