# generated using pymatgen
data_Lu3Ir
_symmetry_space_group_name_H-M   'P 1'
_cell_length_a   6.31806612
_cell_length_b   7.21694422
_cell_length_c   9.16961670
_cell_angle_alpha   90.00000000
_cell_angle_beta   90.00000000
_cell_angle_gamma   90.00000000
_symmetry_Int_Tables_number   1
_chemical_formula_structural   Lu3Ir
_chemical_formula_sum   'Lu12 Ir4'
_cell_volume   418.10821159
_cell_formula_units_Z   4
loop_
 _symmetry_equiv_pos_site_id
 _symmetry_equiv_pos_as_xyz
  1  'x, y, z'
loop_
 _atom_site_type_symbol
 _atom_site_label
 _atom_site_symmetry_multiplicity
 _atom_site_fract_x
 _atom_site_fract_y
 _atom_site_fract_z
 _atom_site_occupancy
  Lu  Lu0  1  0.32873999  0.67660198  0.06267100  1
  Lu  Lu1  1  0.17126000  0.17660199  0.43732901  1
  Lu  Lu2  1  0.67125999  0.32339799  0.56267102  1
  Lu  Lu3  1  0.82873998  0.82339798  0.93732903  1
  Lu  Lu4  1  0.67125999  0.32339799  0.93732903  1
  Lu  Lu5  1  0.82873998  0.82339798  0.56267102  1
  Lu  Lu6  1  0.32873999  0.67660198  0.43732901  1
  Lu  Lu7  1  0.17126000  0.17660199  0.06267100  1
  Lu  Lu8  1  0.86625798  0.53513898  0.25000001  1
  Lu  Lu9  1  0.63374199  0.03513900  0.25000001  1
  Lu  Lu10  1  0.13374200  0.46486099  0.75000002  1
  Lu  Lu11  1  0.36625799  0.96486097  0.75000002  1
  Ir  Ir12  1  0.04724900  0.88193497  0.25000001  1
  Ir  Ir13  1  0.45275099  0.38193499  0.25000001  1
  Ir  Ir14  1  0.95275098  0.11806500  0.75000002  1
  Ir  Ir15  1  0.54724899  0.61806498  0.75000002  1
