# generated using pymatgen
data_PrInGe
_symmetry_space_group_name_H-M   'P 1'
_cell_length_a   4.32580185
_cell_length_b   4.32580185
_cell_length_c   8.57562542
_cell_angle_alpha   104.60861969
_cell_angle_beta   104.60861969
_cell_angle_gamma   90.00000000
_symmetry_Int_Tables_number   1
_chemical_formula_structural   PrInGe
_chemical_formula_sum   'Pr2 In2 Ge2'
_cell_volume   149.91678413
_cell_formula_units_Z   2
loop_
 _symmetry_equiv_pos_site_id
 _symmetry_equiv_pos_as_xyz
  1  'x, y, z'
loop_
 _atom_site_type_symbol
 _atom_site_label
 _atom_site_symmetry_multiplicity
 _atom_site_fract_x
 _atom_site_fract_y
 _atom_site_fract_z
 _atom_site_occupancy
  Pr  Pr0  1  0.67656502  0.67656502  0.35313001  1
  Pr  Pr1  1  0.32343501  0.32343501  0.64687003  1
  In  In2  1  0.50000002  0.00000000  -0.00000000  1
  In  In3  1  -0.00000000  0.50000002  -0.00000000  1
  Ge  Ge4  1  0.12295000  0.12295000  0.24590001  1
  Ge  Ge5  1  0.87705003  0.87705003  0.75410003  1
