# generated using pymatgen
data_TeBr13
_symmetry_space_group_name_H-M   'P 1'
_cell_length_a   7.47974110
_cell_length_b   7.84452105
_cell_length_c   9.22642994
_cell_angle_alpha   90.00000000
_cell_angle_beta   90.00000000
_cell_angle_gamma   90.00000000
_symmetry_Int_Tables_number   1
_chemical_formula_structural   TeBr13
_chemical_formula_sum   'Te1 Br13'
_cell_volume   541.36065165
_cell_formula_units_Z   1
loop_
 _symmetry_equiv_pos_site_id
 _symmetry_equiv_pos_as_xyz
  1  'x, y, z'
loop_
 _atom_site_type_symbol
 _atom_site_label
 _atom_site_symmetry_multiplicity
 _atom_site_fract_x
 _atom_site_fract_y
 _atom_site_fract_z
 _atom_site_occupancy
  Te  Te0  1  0.37715400  0.67905900  0.50000000  1
  Br  Br1  1  0.87715399  0.32094100  -0.00000000  1
  Br  Br2  1  0.37540700  0.16945900  0.74770200  1
  Br  Br3  1  0.37540700  0.16945900  0.25229800  1
  Br  Br4  1  0.87540699  0.83054100  0.75229800  1
  Br  Br5  1  0.87540699  0.83054100  0.24770200  1
  Br  Br6  1  0.50175899  0.35884400  0.50000000  1
  Br  Br7  1  0.00175900  0.64115600  -0.00000000  1
  Br  Br8  1  0.02105100  0.66551800  0.50000000  1
  Br  Br9  1  0.52105099  0.33448200  -0.00000000  1
  Br  Br10  1  0.49081199  0.82248100  0.74368400  1
  Br  Br11  1  0.49081199  0.82248100  0.25631600  1
  Br  Br12  1  0.99081199  0.17751900  0.75631600  1
  Br  Br13  1  0.99081199  0.17751900  0.24368400  1
