# generated using pymatgen
data_CaMnO3
_symmetry_space_group_name_H-M   'P 1'
_cell_length_a   5.34992981
_cell_length_b   5.58104277
_cell_length_c   7.64260817
_cell_angle_alpha   90.00000000
_cell_angle_beta   90.74383545
_cell_angle_gamma   90.00000000
_symmetry_Int_Tables_number   1
_chemical_formula_structural   CaMnO3
_chemical_formula_sum   'Ca4 Mn4 O12'
_cell_volume   228.17519436
_cell_formula_units_Z   4
loop_
 _symmetry_equiv_pos_site_id
 _symmetry_equiv_pos_as_xyz
  1  'x, y, z'
loop_
 _atom_site_type_symbol
 _atom_site_label
 _atom_site_symmetry_multiplicity
 _atom_site_fract_x
 _atom_site_fract_y
 _atom_site_fract_z
 _atom_site_occupancy
  Ca  Ca0  1  0.48617202  0.30315901  0.75154301  1
  Ca  Ca1  1  0.98617204  0.69684103  0.25154304  1
  Ca  Ca2  1  0.02160200  0.81627603  0.74886499  1
  Ca  Ca3  1  0.52160202  0.18372401  0.24886502  1
  Mn  Mn4  1  0.99846304  0.25349601  0.99994302  1
  Mn  Mn5  1  0.00073100  0.25377501  0.49989699  1
  Mn  Mn6  1  0.49846302  0.74650403  0.49994301  1
  Mn  Mn7  1  0.50073102  0.74622503  0.99989700  1
  O  O8  1  0.11142600  0.27990201  0.23866200  1
  O  O9  1  0.18919501  0.55377102  0.94438799  1
  O  O10  1  0.19448601  0.55694502  0.55299300  1
  O  O11  1  0.29269201  0.04077600  0.95030300  1
  O  O12  1  0.29398201  0.03908200  0.55228900  1
  O  O13  1  0.41124901  0.78429003  0.26112501  1
  O  O14  1  0.61142602  0.72009803  0.73866201  1
  O  O15  1  0.68919503  0.44622902  0.44438802  1
  O  O16  1  0.69448603  0.44305502  0.05299303  1
  O  O17  1  0.79398203  0.96091804  0.05228903  1
  O  O18  1  0.79269203  0.95922404  0.45030302  1
  O  O19  1  0.91124903  0.21571001  0.76112502  1
