# generated using pymatgen
data_LuB4
_symmetry_space_group_name_H-M   'P 1'
_cell_length_a   4.01929188
_cell_length_b   7.10183811
_cell_length_c   7.10183811
_cell_angle_alpha   90.00000000
_cell_angle_beta   90.00000000
_cell_angle_gamma   90.00000000
_symmetry_Int_Tables_number   1
_chemical_formula_structural   LuB4
_chemical_formula_sum   'Lu4 B16'
_cell_volume   202.71742543
_cell_formula_units_Z   4
loop_
 _symmetry_equiv_pos_site_id
 _symmetry_equiv_pos_as_xyz
  1  'x, y, z'
loop_
 _atom_site_type_symbol
 _atom_site_label
 _atom_site_symmetry_multiplicity
 _atom_site_fract_x
 _atom_site_fract_y
 _atom_site_fract_z
 _atom_site_occupancy
  Lu  Lu0  1  1.00000003  0.18225300  0.68225299  1
  Lu  Lu1  1  0.00000000  0.68225299  0.81774699  1
  Lu  Lu2  1  1.00000003  0.31774699  0.18225300  1
  Lu  Lu3  1  0.00000000  0.81774699  0.31774699  1
  B  B4  1  0.50000002  0.32390899  0.46126799  1
  B  B5  1  0.50000002  0.67609099  0.53873199  1
  B  B6  1  0.50000002  0.53873199  0.32390899  1
  B  B7  1  0.50000002  0.46126799  0.67609099  1
  B  B8  1  0.20300201  0.00000000  -0.00000000  1
  B  B9  1  0.79699802  0.49999999  0.49999999  1
  B  B10  1  0.79699802  0.00000000  0.00000000  1
  B  B11  1  0.20300201  0.49999999  0.49999999  1
  B  B12  1  0.50000002  0.58709699  0.08709700  1
  B  B13  1  0.50000002  0.08709700  0.41290299  1
  B  B14  1  0.50000002  0.91290299  0.58709699  1
  B  B15  1  0.50000002  0.41290299  0.91290299  1
  B  B16  1  0.50000002  0.03873200  0.17609100  1
  B  B17  1  0.50000002  0.17609100  0.96126798  1
  B  B18  1  0.50000002  0.82390899  0.03873200  1
  B  B19  1  0.50000002  0.96126798  0.82390899  1
