# generated using pymatgen
data_Tb(HO)2
_symmetry_space_group_name_H-M   'P 1'
_cell_length_a   5.46806479
_cell_length_b   6.16556883
_cell_length_c   6.05060482
_cell_angle_alpha   90.00000000
_cell_angle_beta   76.27552795
_cell_angle_gamma   90.00000000
_symmetry_Int_Tables_number   1
_chemical_formula_structural   Tb(HO)2
_chemical_formula_sum   'Tb4 H8 O8'
_cell_volume   198.16415180
_cell_formula_units_Z   4
loop_
 _symmetry_equiv_pos_site_id
 _symmetry_equiv_pos_as_xyz
  1  'x, y, z'
loop_
 _atom_site_type_symbol
 _atom_site_label
 _atom_site_symmetry_multiplicity
 _atom_site_fract_x
 _atom_site_fract_y
 _atom_site_fract_z
 _atom_site_occupancy
  Tb  Tb0  1  0.30843901  0.42889201  0.31165801  1
  Tb  Tb1  1  0.69156102  0.92889203  0.18834203  1
  Tb  Tb2  1  0.69156102  0.57110802  0.68834202  1
  Tb  Tb3  1  0.30843901  0.07110800  0.81165800  1
  H  H4  1  0.14403100  0.00637500  0.29421600  1
  H  H5  1  0.85596902  0.50637501  0.20578404  1
  H  H6  1  0.85596902  0.99362503  0.70578403  1
  H  H7  1  0.14403100  0.49362501  0.79421599  1
  O  O8  1  0.23078701  0.72204902  0.06582201  1
  H  H9  1  0.76921302  0.22204901  0.43417803  1
  H  H10  1  0.76921302  0.27795101  0.93417802  1
  H  H11  1  0.23078701  0.77795102  0.56582200  1
  O  O12  1  0.07036800  0.12384400  0.22399200  1
  O  O13  1  0.92963202  0.62384402  0.27600804  1
  O  O14  1  0.92963202  0.87615602  0.77600803  1
  O  O15  1  0.07036800  0.37615601  0.72399199  1
  H  H16  1  0.41356501  0.73959002  0.00238902  1
  O  O17  1  0.58643501  0.23959001  0.49761102  1
  O  O18  1  0.58643501  0.26041001  0.99761101  1
  O  O19  1  0.41356501  0.76041002  0.50238901  1
