# generated using pymatgen
data_SrSm2YMn4O12
_symmetry_space_group_name_H-M   'P 1'
_cell_length_a   5.47333813
_cell_length_b   5.76330423
_cell_length_c   7.99952698
_cell_angle_alpha   90.00000000
_cell_angle_beta   90.00000000
_cell_angle_gamma   90.00000000
_symmetry_Int_Tables_number   1
_chemical_formula_structural   SrSm2YMn4O12
_chemical_formula_sum   'Sr1 Sm2 Y1 Mn4 O12'
_cell_volume   252.34118114
_cell_formula_units_Z   1
loop_
 _symmetry_equiv_pos_site_id
 _symmetry_equiv_pos_as_xyz
  1  'x, y, z'
loop_
 _atom_site_type_symbol
 _atom_site_label
 _atom_site_symmetry_multiplicity
 _atom_site_fract_x
 _atom_site_fract_y
 _atom_site_fract_z
 _atom_site_occupancy
  Sr  Sr0  1  0.98013298  0.06200800  0.75000000  1
  Y  Y1  1  0.48013299  0.43799198  0.25000000  1
  Sm  Sm2  1  0.51986699  0.56200798  0.75000000  1
  Sm  Sm3  1  0.01986700  0.93799196  0.25000000  1
  Mn  Mn4  1  0.00000000  0.49999998  0.50000000  1
  Mn  Mn5  1  0.49999999  0.00000000  0.50000000  1
  Mn  Mn6  1  0.49999999  0.00000000  -0.00000000  1
  Mn  Mn7  1  0.00000000  0.49999998  -0.00000000  1
  O  O8  1  0.69201098  0.30558499  0.56727500  1
  O  O9  1  0.19201100  0.19441499  0.43272500  1
  O  O10  1  0.80798898  0.80558497  0.93272500  1
  O  O11  1  0.30798899  0.69441497  0.06727500  1
  O  O12  1  0.30798899  0.69441497  0.43272500  1
  O  O13  1  0.80798898  0.80558497  0.56727500  1
  O  O14  1  0.19201100  0.19441499  0.06727500  1
  O  O15  1  0.69201098  0.30558499  0.93272500  1
  O  O16  1  0.87169198  0.55510898  0.25000000  1
  O  O17  1  0.37169199  0.94489096  0.75000000  1
  O  O18  1  0.62830799  0.05510900  0.25000000  1
  O  O19  1  0.12830800  0.44489098  0.75000000  1
