# generated using pymatgen
data_NdCo4B
_symmetry_space_group_name_H-M   'P 1'
_cell_length_a   5.10556602
_cell_length_b   5.13788795
_cell_length_c   6.89040518
_cell_angle_alpha   89.99572754
_cell_angle_beta   89.99140930
_cell_angle_gamma   60.20788956
_symmetry_Int_Tables_number   1
_chemical_formula_structural   NdCo4B
_chemical_formula_sum   'Nd2 Co8 B2'
_cell_volume   156.85915870
_cell_formula_units_Z   2
loop_
 _symmetry_equiv_pos_site_id
 _symmetry_equiv_pos_as_xyz
  1  'x, y, z'
loop_
 _atom_site_type_symbol
 _atom_site_label
 _atom_site_symmetry_multiplicity
 _atom_site_fract_x
 _atom_site_fract_y
 _atom_site_fract_z
 _atom_site_occupancy
  Nd  Nd0  1  0.99999002  0.00000000  0.00243799  1
  Nd  Nd1  1  0.99998502  0.00000000  0.49266998  1
  Co  Co2  1  0.99999302  0.49999499  0.71244396  1
  Co  Co3  1  0.49998801  0.50000499  0.71244396  1
  Co  Co4  1  0.66763801  0.66460298  0.00302697  1
  Co  Co5  1  0.33224101  0.33539699  0.00302699  1
  Co  Co6  1  0.50001301  0.00000000  0.28873299  1
  Co  Co7  1  0.99998702  0.50003199  0.28992197  1
  Co  Co8  1  0.50001801  0.49996799  0.28992197  1
  Co  Co9  1  0.50001201  0.00000000  0.71228198  1
  B  B10  1  0.66497101  0.66999298  0.49654596  1
  B  B11  1  0.33496401  0.33000699  0.49654597  1
