# generated using pymatgen
data_Cs5AuS2
_symmetry_space_group_name_H-M   'P 1'
_cell_length_a   5.80347013
_cell_length_b   5.80347061
_cell_length_c   19.51748848
_cell_angle_alpha   90.00000000
_cell_angle_beta   90.00000000
_cell_angle_gamma   120.00000000
_symmetry_Int_Tables_number   1
_chemical_formula_structural   Cs5AuS2
_chemical_formula_sum   'Cs10 Au2 S4'
_cell_volume   569.28547974
_cell_formula_units_Z   2
loop_
 _symmetry_equiv_pos_site_id
 _symmetry_equiv_pos_as_xyz
  1  'x, y, z'
loop_
 _atom_site_type_symbol
 _atom_site_label
 _atom_site_symmetry_multiplicity
 _atom_site_fract_x
 _atom_site_fract_y
 _atom_site_fract_z
 _atom_site_occupancy
  Cs  Cs0  1  0.66666667  0.33333333  0.45074999  1
  Cs  Cs1  1  0.33333336  0.66666667  0.95074998  1
  Cs  Cs2  1  0.33333336  0.66666667  0.54924999  1
  Cs  Cs3  1  0.66666667  0.33333333  0.04925000  1
  Cs  Cs4  1  0.00000000  0.00000000  0.85468398  1
  Cs  Cs5  1  0.00000000  0.00000000  0.35468399  1
  Cs  Cs6  1  0.00000000  0.00000000  0.14531600  1
  Cs  Cs7  1  0.00000000  0.00000000  0.64531598  1
  Cs  Cs8  1  0.66666667  0.33333333  0.24999999  1
  Cs  Cs9  1  0.33333336  0.66666667  0.74999998  1
  S  S10  1  0.66666667  0.33333333  0.87902198  1
  S  S11  1  0.33333336  0.66666667  0.37902199  1
  S  S12  1  0.66666667  0.33333333  0.62097798  1
  S  S13  1  0.33333336  0.66666667  0.12097800  1
  Au  Au14  1  0.33333336  0.66666667  0.24999999  1
  Au  Au15  1  0.66666667  0.33333333  0.74999998  1
