# generated using pymatgen
data_Nd3Co14B
_symmetry_space_group_name_H-M   'P 1'
_cell_length_a   5.07253790
_cell_length_b   5.07253742
_cell_length_c   10.77609825
_cell_angle_alpha   90.00000000
_cell_angle_beta   90.00000000
_cell_angle_gamma   120.00000763
_symmetry_Int_Tables_number   1
_chemical_formula_structural   Nd3Co14B
_chemical_formula_sum   'Nd3 Co14 B1'
_cell_volume   240.12794318
_cell_formula_units_Z   1
loop_
 _symmetry_equiv_pos_site_id
 _symmetry_equiv_pos_as_xyz
  1  'x, y, z'
loop_
 _atom_site_type_symbol
 _atom_site_label
 _atom_site_symmetry_multiplicity
 _atom_site_fract_x
 _atom_site_fract_y
 _atom_site_fract_z
 _atom_site_occupancy
  Nd  Nd0  1  0.00000000  0.00000000  0.32277499  1
  Nd  Nd1  1  0.00000000  0.00000000  0.67722498  1
  Nd  Nd2  1  0.00000000  0.00000000  0.00000000  1
  Co  Co3  1  1.00000005  0.50000001  0.13451500  1
  Co  Co4  1  0.50000004  0.50000001  0.49999999  1
  Co  Co5  1  0.50000001  0.00000000  0.49999999  1
  Co  Co6  1  1.00000005  0.50000001  0.49999999  1
  Co  Co7  1  0.66666670  0.33333334  0.68180698  1
  Co  Co8  1  0.33333338  0.66666668  0.68180698  1
  Co  Co9  1  0.33333338  0.66666668  0.31819299  1
  Co  Co10  1  0.66666670  0.33333334  0.31819299  1
  Co  Co11  1  0.50000004  0.50000001  0.86548498  1
  Co  Co12  1  0.50000001  0.00000000  0.86548498  1
  Co  Co13  1  1.00000005  0.50000001  0.86548498  1
  Co  Co14  1  0.50000004  0.50000001  0.13451500  1
  Co  Co15  1  0.50000001  0.00000000  0.13451500  1
  Co  Co16  1  0.33333338  0.66666668  -0.00000000  1
  B  B17  1  0.66666670  0.33333334  -0.00000000  1
