# generated using pymatgen
data_Ga
_symmetry_space_group_name_H-M   'P 1'
_cell_length_a   7.23007727
_cell_length_b   7.23007727
_cell_length_c   7.23007727
_cell_angle_alpha   109.47122192
_cell_angle_beta   109.47122192
_cell_angle_gamma   109.47122192
_symmetry_Int_Tables_number   1
_chemical_formula_structural   Ga
_chemical_formula_sum   Ga17
_cell_volume   290.94232440
_cell_formula_units_Z   17
loop_
 _symmetry_equiv_pos_site_id
 _symmetry_equiv_pos_as_xyz
  1  'x, y, z'
loop_
 _atom_site_type_symbol
 _atom_site_label
 _atom_site_symmetry_multiplicity
 _atom_site_fract_x
 _atom_site_fract_y
 _atom_site_fract_z
 _atom_site_occupancy
  Ga  Ga0  1  0.50000003  0.50000001  0.50000003  1
  Ga  Ga1  1  0.00000003  0.50000001  0.00000003  1
  Ga  Ga2  1  0.00000000  0.00000000  0.49999999  1
  Ga  Ga3  1  0.50000000  0.00000000  1.00000000  1
  Ga  Ga4  1  0.00000004  0.67971102  0.67971103  1
  Ga  Ga5  1  0.67971104  0.67971102  1.00000004  1
  Ga  Ga6  1  0.67971100  0.00000000  0.67971101  1
  Ga  Ga7  1  1.00000002  0.32028901  0.32028904  1
  Ga  Ga8  1  0.32028902  0.32028901  1.00000001  1
  Ga  Ga9  1  0.32028906  1.00000003  0.32028906  1
  Ga  Ga10  1  0.50000005  0.75000002  0.25000005  1
  Ga  Ga11  1  0.75000001  0.25000001  0.50000003  1
  Ga  Ga12  1  0.25000003  0.50000001  0.75000002  1
  Ga  Ga13  1  0.25000005  0.75000002  0.50000004  1
  Ga  Ga14  1  0.50000001  0.25000001  0.75000002  1
  Ga  Ga15  1  0.75000003  0.50000001  0.25000004  1
  Ga  Ga16  1  0.00000000  0.00000000  0.00000000  1
