# generated using pymatgen
data_NdGe6
_symmetry_space_group_name_H-M   'P 1'
_cell_length_a   6.01715612
_cell_length_b   6.01715612
_cell_length_c   7.54207611
_cell_angle_alpha   90.00000000
_cell_angle_beta   90.00000000
_cell_angle_gamma   90.00000000
_symmetry_Int_Tables_number   1
_chemical_formula_structural   NdGe6
_chemical_formula_sum   'Nd2 Ge12'
_cell_volume   273.06967340
_cell_formula_units_Z   2
loop_
 _symmetry_equiv_pos_site_id
 _symmetry_equiv_pos_as_xyz
  1  'x, y, z'
loop_
 _atom_site_type_symbol
 _atom_site_label
 _atom_site_symmetry_multiplicity
 _atom_site_fract_x
 _atom_site_fract_y
 _atom_site_fract_z
 _atom_site_occupancy
  Nd  Nd0  1  0.49999999  0.00000000  -0.00000000  1
  Nd  Nd1  1  0.00000000  0.49999999  -0.00000000  1
  Ge  Ge2  1  0.49999999  0.49999999  0.16005300  1
  Ge  Ge3  1  0.00000000  0.00000000  0.16005300  1
  Ge  Ge4  1  0.00000000  0.00000000  0.83994699  1
  Ge  Ge5  1  0.49999999  0.49999999  0.83994699  1
  Ge  Ge6  1  0.80829798  0.69170199  0.34714799  1
  Ge  Ge7  1  0.30829799  0.80829798  0.34714799  1
  Ge  Ge8  1  0.69170199  0.19170200  0.34714799  1
  Ge  Ge9  1  0.19170200  0.30829799  0.34714799  1
  Ge  Ge10  1  0.69170199  0.80829798  0.65285199  1
  Ge  Ge11  1  0.19170200  0.69170199  0.65285199  1
  Ge  Ge12  1  0.80829798  0.30829799  0.65285199  1
  Ge  Ge13  1  0.30829799  0.19170200  0.65285199  1
