# generated using pymatgen
data_Mo3F10
_symmetry_space_group_name_H-M   'P 1'
_cell_length_a   6.09880829
_cell_length_b   6.09880829
_cell_length_c   6.09880877
_cell_angle_alpha   60.43280029
_cell_angle_beta   60.43280029
_cell_angle_gamma   60.43280411
_symmetry_Int_Tables_number   1
_chemical_formula_structural   Mo3F10
_chemical_formula_sum   'Mo3 F10'
_cell_volume   161.97542727
_cell_formula_units_Z   1
loop_
 _symmetry_equiv_pos_site_id
 _symmetry_equiv_pos_as_xyz
  1  'x, y, z'
loop_
 _atom_site_type_symbol
 _atom_site_label
 _atom_site_symmetry_multiplicity
 _atom_site_fract_x
 _atom_site_fract_y
 _atom_site_fract_z
 _atom_site_occupancy
  Mo  Mo0  1  0.24219500  0.24219500  0.24219502  1
  F  F1  1  0.76144000  0.24756000  0.24756004  1
  F  F2  1  0.23856001  0.75243999  0.75244005  1
  F  F3  1  0.24756001  0.76143999  0.24756004  1
  F  F4  1  0.75244000  0.23856000  0.75244005  1
  F  F5  1  0.75780501  0.75780499  0.75780507  1
  F  F6  1  0.75244001  0.75243999  0.23856005  1
  F  F7  1  0.24756000  0.24756000  0.76144004  1
  F  F8  1  0.00000000  0.00000000  0.50000002  1
  Mo  Mo9  1  0.50000000  0.00000000  1.00000005  1
  F  F10  1  0.00000001  0.50000000  0.00000001  1
  Mo  Mo11  1  0.50000001  0.50000000  0.50000004  1
  F  F12  1  0.00000000  0.00000000  0.00000000  1
