# generated using pymatgen
data_BaPHO4
_symmetry_space_group_name_H-M   'P 1'
_cell_length_a   4.78945398
_cell_length_b   5.85300779
_cell_length_c   6.63485289
_cell_angle_alpha   90.00000000
_cell_angle_beta   90.00000000
_cell_angle_gamma   96.72507477
_symmetry_Int_Tables_number   1
_chemical_formula_structural   BaPHO4
_chemical_formula_sum   'Ba2 P2 H2 O8'
_cell_volume   184.71319154
_cell_formula_units_Z   2
loop_
 _symmetry_equiv_pos_site_id
 _symmetry_equiv_pos_as_xyz
  1  'x, y, z'
loop_
 _atom_site_type_symbol
 _atom_site_label
 _atom_site_symmetry_multiplicity
 _atom_site_fract_x
 _atom_site_fract_y
 _atom_site_fract_z
 _atom_site_occupancy
  P  P0  1  0.50553798  0.24992499  0.21064800  1
  P  P1  1  0.50553795  0.74992498  0.78935201  1
  H  H2  1  0.49674793  0.99836698  0.51170901  1
  H  H3  1  0.49674797  0.49836699  0.48829101  1
  Ba  Ba4  1  0.00108898  0.25384599  0.79836401  1
  Ba  Ba5  1  0.00108895  0.75384598  0.20163600  1
  O  O6  1  0.62868900  0.07226600  0.34992201  1
  O  O7  1  0.38117797  0.43689699  0.34620301  1
  O  O8  1  0.38117793  0.93689698  0.65379701  1
  O  O9  1  0.62868896  0.57226599  0.65007801  1
  O  O10  1  0.74174098  0.37499599  0.07833000  1
  O  O11  1  0.26131799  0.12850300  0.08336200  1
  O  O12  1  0.26131796  0.62850298  0.91663802  1
  O  O13  1  0.74174094  0.87499598  0.92167002  1
