# generated using pymatgen
data_LuGe
_symmetry_space_group_name_H-M   'P 1'
_cell_length_a   4.27558088
_cell_length_b   5.59677219
_cell_length_c   7.25495720
_cell_angle_alpha   90.00000000
_cell_angle_beta   90.00000000
_cell_angle_gamma   90.00000000
_symmetry_Int_Tables_number   1
_chemical_formula_structural   LuGe
_chemical_formula_sum   'Lu4 Ge4'
_cell_volume   173.60715150
_cell_formula_units_Z   4
loop_
 _symmetry_equiv_pos_site_id
 _symmetry_equiv_pos_as_xyz
  1  'x, y, z'
loop_
 _atom_site_type_symbol
 _atom_site_label
 _atom_site_symmetry_multiplicity
 _atom_site_fract_x
 _atom_site_fract_y
 _atom_site_fract_z
 _atom_site_occupancy
  Ge  Ge0  1  0.25000001  0.13147900  0.18058800  1
  Ge  Ge1  1  0.75000002  0.86852097  0.81941198  1
  Ge  Ge2  1  0.75000002  0.63147898  0.31941199  1
  Ge  Ge3  1  0.25000001  0.36852099  0.68058798  1
  Lu  Lu4  1  0.25000001  0.61485998  0.03297200  1
  Lu  Lu5  1  0.75000002  0.38513999  0.96702797  1
  Lu  Lu6  1  0.75000002  0.11486000  0.46702799  1
  Lu  Lu7  1  0.25000001  0.88513997  0.53297199  1
