# generated using pymatgen
data_BaSe2
_symmetry_space_group_name_H-M   'P 1'
_cell_length_a   4.93951082
_cell_length_b   8.44439507
_cell_length_c   12.45722103
_cell_angle_alpha   90.00000000
_cell_angle_beta   90.00000000
_cell_angle_gamma   90.00000000
_symmetry_Int_Tables_number   1
_chemical_formula_structural   BaSe2
_chemical_formula_sum   'Ba4 Se8'
_cell_volume   519.60539886
_cell_formula_units_Z   4
loop_
 _symmetry_equiv_pos_site_id
 _symmetry_equiv_pos_as_xyz
  1  'x, y, z'
loop_
 _atom_site_type_symbol
 _atom_site_label
 _atom_site_symmetry_multiplicity
 _atom_site_fract_x
 _atom_site_fract_y
 _atom_site_fract_z
 _atom_site_occupancy
  Ba  Ba0  1  0.75000003  0.87223099  0.82835000  1
  Ba  Ba1  1  0.75000003  0.62776900  0.32835000  1
  Ba  Ba2  1  0.25000001  0.12776900  0.17165000  1
  Ba  Ba3  1  0.25000001  0.37223100  0.67165000  1
  Se  Se4  1  0.25000001  0.12492600  0.89196200  1
  Se  Se5  1  0.25000001  0.37507400  0.39196200  1
  Se  Se6  1  0.75000003  0.87507399  0.10803800  1
  Se  Se7  1  0.75000003  0.62492600  0.60803800  1
  Se  Se8  1  0.25000001  0.62313400  0.87736300  1
  Se  Se9  1  0.25000001  0.87686599  0.37736300  1
  Se  Se10  1  0.75000003  0.37686600  0.12263700  1
  Se  Se11  1  0.75000003  0.12313400  0.62263700  1
