# generated using pymatgen
data_NaCa5(MoN3)2
_symmetry_space_group_name_H-M   'P 1'
_cell_length_a   5.08654308
_cell_length_b   7.20683813
_cell_length_c   7.20683908
_cell_angle_alpha   119.99999237
_cell_angle_beta   90.00000000
_cell_angle_gamma   90.00000000
_symmetry_Int_Tables_number   1
_chemical_formula_structural   NaCa5(MoN3)2
_chemical_formula_sum   'Na1 Ca5 Mo2 N6'
_cell_volume   228.79313295
_cell_formula_units_Z   1
loop_
 _symmetry_equiv_pos_site_id
 _symmetry_equiv_pos_as_xyz
  1  'x, y, z'
loop_
 _atom_site_type_symbol
 _atom_site_label
 _atom_site_symmetry_multiplicity
 _atom_site_fract_x
 _atom_site_fract_y
 _atom_site_fract_z
 _atom_site_occupancy
  Na  Na0  1  0.74999999  0.06877200  0.71760699  1
  Ca  Ca1  1  0.74999999  0.28239299  0.35116498  1
  Ca  Ca2  1  0.74999999  0.64883497  0.93122796  1
  Ca  Ca3  1  0.25000000  0.93122796  0.28239295  1
  Ca  Ca4  1  0.25000000  0.71760697  0.64883496  1
  Ca  Ca5  1  0.25000000  0.35116498  0.06877198  1
  Mo  Mo6  1  0.25000000  0.33333332  0.66666664  1
  Mo  Mo7  1  0.74999999  0.66666664  0.33333329  1
  N  N8  1  0.25000000  0.08248800  0.69407599  1
  N  N9  1  0.25000000  0.30592399  0.38841198  1
  N  N10  1  0.25000000  0.61158797  0.91751196  1
  N  N11  1  0.74999999  0.91751196  0.30592395  1
  N  N12  1  0.74999999  0.69407597  0.61158796  1
  N  N13  1  0.74999999  0.38841198  0.08248798  1
