# generated using pymatgen
data_Ho(GaFe)6
_symmetry_space_group_name_H-M   'P 1'
_cell_length_a   5.04576206
_cell_length_b   6.61647367
_cell_length_c   6.61647272
_cell_angle_alpha   81.07856750
_cell_angle_beta   67.58559418
_cell_angle_gamma   67.58557892
_symmetry_Int_Tables_number   1
_chemical_formula_structural   Ho(GaFe)6
_chemical_formula_sum   'Ho1 Ga6 Fe6'
_cell_volume   188.76390865
_cell_formula_units_Z   1
loop_
 _symmetry_equiv_pos_site_id
 _symmetry_equiv_pos_as_xyz
  1  'x, y, z'
loop_
 _atom_site_type_symbol
 _atom_site_label
 _atom_site_symmetry_multiplicity
 _atom_site_fract_x
 _atom_site_fract_y
 _atom_site_fract_z
 _atom_site_occupancy
  Ho  Ho0  1  0.00000000  0.00000000  0.00000000  1
  Ga  Ga1  1  0.00000002  0.33211799  0.66788203  1
  Ga  Ga2  1  1.00000000  0.66788198  0.33211807  1
  Ga  Ga3  1  0.65453300  0.34546699  0.34546705  1
  Ga  Ga4  1  0.34546702  0.65453298  0.65453306  1
  Ga  Ga5  1  0.68831202  0.81168797  0.81168808  1
  Ga  Ga6  1  0.31168800  0.18831199  0.18831202  1
  Fe  Fe7  1  0.00000000  0.00000000  0.50000001  1
  Fe  Fe8  1  0.49999999  0.00000000  0.50000002  1
  Fe  Fe9  1  0.50000001  0.49999998  0.00000004  1
  Fe  Fe10  1  0.99999999  0.49999998  0.00000006  1
  Fe  Fe11  1  0.50000002  0.75679498  0.24320506  1
  Fe  Fe12  1  0.50000000  0.24320499  0.75679504  1
