# generated using pymatgen
data_Tb(SiIr)2
_symmetry_space_group_name_H-M   'P 1'
_cell_length_a   3.97144103
_cell_length_b   3.97144103
_cell_length_c   9.98208046
_cell_angle_alpha   90.00000000
_cell_angle_beta   90.00000000
_cell_angle_gamma   90.00000000
_symmetry_Int_Tables_number   1
_chemical_formula_structural   Tb(SiIr)2
_chemical_formula_sum   'Tb2 Si4 Ir4'
_cell_volume   157.44080543
_cell_formula_units_Z   2
loop_
 _symmetry_equiv_pos_site_id
 _symmetry_equiv_pos_as_xyz
  1  'x, y, z'
loop_
 _atom_site_type_symbol
 _atom_site_label
 _atom_site_symmetry_multiplicity
 _atom_site_fract_x
 _atom_site_fract_y
 _atom_site_fract_z
 _atom_site_occupancy
  Tb  Tb0  1  0.50000000  0.50000000  0.49999998  1
  Tb  Tb1  1  0.00000000  0.00000000  0.00000000  1
  Ir  Ir2  1  0.00000000  0.50000000  0.25105099  1
  Ir  Ir3  1  0.50000000  0.00000000  0.74894897  1
  Ir  Ir4  1  0.50000000  0.00000000  0.25105099  1
  Ir  Ir5  1  0.00000000  0.50000000  0.74894897  1
  Si  Si6  1  0.50000000  0.50000000  0.11604099  1
  Si  Si7  1  0.00000000  0.00000000  0.61923297  1
  Si  Si8  1  0.00000000  0.00000000  0.38076698  1
  Si  Si9  1  0.50000000  0.50000000  0.88395896  1
