# generated using pymatgen
data_Tb(BC)2
_symmetry_space_group_name_H-M   'P 1'
_cell_length_a   3.72633290
_cell_length_b   5.38081980
_cell_length_c   5.38081980
_cell_angle_alpha   90.00000000
_cell_angle_beta   90.00000000
_cell_angle_gamma   90.00000000
_symmetry_Int_Tables_number   1
_chemical_formula_structural   Tb(BC)2
_chemical_formula_sum   'Tb2 B4 C4'
_cell_volume   107.88934264
_cell_formula_units_Z   2
loop_
 _symmetry_equiv_pos_site_id
 _symmetry_equiv_pos_as_xyz
  1  'x, y, z'
loop_
 _atom_site_type_symbol
 _atom_site_label
 _atom_site_symmetry_multiplicity
 _atom_site_fract_x
 _atom_site_fract_y
 _atom_site_fract_z
 _atom_site_occupancy
  Tb  Tb0  1  0.00000000  0.50000002  0.50000002  1
  Tb  Tb1  1  0.00000000  0.00000000  0.00000000  1
  B  B2  1  0.50000001  0.13760501  0.63760502  1
  B  B3  1  0.50000001  0.63760502  0.86239503  1
  B  B4  1  0.50000001  0.36239501  0.13760501  1
  B  B5  1  0.50000001  0.86239503  0.36239501  1
  C  C6  1  0.50000001  0.83905303  0.66094702  1
  C  C7  1  0.50000001  0.33905301  0.83905303  1
  C  C8  1  0.50000001  0.16094701  0.33905301  1
  C  C9  1  0.50000001  0.66094702  0.16094701  1
