# generated using pymatgen
data_Ba4I13
_symmetry_space_group_name_H-M   'P 1'
_cell_length_a   6.96008158
_cell_length_b   10.18987560
_cell_length_c   10.18987560
_cell_angle_alpha   101.21075439
_cell_angle_beta   107.68538666
_cell_angle_gamma   107.68538666
_symmetry_Int_Tables_number   1
_chemical_formula_structural   Ba4I13
_chemical_formula_sum   'Ba4 I13'
_cell_volume   622.41177025
_cell_formula_units_Z   1
loop_
 _symmetry_equiv_pos_site_id
 _symmetry_equiv_pos_as_xyz
  1  'x, y, z'
loop_
 _atom_site_type_symbol
 _atom_site_label
 _atom_site_symmetry_multiplicity
 _atom_site_fract_x
 _atom_site_fract_y
 _atom_site_fract_z
 _atom_site_occupancy
  I  I0  1  0.00000000  0.00000000  0.00000000  1
  I  I1  1  0.68484900  0.01541200  0.34888900  1
  I  I2  1  0.31515099  0.98458800  0.65111100  1
  I  I3  1  0.31515099  0.65111100  0.98458800  1
  I  I4  1  0.68484900  0.34888900  0.01541200  1
  I  I5  1  -0.00000000  0.50000000  0.50000000  1
  I  I6  1  0.39104799  0.64835700  0.64835700  1
  I  I7  1  0.60895200  0.35164300  0.35164300  1
  Ba  Ba8  1  0.69835000  0.13990200  0.70381800  1
  I  I9  1  0.30164999  0.86009800  0.29618200  1
  Ba  Ba10  1  0.30165000  0.29618200  0.86009800  1
  Ba  Ba11  1  0.69834999  0.70381800  0.13990200  1
  Ba  Ba12  1  0.50000000  0.00000000  -0.00000000  1
  I  I13  1  0.92683499  0.83094800  0.58198800  1
  I  I14  1  0.07316500  0.16905200  0.41801200  1
  I  I15  1  0.07316500  0.41801200  0.16905200  1
  I  I16  1  0.92683499  0.58198800  0.83094800  1
