# generated using pymatgen
data_Mg2SnO4
_symmetry_space_group_name_H-M   'P 1'
_cell_length_a   6.19177294
_cell_length_b   6.22705460
_cell_length_c   6.23318195
_cell_angle_alpha   119.23053741
_cell_angle_beta   118.95182037
_cell_angle_gamma   90.94438934
_symmetry_Int_Tables_number   1
_chemical_formula_structural   Mg2SnO4
_chemical_formula_sum   'Mg4 Sn2 O8'
_cell_volume   173.16209656
_cell_formula_units_Z   2
loop_
 _symmetry_equiv_pos_site_id
 _symmetry_equiv_pos_as_xyz
  1  'x, y, z'
loop_
 _atom_site_type_symbol
 _atom_site_label
 _atom_site_symmetry_multiplicity
 _atom_site_fract_x
 _atom_site_fract_y
 _atom_site_fract_z
 _atom_site_occupancy
  Mg  Mg0  1  0.12314201  0.87777102  0.75366507  1
  Mg  Mg1  1  0.87686404  0.12222500  0.24636404  1
  Mg  Mg2  1  0.49991202  0.99996902  0.49989209  1
  Sn  Sn3  1  0.49988202  0.49995301  0.49985506  1
  Sn  Sn4  1  0.00028100  0.50007901  0.00016803  1
  Mg  Mg5  1  0.49997502  0.50001701  0.99998807  1
  O  O6  1  0.73813504  0.26997000  0.96238707  1
  O  O7  1  0.30279801  0.27149400  0.54737504  1
  O  O8  1  0.71937103  0.25946300  0.51708905  1
  O  O9  1  0.25948101  0.30702301  0.03955703  1
  O  O10  1  0.28063701  0.74054101  0.48294407  1
  O  O11  1  0.69720303  0.72850201  0.45264608  1
  O  O12  1  0.74048304  0.69298701  0.96044309  1
  O  O13  1  0.26183501  0.73000601  0.03762605  1
