# generated using pymatgen
data_Co5O9
_symmetry_space_group_name_H-M   'P 1'
_cell_length_a   5.86039162
_cell_length_b   5.86039162
_cell_length_c   5.89777708
_cell_angle_alpha   60.20947266
_cell_angle_beta   60.20947266
_cell_angle_gamma   60.00000381
_symmetry_Int_Tables_number   1
_chemical_formula_structural   Co5O9
_chemical_formula_sum   'Co5 O9'
_cell_volume   143.67938718
_cell_formula_units_Z   1
loop_
 _symmetry_equiv_pos_site_id
 _symmetry_equiv_pos_as_xyz
  1  'x, y, z'
loop_
 _atom_site_type_symbol
 _atom_site_label
 _atom_site_symmetry_multiplicity
 _atom_site_fract_x
 _atom_site_fract_y
 _atom_site_fract_z
 _atom_site_occupancy
  O  O0  1  0.00000000  0.00000000  0.00000000  1
  O  O1  1  0.38161700  0.38161700  0.85514899  1
  O  O2  1  0.61838301  0.61838300  0.14485096  1
  O  O3  1  0.50000000  0.00000000  0.49999999  1
  O  O4  1  0.00000000  0.50000000  0.49999999  1
  O  O5  1  0.00000000  0.00000000  0.50000001  1
  Co  Co6  1  0.24759800  0.24759800  0.70951299  1
  O  O7  1  0.24759800  0.79529101  0.70951298  1
  O  O8  1  0.79529101  0.24759800  0.70951298  1
  O  O9  1  0.75557401  0.75557401  0.73327796  1
  Co  Co10  1  0.75240201  0.75240201  0.29048696  1
  Co  Co11  1  0.75240201  0.20470900  0.29048697  1
  Co  Co12  1  0.20470900  0.75240201  0.29048697  1
  Co  Co13  1  0.24442600  0.24442600  0.26672199  1
