# generated using pymatgen
data_V3F11
_symmetry_space_group_name_H-M   'P 1'
_cell_length_a   5.25718689
_cell_length_b   5.25718689
_cell_length_c   6.79509735
_cell_angle_alpha   72.00170898
_cell_angle_beta   72.00170898
_cell_angle_gamma   75.31809235
_symmetry_Int_Tables_number   1
_chemical_formula_structural   V3F11
_chemical_formula_sum   'V3 F11'
_cell_volume   167.26175110
_cell_formula_units_Z   1
loop_
 _symmetry_equiv_pos_site_id
 _symmetry_equiv_pos_as_xyz
  1  'x, y, z'
loop_
 _atom_site_type_symbol
 _atom_site_label
 _atom_site_symmetry_multiplicity
 _atom_site_fract_x
 _atom_site_fract_y
 _atom_site_fract_z
 _atom_site_occupancy
  F  F0  1  0.00000000  0.00000000  0.00000000  1
  V  V1  1  0.00000000  0.00000000  0.50000001  1
  V  V2  1  0.55487302  0.44512701  0.75000000  1
  V  V3  1  0.44512702  0.55487302  0.25000000  1
  F  F4  1  0.32375102  0.66284202  0.94059201  1
  F  F5  1  0.78168103  0.70006502  0.63914700  1
  F  F6  1  0.84166403  0.15833600  0.75000001  1
  F  F7  1  0.29993501  0.21831901  0.86085301  1
  F  F8  1  0.33715802  0.67624902  0.55940800  1
  F  F9  1  0.66284202  0.32375101  0.44059200  1
  F  F10  1  0.70006503  0.78168102  0.13914699  1
  F  F11  1  0.15833601  0.84166403  0.25000000  1
  F  F12  1  0.21831901  0.29993501  0.36085300  1
  F  F13  1  0.67624902  0.33715801  0.05940799  1
