# generated using pymatgen
data_RbBa2(PO4)2
_symmetry_space_group_name_H-M   'P 1'
_cell_length_a   5.53523445
_cell_length_b   5.53523445
_cell_length_c   7.52072906
_cell_angle_alpha   68.40776062
_cell_angle_beta   68.40776062
_cell_angle_gamma   59.99999619
_symmetry_Int_Tables_number   1
_chemical_formula_structural   RbBa2(PO4)2
_chemical_formula_sum   'Rb1 Ba2 P2 O8'
_cell_volume   180.64258065
_cell_formula_units_Z   1
loop_
 _symmetry_equiv_pos_site_id
 _symmetry_equiv_pos_as_xyz
  1  'x, y, z'
loop_
 _atom_site_type_symbol
 _atom_site_label
 _atom_site_symmetry_multiplicity
 _atom_site_fract_x
 _atom_site_fract_y
 _atom_site_fract_z
 _atom_site_occupancy
  Rb  Rb0  1  0.00000000  0.00000000  0.00000000  1
  Ba  Ba1  1  0.20926401  0.20926400  0.37220800  1
  Ba  Ba2  1  0.79073602  0.79073599  0.62779198  1
  P  P3  1  0.40995701  0.40995699  0.77012900  1
  P  P4  1  0.59004302  0.59004299  0.22987098  1
  O  O5  1  0.33385201  0.33385199  0.99844400  1
  O  O6  1  0.66614802  0.66614799  0.00155597  1
  O  O7  1  0.74265001  0.28284300  0.69166399  1
  O  O8  1  0.28284301  0.28284300  0.69166400  1
  O  O9  1  0.28284302  0.74264999  0.69166399  1
  O  O10  1  0.25735002  0.71715699  0.30833598  1
  O  O11  1  0.71715702  0.71715699  0.30833598  1
  O  O12  1  0.71715701  0.25735000  0.30833599  1
