# generated using pymatgen
data_Mg2Ga
_symmetry_space_group_name_H-M   'P 1'
_cell_length_a   2.95874596
_cell_length_b   2.95874572
_cell_length_c   14.32339478
_cell_angle_alpha   90.00000000
_cell_angle_beta   90.00000000
_cell_angle_gamma   120.00000000
_symmetry_Int_Tables_number   1
_chemical_formula_structural   Mg2Ga
_chemical_formula_sum   'Mg4 Ga2'
_cell_volume   108.59052016
_cell_formula_units_Z   2
loop_
 _symmetry_equiv_pos_site_id
 _symmetry_equiv_pos_as_xyz
  1  'x, y, z'
loop_
 _atom_site_type_symbol
 _atom_site_label
 _atom_site_symmetry_multiplicity
 _atom_site_fract_x
 _atom_site_fract_y
 _atom_site_fract_z
 _atom_site_occupancy
  Mg  Mg0  1  0.00000000  0.00000000  0.00000000  1
  Mg  Mg1  1  0.66666666  0.33333334  0.17940200  1
  Ga  Ga2  1  0.00000000  0.00000000  0.33625201  1
  Mg  Mg3  1  0.66666666  0.33333334  0.50000001  1
  Ga  Ga4  1  0.00000000  0.00000000  0.66374801  1
  Mg  Mg5  1  0.66666666  0.33333334  0.82059801  1
