# generated using pymatgen
data_MoSe2
_symmetry_space_group_name_H-M   'P 1'
_cell_length_a   4.03013897
_cell_length_b   6.85039425
_cell_length_c   14.46090221
_cell_angle_alpha   99.33075714
_cell_angle_beta   91.75096893
_cell_angle_gamma   106.77883148
_symmetry_Int_Tables_number   1
_chemical_formula_structural   MoSe2
_chemical_formula_sum   'Mo5 Se10'
_cell_volume   375.91605074
_cell_formula_units_Z   5
loop_
 _symmetry_equiv_pos_site_id
 _symmetry_equiv_pos_as_xyz
  1  'x, y, z'
loop_
 _atom_site_type_symbol
 _atom_site_label
 _atom_site_symmetry_multiplicity
 _atom_site_fract_x
 _atom_site_fract_y
 _atom_site_fract_z
 _atom_site_occupancy
  Se  Se0  1  0.78207596  0.69007799  0.09091899  1
  Se  Se1  1  0.47217895  0.83534199  0.88964397  1
  Se  Se2  1  0.05259700  0.05149200  0.68750499  1
  Se  Se3  1  0.62795099  0.26331600  0.48661500  1
  Se  Se4  1  0.20060197  0.47019699  0.28222699  1
  Se  Se5  1  0.52782099  0.16465800  0.11035600  1
  Se  Se6  1  0.21792398  0.30992199  0.90908098  1
  Se  Se7  1  0.79939797  0.52980299  0.71777299  1
  Se  Se8  1  0.37204895  0.73668399  0.51338498  1
  Se  Se9  1  0.94740294  0.94850798  0.31249498  1
  Mo  Mo10  1  0.85292097  0.57397699  0.90838898  1
  Mo  Mo11  1  0.42620995  0.79240199  0.70302997  1
  Mo  Mo12  1  0.00000000  0.00000000  0.49999999  1
  Mo  Mo13  1  0.14707897  0.42602299  0.09161099  1
  Mo  Mo14  1  0.57378999  0.20759800  0.29697000  1
