# generated using pymatgen
data_Te9Mo2W3
_symmetry_space_group_name_H-M   'P 1'
_cell_length_a   4.50162268
_cell_length_b   4.50600147
_cell_length_c   21.67791557
_cell_angle_alpha   90.00000000
_cell_angle_beta   90.00000000
_cell_angle_gamma   119.90034485
_symmetry_Int_Tables_number   1
_chemical_formula_structural   Te9Mo2W3
_chemical_formula_sum   'Te9 Mo2 W3'
_cell_volume   381.19202925
_cell_formula_units_Z   1
loop_
 _symmetry_equiv_pos_site_id
 _symmetry_equiv_pos_as_xyz
  1  'x, y, z'
loop_
 _atom_site_type_symbol
 _atom_site_label
 _atom_site_symmetry_multiplicity
 _atom_site_fract_x
 _atom_site_fract_y
 _atom_site_fract_z
 _atom_site_occupancy
  Te  Te0  1  0.99993995  0.00117500  0.50008999  1
  Te  Te1  1  0.99993995  0.00117500  0.99990997  1
  Te  Te2  1  0.33434396  0.66648697  0.12478000  1
  W  W3  1  0.66675196  0.33358898  0.87507398  1
  W  W4  1  0.66675196  0.33358898  0.62492598  1
  Te  Te5  1  0.33434396  0.66648697  0.37521999  1
  Mo  Mo6  1  0.36517896  0.73115096  0.74999998  1
  Te  Te7  1  0.63603496  0.36396898  0.24999999  1
  Te  Te8  1  0.33372096  0.66717797  0.57603998  1
  Te  Te9  1  0.66695996  0.33457298  0.42414699  1
  Mo  Mo10  1  0.66695996  0.33457298  0.07585300  1
  Te  Te11  1  0.33372096  0.66717797  0.92395998  1
  Te  Te12  1  0.69947595  0.40092298  0.74999998  1
  W  W13  1  0.29787696  0.69845397  0.24999999  1
