# generated using pymatgen
data_P5Rh4
_symmetry_space_group_name_H-M   'P 1'
_cell_length_a   3.85064602
_cell_length_b   3.85064578
_cell_length_c   9.39096355
_cell_angle_alpha   90.00000000
_cell_angle_beta   90.00000000
_cell_angle_gamma   120.00000000
_symmetry_Int_Tables_number   1
_chemical_formula_structural   P5Rh4
_chemical_formula_sum   'P5 Rh4'
_cell_volume   120.58907211
_cell_formula_units_Z   1
loop_
 _symmetry_equiv_pos_site_id
 _symmetry_equiv_pos_as_xyz
  1  'x, y, z'
loop_
 _atom_site_type_symbol
 _atom_site_label
 _atom_site_symmetry_multiplicity
 _atom_site_fract_x
 _atom_site_fract_y
 _atom_site_fract_z
 _atom_site_occupancy
  P  P0  1  0.00000000  0.00000000  0.00000000  1
  P  P1  1  0.66666665  0.33333333  0.33369102  1
  P  P2  1  0.33333331  0.66666665  0.66630903  1
  P  P3  1  0.00000000  0.00000000  0.73741303  1
  Rh  Rh4  1  0.66666665  0.33333333  0.09482600  1
  Rh  Rh5  1  0.33333331  0.66666665  0.41824102  1
  P  P6  1  0.33333331  0.66666665  0.90517404  1
  Rh  Rh7  1  0.00000000  0.00000000  0.26258701  1
  Rh  Rh8  1  0.66666665  0.33333333  0.58175903  1
