# generated using pymatgen
data_LuGe
_symmetry_space_group_name_H-M   'P 1'
_cell_length_a   3.70134997
_cell_length_b   4.26890516
_cell_length_c   5.43752337
_cell_angle_alpha   90.00000000
_cell_angle_beta   109.89835358
_cell_angle_gamma   90.00000000
_symmetry_Int_Tables_number   1
_chemical_formula_structural   LuGe
_chemical_formula_sum   'Lu2 Ge2'
_cell_volume   80.78733155
_cell_formula_units_Z   2
loop_
 _symmetry_equiv_pos_site_id
 _symmetry_equiv_pos_as_xyz
  1  'x, y, z'
loop_
 _atom_site_type_symbol
 _atom_site_label
 _atom_site_symmetry_multiplicity
 _atom_site_fract_x
 _atom_site_fract_y
 _atom_site_fract_z
 _atom_site_occupancy
  Ge  Ge0  1  0.86118600  0.74999997  0.72237202  1
  Ge  Ge1  1  0.13881400  0.24999999  0.27762801  1
  Lu  Lu2  1  0.57272900  0.74999997  0.14545800  1
  Lu  Lu3  1  0.42727100  0.24999999  0.85454203  1
