# generated using pymatgen
data_Ba(Bi3O5)2
_symmetry_space_group_name_H-M   'P 1'
_cell_length_a   6.75129509
_cell_length_b   6.75129509
_cell_length_c   6.75129509
_cell_angle_alpha   109.47122192
_cell_angle_beta   109.47122192
_cell_angle_gamma   109.47122192
_symmetry_Int_Tables_number   1
_chemical_formula_structural   Ba(Bi3O5)2
_chemical_formula_sum   'Ba1 Bi6 O10'
_cell_volume   236.88598164
_cell_formula_units_Z   1
loop_
 _symmetry_equiv_pos_site_id
 _symmetry_equiv_pos_as_xyz
  1  'x, y, z'
loop_
 _atom_site_type_symbol
 _atom_site_label
 _atom_site_symmetry_multiplicity
 _atom_site_fract_x
 _atom_site_fract_y
 _atom_site_fract_z
 _atom_site_occupancy
  Ba  Ba0  1  0.00000000  0.00000000  0.00000000  1
  Bi  Bi1  1  0.50000003  0.50000001  0.50000003  1
  O  O2  1  0.00000000  0.00000000  0.49999999  1
  O  O3  1  1.00000003  0.50000001  0.00000005  1
  O  O4  1  0.50000000  0.00000000  0.00000001  1
  O  O5  1  0.15086802  0.35293401  0.50380202  1
  O  O6  1  0.84913204  0.64706602  0.49619805  1
  Bi  Bi7  1  0.15086804  0.64706602  0.79793403  1
  Bi  Bi8  1  0.84913202  0.35293401  0.20206604  1
  O  O9  1  0.64706603  0.49619801  0.84913203  1
  O  O10  1  0.35293403  0.50380201  0.15086803  1
  Bi  Bi11  1  0.35293401  0.20206601  0.84913201  1
  Bi  Bi12  1  0.64706605  0.79793402  0.15086806  1
  Bi  Bi13  1  0.79793401  0.15086800  0.64706602  1
  O  O14  1  0.20206605  0.84913202  0.35293405  1
  O  O15  1  0.50380201  0.15086800  0.35293402  1
  O  O16  1  0.49619805  0.84913202  0.64706605  1
