# generated using pymatgen
data_Mo3W(SeS)2
_symmetry_space_group_name_H-M   'P 1'
_cell_length_a   3.68155098
_cell_length_b   3.68155098
_cell_length_c   12.82812405
_cell_angle_alpha   90.00000000
_cell_angle_beta   90.00000000
_cell_angle_gamma   90.00000000
_symmetry_Int_Tables_number   1
_chemical_formula_structural   Mo3W(SeS)2
_chemical_formula_sum   'Mo3 W1 Se2 S2'
_cell_volume   173.87005367
_cell_formula_units_Z   1
loop_
 _symmetry_equiv_pos_site_id
 _symmetry_equiv_pos_as_xyz
  1  'x, y, z'
loop_
 _atom_site_type_symbol
 _atom_site_label
 _atom_site_symmetry_multiplicity
 _atom_site_fract_x
 _atom_site_fract_y
 _atom_site_fract_z
 _atom_site_occupancy
  W  W0  1  0.50000000  0.00000000  0.00300400  1
  Mo  Mo1  1  0.50000000  0.00000000  0.48637300  1
  Mo  Mo2  1  0.00000000  0.50000000  0.00300400  1
  Mo  Mo3  1  0.00000000  0.50000000  0.48637300  1
  Se  Se4  1  0.50000000  0.50000000  0.86161400  1
  Se  Se5  1  0.00000000  0.00000000  0.14413400  1
  S  S6  1  0.00000000  0.00000000  0.61539200  1
  S  S7  1  0.50000000  0.50000000  0.40010600  1
