# generated using pymatgen
data_Mn4P5
_symmetry_space_group_name_H-M   'P 1'
_cell_length_a   3.90640211
_cell_length_b   5.52146816
_cell_length_c   6.76126623
_cell_angle_alpha   114.09909821
_cell_angle_beta   106.79096985
_cell_angle_gamma   90.00000000
_symmetry_Int_Tables_number   1
_chemical_formula_structural   Mn4P5
_chemical_formula_sum   'Mn4 P5'
_cell_volume   126.28150263
_cell_formula_units_Z   1
loop_
 _symmetry_equiv_pos_site_id
 _symmetry_equiv_pos_as_xyz
  1  'x, y, z'
loop_
 _atom_site_type_symbol
 _atom_site_label
 _atom_site_symmetry_multiplicity
 _atom_site_fract_x
 _atom_site_fract_y
 _atom_site_fract_z
 _atom_site_occupancy
  P  P0  1  0.33249397  0.33249398  0.66498798  1
  P  P1  1  0.66750595  0.66750597  0.33501196  1
  P  P2  1  0.00000000  0.00000000  0.00000000  1
  P  P3  1  0.49999997  0.25424199  -0.00000002  1
  Mn  Mn4  1  0.83167494  0.57956597  0.66334996  1
  P  P5  1  0.16832596  0.91621696  0.33665096  1
  Mn  Mn6  1  0.49999995  0.74575796  0.99999995  1
  Mn  Mn7  1  0.83167396  0.08378300  0.66334897  1
  Mn  Mn8  1  0.16832498  0.42043398  0.33664998  1
