# generated using pymatgen
data_LuGeAu
_symmetry_space_group_name_H-M   'P 1'
_cell_length_a   4.17338991
_cell_length_b   6.82831383
_cell_length_c   6.82831430
_cell_angle_alpha   120.00000000
_cell_angle_beta   90.00000000
_cell_angle_gamma   90.00000000
_symmetry_Int_Tables_number   1
_chemical_formula_structural   LuGeAu
_chemical_formula_sum   'Lu3 Ge3 Au3'
_cell_volume   168.51810618
_cell_formula_units_Z   3
loop_
 _symmetry_equiv_pos_site_id
 _symmetry_equiv_pos_as_xyz
  1  'x, y, z'
loop_
 _atom_site_type_symbol
 _atom_site_label
 _atom_site_symmetry_multiplicity
 _atom_site_fract_x
 _atom_site_fract_y
 _atom_site_fract_z
 _atom_site_occupancy
  Lu  Lu0  1  1.00000002  0.40885902  0.40885903  1
  Lu  Lu1  1  -0.00000000  0.00000000  0.59114102  1
  Lu  Lu2  1  1.00000002  0.59114103  0.00000003  1
  Au  Au3  1  0.50000001  0.76509404  0.76509406  1
  Au  Au4  1  0.50000001  0.00000000  0.23490601  1
  Au  Au5  1  0.50000001  0.23490601  1.00000005  1
  Ge  Ge6  1  0.50000001  0.66666670  0.33333338  1
  Ge  Ge7  1  0.50000001  0.33333335  0.66666671  1
  Ge  Ge8  1  0.00000000  0.00000000  0.00000000  1
