# generated using pymatgen
data_Ga10(SeS)3
_symmetry_space_group_name_H-M   'P 1'
_cell_length_a   7.08468103
_cell_length_b   7.21020317
_cell_length_c   8.51179504
_cell_angle_alpha   90.00000000
_cell_angle_beta   90.00000000
_cell_angle_gamma   90.00000000
_symmetry_Int_Tables_number   1
_chemical_formula_structural   Ga10(SeS)3
_chemical_formula_sum   'Ga10 Se3 S3'
_cell_volume   434.79942639
_cell_formula_units_Z   1
loop_
 _symmetry_equiv_pos_site_id
 _symmetry_equiv_pos_as_xyz
  1  'x, y, z'
loop_
 _atom_site_type_symbol
 _atom_site_label
 _atom_site_symmetry_multiplicity
 _atom_site_fract_x
 _atom_site_fract_y
 _atom_site_fract_z
 _atom_site_occupancy
  S  S0  1  0.29611600  0.08136200  0.36027900  1
  Ga  Ga1  1  0.79611600  0.91863798  0.63972100  1
  S  S2  1  0.79611600  0.41863799  0.86027900  1
  S  S3  1  0.29611600  0.58136199  0.13972100  1
  Ga  Ga4  1  0.18461300  0.03201600  0.95179300  1
  Se  Se5  1  0.68461300  0.96798398  0.04820700  1
  Se  Se6  1  0.68461300  0.46798399  0.45179300  1
  Se  Se7  1  0.18461300  0.53201599  0.54820700  1
  Ga  Ga8  1  0.87564300  0.11301500  0.84079600  1
  Ga  Ga9  1  0.37564300  0.88698498  0.15920400  1
  Ga  Ga10  1  0.37564300  0.38698499  0.34079600  1
  Ga  Ga11  1  0.87564300  0.61301499  0.65920400  1
  Ga  Ga12  1  0.41009800  0.91388298  0.62225400  1
  Ga  Ga13  1  0.91009800  0.08611700  0.37774600  1
  Ga  Ga14  1  0.91009800  0.58611699  0.12225400  1
  Ga  Ga15  1  0.41009800  0.41388299  0.87774600  1
