# generated using pymatgen
data_Ho
_symmetry_space_group_name_H-M   'P 1'
_cell_length_a   5.76932478
_cell_length_b   7.24741793
_cell_length_c   7.24741793
_cell_angle_alpha   120.00000000
_cell_angle_beta   90.00000000
_cell_angle_gamma   90.00000000
_symmetry_Int_Tables_number   1
_chemical_formula_structural   Ho
_chemical_formula_sum   Ho8
_cell_volume   262.43528797
_cell_formula_units_Z   8
loop_
 _symmetry_equiv_pos_site_id
 _symmetry_equiv_pos_as_xyz
  1  'x, y, z'
loop_
 _atom_site_type_symbol
 _atom_site_label
 _atom_site_symmetry_multiplicity
 _atom_site_fract_x
 _atom_site_fract_y
 _atom_site_fract_z
 _atom_site_occupancy
  Ho  Ho0  1  0.75000003  0.33333334  0.66666666  1
  Ho  Ho1  1  0.25000001  0.66666667  0.33333333  1
  Ho  Ho2  1  0.25000001  0.16547900  0.33095800  1
  Ho  Ho3  1  0.25000001  0.66904200  0.83452099  1
  Ho  Ho4  1  0.25000001  0.16547900  0.83452100  1
  Ho  Ho5  1  0.75000003  0.83452100  0.66904199  1
  Ho  Ho6  1  0.75000003  0.33095800  0.16547900  1
  Ho  Ho7  1  0.75000003  0.83452100  0.16547899  1
