# generated using pymatgen
data_Cs3NaV2O8
_symmetry_space_group_name_H-M   'P 1'
_cell_length_a   6.00483799
_cell_length_b   6.00707912
_cell_length_c   7.79382324
_cell_angle_alpha   89.99787140
_cell_angle_beta   89.99008179
_cell_angle_gamma   119.96661377
_symmetry_Int_Tables_number   1
_chemical_formula_structural   Cs3NaV2O8
_chemical_formula_sum   'Cs3 Na1 V2 O8'
_cell_volume   243.55207154
_cell_formula_units_Z   1
loop_
 _symmetry_equiv_pos_site_id
 _symmetry_equiv_pos_as_xyz
  1  'x, y, z'
loop_
 _atom_site_type_symbol
 _atom_site_label
 _atom_site_symmetry_multiplicity
 _atom_site_fract_x
 _atom_site_fract_y
 _atom_site_fract_z
 _atom_site_occupancy
  Cs  Cs0  1  0.33333331  0.66666665  0.30866701  1
  Cs  Cs1  1  0.66666667  0.33333332  0.69133300  1
  Cs  Cs2  1  0.00000000  0.00000000  0.00000000  1
  Na  Na3  1  0.00000000  0.00000000  0.49999999  1
  V  V4  1  0.33333331  0.66684931  0.75617300  1
  V  V5  1  0.66666667  0.33315066  0.24382701  1
  O  O6  1  0.33338598  0.66692798  0.97726300  1
  O  O7  1  0.66666667  0.33312466  0.02273701  1
  O  O8  1  0.64922898  0.82464998  0.67950701  1
  O  O9  1  0.17535697  0.82471498  0.67940801  1
  O  O10  1  0.17527399  0.35078999  0.67953899  1
  O  O11  1  0.35077100  0.17534999  0.32049300  1
  O  O12  1  0.82464301  0.17528499  0.32059200  1
  O  O13  1  0.82472599  0.64920998  0.32046101  1
