# generated using pymatgen
data_HoGa3Co2
_symmetry_space_group_name_H-M   'P 1'
_cell_length_a   5.19831228
_cell_length_b   5.19831228
_cell_length_c   5.19831228
_cell_angle_alpha   60.00000000
_cell_angle_beta   60.00000000
_cell_angle_gamma   60.00000000
_symmetry_Int_Tables_number   1
_chemical_formula_structural   HoGa3Co2
_chemical_formula_sum   'Ho1 Ga3 Co2'
_cell_volume   99.32809339
_cell_formula_units_Z   1
loop_
 _symmetry_equiv_pos_site_id
 _symmetry_equiv_pos_as_xyz
  1  'x, y, z'
loop_
 _atom_site_type_symbol
 _atom_site_label
 _atom_site_symmetry_multiplicity
 _atom_site_fract_x
 _atom_site_fract_y
 _atom_site_fract_z
 _atom_site_occupancy
  Ga  Ga0  1  0.25000001  0.25000001  0.25000001  1
  Ho  Ho1  1  0.50000002  0.50000002  0.50000002  1
  Ga  Ga2  1  0.87500003  0.37500001  0.87500003  1
  Co  Co3  1  0.87500003  0.87500003  0.87500003  1
  Ga  Ga4  1  0.37500001  0.87500003  0.87500003  1
  Co  Co5  1  0.87500003  0.87500003  0.37500001  1
