# generated using pymatgen
data_Ta4GaCo7
_symmetry_space_group_name_H-M   'P 1'
_cell_length_a   4.89335012
_cell_length_b   4.89334965
_cell_length_c   7.74251699
_cell_angle_alpha   90.00000000
_cell_angle_beta   90.00000000
_cell_angle_gamma   120.00000000
_symmetry_Int_Tables_number   1
_chemical_formula_structural   Ta4GaCo7
_chemical_formula_sum   'Ta4 Ga1 Co7'
_cell_volume   160.55555600
_cell_formula_units_Z   1
loop_
 _symmetry_equiv_pos_site_id
 _symmetry_equiv_pos_as_xyz
  1  'x, y, z'
loop_
 _atom_site_type_symbol
 _atom_site_label
 _atom_site_symmetry_multiplicity
 _atom_site_fract_x
 _atom_site_fract_y
 _atom_site_fract_z
 _atom_site_occupancy
  Ta  Ta0  1  0.66666663  0.33333333  0.55843300  1
  Ta  Ta1  1  0.33333329  0.66666665  0.44156700  1
  Ta  Ta2  1  0.33333329  0.66666665  0.05843300  1
  Ta  Ta3  1  0.66666663  0.33333333  0.94156700  1
  Co  Co4  1  0.17144998  0.34289999  0.75000000  1
  Co  Co5  1  0.17144996  0.82854898  0.75000000  1
  Co  Co6  1  0.65709894  0.82854898  0.75000000  1
  Co  Co7  1  0.82854995  0.65709998  0.25000000  1
  Co  Co8  1  0.82854997  0.17145100  0.25000000  1
  Co  Co9  1  0.34290098  0.17145100  0.25000000  1
  Co  Co10  1  0.00000000  0.00000000  0.50000000  1
  Ga  Ga11  1  0.00000000  0.00000000  0.00000000  1
