# generated using pymatgen
data_NdCoGe
_symmetry_space_group_name_H-M   'P 1'
_cell_length_a   4.25145817
_cell_length_b   4.25145817
_cell_length_c   7.78803253
_cell_angle_alpha   105.83977509
_cell_angle_beta   105.83977509
_cell_angle_gamma   90.00000000
_symmetry_Int_Tables_number   1
_chemical_formula_structural   NdCoGe
_chemical_formula_sum   'Nd2 Co2 Ge2'
_cell_volume   129.85778819
_cell_formula_units_Z   2
loop_
 _symmetry_equiv_pos_site_id
 _symmetry_equiv_pos_as_xyz
  1  'x, y, z'
loop_
 _atom_site_type_symbol
 _atom_site_label
 _atom_site_symmetry_multiplicity
 _atom_site_fract_x
 _atom_site_fract_y
 _atom_site_fract_z
 _atom_site_occupancy
  Nd  Nd0  1  0.62503698  0.12503700  0.25007402  1
  Nd  Nd1  1  0.87503698  0.87503697  0.75007404  1
  Co  Co2  1  0.45850199  0.45850199  0.91700403  1
  Co  Co3  1  0.20850200  0.70850198  0.41700402  1
  Ge  Ge4  1  0.04146101  0.54146098  0.08292201  1
  Ge  Ge5  1  0.29146099  0.29146099  0.58292202  1
