# generated using pymatgen
data_BaInTe2
_symmetry_space_group_name_H-M   'P 1'
_cell_length_a   7.19058275
_cell_length_b   7.19058275
_cell_length_c   7.19058275
_cell_angle_alpha   107.37995911
_cell_angle_beta   107.37995911
_cell_angle_gamma   113.73993683
_symmetry_Int_Tables_number   1
_chemical_formula_structural   BaInTe2
_chemical_formula_sum   'Ba2 In2 Te4'
_cell_volume   284.99975970
_cell_formula_units_Z   2
loop_
 _symmetry_equiv_pos_site_id
 _symmetry_equiv_pos_as_xyz
  1  'x, y, z'
loop_
 _atom_site_type_symbol
 _atom_site_label
 _atom_site_symmetry_multiplicity
 _atom_site_fract_x
 _atom_site_fract_y
 _atom_site_fract_z
 _atom_site_occupancy
  Ba  Ba0  1  0.74999993  0.74999995  -0.00000008  1
  Ba  Ba1  1  0.24999998  0.24999998  -0.00000003  1
  In  In2  1  0.24999994  0.74999995  0.49999993  1
  In  In3  1  0.74999996  0.24999998  0.49999995  1
  Te  Te4  1  0.67740093  0.82259895  0.49999991  1
  Te  Te5  1  0.17740095  0.67740095  0.85480193  1
  Te  Te6  1  0.32259898  0.17740099  0.49999997  1
  Te  Te7  1  0.82259895  0.32259898  0.14519795  1
