# generated using pymatgen
data_GaF
_symmetry_space_group_name_H-M   'P 1'
_cell_length_a   2.73525596
_cell_length_b   3.23430109
_cell_length_c   5.06775522
_cell_angle_alpha   80.98857880
_cell_angle_beta   74.34355164
_cell_angle_gamma   64.98527527
_symmetry_Int_Tables_number   1
_chemical_formula_structural   GaF
_chemical_formula_sum   'Ga2 F2'
_cell_volume   39.07342089
_cell_formula_units_Z   2
loop_
 _symmetry_equiv_pos_site_id
 _symmetry_equiv_pos_as_xyz
  1  'x, y, z'
loop_
 _atom_site_type_symbol
 _atom_site_label
 _atom_site_symmetry_multiplicity
 _atom_site_fract_x
 _atom_site_fract_y
 _atom_site_fract_z
 _atom_site_occupancy
  Ga  Ga0  1  -0.00000000  0.50000002  0.50000000  1
  Ga  Ga1  1  0.00000000  0.00000000  0.00000000  1
  F  F2  1  0.41603501  0.91443104  0.25349898  1
  F  F3  1  0.58396501  0.08556900  0.74650101  1
