# generated using pymatgen
data_HoGa12
_symmetry_space_group_name_H-M   'P 1'
_cell_length_a   5.12134981
_cell_length_b   6.75916100
_cell_length_c   6.75916100
_cell_angle_alpha   81.74820709
_cell_angle_beta   67.73783875
_cell_angle_gamma   67.73783875
_symmetry_Int_Tables_number   1
_chemical_formula_structural   HoGa12
_chemical_formula_sum   'Ho1 Ga12'
_cell_volume   200.39433245
_cell_formula_units_Z   1
loop_
 _symmetry_equiv_pos_site_id
 _symmetry_equiv_pos_as_xyz
  1  'x, y, z'
loop_
 _atom_site_type_symbol
 _atom_site_label
 _atom_site_symmetry_multiplicity
 _atom_site_fract_x
 _atom_site_fract_y
 _atom_site_fract_z
 _atom_site_occupancy
  Ho  Ho0  1  0.00000000  0.00000000  0.00000000  1
  Ga  Ga1  1  0.00000002  0.34722400  0.65277601  1
  Ga  Ga2  1  1.00000006  0.65277600  0.34722403  1
  Ga  Ga3  1  0.34722404  0.65277600  0.65277602  1
  Ga  Ga4  1  0.65277603  0.34722400  0.34722402  1
  Ga  Ga5  1  0.50000005  0.78067600  0.21932402  1
  Ga  Ga6  1  0.50000002  0.21932400  0.78067602  1
  Ga  Ga7  1  0.28067602  0.21932400  0.21932401  1
  Ga  Ga8  1  0.71932406  0.78067600  0.78067603  1
  Ga  Ga9  1  0.50000004  0.50000000  0.00000002  1
  Ga  Ga10  1  0.00000003  0.50000000  0.00000000  1
  Ga  Ga11  1  1.00000002  0.00000000  0.50000004  1
  Ga  Ga12  1  0.50000001  0.00000000  0.50000002  1
