# generated using pymatgen
data_CsAg2F3
_symmetry_space_group_name_H-M   'P 1'
_cell_length_a   5.14882278
_cell_length_b   7.00863218
_cell_length_c   7.00863218
_cell_angle_alpha   100.88137817
_cell_angle_beta   90.00000000
_cell_angle_gamma   90.00000000
_symmetry_Int_Tables_number   1
_chemical_formula_structural   CsAg2F3
_chemical_formula_sum   'Cs2 Ag4 F6'
_cell_volume   248.36755778
_cell_formula_units_Z   2
loop_
 _symmetry_equiv_pos_site_id
 _symmetry_equiv_pos_as_xyz
  1  'x, y, z'
loop_
 _atom_site_type_symbol
 _atom_site_label
 _atom_site_symmetry_multiplicity
 _atom_site_fract_x
 _atom_site_fract_y
 _atom_site_fract_z
 _atom_site_occupancy
  Cs  Cs0  1  0.25000001  0.65841898  0.34158099  1
  Cs  Cs1  1  0.75000003  0.34158099  0.65841898  1
  Ag  Ag2  1  -0.00000000  0.14237700  0.14237700  1
  Ag  Ag3  1  0.50000002  0.14237700  0.14237700  1
  Ag  Ag4  1  -0.00000000  0.85762297  0.85762297  1
  Ag  Ag5  1  0.50000002  0.85762297  0.85762297  1
  F  F6  1  0.25000001  0.11232400  0.88767597  1
  F  F7  1  0.75000003  0.88767597  0.11232400  1
  F  F8  1  0.25000001  0.16467099  0.38659999  1
  F  F9  1  0.75000003  0.38659999  0.16467099  1
  F  F10  1  0.75000003  0.83532897  0.61339998  1
  F  F11  1  0.25000001  0.61339998  0.83532897  1
