# generated using pymatgen
data_Bi2Br3
_symmetry_space_group_name_H-M   'P 1'
_cell_length_a   4.04110193
_cell_length_b   11.37704468
_cell_length_c   11.81657887
_cell_angle_alpha   90.00000000
_cell_angle_beta   90.00000000
_cell_angle_gamma   90.00000000
_symmetry_Int_Tables_number   1
_chemical_formula_structural   Bi2Br3
_chemical_formula_sum   'Bi8 Br12'
_cell_volume   543.27663389
_cell_formula_units_Z   4
loop_
 _symmetry_equiv_pos_site_id
 _symmetry_equiv_pos_as_xyz
  1  'x, y, z'
loop_
 _atom_site_type_symbol
 _atom_site_label
 _atom_site_symmetry_multiplicity
 _atom_site_fract_x
 _atom_site_fract_y
 _atom_site_fract_z
 _atom_site_occupancy
  Bi  Bi0  1  0.75000001  0.49850701  0.67257901  1
  Bi  Bi1  1  0.75000001  0.00149400  0.17257900  1
  Bi  Bi2  1  0.25000000  0.49260401  0.30943900  1
  Bi  Bi3  1  0.25000000  0.00739600  0.80943901  1
  Bi  Bi4  1  0.25000000  0.18517501  0.49810201  1
  Bi  Bi5  1  0.25000000  0.31482501  0.99810201  1
  Bi  Bi6  1  0.75000001  0.81535202  0.52000801  1
  Bi  Bi7  1  0.75000001  0.68464802  0.02000800  1
  Br  Br8  1  0.25000000  0.94788103  0.37095000  1
  Br  Br9  1  0.25000000  0.55211902  0.87095001  1
  Br  Br10  1  0.25000000  0.29001301  0.73434301  1
  Br  Br11  1  0.25000000  0.20998701  0.23434300  1
  Br  Br12  1  0.75000001  0.70510802  0.27579000  1
  Br  Br13  1  0.75000001  0.79489202  0.77579001  1
  Br  Br14  1  0.25000000  0.62802302  0.54055301  1
  Br  Br15  1  0.25000000  0.87197702  0.04055300  1
  Br  Br16  1  0.75000001  0.36938501  0.45350701  1
  Br  Br17  1  0.75000001  0.13061500  0.95350701  1
  Br  Br18  1  0.75000001  0.05100900  0.62472801  1
  Br  Br19  1  0.75000001  0.44899101  0.12472800  1
