# generated using pymatgen
data_CsTe3Au4
_symmetry_space_group_name_H-M   'P 1'
_cell_length_a   4.66269016
_cell_length_b   4.66269016
_cell_length_c   9.87284660
_cell_angle_alpha   90.00000000
_cell_angle_beta   90.00000000
_cell_angle_gamma   90.00000000
_symmetry_Int_Tables_number   1
_chemical_formula_structural   CsTe3Au4
_chemical_formula_sum   'Cs1 Te3 Au4'
_cell_volume   214.64239428
_cell_formula_units_Z   1
loop_
 _symmetry_equiv_pos_site_id
 _symmetry_equiv_pos_as_xyz
  1  'x, y, z'
loop_
 _atom_site_type_symbol
 _atom_site_label
 _atom_site_symmetry_multiplicity
 _atom_site_fract_x
 _atom_site_fract_y
 _atom_site_fract_z
 _atom_site_occupancy
  Au  Au0  1  0.00000000  0.49999998  0.64218503  1
  Au  Au1  1  0.49999998  0.00000000  0.35781501  1
  Au  Au2  1  0.49999998  0.49999998  -0.00000000  1
  Au  Au3  1  0.00000000  0.00000000  0.00000000  1
  Te  Te4  1  0.00000000  0.49999998  0.18711001  1
  Cs  Cs5  1  0.49999998  0.00000000  0.81289003  1
  Te  Te6  1  0.49999998  0.49999998  0.50000002  1
  Te  Te7  1  0.00000000  0.00000000  0.50000002  1
