# generated using pymatgen
data_HoGe2
_symmetry_space_group_name_H-M   'P 1'
_cell_length_a   4.26802778
_cell_length_b   4.26802826
_cell_length_c   7.31193399
_cell_angle_alpha   90.00000000
_cell_angle_beta   90.00000000
_cell_angle_gamma   120.00000000
_symmetry_Int_Tables_number   1
_chemical_formula_structural   HoGe2
_chemical_formula_sum   'Ho2 Ge4'
_cell_volume   115.34995198
_cell_formula_units_Z   2
loop_
 _symmetry_equiv_pos_site_id
 _symmetry_equiv_pos_as_xyz
  1  'x, y, z'
loop_
 _atom_site_type_symbol
 _atom_site_label
 _atom_site_symmetry_multiplicity
 _atom_site_fract_x
 _atom_site_fract_y
 _atom_site_fract_z
 _atom_site_occupancy
  Ho  Ho0  1  0.00000000  0.00000000  0.24795100  1
  Ho  Ho1  1  0.00000000  0.00000000  0.74795100  1
  Ge  Ge2  1  0.33333338  0.66666668  0.47043300  1
  Ge  Ge3  1  0.66666671  0.33333334  0.97043300  1
  Ge  Ge4  1  0.66666671  0.33333334  0.52111700  1
  Ge  Ge5  1  0.33333338  0.66666668  0.02111700  1
