# generated using pymatgen
data_LiWO3
_symmetry_space_group_name_H-M   'P 1'
_cell_length_a   4.97597504
_cell_length_b   5.10328913
_cell_length_c   5.43285370
_cell_angle_alpha   62.24145126
_cell_angle_beta   63.85921097
_cell_angle_gamma   60.87878418
_symmetry_Int_Tables_number   1
_chemical_formula_structural   LiWO3
_chemical_formula_sum   'Li2 W2 O6'
_cell_volume   102.48717780
_cell_formula_units_Z   2
loop_
 _symmetry_equiv_pos_site_id
 _symmetry_equiv_pos_as_xyz
  1  'x, y, z'
loop_
 _atom_site_type_symbol
 _atom_site_label
 _atom_site_symmetry_multiplicity
 _atom_site_fract_x
 _atom_site_fract_y
 _atom_site_fract_z
 _atom_site_occupancy
  W  W0  1  0.64802997  0.65974201  0.04793903  1
  W  W1  1  0.35196998  0.34025800  0.95206103  1
  Li  Li2  1  0.85143496  0.85237401  0.44382504  1
  Li  Li3  1  0.14856499  0.14762600  0.55617502  1
  O  O4  1  0.26943597  0.93888001  0.23742302  1
  O  O5  1  0.73056398  0.06112000  0.76257704  1
  O  O6  1  0.45569397  0.73104901  0.76285903  1
  O  O7  1  0.54430598  0.26895100  0.23714102  1
  O  O8  1  0.93031097  0.55692801  0.23860304  1
  O  O9  1  0.06968899  0.44307200  0.76139702  1
