# generated using pymatgen
data_Ga
_symmetry_space_group_name_H-M   'P 1'
_cell_length_a   4.68144989
_cell_length_b   6.61575413
_cell_length_c   8.39228439
_cell_angle_alpha   90.00000000
_cell_angle_beta   90.00000000
_cell_angle_gamma   90.00000000
_symmetry_Int_Tables_number   1
_chemical_formula_structural   Ga
_chemical_formula_sum   Ga12
_cell_volume   259.92013751
_cell_formula_units_Z   12
loop_
 _symmetry_equiv_pos_site_id
 _symmetry_equiv_pos_as_xyz
  1  'x, y, z'
loop_
 _atom_site_type_symbol
 _atom_site_label
 _atom_site_symmetry_multiplicity
 _atom_site_fract_x
 _atom_site_fract_y
 _atom_site_fract_z
 _atom_site_occupancy
  Ga  Ga0  1  0.75000002  0.84711098  0.92408596  1
  Ga  Ga1  1  0.25000001  0.15288900  0.07591400  1
  Ga  Ga2  1  0.25000001  0.65288899  0.42408598  1
  Ga  Ga3  1  0.75000002  0.34711099  0.57591397  1
  Ga  Ga4  1  0.75000002  0.98216298  0.31633399  1
  Ga  Ga5  1  0.25000001  0.01783700  0.68366597  1
  Ga  Ga6  1  0.25000001  0.51783699  0.81633396  1
  Ga  Ga7  1  0.75000002  0.48216299  0.18366599  1
  Ga  Ga8  1  0.75000002  0.75752099  0.60111497  1
  Ga  Ga9  1  0.25000001  0.24247900  0.39888498  1
  Ga  Ga10  1  0.25000001  0.74247899  0.10111500  1
  Ga  Ga11  1  0.75000002  0.25752100  0.89888496  1
