# generated using pymatgen
data_CsLiAuSe3
_symmetry_space_group_name_H-M   'P 1'
_cell_length_a   4.32890892
_cell_length_b   5.81748009
_cell_length_c   5.81748056
_cell_angle_alpha   120.00000000
_cell_angle_beta   90.00000000
_cell_angle_gamma   90.00000000
_symmetry_Int_Tables_number   1
_chemical_formula_structural   CsLiAuSe3
_chemical_formula_sum   'Cs1 Li1 Au1 Se3'
_cell_volume   126.87583881
_cell_formula_units_Z   1
loop_
 _symmetry_equiv_pos_site_id
 _symmetry_equiv_pos_as_xyz
  1  'x, y, z'
loop_
 _atom_site_type_symbol
 _atom_site_label
 _atom_site_symmetry_multiplicity
 _atom_site_fract_x
 _atom_site_fract_y
 _atom_site_fract_z
 _atom_site_occupancy
  Cs  Cs0  1  0.82904502  0.00000000  -0.00000000  1
  Se  Se1  1  0.49953001  0.66666667  0.33333336  1
  Se  Se2  1  0.49953001  0.33333334  0.66666667  1
  Li  Li3  1  0.00063300  0.50000001  0.50000002  1
  Se  Se4  1  0.00063300  0.50000001  0.00000003  1
  Au  Au5  1  0.00063300  0.00000000  0.49999999  1
