# generated using pymatgen
data_Ho2Mg2Ga13
_symmetry_space_group_name_H-M   'P 1'
_cell_length_a   7.22775602
_cell_length_b   7.22775602
_cell_length_c   7.22775602
_cell_angle_alpha   109.47122192
_cell_angle_beta   109.47122192
_cell_angle_gamma   109.47122192
_symmetry_Int_Tables_number   1
_chemical_formula_structural   Ho2Mg2Ga13
_chemical_formula_sum   'Ho2 Mg2 Ga13'
_cell_volume   290.66219000
_cell_formula_units_Z   1
loop_
 _symmetry_equiv_pos_site_id
 _symmetry_equiv_pos_as_xyz
  1  'x, y, z'
loop_
 _atom_site_type_symbol
 _atom_site_label
 _atom_site_symmetry_multiplicity
 _atom_site_fract_x
 _atom_site_fract_y
 _atom_site_fract_z
 _atom_site_occupancy
  Ho  Ho0  1  0.50000002  0.00000000  0.00000001  1
  Ho  Ho1  1  0.00000003  0.50000003  1.00000006  1
  Mg  Mg2  1  0.50000005  0.50000003  0.50000005  1
  Mg  Mg3  1  0.00000000  0.00000000  0.50000001  1
  Ga  Ga4  1  0.31666003  0.31666002  0.00000003  1
  Ga  Ga5  1  0.68334007  0.68334005  0.00000005  1
  Ga  Ga6  1  0.68334002  0.00000000  0.68334003  1
  Ga  Ga7  1  0.31666001  0.00000000  0.31666002  1
  Ga  Ga8  1  0.00000004  0.68334005  0.68334006  1
  Ga  Ga9  1  0.00000002  0.31666002  0.31666003  1
  Ga  Ga10  1  0.25000006  0.75000005  0.50000006  1
  Ga  Ga11  1  0.50000003  0.25000002  0.75000005  1
  Ga  Ga12  1  0.25000004  0.50000003  0.75000005  1
  Ga  Ga13  1  0.75000006  0.50000003  0.25000005  1
  Ga  Ga14  1  0.75000004  0.25000002  0.50000005  1
  Ga  Ga15  1  0.00000000  0.00000000  0.00000000  1
  Ga  Ga16  1  0.50000007  0.75000005  0.25000006  1
