# generated using pymatgen
data_La4Mg3RuO12
_symmetry_space_group_name_H-M   'P 1'
_cell_length_a   5.61239576
_cell_length_b   5.66262913
_cell_length_c   7.92762232
_cell_angle_alpha   90.00000000
_cell_angle_beta   89.88650513
_cell_angle_gamma   90.00000000
_symmetry_Int_Tables_number   1
_chemical_formula_structural   La4Mg3RuO12
_chemical_formula_sum   'La4 Mg3 Ru1 O12'
_cell_volume   251.94660250
_cell_formula_units_Z   1
loop_
 _symmetry_equiv_pos_site_id
 _symmetry_equiv_pos_as_xyz
  1  'x, y, z'
loop_
 _atom_site_type_symbol
 _atom_site_label
 _atom_site_symmetry_multiplicity
 _atom_site_fract_x
 _atom_site_fract_y
 _atom_site_fract_z
 _atom_site_occupancy
  La  La0  1  0.49489102  0.21539200  0.75064600  1
  La  La1  1  0.99489104  0.78460798  0.25064596  1
  La  La2  1  0.51041202  0.29767299  0.24818098  1
  La  La3  1  0.01041200  0.70232698  0.74818102  1
  Mg  Mg4  1  0.50033302  0.75409498  0.99983301  1
  Mg  Mg5  1  0.00033300  0.24590499  0.49983301  1
  Ru  Ru6  1  0.50038702  0.75192798  0.50022999  1
  Mg  Mg7  1  0.00038700  0.24807199  0.00023000  1
  O  O8  1  0.58512002  0.76230598  0.74296400  1
  O  O9  1  0.08512000  0.23769399  0.24296400  1
  O  O10  1  0.43572602  0.72933598  0.25686099  1
  O  O11  1  0.93572604  0.27066399  0.75686098  1
  O  O12  1  0.69780903  0.03876200  0.45681198  1
  O  O13  1  0.19780901  0.96123798  0.95681202  1
  O  O14  1  0.28706601  0.47461899  0.53802300  1
  O  O15  1  0.78706603  0.52538099  0.03802297  1
  O  O16  1  0.21308701  0.95045598  0.54239301  1
  O  O17  1  0.71308703  0.04954400  0.04239297  1
  O  O18  1  0.77516703  0.53695199  0.46405798  1
  O  O19  1  0.27516701  0.46304799  0.96405802  1
