# generated using pymatgen
data_Cs3I11Cl6
_symmetry_space_group_name_H-M   'P 1'
_cell_length_a   6.59860802
_cell_length_b   12.86445332
_cell_length_c   13.46843243
_cell_angle_alpha   118.45837402
_cell_angle_beta   90.00000000
_cell_angle_gamma   90.00000000
_symmetry_Int_Tables_number   1
_chemical_formula_structural   Cs3I11Cl6
_chemical_formula_sum   'Cs3 I11 Cl6'
_cell_volume   1005.14886618
_cell_formula_units_Z   1
loop_
 _symmetry_equiv_pos_site_id
 _symmetry_equiv_pos_as_xyz
  1  'x, y, z'
loop_
 _atom_site_type_symbol
 _atom_site_label
 _atom_site_symmetry_multiplicity
 _atom_site_fract_x
 _atom_site_fract_y
 _atom_site_fract_z
 _atom_site_occupancy
  I  I0  1  0.07316200  0.86145400  0.25733105  1
  Cl  Cl1  1  0.92683800  0.13854600  0.74266900  1
  Cl  Cl2  1  0.92683800  0.36145400  0.25733102  1
  Cl  Cl3  1  0.07316200  0.63854600  0.74266903  1
  I  I4  1  0.92001000  0.66268100  0.61459103  1
  Cs  Cs5  1  0.08306500  0.48933300  0.22623603  1
  Cl  Cl6  1  0.07507200  0.69636100  0.10404004  1
  I  I7  1  0.07999000  0.33731900  0.38540902  1
  I  I8  1  0.08306500  0.01066700  0.77376400  1
  Cl  Cl9  1  0.62298300  0.42067300  0.31068802  1
  I  I10  1  0.37701700  0.57932700  0.68931203  1
  I  I11  1  0.07999000  0.16268100  0.61459100  1
  I  I12  1  0.62298300  0.07932700  0.68931200  1
  I  I13  1  0.92492800  0.30363900  0.89596001  1
  Cl  Cl14  1  0.37701700  0.92067300  0.31068805  1
  Cs  Cs15  1  0.91693500  0.98933300  0.22623605  1
  I  I16  1  0.92001000  0.83731900  0.38540904  1
  I  I17  1  0.92492800  0.19636100  0.10404001  1
  I  I18  1  0.07507200  0.80363900  0.89596004  1
  Cs  Cs19  1  0.91693500  0.51066700  0.77376402  1
