# generated using pymatgen
data_Pr3(InGe2)2
_symmetry_space_group_name_H-M   'P 1'
_cell_length_a   4.03622723
_cell_length_b   7.77332401
_cell_length_c   7.77332401
_cell_angle_alpha   120.00000000
_cell_angle_beta   90.00000000
_cell_angle_gamma   90.00000000
_symmetry_Int_Tables_number   1
_chemical_formula_structural   Pr3(InGe2)2
_chemical_formula_sum   'Pr3 In2 Ge4'
_cell_volume   211.21257950
_cell_formula_units_Z   1
loop_
 _symmetry_equiv_pos_site_id
 _symmetry_equiv_pos_as_xyz
  1  'x, y, z'
loop_
 _atom_site_type_symbol
 _atom_site_label
 _atom_site_symmetry_multiplicity
 _atom_site_fract_x
 _atom_site_fract_y
 _atom_site_fract_z
 _atom_site_occupancy
  Pr  Pr0  1  0.49999997  0.40377700  0.40377700  1
  Pr  Pr1  1  0.49999997  0.59622300  -0.00000000  1
  Pr  Pr2  1  0.49999997  0.00000000  0.59622300  1
  In  In3  1  0.99999994  0.26038200  -0.00000000  1
  In  In4  1  0.00000000  0.00000000  0.26038200  1
  Ge  Ge5  1  0.99999994  0.73961800  0.73961799  1
  Ge  Ge6  1  0.00000000  0.66666666  0.33333333  1
  Ge  Ge7  1  0.99999994  0.33333333  0.66666666  1
  Ge  Ge8  1  0.49999997  0.00000000  -0.00000000  1
