# generated using pymatgen
data_MgZn2
_symmetry_space_group_name_H-M   'P 1'
_cell_length_a   5.07842064
_cell_length_b   5.07842064
_cell_length_c   5.07842112
_cell_angle_alpha   65.39225769
_cell_angle_beta   65.39225769
_cell_angle_gamma   65.39226532
_symmetry_Int_Tables_number   1
_chemical_formula_structural   MgZn2
_chemical_formula_sum   'Mg2 Zn4'
_cell_volume   103.48014778
_cell_formula_units_Z   2
loop_
 _symmetry_equiv_pos_site_id
 _symmetry_equiv_pos_as_xyz
  1  'x, y, z'
loop_
 _atom_site_type_symbol
 _atom_site_label
 _atom_site_symmetry_multiplicity
 _atom_site_fract_x
 _atom_site_fract_y
 _atom_site_fract_z
 _atom_site_occupancy
  Mg  Mg0  1  0.37205405  0.37205400  0.37205393  1
  Zn  Zn1  1  0.62794609  0.62794599  0.62794588  1
  Zn  Zn2  1  0.00000000  0.00000000  0.00000000  1
  Mg  Mg3  1  0.50000012  0.99999999  -0.00000011  1
  Zn  Zn4  1  0.00000006  0.50000000  -0.00000004  1
  Zn  Zn5  1  0.00000000  0.00000000  0.49999998  1
