# generated using pymatgen
data_H2(BrO)3
_symmetry_space_group_name_H-M   'P 1'
_cell_length_a   5.49760580
_cell_length_b   7.50470304
_cell_length_c   8.52882004
_cell_angle_alpha   90.00000000
_cell_angle_beta   90.00000000
_cell_angle_gamma   90.00000000
_symmetry_Int_Tables_number   1
_chemical_formula_structural   H2(BrO)3
_chemical_formula_sum   'H4 Br6 O6'
_cell_volume   351.88119564
_cell_formula_units_Z   2
loop_
 _symmetry_equiv_pos_site_id
 _symmetry_equiv_pos_as_xyz
  1  'x, y, z'
loop_
 _atom_site_type_symbol
 _atom_site_label
 _atom_site_symmetry_multiplicity
 _atom_site_fract_x
 _atom_site_fract_y
 _atom_site_fract_z
 _atom_site_occupancy
  O  O0  1  0.25304801  0.63696100  0.13080600  1
  O  O1  1  0.25304801  0.63696100  0.86919400  1
  O  O2  1  0.74695203  0.13696100  0.86919400  1
  H  H3  1  0.74695203  0.13696100  0.13080600  1
  Br  Br4  1  0.99313804  0.57691200  0.23763900  1
  Br  Br5  1  0.99313804  0.57691200  0.76236100  1
  Br  Br6  1  0.00686200  0.07691200  0.76236100  1
  Br  Br7  1  0.00686200  0.07691200  0.23763900  1
  O  O8  1  0.94868503  0.57256500  0.00000000  1
  O  O9  1  0.05131500  0.07256500  -0.00000000  1
  Br  Br10  1  0.65473802  0.50555600  -0.00000000  1
  Br  Br11  1  0.34526201  0.00555600  -0.00000000  1
  H  H12  1  0.07472400  0.60016600  0.13360200  1
  H  H13  1  0.07472400  0.60016600  0.86639800  1
  H  H14  1  0.92527603  0.10016600  0.86639800  1
  O  O15  1  0.92527603  0.10016600  0.13360200  1
