# generated using pymatgen
data_Ga5Se9
_symmetry_space_group_name_H-M   'P 1'
_cell_length_a   7.20111179
_cell_length_b   7.20111179
_cell_length_c   7.20111179
_cell_angle_alpha   60.00000000
_cell_angle_beta   60.00000000
_cell_angle_gamma   60.00000000
_symmetry_Int_Tables_number   1
_chemical_formula_structural   Ga5Se9
_chemical_formula_sum   'Ga5 Se9'
_cell_volume   264.04847384
_cell_formula_units_Z   1
loop_
 _symmetry_equiv_pos_site_id
 _symmetry_equiv_pos_as_xyz
  1  'x, y, z'
loop_
 _atom_site_type_symbol
 _atom_site_label
 _atom_site_symmetry_multiplicity
 _atom_site_fract_x
 _atom_site_fract_y
 _atom_site_fract_z
 _atom_site_occupancy
  Ga  Ga0  1  0.88182700  0.88182700  0.35451900  1
  Se  Se1  1  0.88182700  0.88182700  0.88182700  1
  Ga  Ga2  1  0.88182700  0.35451900  0.88182700  1
  Ga  Ga3  1  0.35451900  0.88182700  0.88182700  1
  Ga  Ga4  1  0.50000000  0.50000000  0.50000000  1
  Ga  Ga5  1  0.25000000  0.25000000  0.25000000  1
  Se  Se6  1  0.11298100  0.11298200  0.66105500  1
  Se  Se7  1  0.11298100  0.11298200  0.11298200  1
  Se  Se8  1  0.11298100  0.66105500  0.11298200  1
  Se  Se9  1  0.66105400  0.11298200  0.11298200  1
  Se  Se10  1  0.63346900  0.63346900  0.09959300  1
  Se  Se11  1  0.63346900  0.63346900  0.63346900  1
  Se  Se12  1  0.63346900  0.09959300  0.63346900  1
  Se  Se13  1  0.09959300  0.63346900  0.63346900  1
