# generated using pymatgen
data_Hf3Ga7Pd2
_symmetry_space_group_name_H-M   'P 1'
_cell_length_a   5.09285259
_cell_length_b   5.09285307
_cell_length_c   8.27425575
_cell_angle_alpha   90.00000000
_cell_angle_beta   90.00000000
_cell_angle_gamma   120.00000000
_symmetry_Int_Tables_number   1
_chemical_formula_structural   Hf3Ga7Pd2
_chemical_formula_sum   'Hf3 Ga7 Pd2'
_cell_volume   185.85824212
_cell_formula_units_Z   1
loop_
 _symmetry_equiv_pos_site_id
 _symmetry_equiv_pos_as_xyz
  1  'x, y, z'
loop_
 _atom_site_type_symbol
 _atom_site_label
 _atom_site_symmetry_multiplicity
 _atom_site_fract_x
 _atom_site_fract_y
 _atom_site_fract_z
 _atom_site_occupancy
  Hf  Hf0  1  0.66666668  0.33333334  0.56220102  1
  Hf  Hf1  1  0.33333335  0.66666669  0.43779901  1
  Hf  Hf2  1  0.33333335  0.66666669  0.06220100  1
  Ga  Ga3  1  0.66666668  0.33333334  0.93779903  1
  Pd  Pd4  1  0.00000000  0.00000000  0.50000001  1
  Ga  Ga5  1  0.00000000  0.00000000  0.00000000  1
  Ga  Ga6  1  0.16609001  0.33218001  0.75000002  1
  Ga  Ga7  1  0.16609002  0.83391103  0.75000002  1
  Ga  Ga8  1  0.66782103  0.83391103  0.75000002  1
  Ga  Ga9  1  0.83391003  0.66782002  0.25000001  1
  Pd  Pd10  1  0.83391002  0.16608901  0.25000001  1
  Ga  Ga11  1  0.33217901  0.16608901  0.25000001  1
