# generated using pymatgen
data_Ho2Co6Ge11C
_symmetry_space_group_name_H-M   'P 1'
_cell_length_a   6.32294941
_cell_length_b   6.37140703
_cell_length_c   6.37140703
_cell_angle_alpha   83.39731598
_cell_angle_beta   83.31188965
_cell_angle_gamma   83.31188965
_symmetry_Int_Tables_number   1
_chemical_formula_structural   Ho2Co6Ge11C
_chemical_formula_sum   'Ho2 Co6 Ge11 C1'
_cell_volume   251.85564214
_cell_formula_units_Z   1
loop_
 _symmetry_equiv_pos_site_id
 _symmetry_equiv_pos_as_xyz
  1  'x, y, z'
loop_
 _atom_site_type_symbol
 _atom_site_label
 _atom_site_symmetry_multiplicity
 _atom_site_fract_x
 _atom_site_fract_y
 _atom_site_fract_z
 _atom_site_occupancy
  Ho  Ho0  1  0.35198999  0.34269201  0.34269201  1
  Ho  Ho1  1  0.64800998  0.65730802  0.65730802  1
  Ge  Ge2  1  0.09816300  0.09705700  0.09705700  1
  Ge  Ge3  1  0.90183697  0.90294302  0.90294303  1
  Co  Co4  1  0.14965099  0.65425402  0.65425403  1
  Ge  Ge5  1  0.65136098  0.14792200  0.65730201  1
  Ge  Ge6  1  0.65136098  0.65730202  0.14792201  1
  Co  Co7  1  0.85034898  0.34574601  0.34574601  1
  Ge  Ge8  1  0.34863898  0.85207802  0.34269802  1
  Ge  Ge9  1  0.34863899  0.34269801  0.85207803  1
  Co  Co10  1  -0.00000000  0.28071601  0.71928402  1
  Ge  Ge11  1  0.71522599  0.00288400  0.28565500  1
  Ge  Ge12  1  0.28477399  0.71434502  0.99711604  1
  Co  Co13  1  0.28477398  0.99711603  0.71434504  1
  Co  Co14  1  0.71522598  0.28565501  0.00288400  1
  Co  Co15  1  -0.00000001  0.71928402  0.28071602  1
  Ge  Ge16  1  0.49999999  0.00000000  -0.00000001  1
  Ge  Ge17  1  -0.00000001  0.50000001  0.00000001  1
  Ge  Ge18  1  0.00000000  0.00000000  0.50000001  1
  C  C19  1  -0.00000001  0.50000001  0.50000002  1
