# generated using pymatgen
data_Ba2Ga(CoGe)4
_symmetry_space_group_name_H-M   'P 1'
_cell_length_a   4.04050207
_cell_length_b   6.58098888
_cell_length_c   8.84072399
_cell_angle_alpha   76.13945007
_cell_angle_beta   76.79025269
_cell_angle_gamma   72.12249756
_symmetry_Int_Tables_number   1
_chemical_formula_structural   Ba2Ga(CoGe)4
_chemical_formula_sum   'Ba2 Ga1 Co4 Ge4'
_cell_volume   214.13687591
_cell_formula_units_Z   1
loop_
 _symmetry_equiv_pos_site_id
 _symmetry_equiv_pos_as_xyz
  1  'x, y, z'
loop_
 _atom_site_type_symbol
 _atom_site_label
 _atom_site_symmetry_multiplicity
 _atom_site_fract_x
 _atom_site_fract_y
 _atom_site_fract_z
 _atom_site_occupancy
  Ba  Ba0  1  0.17768693  0.78956901  0.85505696  1
  Ba  Ba1  1  0.82231297  0.21043100  0.14494299  1
  Co  Co2  1  0.03486295  0.62750200  0.30277199  1
  Co  Co3  1  0.96513696  0.37249800  0.69722796  1
  Co  Co4  1  0.33605792  0.90356001  0.42432398  1
  Co  Co5  1  0.66394198  0.09644000  0.57567597  1
  Ga  Ga6  1  0.49999995  0.50000000  0.49999997  1
  Ge  Ge7  1  0.85797793  0.73219301  0.55185097  1
  Ge  Ge8  1  0.14202198  0.26780700  0.44814898  1
  Ge  Ge9  1  0.46836697  0.25469500  0.80857096  1
  Ge  Ge10  1  0.53163293  0.74530501  0.19142899  1
