# generated using pymatgen
data_Ga
_symmetry_space_group_name_H-M   'P 1'
_cell_length_a   6.66120768
_cell_length_b   6.66120768
_cell_length_c   6.66120768
_cell_angle_alpha   109.47122192
_cell_angle_beta   109.47122192
_cell_angle_gamma   109.47122192
_symmetry_Int_Tables_number   1
_chemical_formula_structural   Ga
_chemical_formula_sum   Ga14
_cell_volume   227.52913199
_cell_formula_units_Z   14
loop_
 _symmetry_equiv_pos_site_id
 _symmetry_equiv_pos_as_xyz
  1  'x, y, z'
loop_
 _atom_site_type_symbol
 _atom_site_label
 _atom_site_symmetry_multiplicity
 _atom_site_fract_x
 _atom_site_fract_y
 _atom_site_fract_z
 _atom_site_occupancy
  Ga  Ga0  1  0.50000004  0.64863202  0.50000004  1
  Ga  Ga1  1  0.64863206  1.00000003  1.00000006  1
  Ga  Ga2  1  0.00000003  0.50000001  0.64863202  1
  Ga  Ga3  1  0.85136805  0.85136802  0.35136806  1
  Ga  Ga4  1  0.14863206  1.00000003  1.00000005  1
  Ga  Ga5  1  0.35136802  0.35136801  0.85136802  1
  Ga  Ga6  1  0.50000001  0.14863200  0.50000001  1
  Ga  Ga7  1  1.00000003  0.50000001  0.14863205  1
  Ga  Ga8  1  0.87500001  0.12500000  0.75000002  1
  Ga  Ga9  1  0.25000005  0.87500002  0.62500005  1
  Ga  Ga10  1  0.75000004  0.62500002  0.87500004  1
  Ga  Ga11  1  0.62500002  0.37500001  0.25000003  1
  Ga  Ga12  1  0.12500002  0.25000001  0.37500001  1
  Ga  Ga13  1  0.37500005  0.75000002  0.12500005  1
