# generated using pymatgen
data_BaNa5P2S7N
_symmetry_space_group_name_H-M   'P 1'
_cell_length_a   5.97102118
_cell_length_b   7.57406139
_cell_length_c   7.57406139
_cell_angle_alpha   101.10009003
_cell_angle_beta   90.00000000
_cell_angle_gamma   90.00000000
_symmetry_Int_Tables_number   1
_chemical_formula_structural   BaNa5P2S7N
_chemical_formula_sum   'Ba1 Na5 P2 S7 N1'
_cell_volume   336.12798483
_cell_formula_units_Z   1
loop_
 _symmetry_equiv_pos_site_id
 _symmetry_equiv_pos_as_xyz
  1  'x, y, z'
loop_
 _atom_site_type_symbol
 _atom_site_label
 _atom_site_symmetry_multiplicity
 _atom_site_fract_x
 _atom_site_fract_y
 _atom_site_fract_z
 _atom_site_occupancy
  Ba  Ba0  1  0.74670898  0.68163602  0.91545801  1
  Na  Na1  1  0.29481099  0.36910601  0.63089401  1
  Na  Na2  1  0.79481098  0.63089402  0.36910600  1
  Na  Na3  1  0.74670898  0.08454200  0.31836401  1
  Na  Na4  1  0.24670899  0.31836401  0.08454199  1
  Na  Na5  1  0.24670899  0.91545802  0.68163600  1
  P  P6  1  0.85442997  0.20575001  0.79425002  1
  P  P7  1  0.35442999  0.79425002  0.20574999  1
  S  S8  1  0.72883798  0.31075201  0.04502499  1
  S  S9  1  0.76878198  0.37909101  0.62090901  1
  S  S10  1  0.26878199  0.62090902  0.37909100  1
  S  S11  1  0.22883799  0.68924802  0.95497501  1
  S  S12  1  0.72883798  0.95497503  0.68924800  1
  S  S13  1  0.22883799  0.04502500  0.31075201  1
  S  S14  1  0.11278400  0.19695401  0.80304602  1
  N  N15  1  0.61278498  0.80304602  0.19695399  1
