# generated using pymatgen
data_Cs
_symmetry_space_group_name_H-M   'P 1'
_cell_length_a   8.65733528
_cell_length_b   8.65733528
_cell_length_c   8.91478157
_cell_angle_alpha   90.00000000
_cell_angle_beta   90.00000000
_cell_angle_gamma   117.66698456
_symmetry_Int_Tables_number   1
_chemical_formula_structural   Cs
_chemical_formula_sum   Cs8
_cell_volume   591.76171681
_cell_formula_units_Z   8
loop_
 _symmetry_equiv_pos_site_id
 _symmetry_equiv_pos_as_xyz
  1  'x, y, z'
loop_
 _atom_site_type_symbol
 _atom_site_label
 _atom_site_symmetry_multiplicity
 _atom_site_fract_x
 _atom_site_fract_y
 _atom_site_fract_z
 _atom_site_occupancy
  Cs  Cs0  1  0.22134303  0.77865698  -0.00000000  1
  Cs  Cs1  1  0.27865703  0.72134298  0.50000002  1
  Cs  Cs2  1  0.68101600  0.68101598  0.81984704  1
  Cs  Cs3  1  0.72134298  0.27865699  0.50000002  1
  Cs  Cs4  1  0.18101600  0.18101600  0.68015303  1
  Cs  Cs5  1  0.81898400  0.81898398  0.31984702  1
  Cs  Cs6  1  0.77865697  0.22134299  -0.00000000  1
  Cs  Cs7  1  0.31898400  0.31898399  0.18015301  1
