# generated using pymatgen
data_BaHoGaSe3
_symmetry_space_group_name_H-M   'P 1'
_cell_length_a   4.19160223
_cell_length_b   7.37658739
_cell_length_c   10.70069313
_cell_angle_alpha   90.00000000
_cell_angle_beta   90.00000000
_cell_angle_gamma   106.50597382
_symmetry_Int_Tables_number   1
_chemical_formula_structural   BaHoGaSe3
_chemical_formula_sum   'Ba2 Ho2 Ga2 Se6'
_cell_volume   317.22763491
_cell_formula_units_Z   2
loop_
 _symmetry_equiv_pos_site_id
 _symmetry_equiv_pos_as_xyz
  1  'x, y, z'
loop_
 _atom_site_type_symbol
 _atom_site_label
 _atom_site_symmetry_multiplicity
 _atom_site_fract_x
 _atom_site_fract_y
 _atom_site_fract_z
 _atom_site_occupancy
  Ba  Ba0  1  0.74746401  0.49492799  0.74999999  1
  Ba  Ba1  1  0.25253603  0.50507199  0.25000000  1
  Ho  Ho2  1  0.00000000  0.00000000  0.49999999  1
  Ho  Ho3  1  0.00000000  0.00000000  0.00000000  1
  Ga  Ga4  1  0.46700806  0.93401599  0.74999999  1
  Ga  Ga5  1  0.53299198  0.06598400  0.25000000  1
  Se  Se6  1  0.36604705  0.73209399  0.56051699  1
  Se  Se7  1  0.63395299  0.26790600  0.43948299  1
  Se  Se8  1  0.36604705  0.73209399  0.93948299  1
  Se  Se9  1  0.63395299  0.26790600  0.06051700  1
  Se  Se10  1  0.06858101  0.13716200  0.74999999  1
  Se  Se11  1  0.93141903  0.86283799  0.25000000  1
