# generated using pymatgen
data_Ba4CuO4
_symmetry_space_group_name_H-M   'P 1'
_cell_length_a   6.35585785
_cell_length_b   6.45678663
_cell_length_c   9.35625076
_cell_angle_alpha   72.25975800
_cell_angle_beta   80.08096313
_cell_angle_gamma   67.72073364
_symmetry_Int_Tables_number   1
_chemical_formula_structural   Ba4CuO4
_chemical_formula_sum   'Ba8 Cu2 O8'
_cell_volume   337.70417447
_cell_formula_units_Z   2
loop_
 _symmetry_equiv_pos_site_id
 _symmetry_equiv_pos_as_xyz
  1  'x, y, z'
loop_
 _atom_site_type_symbol
 _atom_site_label
 _atom_site_symmetry_multiplicity
 _atom_site_fract_x
 _atom_site_fract_y
 _atom_site_fract_z
 _atom_site_occupancy
  Ba  Ba0  1  0.78253906  0.56854700  0.16372901  1
  Ba  Ba1  1  0.21746104  0.43145300  0.83627102  1
  Ba  Ba2  1  0.73244503  0.22150000  0.97285001  1
  Ba  Ba3  1  0.26755506  0.77850000  0.02715002  1
  Ba  Ba4  1  0.72576905  0.48796600  0.56951001  1
  Ba  Ba5  1  0.27423104  0.51203400  0.43049002  1
  Ba  Ba6  1  0.22801507  0.95995400  0.61506503  1
  Ba  Ba7  1  0.77198502  0.04004600  0.38493500  1
  Cu  Cu8  1  0.72395408  0.84602800  0.75503303  1
  Cu  Cu9  1  0.27604602  0.15397200  0.24496700  1
  O  O10  1  0.96211608  0.70876800  0.61304702  1
  O  O11  1  0.03788402  0.29123200  0.38695301  1
  O  O12  1  0.90177008  0.82220700  0.91668303  1
  O  O13  1  0.09823002  0.17779300  0.08331700  1
  O  O14  1  0.53416806  0.64934300  0.80783102  1
  O  O15  1  0.46583204  0.35065700  0.19216901  1
  O  O16  1  0.46950507  0.83695900  0.35373802  1
  O  O17  1  0.53049503  0.16304100  0.64626201  1
