# generated using pymatgen
data_Ac4Br5
_symmetry_space_group_name_H-M   'P 1'
_cell_length_a   4.06231213
_cell_length_b   8.19958591
_cell_length_c   8.19958591
_cell_angle_alpha   120.00000000
_cell_angle_beta   90.00000000
_cell_angle_gamma   90.00000000
_symmetry_Int_Tables_number   1
_chemical_formula_structural   Ac4Br5
_chemical_formula_sum   'Ac4 Br5'
_cell_volume   236.53083360
_cell_formula_units_Z   1
loop_
 _symmetry_equiv_pos_site_id
 _symmetry_equiv_pos_as_xyz
  1  'x, y, z'
loop_
 _atom_site_type_symbol
 _atom_site_label
 _atom_site_symmetry_multiplicity
 _atom_site_fract_x
 _atom_site_fract_y
 _atom_site_fract_z
 _atom_site_occupancy
  Br  Br0  1  0.49999998  0.60761001  0.60761003  1
  Br  Br1  1  0.49999998  1.00000002  0.39239003  1
  Br  Br2  1  0.49999998  0.39239001  0.00000001  1
  Br  Br3  1  0.99999997  0.23666700  0.23666701  1
  Ac  Ac4  1  0.00000000  0.00000000  0.76333303  1
  Br  Br5  1  0.99999997  0.76333301  0.00000001  1
  Ac  Ac6  1  0.49999998  0.00000000  -0.00000000  1
  Ac  Ac7  1  0.99999997  0.66666668  0.33333336  1
  Ac  Ac8  1  0.99999997  0.33333334  0.66666669  1
