# generated using pymatgen
data_BaLiYN2
_symmetry_space_group_name_H-M   'P 1'
_cell_length_a   3.87170601
_cell_length_b   6.69408035
_cell_length_c   7.82702398
_cell_angle_alpha   115.18094635
_cell_angle_beta   104.31953430
_cell_angle_gamma   90.00000000
_symmetry_Int_Tables_number   1
_chemical_formula_structural   BaLiYN2
_chemical_formula_sum   'Ba2 Li2 Y2 N4'
_cell_volume   176.59004192
_cell_formula_units_Z   2
loop_
 _symmetry_equiv_pos_site_id
 _symmetry_equiv_pos_as_xyz
  1  'x, y, z'
loop_
 _atom_site_type_symbol
 _atom_site_label
 _atom_site_symmetry_multiplicity
 _atom_site_fract_x
 _atom_site_fract_y
 _atom_site_fract_z
 _atom_site_occupancy
  Ba  Ba0  1  0.50682999  0.50414600  0.01365998  1
  Ba  Ba1  1  0.00472100  0.00670800  0.00944200  1
  Y  Y2  1  0.81062299  0.47144900  0.62124600  1
  Li  Li3  1  0.30515798  0.97809099  0.61031598  1
  Li  Li4  1  0.18554999  0.53142900  0.37109999  1
  Y  Y5  1  0.68712200  0.00954600  0.37424401  1
  N  N6  1  0.86701699  0.20124800  0.73403401  1
  N  N7  1  0.36253999  0.69429700  0.72507999  1
  N  N8  1  0.12842098  0.79742500  0.25684198  1
  N  N9  1  0.64276499  0.30566000  0.28553000  1
