# generated using pymatgen
data_Ba2Zn4P2NO
_symmetry_space_group_name_H-M   'P 1'
_cell_length_a   3.95384407
_cell_length_b   5.92260599
_cell_length_c   7.25321722
_cell_angle_alpha   90.00000000
_cell_angle_beta   90.00000000
_cell_angle_gamma   109.49913025
_symmetry_Int_Tables_number   1
_chemical_formula_structural   Ba2Zn4P2NO
_chemical_formula_sum   'Ba2 Zn4 P2 N1 O1'
_cell_volume   160.10760076
_cell_formula_units_Z   1
loop_
 _symmetry_equiv_pos_site_id
 _symmetry_equiv_pos_as_xyz
  1  'x, y, z'
loop_
 _atom_site_type_symbol
 _atom_site_label
 _atom_site_symmetry_multiplicity
 _atom_site_fract_x
 _atom_site_fract_y
 _atom_site_fract_z
 _atom_site_occupancy
  Ba  Ba0  1  0.45016192  0.90032398  0.74999998  1
  Ba  Ba1  1  0.54983798  0.09967600  0.24999999  1
  P  P2  1  0.72872995  0.45745999  0.74999998  1
  P  P3  1  0.27126995  0.54253999  0.24999999  1
  Zn  Zn4  1  0.16468497  0.32936999  0.94069497  1
  Zn  Zn5  1  0.83531493  0.67062998  0.05930500  1
  Zn  Zn6  1  0.83531493  0.67062998  0.44069499  1
  Zn  Zn7  1  0.16468497  0.32936999  0.55930498  1
  O  O8  1  0.00000000  0.00000000  0.00000000  1
  N  N9  1  0.00000000  0.00000000  0.49999998  1
