# generated using pymatgen
data_VBiO4
_symmetry_space_group_name_H-M   'P 1'
_cell_length_a   5.15149593
_cell_length_b   5.15149593
_cell_length_c   6.96150732
_cell_angle_alpha   111.71553040
_cell_angle_beta   111.71553040
_cell_angle_gamma   90.00000000
_symmetry_Int_Tables_number   1
_chemical_formula_structural   VBiO4
_chemical_formula_sum   'V2 Bi2 O8'
_cell_volume   157.43408073
_cell_formula_units_Z   2
loop_
 _symmetry_equiv_pos_site_id
 _symmetry_equiv_pos_as_xyz
  1  'x, y, z'
loop_
 _atom_site_type_symbol
 _atom_site_label
 _atom_site_symmetry_multiplicity
 _atom_site_fract_x
 _atom_site_fract_y
 _atom_site_fract_z
 _atom_site_occupancy
  Bi  Bi0  1  0.25000000  0.75000001  0.50000000  1
  Bi  Bi1  1  0.50000000  0.50000000  -0.00000001  1
  V  V2  1  0.75000001  0.25000000  0.50000000  1
  V  V3  1  0.00000000  0.00000000  0.00000000  1
  O  O4  1  0.52859900  0.92556001  0.34527600  1
  O  O5  1  0.22140100  0.32444000  0.15472400  1
  O  O6  1  0.58028400  0.47140000  0.65472301  1
  O  O7  1  0.81667701  0.41971600  0.34527700  1
  O  O8  1  0.67556101  0.06667700  0.84527601  1
  O  O9  1  0.07443900  0.18332300  0.65472401  1
  O  O10  1  0.93332300  0.83028401  0.15472299  1
  O  O11  1  0.16971600  0.77860001  0.84527701  1
