# generated using pymatgen
data_Mg8Ge3
_symmetry_space_group_name_H-M   'P 1'
_cell_length_a   4.48644590
_cell_length_b   7.84823704
_cell_length_c   8.41498184
_cell_angle_alpha   117.28215027
_cell_angle_beta   105.46055603
_cell_angle_gamma   90.00000000
_symmetry_Int_Tables_number   1
_chemical_formula_structural   Mg8Ge3
_chemical_formula_sum   'Mg8 Ge3'
_cell_volume   251.21265675
_cell_formula_units_Z   1
loop_
 _symmetry_equiv_pos_site_id
 _symmetry_equiv_pos_as_xyz
  1  'x, y, z'
loop_
 _atom_site_type_symbol
 _atom_site_label
 _atom_site_symmetry_multiplicity
 _atom_site_fract_x
 _atom_site_fract_y
 _atom_site_fract_z
 _atom_site_occupancy
  Mg  Mg0  1  0.24079302  0.22344101  0.48158602  1
  Mg  Mg1  1  0.74276806  0.76262205  0.48553606  1
  Ge  Ge2  1  0.17324603  0.50801103  0.34649204  1
  Ge  Ge3  1  0.32747006  0.99275806  0.65494007  1
  Ge  Ge4  1  0.82460305  0.49160103  0.64920604  1
  Mg  Mg5  1  0.50308004  0.50235503  0.00616004  1
  Mg  Mg6  1  0.00109400  0.00082800  0.00218800  1
  Mg  Mg7  1  0.37710405  0.71037004  0.75420805  1
  Mg  Mg8  1  0.87887503  0.21358501  0.75775002  1
  Mg  Mg9  1  0.62662103  0.28425702  0.25324203  1
  Mg  Mg10  1  0.12743704  0.80032205  0.25487406  1
