# generated using pymatgen
data_B2Mo3
_symmetry_space_group_name_H-M   'P 1'
_cell_length_a   3.07241893
_cell_length_b   7.21260405
_cell_length_c   9.29341316
_cell_angle_alpha   90.00000000
_cell_angle_beta   90.00000000
_cell_angle_gamma   90.00000000
_symmetry_Int_Tables_number   1
_chemical_formula_structural   B2Mo3
_chemical_formula_sum   'B8 Mo12'
_cell_volume   205.94334783
_cell_formula_units_Z   4
loop_
 _symmetry_equiv_pos_site_id
 _symmetry_equiv_pos_as_xyz
  1  'x, y, z'
loop_
 _atom_site_type_symbol
 _atom_site_label
 _atom_site_symmetry_multiplicity
 _atom_site_fract_x
 _atom_site_fract_y
 _atom_site_fract_z
 _atom_site_occupancy
  Mo  Mo0  1  0.50000001  0.81275899  0.13304200  1
  Mo  Mo1  1  0.50000001  0.18724100  0.86695798  1
  Mo  Mo2  1  0.00000000  0.68724100  0.63304199  1
  Mo  Mo3  1  0.00000000  0.31275900  0.36695799  1
  Mo  Mo4  1  0.50000001  0.57418500  0.86084798  1
  Mo  Mo5  1  0.50000001  0.42581500  0.13915200  1
  Mo  Mo6  1  0.00000000  0.92581499  0.36084799  1
  Mo  Mo7  1  0.00000000  0.07418500  0.63915199  1
  B  B8  1  0.50000001  0.11360300  0.45999299  1
  B  B9  1  0.50000001  0.88639699  0.54000699  1
  B  B10  1  0.00000000  0.38639700  0.95999298  1
  B  B11  1  0.00000000  0.61360300  0.04000700  1
  B  B12  1  0.50000001  0.12229800  0.26860900  1
  B  B13  1  0.50000001  0.87770199  0.73139099  1
  B  B14  1  0.00000000  0.37770200  0.76860899  1
  B  B15  1  0.00000000  0.62229800  0.23139100  1
  Mo  Mo16  1  0.50000001  0.62669800  0.39565099  1
  Mo  Mo17  1  0.50000001  0.37330200  0.60434899  1
  Mo  Mo18  1  0.00000000  0.87330199  0.89565098  1
  Mo  Mo19  1  0.00000000  0.12669800  0.10434900  1
