# generated using pymatgen
data_Li2PO3F2
_symmetry_space_group_name_H-M   'P 1'
_cell_length_a   4.45143509
_cell_length_b   4.45143509
_cell_length_c   6.54665184
_cell_angle_alpha   90.00000000
_cell_angle_beta   90.00000000
_cell_angle_gamma   90.00000000
_symmetry_Int_Tables_number   1
_chemical_formula_structural   Li2PO3F2
_chemical_formula_sum   'Li4 P2 O6 F4'
_cell_volume   129.72370230
_cell_formula_units_Z   2
loop_
 _symmetry_equiv_pos_site_id
 _symmetry_equiv_pos_as_xyz
  1  'x, y, z'
loop_
 _atom_site_type_symbol
 _atom_site_label
 _atom_site_symmetry_multiplicity
 _atom_site_fract_x
 _atom_site_fract_y
 _atom_site_fract_z
 _atom_site_occupancy
  Li  Li0  1  0.00000000  0.00000000  0.00000000  1
  Li  Li1  1  0.49999999  0.49999999  -0.00000000  1
  Li  Li2  1  0.00000000  0.00000000  0.50000001  1
  Li  Li3  1  0.49999999  0.49999999  0.50000001  1
  P  P4  1  0.00000000  0.49999999  0.74314402  1
  P  P5  1  0.49999999  0.00000000  0.25685601  1
  O  O6  1  0.00000000  0.49999999  0.50373601  1
  O  O7  1  0.49999999  0.00000000  0.49626401  1
  O  O8  1  0.24103100  0.74103099  0.77401802  1
  F  F9  1  0.75896898  0.74103099  0.77401802  1
  O  O10  1  0.24103100  0.25896899  0.77401802  1
  F  F11  1  0.75896898  0.25896899  0.77401802  1
  F  F12  1  0.25896899  0.75896898  0.22598201  1
  F  F13  1  0.74103099  0.75896898  0.22598201  1
  O  O14  1  0.25896899  0.24103100  0.22598201  1
  O  O15  1  0.74103099  0.24103100  0.22598201  1
