# generated using pymatgen
data_Mg7F11
_symmetry_space_group_name_H-M   'P 1'
_cell_length_a   4.85542011
_cell_length_b   5.90200090
_cell_length_c   8.11396027
_cell_angle_alpha   92.14356995
_cell_angle_beta   90.00000000
_cell_angle_gamma   90.00000000
_symmetry_Int_Tables_number   1
_chemical_formula_structural   Mg7F11
_chemical_formula_sum   'Mg7 F11'
_cell_volume   232.35656782
_cell_formula_units_Z   1
loop_
 _symmetry_equiv_pos_site_id
 _symmetry_equiv_pos_as_xyz
  1  'x, y, z'
loop_
 _atom_site_type_symbol
 _atom_site_label
 _atom_site_symmetry_multiplicity
 _atom_site_fract_x
 _atom_site_fract_y
 _atom_site_fract_z
 _atom_site_occupancy
  Mg  Mg0  1  0.52508899  0.59201701  0.33066901  1
  Mg  Mg1  1  0.48367899  0.25290500  0.98672596  1
  Mg  Mg2  1  0.48311599  0.93207902  0.67194601  1
  Mg  Mg3  1  0.98311598  0.06792100  0.32805398  1
  Mg  Mg4  1  0.02508900  0.40798301  0.66933098  1
  Mg  Mg5  1  0.98367898  0.74709501  0.01327403  1
  F  F6  1  0.80770198  0.77622501  0.22102502  1
  F  F7  1  0.30770199  0.22377500  0.77897497  1
  F  F8  1  0.79456698  0.44875301  0.90042397  1
  F  F9  1  0.81175098  0.12338200  0.56516497  1
  F  F10  1  0.68250698  0.28319501  0.21427500  1
  F  F11  1  0.70312598  0.95026202  0.90399699  1
  F  F12  1  0.70846198  0.62016101  0.57123600  1
  F  F13  1  0.31175099  0.87661802  0.43483502  1
  F  F14  1  0.29456699  0.55124701  0.09957602  1
  F  F15  1  0.18250700  0.71680501  0.78572499  1
  Mg  Mg16  1  0.20312600  0.04973800  0.09600300  1
  F  F17  1  0.20846200  0.37983901  0.42876399  1
