# generated using pymatgen
data_Ba3LaO6
_symmetry_space_group_name_H-M   'P 1'
_cell_length_a   3.89246988
_cell_length_b   6.12686491
_cell_length_c   9.29834938
_cell_angle_alpha   90.73026276
_cell_angle_beta   90.00000000
_cell_angle_gamma   108.52122498
_symmetry_Int_Tables_number   1
_chemical_formula_structural   Ba3LaO6
_chemical_formula_sum   'Ba3 La1 O6'
_cell_volume   210.24850246
_cell_formula_units_Z   1
loop_
 _symmetry_equiv_pos_site_id
 _symmetry_equiv_pos_as_xyz
  1  'x, y, z'
loop_
 _atom_site_type_symbol
 _atom_site_label
 _atom_site_symmetry_multiplicity
 _atom_site_fract_x
 _atom_site_fract_y
 _atom_site_fract_z
 _atom_site_occupancy
  Ba  Ba0  1  0.26645700  0.53291399  0.25496998  1
  Ba  Ba1  1  0.73354302  0.46708599  0.74502997  1
  Ba  Ba2  1  0.50000002  0.00000000  0.00000000  1
  La  La3  1  0.50000002  0.00000000  0.49999999  1
  O  O4  1  0.85523702  0.71047298  0.05484897  1
  O  O5  1  0.14476300  0.28952699  0.94515097  1
  O  O6  1  0.86512102  0.73024198  0.45364596  1
  O  O7  1  0.13487900  0.26975799  0.54635398  1
  O  O8  1  0.58476202  0.16952400  0.26037299  1
  O  O9  1  0.41523801  0.83047598  0.73962695  1
