# generated using pymatgen
data_Eu3Hg2
_symmetry_space_group_name_H-M   'P 1'
_cell_length_a   8.51885033
_cell_length_b   8.51885033
_cell_length_c   8.51885033
_cell_angle_alpha   72.04469299
_cell_angle_beta   72.04469299
_cell_angle_gamma   72.04469299
_symmetry_Int_Tables_number   1
_chemical_formula_structural   Eu3Hg2
_chemical_formula_sum   'Eu9 Hg6'
_cell_volume   543.71459737
_cell_formula_units_Z   3
loop_
 _symmetry_equiv_pos_site_id
 _symmetry_equiv_pos_as_xyz
  1  'x, y, z'
loop_
 _atom_site_type_symbol
 _atom_site_label
 _atom_site_symmetry_multiplicity
 _atom_site_fract_x
 _atom_site_fract_y
 _atom_site_fract_z
 _atom_site_occupancy
  Eu  Eu0  1  0.89135096  0.16270999  0.66389800  1
  Eu  Eu1  1  0.66389797  0.89135097  0.16271003  1
  Eu  Eu2  1  0.16270999  0.66389797  0.89135099  1
  Eu  Eu3  1  0.10864799  0.83728997  0.33610201  1
  Eu  Eu4  1  0.33610199  0.10864900  0.83728998  1
  Eu  Eu5  1  0.83728996  0.33610199  0.10864802  1
  Eu  Eu6  1  0.49999998  0.49999998  0.50000001  1
  Eu  Eu7  1  0.29441999  0.29441999  0.29442000  1
  Eu  Eu8  1  0.70557997  0.70557997  0.70558001  1
  Hg  Hg9  1  0.91108996  0.54125798  0.35772602  1
  Hg  Hg10  1  0.35772598  0.91108996  0.54125801  1
  Hg  Hg11  1  0.54125798  0.35772599  0.91108999  1
  Hg  Hg12  1  0.08890999  0.45874198  0.64227399  1
  Hg  Hg13  1  0.64227397  0.08891000  0.45874200  1
  Hg  Hg14  1  0.45874198  0.64227397  0.08891002  1
