# generated using pymatgen
data_Li(Ge3N4)2
_symmetry_space_group_name_H-M   'P 1'
_cell_length_a   6.47591305
_cell_length_b   6.47591305
_cell_length_c   6.47591305
_cell_angle_alpha   60.00000000
_cell_angle_beta   60.00000000
_cell_angle_gamma   60.00000000
_symmetry_Int_Tables_number   1
_chemical_formula_structural   Li(Ge3N4)2
_chemical_formula_sum   'Li1 Ge6 N8'
_cell_volume   192.03837779
_cell_formula_units_Z   1
loop_
 _symmetry_equiv_pos_site_id
 _symmetry_equiv_pos_as_xyz
  1  'x, y, z'
loop_
 _atom_site_type_symbol
 _atom_site_label
 _atom_site_symmetry_multiplicity
 _atom_site_fract_x
 _atom_site_fract_y
 _atom_site_fract_z
 _atom_site_occupancy
  Li  Li0  1  0.00000000  0.00000000  0.00000000  1
  Ge  Ge1  1  0.50000000  0.00000000  0.50000000  1
  Ge  Ge2  1  -0.00000000  0.00000000  0.50000000  1
  Ge  Ge3  1  0.99999999  0.50000000  0.50000000  1
  Ge  Ge4  1  0.50000000  0.00000000  -0.00000000  1
  Ge  Ge5  1  0.50000000  0.50000000  -0.00000000  1
  Ge  Ge6  1  -0.00000000  0.50000000  -0.00000000  1
  N  N7  1  0.85914799  0.85914899  0.42255400  1
  N  N8  1  0.42255300  0.85914899  0.85914899  1
  N  N9  1  0.85914799  0.85914899  0.85914899  1
  N  N10  1  0.85914799  0.42255400  0.85914899  1
  N  N11  1  0.14085200  0.14085100  0.14085100  1
  N  N12  1  0.14085200  0.57744600  0.14085100  1
  N  N13  1  0.57744700  0.14085100  0.14085100  1
  N  N14  1  0.14085200  0.14085100  0.57744600  1
