# generated using pymatgen
data_Pr3Si
_symmetry_space_group_name_H-M   'P 1'
_cell_length_a   6.53928709
_cell_length_b   8.76167107
_cell_length_c   8.76167107
_cell_angle_alpha   119.48625183
_cell_angle_beta   90.00000000
_cell_angle_gamma   90.00000000
_symmetry_Int_Tables_number   1
_chemical_formula_structural   Pr3Si
_chemical_formula_sum   'Pr12 Si4'
_cell_volume   436.97844200
_cell_formula_units_Z   4
loop_
 _symmetry_equiv_pos_site_id
 _symmetry_equiv_pos_as_xyz
  1  'x, y, z'
loop_
 _atom_site_type_symbol
 _atom_site_label
 _atom_site_symmetry_multiplicity
 _atom_site_fract_x
 _atom_site_fract_y
 _atom_site_fract_z
 _atom_site_occupancy
  Pr  Pr0  1  0.99999999  0.74969201  0.99937302  1
  Pr  Pr1  1  0.99999999  0.99937302  0.74969202  1
  Pr  Pr2  1  0.49999999  0.74741601  0.74741602  1
  Pr  Pr3  1  0.49999999  0.24921700  0.00157100  1
  Pr  Pr4  1  0.49999999  0.00157100  0.24921700  1
  Pr  Pr5  1  0.75060799  0.33328101  0.66459401  1
  Pr  Pr6  1  0.75060799  0.66459401  0.33328101  1
  Si  Si7  1  0.24939300  0.66459401  0.33328101  1
  Si  Si8  1  0.24939200  0.33328101  0.66459401  1
  Pr  Pr9  1  0.99999999  0.25518600  0.25518601  1
  Pr  Pr10  1  -0.00000000  0.59889501  0.59889502  1
  Pr  Pr11  1  -0.00000000  0.39260401  0.00731801  1
  Pr  Pr12  1  -0.00000000  0.00731800  0.39260400  1
  Si  Si13  1  0.49999999  0.39549601  0.39549601  1
  Pr  Pr14  1  0.49999999  0.60627201  0.00114601  1
  Si  Si15  1  0.49999999  0.00114600  0.60627201  1
