# generated using pymatgen
data_P3W2
_symmetry_space_group_name_H-M   'P 1'
_cell_length_a   2.44267559
_cell_length_b   2.44267559
_cell_length_c   10.13644218
_cell_angle_alpha   94.58232880
_cell_angle_beta   94.58232880
_cell_angle_gamma   109.69080353
_symmetry_Int_Tables_number   1
_chemical_formula_structural   P3W2
_chemical_formula_sum   'P3 W2'
_cell_volume   56.39329726
_cell_formula_units_Z   1
loop_
 _symmetry_equiv_pos_site_id
 _symmetry_equiv_pos_as_xyz
  1  'x, y, z'
loop_
 _atom_site_type_symbol
 _atom_site_label
 _atom_site_symmetry_multiplicity
 _atom_site_fract_x
 _atom_site_fract_y
 _atom_site_fract_z
 _atom_site_occupancy
  P  P0  1  0.00000000  0.00000000  0.00000000  1
  P  P1  1  0.40073699  0.40073699  0.80147404  1
  W  W2  1  0.80027098  0.80027099  0.60054204  1
  P  P3  1  0.19972900  0.19972900  0.39945802  1
  W  W4  1  0.59926299  0.59926299  0.19852602  1
