# generated using pymatgen
data_HoCoGe3
_symmetry_space_group_name_H-M   'P 1'
_cell_length_a   4.19979382
_cell_length_b   4.19979382
_cell_length_c   5.73304129
_cell_angle_alpha   111.48636627
_cell_angle_beta   111.48636627
_cell_angle_gamma   90.00000000
_symmetry_Int_Tables_number   1
_chemical_formula_structural   HoCoGe3
_chemical_formula_sum   'Ho1 Co1 Ge3'
_cell_volume   86.49700350
_cell_formula_units_Z   1
loop_
 _symmetry_equiv_pos_site_id
 _symmetry_equiv_pos_as_xyz
  1  'x, y, z'
loop_
 _atom_site_type_symbol
 _atom_site_label
 _atom_site_symmetry_multiplicity
 _atom_site_fract_x
 _atom_site_fract_y
 _atom_site_fract_z
 _atom_site_occupancy
  Ho  Ho0  1  0.99819413  0.99819408  0.99638811  1
  Ge  Ge1  1  0.41425005  0.41425003  0.82850005  1
  Ge  Ge2  1  0.26464606  0.76464606  0.52929206  1
  Ge  Ge3  1  0.76464607  0.26464602  0.52929205  1
  Co  Co4  1  0.65226308  0.65226305  0.30452607  1
