# generated using pymatgen
data_CsTaS2
_symmetry_space_group_name_H-M   'P 1'
_cell_length_a   3.37942600
_cell_length_b   3.37942600
_cell_length_c   9.89375114
_cell_angle_alpha   80.16648102
_cell_angle_beta   80.16648102
_cell_angle_gamma   60.00000000
_symmetry_Int_Tables_number   1
_chemical_formula_structural   CsTaS2
_chemical_formula_sum   'Cs1 Ta1 S2'
_cell_volume   95.93209795
_cell_formula_units_Z   1
loop_
 _symmetry_equiv_pos_site_id
 _symmetry_equiv_pos_as_xyz
  1  'x, y, z'
loop_
 _atom_site_type_symbol
 _atom_site_label
 _atom_site_symmetry_multiplicity
 _atom_site_fract_x
 _atom_site_fract_y
 _atom_site_fract_z
 _atom_site_occupancy
  Ta  Ta0  1  0.00000000  0.00000000  0.00000000  1
  Cs  Cs1  1  0.50000000  0.50000000  0.50000000  1
  S  S2  1  0.71940500  0.71940500  0.84178500  1
  S  S3  1  0.28059500  0.28059500  0.15821499  1
