# generated using pymatgen
data_MoSe
_symmetry_space_group_name_H-M   'P 1'
_cell_length_a   3.45375133
_cell_length_b   3.45375133
_cell_length_c   10.05597878
_cell_angle_alpha   80.11180878
_cell_angle_beta   80.11180878
_cell_angle_gamma   60.00001144
_symmetry_Int_Tables_number   1
_chemical_formula_structural   MoSe
_chemical_formula_sum   'Mo2 Se2'
_cell_volume   101.81847327
_cell_formula_units_Z   2
loop_
 _symmetry_equiv_pos_site_id
 _symmetry_equiv_pos_as_xyz
  1  'x, y, z'
loop_
 _atom_site_type_symbol
 _atom_site_label
 _atom_site_symmetry_multiplicity
 _atom_site_fract_x
 _atom_site_fract_y
 _atom_site_fract_z
 _atom_site_occupancy
  Mo  Mo0  1  0.62660796  0.62660801  0.12017603  1
  Se  Se1  1  0.37339198  0.37339200  0.87982405  1
  Se  Se2  1  0.90082395  0.90082401  0.29752805  1
  Mo  Mo3  1  0.09917599  0.09917600  0.70247203  1
