# generated using pymatgen
data_Mg2B2O5
_symmetry_space_group_name_H-M   'P 1'
_cell_length_a   3.14688396
_cell_length_b   6.20659304
_cell_length_c   9.24762535
_cell_angle_alpha   104.26641846
_cell_angle_beta   90.60541534
_cell_angle_gamma   92.32611084
_symmetry_Int_Tables_number   1
_chemical_formula_structural   Mg2B2O5
_chemical_formula_sum   'Mg4 B4 O10'
_cell_volume   174.86539131
_cell_formula_units_Z   2
loop_
 _symmetry_equiv_pos_site_id
 _symmetry_equiv_pos_as_xyz
  1  'x, y, z'
loop_
 _atom_site_type_symbol
 _atom_site_label
 _atom_site_symmetry_multiplicity
 _atom_site_fract_x
 _atom_site_fract_y
 _atom_site_fract_z
 _atom_site_occupancy
  Mg  Mg0  1  0.26653994  0.78470604  0.64041903  1
  Mg  Mg1  1  0.76288594  0.62275803  0.89706903  1
  Mg  Mg2  1  0.23851997  0.37824102  0.10229802  1
  Mg  Mg3  1  0.72486296  0.20659101  0.35001802  1
  B  B4  1  0.30496197  0.31719102  0.64286001  1
  B  B5  1  0.69712194  0.68176603  0.35575903  1
  B  B6  1  0.66747697  0.12031201  0.83390101  1
  B  B7  1  0.33162894  0.87959004  0.16800704  1
  O  O8  1  0.26044296  0.52270303  0.74195902  1
  O  O9  1  0.74282595  0.47694802  0.25920503  1
  O  O10  1  0.23282298  0.27660901  0.49425201  1
  O  O11  1  0.76628693  0.72599504  0.50449704  1
  O  O12  1  0.44585398  0.14136501  0.70213701  1
  O  O13  1  0.55537193  0.85820604  0.29873104  1
  O  O14  1  0.78386192  0.91035904  0.82582904  1
  O  O15  1  0.22006899  0.09362900  0.18133601  1
  O  O16  1  0.73825796  0.30742802  0.94961802  1
  O  O17  1  0.26020795  0.69560203  0.05210703  1
