# generated using pymatgen
data_BaCoO3
_symmetry_space_group_name_H-M   'P 1'
_cell_length_a   4.00824022
_cell_length_b   5.83294201
_cell_length_c   5.83294201
_cell_angle_alpha   90.00000000
_cell_angle_beta   90.00000000
_cell_angle_gamma   90.00000000
_symmetry_Int_Tables_number   1
_chemical_formula_structural   BaCoO3
_chemical_formula_sum   'Ba2 Co2 O6'
_cell_volume   136.37320878
_cell_formula_units_Z   2
loop_
 _symmetry_equiv_pos_site_id
 _symmetry_equiv_pos_as_xyz
  1  'x, y, z'
loop_
 _atom_site_type_symbol
 _atom_site_label
 _atom_site_symmetry_multiplicity
 _atom_site_fract_x
 _atom_site_fract_y
 _atom_site_fract_z
 _atom_site_occupancy
  Ba  Ba0  1  0.49999997  0.50000000  0.50000000  1
  Ba  Ba1  1  0.49999997  0.00000000  0.00000000  1
  Co  Co2  1  0.00000000  0.50000000  -0.00000000  1
  Co  Co3  1  0.00000000  0.00000000  0.50000000  1
  O  O4  1  0.49999997  0.50000000  -0.00000000  1
  O  O5  1  0.49999997  0.00000000  0.50000000  1
  O  O6  1  0.00000000  0.73367100  0.23367100  1
  O  O7  1  0.99999994  0.26632900  0.76632900  1
  O  O8  1  0.00000000  0.23367100  0.26632900  1
  O  O9  1  0.00000000  0.76632900  0.73367100  1
