# generated using pymatgen
data_Li2CuF4
_symmetry_space_group_name_H-M   'P 1'
_cell_length_a   5.17026901
_cell_length_b   5.82723904
_cell_length_c   5.82723904
_cell_angle_alpha   61.67988968
_cell_angle_beta   88.67057800
_cell_angle_gamma   88.67057800
_symmetry_Int_Tables_number   1
_chemical_formula_structural   Li2CuF4
_chemical_formula_sum   'Li4 Cu2 F8'
_cell_volume   154.49565703
_cell_formula_units_Z   2
loop_
 _symmetry_equiv_pos_site_id
 _symmetry_equiv_pos_as_xyz
  1  'x, y, z'
loop_
 _atom_site_type_symbol
 _atom_site_label
 _atom_site_symmetry_multiplicity
 _atom_site_fract_x
 _atom_site_fract_y
 _atom_site_fract_z
 _atom_site_occupancy
  Li  Li0  1  0.72858297  0.54253199  0.84266292  1
  Li  Li1  1  0.77141698  0.15733700  0.45746795  1
  Li  Li2  1  0.27141698  0.45746799  0.15733697  1
  Li  Li3  1  0.22858297  0.84266299  0.54253194  1
  Cu  Cu4  1  0.74999996  0.83727199  0.16272794  1
  Cu  Cu5  1  0.24999999  0.16272800  0.83727196  1
  F  F6  1  0.13614299  0.22292700  0.51716197  1
  F  F7  1  0.63614297  0.51716199  0.22292695  1
  F  F8  1  0.57157799  0.00155800  0.79282895  1
  F  F9  1  0.92842198  0.20717100  0.99844192  1
  F  F10  1  0.42842196  0.99844198  0.20717094  1
  F  F11  1  0.07157798  0.79282899  0.00155797  1
  F  F12  1  0.86385696  0.77707299  0.48283792  1
  F  F13  1  0.36385698  0.48283799  0.77707294  1
