# generated using pymatgen
data_Mo
_symmetry_space_group_name_H-M   'P 1'
_cell_length_a   3.92643905
_cell_length_b   4.03388500
_cell_length_c   7.66279507
_cell_angle_alpha   90.00000000
_cell_angle_beta   90.00000000
_cell_angle_gamma   90.00000000
_symmetry_Int_Tables_number   1
_chemical_formula_structural   Mo
_chemical_formula_sum   Mo8
_cell_volume   121.36950596
_cell_formula_units_Z   8
loop_
 _symmetry_equiv_pos_site_id
 _symmetry_equiv_pos_as_xyz
  1  'x, y, z'
loop_
 _atom_site_type_symbol
 _atom_site_label
 _atom_site_symmetry_multiplicity
 _atom_site_fract_x
 _atom_site_fract_y
 _atom_site_fract_z
 _atom_site_occupancy
  Mo  Mo0  1  0.00000000  0.00000000  0.24402600  1
  Mo  Mo1  1  0.00000000  0.00000000  0.75597399  1
  Mo  Mo2  1  0.49999999  0.50000000  0.24945800  1
  Mo  Mo3  1  0.49999999  0.50000000  0.75054199  1
  Mo  Mo4  1  0.00000000  0.50000000  0.50000000  1
  Mo  Mo5  1  0.00000000  0.50000000  -0.00000000  1
  Mo  Mo6  1  0.49999999  0.00000000  0.50000000  1
  Mo  Mo7  1  0.49999999  0.00000000  0.00000000  1
