# generated using pymatgen
data_PWF17
_symmetry_space_group_name_H-M   'P 1'
_cell_length_a   4.24631786
_cell_length_b   6.25583696
_cell_length_c   14.20583344
_cell_angle_alpha   93.77927399
_cell_angle_beta   97.97563934
_cell_angle_gamma   90.80480957
_symmetry_Int_Tables_number   1
_chemical_formula_structural   PWF17
_chemical_formula_sum   'P1 W1 F17'
_cell_volume   372.80199964
_cell_formula_units_Z   1
loop_
 _symmetry_equiv_pos_site_id
 _symmetry_equiv_pos_as_xyz
  1  'x, y, z'
loop_
 _atom_site_type_symbol
 _atom_site_label
 _atom_site_symmetry_multiplicity
 _atom_site_fract_x
 _atom_site_fract_y
 _atom_site_fract_z
 _atom_site_occupancy
  P  P0  1  0.28014502  0.13224800  0.08457300  1
  F  F1  1  0.09388102  0.30843801  0.74258799  1
  F  F2  1  0.72031704  0.19856301  0.40277000  1
  F  F3  1  0.38856806  0.86874902  0.56505599  1
  F  F4  1  0.71043006  0.79462402  0.95892899  1
  W  W5  1  0.03403204  0.77996602  0.25380199  1
  F  F6  1  0.02800405  0.96361803  0.37309699  1
  F  F7  1  0.77070803  0.03585100  0.06291901  1
  F  F8  1  0.23270505  0.87416903  0.98868599  1
  F  F9  1  0.33877306  0.97845703  0.20503699  1
  F  F10  1  0.68227803  0.08935300  0.52797000  1
  F  F11  1  0.62677007  0.92029803  0.69497799  1
  F  F12  1  0.10841403  0.59790102  0.70502699  1
  F  F13  1  0.62160104  0.35532201  0.76103200  1
  F  F14  1  0.10249502  0.36808301  0.45777999  1
  F  F15  1  0.75208506  0.57144102  0.05109600  1
  F  F16  1  0.16779303  0.40202701  0.87760999  1
  F  F17  1  0.65791606  0.63485602  0.53171400  1
  F  F18  1  0.41062005  0.62603402  0.31222000  1
