# generated using pymatgen
data_CoMoP
_symmetry_space_group_name_H-M   'P 1'
_cell_length_a   3.74992299
_cell_length_b   5.85716391
_cell_length_c   5.85716438
_cell_angle_alpha   120.00000000
_cell_angle_beta   90.00000000
_cell_angle_gamma   90.00000000
_symmetry_Int_Tables_number   1
_chemical_formula_structural   CoMoP
_chemical_formula_sum   'Co3 Mo3 P3'
_cell_volume   111.41092268
_cell_formula_units_Z   3
loop_
 _symmetry_equiv_pos_site_id
 _symmetry_equiv_pos_as_xyz
  1  'x, y, z'
loop_
 _atom_site_type_symbol
 _atom_site_label
 _atom_site_symmetry_multiplicity
 _atom_site_fract_x
 _atom_site_fract_y
 _atom_site_fract_z
 _atom_site_occupancy
  Co  Co0  1  -0.00000000  0.25096301  0.99999997  1
  Co  Co1  1  0.00000000  0.74903702  0.74903698  1
  Co  Co2  1  0.00000000  0.00000000  0.25096299  1
  Mo  Mo3  1  0.50000000  0.00000000  0.58617398  1
  Mo  Mo4  1  0.50000000  0.41382601  0.41382599  1
  Mo  Mo5  1  0.50000000  0.58617401  0.99999997  1
  P  P6  1  0.50000000  0.00000000  -0.00000000  1
  P  P7  1  0.00000000  0.33333334  0.66666665  1
  P  P8  1  0.00000000  0.66666668  0.33333333  1
