# generated using pymatgen
data_Li3(CoO2)4
_symmetry_space_group_name_H-M   'P 1'
_cell_length_a   5.74708748
_cell_length_b   5.74708748
_cell_length_c   5.74708843
_cell_angle_alpha   60.29554367
_cell_angle_beta   60.29554367
_cell_angle_gamma   60.29554749
_symmetry_Int_Tables_number   1
_chemical_formula_structural   Li3(CoO2)4
_chemical_formula_sum   'Li3 Co4 O8'
_cell_volume   135.12118683
_cell_formula_units_Z   1
loop_
 _symmetry_equiv_pos_site_id
 _symmetry_equiv_pos_as_xyz
  1  'x, y, z'
loop_
 _atom_site_type_symbol
 _atom_site_label
 _atom_site_symmetry_multiplicity
 _atom_site_fract_x
 _atom_site_fract_y
 _atom_site_fract_z
 _atom_site_occupancy
  Li  Li0  1  0.00000000  0.00000000  0.49999998  1
  Li  Li1  1  -0.00000001  0.50000002  -0.00000002  1
  Li  Li2  1  0.50000000  1.00000004  -0.00000005  1
  Co  Co3  1  -0.00000001  0.50000002  0.49999997  1
  Co  Co4  1  0.50000000  1.00000004  0.49999993  1
  Co  Co5  1  0.50000001  0.50000002  -0.00000003  1
  Co  Co6  1  0.50000001  0.50000002  0.49999995  1
  O  O7  1  0.26268701  0.26268701  0.26268697  1
  O  O8  1  0.73345902  0.73345903  0.28127994  1
  O  O9  1  0.28128000  0.73345903  0.73345894  1
  O  O10  1  0.26654100  0.71872003  0.26654096  1
  O  O11  1  0.73345902  0.28128001  0.73345894  1
  O  O12  1  0.71872002  0.26654101  0.26654096  1
  O  O13  1  0.26654101  0.26654101  0.71871996  1
  O  O14  1  0.73731302  0.73731303  0.73731293  1
