# generated using pymatgen
data_Hg
_symmetry_space_group_name_H-M   'P 1'
_cell_length_a   4.09467220
_cell_length_b   4.35576582
_cell_length_c   5.89803696
_cell_angle_alpha   68.33028412
_cell_angle_beta   90.00000000
_cell_angle_gamma   90.00000000
_symmetry_Int_Tables_number   1
_chemical_formula_structural   Hg
_chemical_formula_sum   Hg4
_cell_volume   97.75975756
_cell_formula_units_Z   4
loop_
 _symmetry_equiv_pos_site_id
 _symmetry_equiv_pos_as_xyz
  1  'x, y, z'
loop_
 _atom_site_type_symbol
 _atom_site_label
 _atom_site_symmetry_multiplicity
 _atom_site_fract_x
 _atom_site_fract_y
 _atom_site_fract_z
 _atom_site_occupancy
  Hg  Hg0  1  0.24999999  0.86062704  0.27874597  1
  Hg  Hg1  1  0.74999996  0.13937301  0.72125397  1
  Hg  Hg2  1  0.24999999  0.57562903  0.84874196  1
  Hg  Hg3  1  0.74999996  0.42437102  0.15125799  1
