# generated using pymatgen
data_TeMo
_symmetry_space_group_name_H-M   'P 1'
_cell_length_a   4.31588984
_cell_length_b   4.31589031
_cell_length_c   5.60110998
_cell_angle_alpha   90.00000000
_cell_angle_beta   90.00000000
_cell_angle_gamma   119.99999237
_symmetry_Int_Tables_number   1
_chemical_formula_structural   TeMo
_chemical_formula_sum   'Te2 Mo2'
_cell_volume   90.35361117
_cell_formula_units_Z   2
loop_
 _symmetry_equiv_pos_site_id
 _symmetry_equiv_pos_as_xyz
  1  'x, y, z'
loop_
 _atom_site_type_symbol
 _atom_site_label
 _atom_site_symmetry_multiplicity
 _atom_site_fract_x
 _atom_site_fract_y
 _atom_site_fract_z
 _atom_site_occupancy
  Te  Te0  1  0.00000000  0.00000000  0.00000000  1
  Mo  Mo1  1  0.66666667  0.33333334  0.50000000  1
  Mo  Mo2  1  0.33333330  0.66666668  0.25543600  1
  Te  Te3  1  0.33333330  0.66666668  0.74456400  1
