# generated using pymatgen
data_Ga3S4
_symmetry_space_group_name_H-M   'P 1'
_cell_length_a   7.23318863
_cell_length_b   7.23641777
_cell_length_c   7.23755455
_cell_angle_alpha   60.14080429
_cell_angle_beta   60.14825821
_cell_angle_gamma   60.18084717
_symmetry_Int_Tables_number   1
_chemical_formula_structural   Ga3S4
_chemical_formula_sum   'Ga6 S8'
_cell_volume   268.82411619
_cell_formula_units_Z   2
loop_
 _symmetry_equiv_pos_site_id
 _symmetry_equiv_pos_as_xyz
  1  'x, y, z'
loop_
 _atom_site_type_symbol
 _atom_site_label
 _atom_site_symmetry_multiplicity
 _atom_site_fract_x
 _atom_site_fract_y
 _atom_site_fract_z
 _atom_site_occupancy
  Ga  Ga0  1  0.87573364  0.87572044  0.87592327  1
  Ga  Ga1  1  0.12425985  0.12424955  0.12413684  1
  Ga  Ga2  1  0.49987055  0.49992538  0.50017200  1
  Ga  Ga3  1  0.00001579  0.50006114  0.49990662  1
  Ga  Ga4  1  0.49996956  0.00006165  0.49996576  1
  Ga  Ga5  1  0.50015115  0.49999018  0.99987610  1
  S  S6  1  0.73666285  0.73663351  0.73666494  1
  S  S7  1  0.71153623  0.26030277  0.26036369  1
  S  S8  1  0.26061294  0.26049833  0.71134882  1
  S  S9  1  0.26058038  0.71126432  0.26047400  1
  S  S10  1  0.73931102  0.73947190  0.28873682  1
  S  S11  1  0.73947363  0.28868932  0.73949349  1
  S  S12  1  0.26336922  0.26340090  0.26328770  1
  S  S13  1  0.28845456  0.73973471  0.73964474  1
