# generated using pymatgen
data_GaCo
_symmetry_space_group_name_H-M   'P 1'
_cell_length_a   5.25588703
_cell_length_b   5.40565586
_cell_length_c   5.40565586
_cell_angle_alpha   120.00000000
_cell_angle_beta   90.00000000
_cell_angle_gamma   90.00000000
_symmetry_Int_Tables_number   1
_chemical_formula_structural   GaCo
_chemical_formula_sum   'Ga4 Co4'
_cell_volume   133.00667643
_cell_formula_units_Z   4
loop_
 _symmetry_equiv_pos_site_id
 _symmetry_equiv_pos_as_xyz
  1  'x, y, z'
loop_
 _atom_site_type_symbol
 _atom_site_label
 _atom_site_symmetry_multiplicity
 _atom_site_fract_x
 _atom_site_fract_y
 _atom_site_fract_z
 _atom_site_occupancy
  Ga  Ga0  1  0.75000000  0.33333333  0.66666662  1
  Ga  Ga1  1  0.25000000  0.66666667  0.33333329  1
  Ga  Ga2  1  0.25000000  0.18559700  0.37119398  1
  Ga  Ga3  1  0.75000000  0.81440300  0.18559696  1
  Co  Co4  1  0.75000000  0.37119400  0.18559698  1
  Co  Co5  1  0.75000000  0.81440300  0.62880594  1
  Co  Co6  1  0.25000000  0.18559700  0.81440296  1
  Co  Co7  1  0.25000000  0.62880600  0.81440294  1
