# generated using pymatgen
data_Ho3Ge2
_symmetry_space_group_name_H-M   'P 1'
_cell_length_a   3.97405505
_cell_length_b   7.71031094
_cell_length_c   7.71031094
_cell_angle_alpha   90.00000000
_cell_angle_beta   90.00000000
_cell_angle_gamma   90.00000000
_symmetry_Int_Tables_number   1
_chemical_formula_structural   Ho3Ge2
_chemical_formula_sum   'Ho6 Ge4'
_cell_volume   236.25318042
_cell_formula_units_Z   2
loop_
 _symmetry_equiv_pos_site_id
 _symmetry_equiv_pos_as_xyz
  1  'x, y, z'
loop_
 _atom_site_type_symbol
 _atom_site_label
 _atom_site_symmetry_multiplicity
 _atom_site_fract_x
 _atom_site_fract_y
 _atom_site_fract_z
 _atom_site_occupancy
  Ho  Ho0  1  0.49999999  0.67208801  0.17208800  1
  Ho  Ho1  1  0.49999999  0.32791200  0.82791201  1
  Ho  Ho2  1  0.49999999  0.17208800  0.32791200  1
  Ho  Ho3  1  0.49999999  0.82791201  0.67208801  1
  Ho  Ho4  1  0.00000000  0.00000000  0.00000000  1
  Ho  Ho5  1  0.00000000  0.50000000  0.50000000  1
  Ge  Ge6  1  0.00000000  0.13050600  0.63050601  1
  Ge  Ge7  1  0.00000000  0.86949401  0.36949400  1
  Ge  Ge8  1  0.00000000  0.63050601  0.86949401  1
  Ge  Ge9  1  0.00000000  0.36949400  0.13050600  1
