# generated using pymatgen
data_AgF6
_symmetry_space_group_name_H-M   'P 1'
_cell_length_a   4.74970913
_cell_length_b   5.11325216
_cell_length_c   5.11325169
_cell_angle_alpha   120.00000000
_cell_angle_beta   90.00000000
_cell_angle_gamma   90.00000000
_symmetry_Int_Tables_number   1
_chemical_formula_structural   AgF6
_chemical_formula_sum   'Ag1 F6'
_cell_volume   107.54544652
_cell_formula_units_Z   1
loop_
 _symmetry_equiv_pos_site_id
 _symmetry_equiv_pos_as_xyz
  1  'x, y, z'
loop_
 _atom_site_type_symbol
 _atom_site_label
 _atom_site_symmetry_multiplicity
 _atom_site_fract_x
 _atom_site_fract_y
 _atom_site_fract_z
 _atom_site_occupancy
  F  F0  1  0.73915798  0.33159499  -0.00000000  1
  F  F1  1  0.26084199  0.00000000  0.66840503  1
  Ag  Ag2  1  0.26084199  0.33159499  0.33159501  1
  F  F3  1  0.26084199  0.66840497  1.00000003  1
  F  F4  1  0.73915798  0.00000000  0.33159501  1
  F  F5  1  0.73915798  0.66840497  0.66840502  1
  F  F6  1  0.00000000  0.00000000  0.00000000  1
