# generated using pymatgen
data_CsBa5Cl8
_symmetry_space_group_name_H-M   'P 1'
_cell_length_a   4.41174221
_cell_length_b   7.96440077
_cell_length_c   13.96589279
_cell_angle_alpha   93.30910492
_cell_angle_beta   90.00000000
_cell_angle_gamma   90.00000000
_symmetry_Int_Tables_number   1
_chemical_formula_structural   CsBa5Cl8
_chemical_formula_sum   'Cs1 Ba5 Cl8'
_cell_volume   489.89974632
_cell_formula_units_Z   1
loop_
 _symmetry_equiv_pos_site_id
 _symmetry_equiv_pos_as_xyz
  1  'x, y, z'
loop_
 _atom_site_type_symbol
 _atom_site_label
 _atom_site_symmetry_multiplicity
 _atom_site_fract_x
 _atom_site_fract_y
 _atom_site_fract_z
 _atom_site_occupancy
  Ba  Ba0  1  0.24999999  0.45702301  0.64689400  1
  Ba  Ba1  1  0.74999996  0.54297702  0.35310600  1
  Ba  Ba2  1  0.74999996  0.04961400  0.83984701  1
  Ba  Ba3  1  0.24999999  0.95038603  0.16015299  1
  Cl  Cl4  1  0.24999999  0.04662400  0.68536301  1
  Ba  Ba5  1  0.74999996  0.14867600  0.06456300  1
  Cl  Cl6  1  0.74999996  0.30306301  0.52177600  1
  Cl  Cl7  1  0.24999999  0.32589001  0.87843601  1
  Cl  Cl8  1  0.24999999  0.31693301  0.26078200  1
  Cl  Cl9  1  0.74999996  0.68306702  0.73921800  1
  Cl  Cl10  1  0.74999996  0.67411002  0.12156399  1
  Cl  Cl11  1  0.24999999  0.69693702  0.47822400  1
  Cs  Cs12  1  0.24999999  0.85132402  0.93543700  1
  Cl  Cl13  1  0.74999996  0.95337603  0.31463699  1
