# generated using pymatgen
data_Li3VOF5
_symmetry_space_group_name_H-M   'P 1'
_cell_length_a   4.84648991
_cell_length_b   4.84648943
_cell_length_c   9.08588696
_cell_angle_alpha   90.00000000
_cell_angle_beta   90.00000000
_cell_angle_gamma   120.00000000
_symmetry_Int_Tables_number   1
_chemical_formula_structural   Li3VOF5
_chemical_formula_sum   'Li6 V2 O2 F10'
_cell_volume   184.82152239
_cell_formula_units_Z   2
loop_
 _symmetry_equiv_pos_site_id
 _symmetry_equiv_pos_as_xyz
  1  'x, y, z'
loop_
 _atom_site_type_symbol
 _atom_site_label
 _atom_site_symmetry_multiplicity
 _atom_site_fract_x
 _atom_site_fract_y
 _atom_site_fract_z
 _atom_site_occupancy
  Li  Li0  1  0.66666666  0.33333334  0.03715400  1
  V  V1  1  0.66666666  0.33333334  0.75000000  1
  Li  Li2  1  0.00000000  0.00000000  0.00000000  1
  Li  Li3  1  0.00000000  0.00000000  0.50000000  1
  Li  Li4  1  0.66666666  0.33333334  0.46284600  1
  Li  Li5  1  0.33333330  0.66666667  0.96284600  1
  V  V6  1  0.33333330  0.66666667  0.25000000  1
  Li  Li7  1  0.33333330  0.66666667  0.53715400  1
  F  F8  1  0.96817298  0.64477601  0.88809500  1
  F  F9  1  0.03182696  0.67660301  0.38809500  1
  F  F10  1  0.96817300  0.32339700  0.61190500  1
  F  F11  1  0.03182698  0.35522400  0.11190500  1
  F  F12  1  0.67660301  0.03182700  0.88809500  1
  F  F13  1  0.64477596  0.96817301  0.38809500  1
  O  O14  1  0.67660298  0.64477601  0.61190500  1
  F  F15  1  0.64477598  0.67660301  0.11190500  1
  F  F16  1  0.35522400  0.03182700  0.61190500  1
  F  F17  1  0.32339695  0.96817301  0.11190500  1
  F  F18  1  0.35522399  0.32339700  0.88809500  1
  O  O19  1  0.32339699  0.35522400  0.38809500  1
