# generated using pymatgen
data_Na3ClF2
_symmetry_space_group_name_H-M   'P 1'
_cell_length_a   3.12013507
_cell_length_b   5.59420204
_cell_length_c   5.59420204
_cell_angle_alpha   120.00000000
_cell_angle_beta   90.00000000
_cell_angle_gamma   90.00000000
_symmetry_Int_Tables_number   1
_chemical_formula_structural   Na3ClF2
_chemical_formula_sum   'Na3 Cl1 F2'
_cell_volume   84.56298822
_cell_formula_units_Z   1
loop_
 _symmetry_equiv_pos_site_id
 _symmetry_equiv_pos_as_xyz
  1  'x, y, z'
loop_
 _atom_site_type_symbol
 _atom_site_label
 _atom_site_symmetry_multiplicity
 _atom_site_fract_x
 _atom_site_fract_y
 _atom_site_fract_z
 _atom_site_occupancy
  Cl  Cl0  1  0.00000000  0.00000000  0.00000000  1
  F  F1  1  0.99999998  0.33333333  0.66666666  1
  F  F2  1  0.00000000  0.66666666  0.33333333  1
  Na  Na3  1  0.49999999  0.50000000  -0.00000000  1
  Na  Na4  1  0.49999999  0.50000000  0.49999999  1
  Na  Na5  1  0.49999999  0.00000000  0.49999999  1
