# generated using pymatgen
data_Ga
_symmetry_space_group_name_H-M   'P 1'
_cell_length_a   4.52641296
_cell_length_b   8.98532200
_cell_length_c   8.98532200
_cell_angle_alpha   120.00000000
_cell_angle_beta   90.00000000
_cell_angle_gamma   90.00000000
_symmetry_Int_Tables_number   1
_chemical_formula_structural   Ga
_chemical_formula_sum   Ga14
_cell_volume   316.48424556
_cell_formula_units_Z   14
loop_
 _symmetry_equiv_pos_site_id
 _symmetry_equiv_pos_as_xyz
  1  'x, y, z'
loop_
 _atom_site_type_symbol
 _atom_site_label
 _atom_site_symmetry_multiplicity
 _atom_site_fract_x
 _atom_site_fract_y
 _atom_site_fract_z
 _atom_site_occupancy
  Ga  Ga0  1  0.25000000  0.66666666  0.33333332  1
  Ga  Ga1  1  0.75000001  0.33333333  0.66666666  1
  Ga  Ga2  1  0.25000000  0.03220200  0.84704099  1
  Ga  Ga3  1  0.25000000  0.15295900  0.18516100  1
  Ga  Ga4  1  0.25000000  0.81483900  0.96779798  1
  Ga  Ga5  1  0.75000001  0.96779800  0.15295899  1
  Ga  Ga6  1  0.75000001  0.84704100  0.81483898  1
  Ga  Ga7  1  0.75000001  0.18516100  0.03220200  1
  Ga  Ga8  1  0.25000000  0.69686500  0.63412699  1
  Ga  Ga9  1  0.25000000  0.36587300  0.06273800  1
  Ga  Ga10  1  0.25000000  0.93726200  0.30313499  1
  Ga  Ga11  1  0.75000001  0.30313500  0.36587299  1
  Ga  Ga12  1  0.75000001  0.63412700  0.93726199  1
  Ga  Ga13  1  0.75000001  0.06273800  0.69686499  1
