# generated using pymatgen
data_LuGa8
_symmetry_space_group_name_H-M   'P 1'
_cell_length_a   4.05355215
_cell_length_b   7.02119017
_cell_length_c   7.02118921
_cell_angle_alpha   120.00000000
_cell_angle_beta   90.00000000
_cell_angle_gamma   90.00000000
_symmetry_Int_Tables_number   1
_chemical_formula_structural   LuGa8
_chemical_formula_sum   'Lu1 Ga8'
_cell_volume   173.05645747
_cell_formula_units_Z   1
loop_
 _symmetry_equiv_pos_site_id
 _symmetry_equiv_pos_as_xyz
  1  'x, y, z'
loop_
 _atom_site_type_symbol
 _atom_site_label
 _atom_site_symmetry_multiplicity
 _atom_site_fract_x
 _atom_site_fract_y
 _atom_site_fract_z
 _atom_site_occupancy
  Lu  Lu0  1  0.49999998  0.58574896  -0.00000004  1
  Ga  Ga1  1  0.49999998  0.41425097  0.41425097  1
  Ga  Ga2  1  0.49999998  0.99999994  0.58574893  1
  Ga  Ga3  1  0.00000000  0.23389099  0.99999998  1
  Ga  Ga4  1  0.99999996  0.76610895  0.76610894  1
  Ga  Ga5  1  0.00000000  0.99999994  0.23389093  1
  Ga  Ga6  1  0.99999996  0.33333331  0.66666664  1
  Ga  Ga7  1  0.00000000  0.66666663  0.33333328  1
  Ga  Ga8  1  0.49999998  0.00000000  -0.00000000  1
