# generated using pymatgen
data_NaBi3O4
_symmetry_space_group_name_H-M   'P 1'
_cell_length_a   3.23041701
_cell_length_b   5.63138723
_cell_length_c   11.07393932
_cell_angle_alpha   90.00000000
_cell_angle_beta   90.00000000
_cell_angle_gamma   90.00000000
_symmetry_Int_Tables_number   1
_chemical_formula_structural   NaBi3O4
_chemical_formula_sum   'Na2 Bi6 O8'
_cell_volume   201.45410455
_cell_formula_units_Z   2
loop_
 _symmetry_equiv_pos_site_id
 _symmetry_equiv_pos_as_xyz
  1  'x, y, z'
loop_
 _atom_site_type_symbol
 _atom_site_label
 _atom_site_symmetry_multiplicity
 _atom_site_fract_x
 _atom_site_fract_y
 _atom_site_fract_z
 _atom_site_occupancy
  Na  Na0  1  0.25000000  0.08075300  0.85841797  1
  Bi  Bi1  1  0.25000000  0.58075298  0.64158198  1
  Na  Na2  1  0.75000000  0.91924696  0.14158200  1
  Bi  Bi3  1  0.75000000  0.41924698  0.35841799  1
  Bi  Bi4  1  0.25000000  0.41981798  0.10255600  1
  Bi  Bi5  1  0.25000000  0.91981796  0.39744399  1
  Bi  Bi6  1  0.75000000  0.58018198  0.89744397  1
  Bi  Bi7  1  0.75000000  0.08018200  0.60255598  1
  O  O8  1  0.25000000  0.16298999  0.24518299  1
  O  O9  1  0.25000000  0.66298997  0.25481699  1
  O  O10  1  0.75000000  0.83700997  0.75481698  1
  O  O11  1  0.75000000  0.33700999  0.74518298  1
  O  O12  1  0.25000000  0.74902497  0.99250897  1
  O  O13  1  0.25000000  0.24902499  0.50749099  1
  O  O14  1  0.75000000  0.25097499  0.00749100  1
  O  O15  1  0.75000000  0.75097497  0.49250899  1
