# generated using pymatgen
data_Ho3Ge2
_symmetry_space_group_name_H-M   'P 1'
_cell_length_a   3.84958506
_cell_length_b   7.91257000
_cell_length_c   7.91257000
_cell_angle_alpha   90.00000000
_cell_angle_beta   90.00000000
_cell_angle_gamma   90.00000000
_symmetry_Int_Tables_number   1
_chemical_formula_structural   Ho3Ge2
_chemical_formula_sum   'Ho6 Ge4'
_cell_volume   241.01776229
_cell_formula_units_Z   2
loop_
 _symmetry_equiv_pos_site_id
 _symmetry_equiv_pos_as_xyz
  1  'x, y, z'
loop_
 _atom_site_type_symbol
 _atom_site_label
 _atom_site_symmetry_multiplicity
 _atom_site_fract_x
 _atom_site_fract_y
 _atom_site_fract_z
 _atom_site_occupancy
  Ho  Ho0  1  0.49999999  0.67094000  0.17094000  1
  Ho  Ho1  1  0.49999999  0.32906000  0.82906000  1
  Ho  Ho2  1  0.49999999  0.17094000  0.32906000  1
  Ho  Ho3  1  0.49999999  0.82906000  0.67094000  1
  Ho  Ho4  1  0.00000000  0.00000000  0.00000000  1
  Ho  Ho5  1  0.00000000  0.50000000  0.50000000  1
  Ge  Ge6  1  0.00000000  0.12912800  0.62912800  1
  Ge  Ge7  1  0.99999999  0.87087200  0.37087200  1
  Ge  Ge8  1  0.99999999  0.62912800  0.87087200  1
  Ge  Ge9  1  0.00000000  0.37087200  0.12912800  1
