# generated using pymatgen
data_BaGa5
_symmetry_space_group_name_H-M   'P 1'
_cell_length_a   5.57812977
_cell_length_b   7.09832430
_cell_length_c   7.09832430
_cell_angle_alpha   103.29349518
_cell_angle_beta   90.00000000
_cell_angle_gamma   90.00000000
_symmetry_Int_Tables_number   1
_chemical_formula_structural   BaGa5
_chemical_formula_sum   'Ba2 Ga10'
_cell_volume   273.52977719
_cell_formula_units_Z   2
loop_
 _symmetry_equiv_pos_site_id
 _symmetry_equiv_pos_as_xyz
  1  'x, y, z'
loop_
 _atom_site_type_symbol
 _atom_site_label
 _atom_site_symmetry_multiplicity
 _atom_site_fract_x
 _atom_site_fract_y
 _atom_site_fract_z
 _atom_site_occupancy
  Ba  Ba0  1  -0.00000000  0.83249499  0.83249495  1
  Ba  Ba1  1  0.50000002  0.17555600  0.17555599  1
  Ga  Ga2  1  0.74988703  0.70090599  0.29043996  1
  Ga  Ga3  1  0.25011301  0.70090599  0.29043996  1
  Ga  Ga4  1  0.74988703  0.29044000  0.70090599  1
  Ga  Ga5  1  0.25011301  0.29044000  0.70090599  1
  Ga  Ga6  1  0.50000002  0.57704699  0.57704697  1
  Ga  Ga7  1  -0.00000000  0.02405800  0.42018900  1
  Ga  Ga8  1  0.50000002  0.58237899  0.96370497  1
  Ga  Ga9  1  0.50000002  0.96370499  0.58237895  1
  Ga  Ga10  1  1.00000004  0.42018900  0.02405798  1
  Ga  Ga11  1  -0.00000000  0.44187800  0.44187798  1
