# generated using pymatgen
data_CuAg2PSe3
_symmetry_space_group_name_H-M   'P 1'
_cell_length_a   4.06378222
_cell_length_b   6.70679712
_cell_length_c   7.07275915
_cell_angle_alpha   91.04938507
_cell_angle_beta   90.00000000
_cell_angle_gamma   90.00000000
_symmetry_Int_Tables_number   1
_chemical_formula_structural   CuAg2PSe3
_chemical_formula_sum   'Cu1 Ag2 P1 Se3'
_cell_volume   192.73545722
_cell_formula_units_Z   1
loop_
 _symmetry_equiv_pos_site_id
 _symmetry_equiv_pos_as_xyz
  1  'x, y, z'
loop_
 _atom_site_type_symbol
 _atom_site_label
 _atom_site_symmetry_multiplicity
 _atom_site_fract_x
 _atom_site_fract_y
 _atom_site_fract_z
 _atom_site_occupancy
  Se  Se0  1  0.00000000  0.52466999  0.70248300  1
  Se  Se1  1  0.49999997  0.50196199  0.12481700  1
  Se  Se2  1  0.49999997  0.97201698  0.84861400  1
  P  P3  1  0.49999997  0.62827599  0.82436400  1
  Ag  Ag4  1  0.00000000  0.12848100  0.67237901  1
  Cu  Cu5  1  0.49999997  0.13626400  0.16279100  1
  Ag  Ag6  1  0.00000000  0.61233099  0.33120300  1
