# generated using pymatgen
data_Cs3BaAg2F8
_symmetry_space_group_name_H-M   'P 1'
_cell_length_a   6.07157993
_cell_length_b   6.07157993
_cell_length_c   10.01481342
_cell_angle_alpha   90.00000000
_cell_angle_beta   90.00000000
_cell_angle_gamma   111.36846161
_symmetry_Int_Tables_number   1
_chemical_formula_structural   Cs3BaAg2F8
_chemical_formula_sum   'Cs3 Ba1 Ag2 F8'
_cell_volume   343.80771929
_cell_formula_units_Z   1
loop_
 _symmetry_equiv_pos_site_id
 _symmetry_equiv_pos_as_xyz
  1  'x, y, z'
loop_
 _atom_site_type_symbol
 _atom_site_label
 _atom_site_symmetry_multiplicity
 _atom_site_fract_x
 _atom_site_fract_y
 _atom_site_fract_z
 _atom_site_occupancy
  Ba  Ba0  1  0.77781305  0.40706202  0.24999999  1
  Cs  Cs1  1  0.40706206  0.77781304  0.74999997  1
  Cs  Cs2  1  0.03822800  0.03822800  -0.00000000  1
  Cs  Cs3  1  0.03822800  0.03822800  0.49999998  1
  Ag  Ag4  1  0.77994704  0.34990902  0.74999997  1
  Ag  Ag5  1  0.34990906  0.77994704  0.24999999  1
  F  F6  1  0.59849703  0.16818901  0.93225196  1
  F  F7  1  0.16818904  0.59849703  0.06774800  1
  F  F8  1  0.59849703  0.16818901  0.56774798  1
  F  F9  1  0.16818904  0.59849703  0.43225198  1
  F  F10  1  0.86764107  0.74094804  0.74999997  1
  F  F11  1  0.74094807  0.86764104  0.24999999  1
  F  F12  1  0.30508102  0.12753001  0.24999999  1
  F  F13  1  0.12753002  0.30508101  0.74999997  1
