# generated using pymatgen
data_LuHfGa14
_symmetry_space_group_name_H-M   'P 1'
_cell_length_a   6.21652079
_cell_length_b   6.21652079
_cell_length_c   9.97121334
_cell_angle_alpha   71.83688354
_cell_angle_beta   71.83688354
_cell_angle_gamma   59.99999237
_symmetry_Int_Tables_number   1
_chemical_formula_structural   LuHfGa14
_chemical_formula_sum   'Lu1 Hf1 Ga14'
_cell_volume   311.34531473
_cell_formula_units_Z   1
loop_
 _symmetry_equiv_pos_site_id
 _symmetry_equiv_pos_as_xyz
  1  'x, y, z'
loop_
 _atom_site_type_symbol
 _atom_site_label
 _atom_site_symmetry_multiplicity
 _atom_site_fract_x
 _atom_site_fract_y
 _atom_site_fract_z
 _atom_site_occupancy
  Hf  Hf0  1  0.87046300  0.87046299  0.38861104  1
  Lu  Lu1  1  0.12953700  0.12953700  0.61138900  1
  Ga  Ga2  1  0.71215100  0.71215099  0.86354703  1
  Ga  Ga3  1  0.28784900  0.28784900  0.13645301  1
  Ga  Ga4  1  0.83125600  0.39765300  0.37343803  1
  Ga  Ga5  1  0.39765300  0.39765300  0.37343802  1
  Ga  Ga6  1  0.39765300  0.83125599  0.37343803  1
  Ga  Ga7  1  0.16874400  0.60234699  0.62656202  1
  Ga  Ga8  1  0.60234700  0.60234699  0.62656203  1
  Ga  Ga9  1  0.60234700  0.16874400  0.62656202  1
  Ga  Ga10  1  0.70993200  0.20773600  0.87459602  1
  Ga  Ga11  1  0.20773600  0.20773600  0.87459601  1
  Ga  Ga12  1  0.20773600  0.70993199  0.87459602  1
  Ga  Ga13  1  0.29006800  0.79226399  0.12540402  1
  Ga  Ga14  1  0.79226400  0.79226399  0.12540403  1
  Ga  Ga15  1  0.79226400  0.29006800  0.12540402  1
