# generated using pymatgen
data_In(GaSe2)2
_symmetry_space_group_name_H-M   'P 1'
_cell_length_a   7.71811819
_cell_length_b   7.73367882
_cell_length_c   7.73367882
_cell_angle_alpha   60.21007156
_cell_angle_beta   60.06653595
_cell_angle_gamma   60.06653595
_symmetry_Int_Tables_number   1
_chemical_formula_structural   In(GaSe2)2
_chemical_formula_sum   'In2 Ga4 Se8'
_cell_volume   327.25844774
_cell_formula_units_Z   2
loop_
 _symmetry_equiv_pos_site_id
 _symmetry_equiv_pos_as_xyz
  1  'x, y, z'
loop_
 _atom_site_type_symbol
 _atom_site_label
 _atom_site_symmetry_multiplicity
 _atom_site_fract_x
 _atom_site_fract_y
 _atom_site_fract_z
 _atom_site_occupancy
  Ga  Ga0  1  0.49999996  1.00000002  0.00000003  1
  In  In1  1  0.49999998  0.50000001  0.50000002  1
  Ga  Ga2  1  0.87836598  0.37163401  0.87163401  1
  Ga  Ga3  1  0.12163397  0.62836601  0.12836603  1
  In  In4  1  0.50000000  0.00000000  0.49999999  1
  Ga  Ga5  1  0.99999999  0.00000000  0.49999998  1
  Se  Se6  1  0.25483797  0.76464701  0.72567704  1
  Se  Se7  1  0.25483699  0.22567700  0.26464801  1
  Se  Se8  1  0.25385697  0.76332501  0.26332503  1
  Se  Se9  1  0.71949296  0.76332401  0.26332502  1
  Se  Se10  1  0.74516199  0.23535300  0.27432299  1
  Se  Se11  1  0.74516296  0.77432301  0.73535203  1
  Se  Se12  1  0.74614299  0.23667500  0.73667500  1
  Se  Se13  1  0.28050699  0.23667600  0.73667502  1
