# generated using pymatgen
data_Ho3Te2Se
_symmetry_space_group_name_H-M   'P 1'
_cell_length_a   4.34041214
_cell_length_b   4.34041119
_cell_length_c   10.74172020
_cell_angle_alpha   90.00000000
_cell_angle_beta   90.00000000
_cell_angle_gamma   120.00000763
_symmetry_Int_Tables_number   1
_chemical_formula_structural   Ho3Te2Se
_chemical_formula_sum   'Ho3 Te2 Se1'
_cell_volume   175.25332952
_cell_formula_units_Z   1
loop_
 _symmetry_equiv_pos_site_id
 _symmetry_equiv_pos_as_xyz
  1  'x, y, z'
loop_
 _atom_site_type_symbol
 _atom_site_label
 _atom_site_symmetry_multiplicity
 _atom_site_fract_x
 _atom_site_fract_y
 _atom_site_fract_z
 _atom_site_occupancy
  Te  Te0  1  0.66666665  0.33333333  0.32120099  1
  Te  Te1  1  0.33333333  0.66666666  0.67879899  1
  Se  Se2  1  0.00000000  0.00000000  0.00000000  1
  Ho  Ho3  1  0.66666665  0.33333333  0.85715298  1
  Ho  Ho4  1  0.33333333  0.66666666  0.14284700  1
  Ho  Ho5  1  0.00000000  0.00000000  0.49999999  1
