# generated using pymatgen
data_Co5B2
_symmetry_space_group_name_H-M   'P 1'
_cell_length_a   4.47447014
_cell_length_b   4.99743319
_cell_length_c   6.22786188
_cell_angle_alpha   96.92079926
_cell_angle_beta   111.05291748
_cell_angle_gamma   90.00000000
_symmetry_Int_Tables_number   1
_chemical_formula_structural   Co5B2
_chemical_formula_sum   'Co10 B4'
_cell_volume   128.87675252
_cell_formula_units_Z   2
loop_
 _symmetry_equiv_pos_site_id
 _symmetry_equiv_pos_as_xyz
  1  'x, y, z'
loop_
 _atom_site_type_symbol
 _atom_site_label
 _atom_site_symmetry_multiplicity
 _atom_site_fract_x
 _atom_site_fract_y
 _atom_site_fract_z
 _atom_site_occupancy
  Co  Co0  1  0.19326697  0.69345996  0.56716894  1
  Co  Co1  1  0.62609796  0.80653996  0.43283094  1
  Co  Co2  1  0.80673297  0.30653998  0.43283097  1
  Co  Co3  1  0.37390198  0.19345999  0.56716897  1
  Co  Co4  1  0.43060796  0.74999996  -0.00000004  1
  Co  Co5  1  0.56939197  0.24999999  -0.00000002  1
  Co  Co6  1  0.98822797  0.08077400  0.79908897  1
  Co  Co7  1  0.18913898  0.41922598  0.20091097  1
  Co  Co8  1  0.01177197  0.91922595  0.20091094  1
  Co  Co9  1  0.81086096  0.58077397  0.79908894  1
  B  B10  1  0.20368398  0.42138398  0.77351995  1
  B  B11  1  0.43016398  0.07861600  0.22647999  1
  B  B12  1  0.79631596  0.57861597  0.22647996  1
  B  B13  1  0.56983595  0.92138395  0.77351992  1
