# generated using pymatgen
data_BP12I
_symmetry_space_group_name_H-M   'P 1'
_cell_length_a   5.47871494
_cell_length_b   5.48364401
_cell_length_c   6.52028275
_cell_angle_alpha   65.13342285
_cell_angle_beta   90.00000000
_cell_angle_gamma   90.00000000
_symmetry_Int_Tables_number   1
_chemical_formula_structural   BP12I
_chemical_formula_sum   'B1 P12 I1'
_cell_volume   177.72980139
_cell_formula_units_Z   1
loop_
 _symmetry_equiv_pos_site_id
 _symmetry_equiv_pos_as_xyz
  1  'x, y, z'
loop_
 _atom_site_type_symbol
 _atom_site_label
 _atom_site_symmetry_multiplicity
 _atom_site_fract_x
 _atom_site_fract_y
 _atom_site_fract_z
 _atom_site_occupancy
  P  P0  1  0.00000000  0.65495101  0.69009799  1
  P  P1  1  -0.00000000  0.34504900  0.30990200  1
  P  P2  1  0.50000001  0.84504901  0.30990198  1
  P  P3  1  0.50000001  0.15495100  0.69009801  1
  I  I4  1  0.00000000  0.00000000  0.00000000  1
  P  P5  1  0.50000001  0.50000000  -0.00000001  1
  P  P6  1  0.80457401  0.30502700  1.00000001  1
  P  P7  1  0.75000001  0.98926801  0.49999998  1
  P  P8  1  0.75000001  0.48926800  0.50000000  1
  P  P9  1  0.69542601  0.80502701  -0.00000002  1
  B  B10  1  0.30457400  0.19497300  -0.00000000  1
  P  P11  1  0.25000000  0.51073200  0.49999999  1
  P  P12  1  0.25000000  0.01073200  0.50000001  1
  P  P13  1  0.19542600  0.69497301  1.00000000  1
