# generated using pymatgen
data_BaGaAg(Mo2S5)2
_symmetry_space_group_name_H-M   'P 1'
_cell_length_a   7.45378017
_cell_length_b   7.45378017
_cell_length_c   7.45378017
_cell_angle_alpha   109.47122192
_cell_angle_beta   109.47122192
_cell_angle_gamma   109.47122192
_symmetry_Int_Tables_number   1
_chemical_formula_structural   BaGaAg(Mo2S5)2
_chemical_formula_sum   'Ba1 Ga1 Ag1 Mo4 S10'
_cell_volume   318.79230503
_cell_formula_units_Z   1
loop_
 _symmetry_equiv_pos_site_id
 _symmetry_equiv_pos_as_xyz
  1  'x, y, z'
loop_
 _atom_site_type_symbol
 _atom_site_label
 _atom_site_symmetry_multiplicity
 _atom_site_fract_x
 _atom_site_fract_y
 _atom_site_fract_z
 _atom_site_occupancy
  Ba  Ba0  1  0.00000000  0.00000000  0.00000000  1
  S  S1  1  0.34927601  0.14999901  0.49927602  1
  S  S2  1  0.65072406  0.85000104  0.50072406  1
  Ga  Ga3  1  0.65072402  0.15000001  0.80072403  1
  S  S4  1  0.34927606  0.85000004  0.19927606  1
  S  S5  1  0.19927702  0.34927701  0.85000103  1
  Ag  Ag6  1  0.80072305  0.65072303  0.14999906  1
  S  S7  1  0.50072405  0.65072403  0.85000005  1
  S  S8  1  0.49927603  0.34927601  0.15000003  1
  S  S9  1  0.85000004  0.50072402  0.65072305  1
  S  S10  1  0.15000003  0.49927602  0.34927703  1
  S  S11  1  0.85000002  0.19927601  0.34927603  1
  S  S12  1  0.15000005  0.80072403  0.65072405  1
  Mo  Mo13  1  0.00000000  0.00000000  0.50000000  1
  Mo  Mo14  1  0.50000004  0.50000002  0.50000004  1
  Mo  Mo15  1  0.00000003  0.50000002  0.00000003  1
  Mo  Mo16  1  0.50000007  1.00000004  1.00000007  1
