# generated using pymatgen
data_Mo11P5
_symmetry_space_group_name_H-M   'P 1'
_cell_length_a   4.81877613
_cell_length_b   7.06260347
_cell_length_c   7.06260347
_cell_angle_alpha   83.31668854
_cell_angle_beta   70.05320740
_cell_angle_gamma   70.05320740
_symmetry_Int_Tables_number   1
_chemical_formula_structural   Mo11P5
_chemical_formula_sum   'Mo11 P5'
_cell_volume   212.38859343
_cell_formula_units_Z   1
loop_
 _symmetry_equiv_pos_site_id
 _symmetry_equiv_pos_as_xyz
  1  'x, y, z'
loop_
 _atom_site_type_symbol
 _atom_site_label
 _atom_site_symmetry_multiplicity
 _atom_site_fract_x
 _atom_site_fract_y
 _atom_site_fract_z
 _atom_site_occupancy
  Mo  Mo0  1  0.49999993  0.50000000  0.49999999  1
  Mo  Mo1  1  -0.00000006  0.50000000  0.50000001  1
  Mo  Mo2  1  0.02693896  0.30346200  0.14702401  1
  Mo  Mo3  1  0.47742491  0.69653800  0.85297599  1
  Mo  Mo4  1  0.97306089  0.85297600  0.69653798  1
  Mo  Mo5  1  0.52257498  0.14702400  0.30346197  1
  Mo  Mo6  1  0.17396289  0.85297600  0.30346203  1
  Mo  Mo7  1  0.33040098  0.14702400  0.69653797  1
  Mo  Mo8  1  0.66959896  0.30346200  0.85297596  1
  Mo  Mo9  1  0.82603691  0.69653800  0.14702399  1
  P  P10  1  0.00000000  0.00000000  0.00000000  1
  Mo  Mo11  1  0.91195497  0.17609000  0.49999995  1
  P  P12  1  0.58804489  0.82391000  0.50000000  1
  P  P13  1  0.08804494  0.50000000  0.82391000  1
  P  P14  1  0.41195493  0.50000000  0.17609000  1
  P  P15  1  0.49999987  1.00000000  0.00000003  1
