# generated using pymatgen
data_TbGa3
_symmetry_space_group_name_H-M   'P 1'
_cell_length_a   5.92002487
_cell_length_b   7.11245584
_cell_length_c   7.67602491
_cell_angle_alpha   90.00000000
_cell_angle_beta   90.00000000
_cell_angle_gamma   90.00000000
_symmetry_Int_Tables_number   1
_chemical_formula_structural   TbGa3
_chemical_formula_sum   'Tb4 Ga12'
_cell_volume   323.20605641
_cell_formula_units_Z   4
loop_
 _symmetry_equiv_pos_site_id
 _symmetry_equiv_pos_as_xyz
  1  'x, y, z'
loop_
 _atom_site_type_symbol
 _atom_site_label
 _atom_site_symmetry_multiplicity
 _atom_site_fract_x
 _atom_site_fract_y
 _atom_site_fract_z
 _atom_site_occupancy
  Tb  Tb0  1  0.34819301  0.75000002  0.03322500  1
  Tb  Tb1  1  0.15180700  0.75000002  0.53322501  1
  Tb  Tb2  1  0.65180701  0.25000001  0.96677501  1
  Tb  Tb3  1  0.84819302  0.25000001  0.46677501  1
  Ga  Ga4  1  0.65204501  0.75000002  0.37923800  1
  Ga  Ga5  1  0.84795502  0.75000002  0.87923801  1
  Ga  Ga6  1  0.34795501  0.25000001  0.62076201  1
  Ga  Ga7  1  0.15204500  0.25000001  0.12076200  1
  Ga  Ga8  1  0.91221402  0.55305001  0.17675600  1
  Ga  Ga9  1  0.58778601  0.94695002  0.67675601  1
  Ga  Ga10  1  0.08778600  0.05305000  0.82324401  1
  Ga  Ga11  1  0.41221401  0.44695001  0.32324400  1
  Ga  Ga12  1  0.08778600  0.44695001  0.82324401  1
  Ga  Ga13  1  0.41221401  0.05305000  0.32324400  1
  Ga  Ga14  1  0.91221402  0.94695002  0.17675600  1
  Ga  Ga15  1  0.58778601  0.55305001  0.67675601  1
