# generated using pymatgen
data_Th5O9
_symmetry_space_group_name_H-M   'P 1'
_cell_length_a   3.82780600
_cell_length_b   5.52936411
_cell_length_c   10.31118488
_cell_angle_alpha   105.55269623
_cell_angle_beta   100.69694519
_cell_angle_gamma   90.00000000
_symmetry_Int_Tables_number   1
_chemical_formula_structural   Th5O9
_chemical_formula_sum   'Th5 O9'
_cell_volume   206.30939872
_cell_formula_units_Z   1
loop_
 _symmetry_equiv_pos_site_id
 _symmetry_equiv_pos_as_xyz
  1  'x, y, z'
loop_
 _atom_site_type_symbol
 _atom_site_label
 _atom_site_symmetry_multiplicity
 _atom_site_fract_x
 _atom_site_fract_y
 _atom_site_fract_z
 _atom_site_occupancy
  Th  Th0  1  0.80121498  0.80768098  0.60242999  1
  Th  Th1  1  0.60569998  0.61945598  0.21139999  1
  Th  Th2  1  0.39429999  0.40805599  0.78860001  1
  Th  Th3  1  0.19878499  0.20525099  0.39757001  1
  Th  Th4  1  -0.00000002  0.95405297  -0.00000002  1
  O  O5  1  0.69685899  0.46018199  0.39371800  1
  O  O6  1  0.08473499  0.33408999  0.16946900  1
  O  O7  1  0.91526599  0.16462100  0.83053201  1
  O  O8  1  0.70141998  0.96228397  0.40283999  1
  O  O9  1  0.10367598  0.84987198  0.20735299  1
  O  O10  1  0.30314100  0.06646400  0.60628201  1
  O  O11  1  0.49999998  0.75029198  -0.00000002  1
  O  O12  1  0.89632298  0.64251898  0.79264600  1
  O  O13  1  0.29857999  0.55944398  0.59716000  1
