# generated using pymatgen
data_MnF2
_symmetry_space_group_name_H-M   'P 1'
_cell_length_a   4.86713791
_cell_length_b   5.66547298
_cell_length_c   7.57549286
_cell_angle_alpha   97.80458069
_cell_angle_beta   90.00000000
_cell_angle_gamma   90.00000000
_symmetry_Int_Tables_number   1
_chemical_formula_structural   MnF2
_chemical_formula_sum   'Mn6 F12'
_cell_volume   206.95651135
_cell_formula_units_Z   6
loop_
 _symmetry_equiv_pos_site_id
 _symmetry_equiv_pos_as_xyz
  1  'x, y, z'
loop_
 _atom_site_type_symbol
 _atom_site_label
 _atom_site_symmetry_multiplicity
 _atom_site_fract_x
 _atom_site_fract_y
 _atom_site_fract_z
 _atom_site_occupancy
  Mn  Mn0  1  0.50000001  0.00000000  0.50000000  1
  Mn  Mn1  1  0.00000000  0.50000000  0.50000002  1
  Mn  Mn2  1  0.00872500  0.87080401  0.84969503  1
  Mn  Mn3  1  0.99127502  0.12919600  0.15030500  1
  Mn  Mn4  1  0.49127501  0.37080400  0.84969501  1
  Mn  Mn5  1  0.50872501  0.62919601  0.15030502  1
  F  F6  1  0.67537601  0.32572500  0.61709001  1
  F  F7  1  0.76933401  0.15821000  0.92990500  1
  F  F8  1  0.78356801  0.42211000  0.24716702  1
  F  F9  1  0.17537600  0.17427500  0.38291001  1
  F  F10  1  0.28356801  0.07789000  0.75283300  1
  F  F11  1  0.21643200  0.57789001  0.75283302  1
  F  F12  1  0.32462401  0.67427501  0.38291002  1
  F  F13  1  0.71643201  0.92211001  0.24716703  1
  F  F14  1  0.73066601  0.65821001  0.92990502  1
  F  F15  1  0.82462402  0.82572501  0.61709003  1
  F  F16  1  0.23066600  0.84179001  0.07009503  1
  F  F17  1  0.26933401  0.34179000  0.07009501  1
