# generated using pymatgen
data_Ba2LiGa3(PN)2
_symmetry_space_group_name_H-M   'P 1'
_cell_length_a   3.99733210
_cell_length_b   5.90842915
_cell_length_c   7.21921778
_cell_angle_alpha   90.00000000
_cell_angle_beta   90.00000000
_cell_angle_gamma   109.77172852
_symmetry_Int_Tables_number   1
_chemical_formula_structural   Ba2LiGa3(PN)2
_chemical_formula_sum   'Ba2 Li1 Ga3 P2 N2'
_cell_volume   160.45161339
_cell_formula_units_Z   1
loop_
 _symmetry_equiv_pos_site_id
 _symmetry_equiv_pos_as_xyz
  1  'x, y, z'
loop_
 _atom_site_type_symbol
 _atom_site_label
 _atom_site_symmetry_multiplicity
 _atom_site_fract_x
 _atom_site_fract_y
 _atom_site_fract_z
 _atom_site_occupancy
  Ba  Ba0  1  0.45102991  0.90205996  0.75000002  1
  Ba  Ba1  1  0.54896998  0.09794000  0.25000001  1
  P  P2  1  0.72988594  0.45977198  0.75000002  1
  P  P3  1  0.27011394  0.54022798  0.25000001  1
  Ga  Ga4  1  0.16627197  0.33254399  0.93982003  1
  Ga  Ga5  1  0.83372792  0.66745597  0.06018000  1
  Li  Li6  1  0.83372792  0.66745597  0.43982001  1
  Ga  Ga7  1  0.16627197  0.33254399  0.56018002  1
  N  N8  1  0.00000000  0.00000000  0.00000000  1
  N  N9  1  0.00000000  0.00000000  0.50000002  1
