# generated using pymatgen
data_Mg3CdF6
_symmetry_space_group_name_H-M   'P 1'
_cell_length_a   3.23815298
_cell_length_b   6.16322803
_cell_length_c   6.16322803
_cell_angle_alpha   108.79937744
_cell_angle_beta   90.00000000
_cell_angle_gamma   90.00000000
_symmetry_Int_Tables_number   1
_chemical_formula_structural   Mg3CdF6
_chemical_formula_sum   'Mg3 Cd1 F6'
_cell_volume   116.44062874
_cell_formula_units_Z   1
loop_
 _symmetry_equiv_pos_site_id
 _symmetry_equiv_pos_as_xyz
  1  'x, y, z'
loop_
 _atom_site_type_symbol
 _atom_site_label
 _atom_site_symmetry_multiplicity
 _atom_site_fract_x
 _atom_site_fract_y
 _atom_site_fract_z
 _atom_site_occupancy
  Cd  Cd0  1  -0.00000000  0.50000002  0.50000003  1
  Mg  Mg1  1  0.50000000  0.00000000  0.50000001  1
  Mg  Mg2  1  0.00000000  0.00000000  0.00000000  1
  Mg  Mg3  1  0.50000000  0.50000002  0.00000001  1
  F  F4  1  -0.00000000  0.33993201  0.08617701  1
  F  F5  1  -0.00000000  0.66006802  0.91382304  1
  F  F6  1  1.00000001  0.08617700  0.33993201  1
  F  F7  1  -0.00000000  0.91382303  0.66006804  1
  F  F8  1  0.50000000  0.35295501  0.64704503  1
  F  F9  1  0.50000000  0.64704502  0.35295503  1
