# generated using pymatgen
data_Cs4Sb3F13
_symmetry_space_group_name_H-M   'P 1'
_cell_length_a   6.76063395
_cell_length_b   7.87765217
_cell_length_c   9.90608406
_cell_angle_alpha   90.00000000
_cell_angle_beta   92.39244843
_cell_angle_gamma   90.00000000
_symmetry_Int_Tables_number   1
_chemical_formula_structural   Cs4Sb3F13
_chemical_formula_sum   'Cs4 Sb3 F13'
_cell_volume   527.11759092
_cell_formula_units_Z   1
loop_
 _symmetry_equiv_pos_site_id
 _symmetry_equiv_pos_as_xyz
  1  'x, y, z'
loop_
 _atom_site_type_symbol
 _atom_site_label
 _atom_site_symmetry_multiplicity
 _atom_site_fract_x
 _atom_site_fract_y
 _atom_site_fract_z
 _atom_site_occupancy
  Cs  Cs0  1  0.69473701  0.44574899  0.50755299  1
  Cs  Cs1  1  0.30526300  0.94574898  0.49244699  1
  Cs  Cs2  1  0.81460701  0.73689198  0.98196998  1
  Cs  Cs3  1  0.18539300  0.23689199  0.01803000  1
  Sb  Sb4  1  0.79565201  0.93273998  0.69808499  1
  Sb  Sb5  1  0.30640100  0.64907099  0.17135000  1
  Sb  Sb6  1  0.69359901  0.14907100  0.82864998  1
  F  F7  1  0.20434800  0.43273999  0.30191499  1
  F  F8  1  0.95004501  0.35913699  0.19256101  1
  F  F9  1  0.67308401  0.03527400  0.01832701  1
  F  F10  1  0.40805000  0.24931499  0.26911600  1
  F  F11  1  0.32691600  0.53527399  0.98167297  1
  F  F12  1  0.09313200  0.83627298  0.17010300  1
  F  F13  1  0.90686801  0.33627299  0.82989699  1
  F  F14  1  0.59195001  0.74931498  0.73088399  1
  F  F15  1  0.04995500  0.85913698  0.80743897  1
  F  F16  1  0.17412600  0.51371699  0.48835899  1
  F  F17  1  0.56670201  0.73498298  0.24722600  1
  F  F18  1  0.82587401  0.01371700  0.51164100  1
  F  F19  1  0.43329800  0.23498299  0.75277398  1
