# generated using pymatgen
data_Li5V2F12
_symmetry_space_group_name_H-M   'P 1'
_cell_length_a   6.22725439
_cell_length_b   6.23350906
_cell_length_c   6.23386812
_cell_angle_alpha   70.27601624
_cell_angle_beta   71.73026276
_cell_angle_gamma   110.54124451
_symmetry_Int_Tables_number   1
_chemical_formula_structural   Li5V2F12
_chemical_formula_sum   'Li5 V2 F12'
_cell_volume   185.94396518
_cell_formula_units_Z   1
loop_
 _symmetry_equiv_pos_site_id
 _symmetry_equiv_pos_as_xyz
  1  'x, y, z'
loop_
 _atom_site_type_symbol
 _atom_site_label
 _atom_site_symmetry_multiplicity
 _atom_site_fract_x
 _atom_site_fract_y
 _atom_site_fract_z
 _atom_site_occupancy
  Li  Li0  1  0.49996800  0.99994999  0.00007602  1
  Li  Li1  1  0.99996902  0.99989899  0.50002901  1
  V  V2  1  0.49999501  0.50007199  0.49996301  1
  Li  Li3  1  0.00003299  0.50004199  0.99987203  1
  Li  Li4  1  0.99987703  0.49976999  0.50009699  1
  Li  Li5  1  0.50016102  0.00013500  0.50002899  1
  V  V6  1  0.49992601  0.50004499  0.00009900  1
  F  F7  1  0.13706699  0.82076199  0.67364003  1
  F  F8  1  0.86312003  0.17935100  0.32628398  1
  F  F9  1  0.50123800  0.81746899  0.31953802  1
  F  F10  1  0.18347999  0.68591299  0.13428702  1
  F  F11  1  0.29489001  0.13614600  0.19242100  1
  F  F12  1  0.33172600  0.49684899  0.80443602  1
  F  F13  1  0.17191700  0.30850700  0.52487901  1
  F  F14  1  0.70495601  0.86372999  0.80755102  1
  F  F15  1  0.49889402  0.18269900  0.68050100  1
  F  F16  1  0.81646403  0.31401800  0.86572100  1
  F  F17  1  0.66822402  0.50314999  0.19556200  1
  F  F18  1  0.82809402  0.69149199  0.47501500  1
