# generated using pymatgen
data_Ga
_symmetry_space_group_name_H-M   'P 1'
_cell_length_a   4.03498983
_cell_length_b   5.53871918
_cell_length_c   8.24127102
_cell_angle_alpha   90.00000000
_cell_angle_beta   90.00000000
_cell_angle_gamma   90.00000000
_symmetry_Int_Tables_number   1
_chemical_formula_structural   Ga
_chemical_formula_sum   Ga12
_cell_volume   184.18149231
_cell_formula_units_Z   12
loop_
 _symmetry_equiv_pos_site_id
 _symmetry_equiv_pos_as_xyz
  1  'x, y, z'
loop_
 _atom_site_type_symbol
 _atom_site_label
 _atom_site_symmetry_multiplicity
 _atom_site_fract_x
 _atom_site_fract_y
 _atom_site_fract_z
 _atom_site_occupancy
  Ga  Ga0  1  0.75000003  0.34831699  0.59647600  1
  Ga  Ga1  1  0.75000003  0.84831697  0.90352400  1
  Ga  Ga2  1  0.25000001  0.65168298  0.40352400  1
  Ga  Ga3  1  0.25000001  0.15168300  0.09647600  1
  Ga  Ga4  1  0.75000003  0.35561799  0.92498700  1
  Ga  Ga5  1  0.75000003  0.85561797  0.57501300  1
  Ga  Ga6  1  0.25000001  0.64438198  0.07501300  1
  Ga  Ga7  1  0.25000001  0.14438200  0.42498700  1
  Ga  Ga8  1  0.75000003  0.40937199  0.26480600  1
  Ga  Ga9  1  0.75000003  0.90937197  0.23519400  1
  Ga  Ga10  1  0.25000001  0.59062798  0.73519400  1
  Ga  Ga11  1  0.25000001  0.09062800  0.76480600  1
