# generated using pymatgen
data_Cr5SiB2
_symmetry_space_group_name_H-M   'P 1'
_cell_length_a   5.53049612
_cell_length_b   5.53049612
_cell_length_c   6.45754480
_cell_angle_alpha   115.35462952
_cell_angle_beta   115.35462952
_cell_angle_gamma   90.00000000
_symmetry_Int_Tables_number   1
_chemical_formula_structural   Cr5SiB2
_chemical_formula_sum   'Cr10 Si2 B4'
_cell_volume   157.17562793
_cell_formula_units_Z   2
loop_
 _symmetry_equiv_pos_site_id
 _symmetry_equiv_pos_as_xyz
  1  'x, y, z'
loop_
 _atom_site_type_symbol
 _atom_site_label
 _atom_site_symmetry_multiplicity
 _atom_site_fract_x
 _atom_site_fract_y
 _atom_site_fract_z
 _atom_site_occupancy
  Cr  Cr0  1  0.49999995  0.49999997  -0.00000006  1
  Cr  Cr1  1  0.00000000  0.00000000  0.00000000  1
  Cr  Cr2  1  0.19517899  0.03255000  0.72772897  1
  Cr  Cr3  1  0.53254993  0.69517896  0.72772890  1
  Cr  Cr4  1  0.69517896  0.19517899  0.72772893  1
  Cr  Cr5  1  0.03254997  0.53254997  0.72772894  1
  Cr  Cr6  1  0.80482090  0.96744994  0.27227088  1
  Cr  Cr7  1  0.46744996  0.30482098  0.27227095  1
  Cr  Cr8  1  0.30482094  0.80482095  0.27227092  1
  Cr  Cr9  1  0.96744993  0.46744997  0.27227091  1
  Si  Si10  1  0.24999997  0.24999999  0.49999996  1
  Si  Si11  1  0.74999992  0.74999996  0.49999989  1
  B  B12  1  0.11921497  0.38078498  -0.00000003  1
  B  B13  1  0.88078492  0.61921496  -0.00000009  1
  B  B14  1  0.61921496  0.11921499  -0.00000004  1
  B  B15  1  0.38078493  0.88078495  -0.00000009  1
