# generated using pymatgen
data_Tb4InGe5
_symmetry_space_group_name_H-M   'P 1'
_cell_length_a   4.23385906
_cell_length_b   7.20560884
_cell_length_c   7.20560884
_cell_angle_alpha   90.00000000
_cell_angle_beta   90.00000000
_cell_angle_gamma   90.00000000
_symmetry_Int_Tables_number   1
_chemical_formula_structural   Tb4InGe5
_chemical_formula_sum   'Tb4 In1 Ge5'
_cell_volume   219.82534462
_cell_formula_units_Z   1
loop_
 _symmetry_equiv_pos_site_id
 _symmetry_equiv_pos_as_xyz
  1  'x, y, z'
loop_
 _atom_site_type_symbol
 _atom_site_label
 _atom_site_symmetry_multiplicity
 _atom_site_fract_x
 _atom_site_fract_y
 _atom_site_fract_z
 _atom_site_occupancy
  Tb  Tb0  1  0.49999999  0.67929401  0.17929400  1
  Tb  Tb1  1  0.49999999  0.32070601  0.82070602  1
  Tb  Tb2  1  0.49999999  0.17929400  0.32070601  1
  Tb  Tb3  1  0.49999999  0.82070602  0.67929401  1
  Ge  Ge4  1  0.00000000  0.00000000  0.00000000  1
  In  In5  1  0.00000000  0.50000001  0.50000001  1
  Ge  Ge6  1  0.99999999  0.11709800  0.61709801  1
  Ge  Ge7  1  0.00000000  0.88290202  0.38290201  1
  Ge  Ge8  1  0.99999999  0.61709801  0.88290202  1
  Ge  Ge9  1  0.99999999  0.38290201  0.11709800  1
