# generated using pymatgen
data_Co5Mo6P7
_symmetry_space_group_name_H-M   'P 1'
_cell_length_a   3.58953810
_cell_length_b   5.91929197
_cell_length_c   10.41719627
_cell_angle_alpha   89.52886963
_cell_angle_beta   90.00000000
_cell_angle_gamma   90.00000000
_symmetry_Int_Tables_number   1
_chemical_formula_structural   Co5Mo6P7
_chemical_formula_sum   'Co5 Mo6 P7'
_cell_volume   221.33214554
_cell_formula_units_Z   1
loop_
 _symmetry_equiv_pos_site_id
 _symmetry_equiv_pos_as_xyz
  1  'x, y, z'
loop_
 _atom_site_type_symbol
 _atom_site_label
 _atom_site_symmetry_multiplicity
 _atom_site_fract_x
 _atom_site_fract_y
 _atom_site_fract_z
 _atom_site_occupancy
  Mo  Mo0  1  0.49999999  0.29582300  0.70477299  1
  Mo  Mo1  1  0.49999999  0.29372700  0.29300299  1
  Mo  Mo2  1  0.49999999  0.79469600  0.79815198  1
  P  P3  1  0.00000000  0.74374700  0.00453299  1
  Co  Co4  1  0.00000000  0.24463700  0.49856299  1
  Co  Co5  1  0.00000000  0.63448300  0.36955599  1
  Co  Co6  1  0.00000000  0.12608100  0.88275899  1
  Co  Co7  1  0.00000000  0.12009200  0.12573700  1
  Co  Co8  1  0.00000000  0.63189400  0.61737898  1
  Mo  Mo9  1  0.49999999  0.40054300  0.00331899  1
  Mo  Mo10  1  0.49999999  0.90395100  0.49629098  1
  Mo  Mo11  1  0.49999999  0.80076200  0.20120398  1
  P  P12  1  0.00000000  0.99367100  0.33429298  1
  P  P13  1  0.00000000  0.49466300  0.84209698  1
  P  P14  1  0.00000000  0.50664500  0.16314899  1
  P  P15  1  0.00000000  0.99662100  0.66171898  1
  P  P16  1  0.49999999  0.00533600  0.00678000  1
  P  P17  1  0.49999999  0.51282800  0.49669299  1
