# generated using pymatgen
data_MgGa11Pd4
_symmetry_space_group_name_H-M   'P 1'
_cell_length_a   5.13044214
_cell_length_b   7.56236506
_cell_length_c   7.56236506
_cell_angle_alpha   118.56877136
_cell_angle_beta   89.92819214
_cell_angle_gamma   89.92818451
_symmetry_Int_Tables_number   1
_chemical_formula_structural   MgGa11Pd4
_chemical_formula_sum   'Mg1 Ga11 Pd4'
_cell_volume   257.68185129
_cell_formula_units_Z   1
loop_
 _symmetry_equiv_pos_site_id
 _symmetry_equiv_pos_as_xyz
  1  'x, y, z'
loop_
 _atom_site_type_symbol
 _atom_site_label
 _atom_site_symmetry_multiplicity
 _atom_site_fract_x
 _atom_site_fract_y
 _atom_site_fract_z
 _atom_site_occupancy
  Mg  Mg0  1  0.24937494  0.75371703  0.99865203  1
  Ga  Ga1  1  0.24937492  0.99865204  0.75371703  1
  Ga  Ga2  1  0.74978692  0.74153103  0.74153103  1
  Pd  Pd3  1  0.75039995  0.24135901  0.00185402  1
  Ga  Ga4  1  0.75039997  0.00185400  0.24135902  1
  Pd  Pd5  1  0.49955996  0.33291001  0.66788902  1
  Pd  Pd6  1  0.49955993  0.66788903  0.33291002  1
  Ga  Ga7  1  0.00069495  0.66763403  0.33258001  1
  Ga  Ga8  1  0.00069498  0.33258101  0.66763501  1
  Pd  Pd9  1  0.24974297  0.26705501  0.26705501  1
  Ga  Ga10  1  0.24985495  0.58805502  0.58805502  1
  Ga  Ga11  1  0.24959096  0.39893602  0.00907301  1
  Ga  Ga12  1  0.24959099  0.00907300  0.39893601  1
  Ga  Ga13  1  0.75024694  0.40083802  0.40083802  1
  Ga  Ga14  1  0.75056193  0.59662102  0.00129402  1
  Ga  Ga15  1  0.75056197  0.00129400  0.59662102  1
