# generated using pymatgen
data_Na(BO2)3
_symmetry_space_group_name_H-M   'P 1'
_cell_length_a   6.31488562
_cell_length_b   6.38318014
_cell_length_c   6.38318014
_cell_angle_alpha   79.33556366
_cell_angle_beta   62.52406311
_cell_angle_gamma   62.52406311
_symmetry_Int_Tables_number   1
_chemical_formula_structural   Na(BO2)3
_chemical_formula_sum   'Na2 B6 O12'
_cell_volume   202.40260096
_cell_formula_units_Z   2
loop_
 _symmetry_equiv_pos_site_id
 _symmetry_equiv_pos_as_xyz
  1  'x, y, z'
loop_
 _atom_site_type_symbol
 _atom_site_label
 _atom_site_symmetry_multiplicity
 _atom_site_fract_x
 _atom_site_fract_y
 _atom_site_fract_z
 _atom_site_occupancy
  Na  Na0  1  0.75000002  0.29125601  0.70874402  1
  Na  Na1  1  0.25000004  0.70874401  0.29125597  1
  B  B2  1  0.90913502  0.29357001  0.16334200  1
  B  B3  1  0.59086505  0.83665802  0.70642998  1
  B  B4  1  0.75000004  0.72408501  0.27591497  1
  B  B5  1  0.25000002  0.27591501  0.72408501  1
  B  B6  1  0.09086504  0.70643001  0.83665798  1
  B  B7  1  0.40913501  0.16334200  0.29357001  1
  O  O8  1  0.70632903  0.51242701  0.28101099  1
  O  O9  1  0.99542704  0.71693101  0.08141197  1
  O  O10  1  0.50457305  0.91858802  0.28306896  1
  O  O11  1  0.00457302  0.28306901  0.91858801  1
  O  O12  1  0.48894602  0.29761901  0.11515499  1
  O  O13  1  0.01105405  0.88484502  0.70238096  1
  O  O14  1  0.51105404  0.70238101  0.88484499  1
  O  O15  1  0.98894601  0.11515500  0.29761902  1
  O  O16  1  0.29367103  0.48757301  0.71898900  1
  O  O17  1  0.20632902  0.28101101  0.51242700  1
  O  O18  1  0.49542701  0.08141200  0.71693103  1
  O  O19  1  0.79367104  0.71898901  0.48757298  1
