# generated using pymatgen
data_LuMoO4
_symmetry_space_group_name_H-M   'P 1'
_cell_length_a   5.09102726
_cell_length_b   5.34291840
_cell_length_c   6.53921509
_cell_angle_alpha   111.80769348
_cell_angle_beta   110.51177979
_cell_angle_gamma   95.45960236
_symmetry_Int_Tables_number   1
_chemical_formula_structural   LuMoO4
_chemical_formula_sum   'Lu2 Mo2 O8'
_cell_volume   149.39102526
_cell_formula_units_Z   2
loop_
 _symmetry_equiv_pos_site_id
 _symmetry_equiv_pos_as_xyz
  1  'x, y, z'
loop_
 _atom_site_type_symbol
 _atom_site_label
 _atom_site_symmetry_multiplicity
 _atom_site_fract_x
 _atom_site_fract_y
 _atom_site_fract_z
 _atom_site_occupancy
  Lu  Lu0  1  0.11855002  0.36855000  0.73710000  1
  Lu  Lu1  1  0.88145004  0.63145001  0.26290001  1
  Mo  Mo2  1  0.64815005  0.89815001  0.79630001  1
  Mo  Mo3  1  0.35185001  0.10185000  0.20369999  1
  O  O4  1  0.93742004  0.72337801  0.93679699  1
  O  O5  1  0.49937701  0.21341900  0.93679698  1
  O  O6  1  0.06258002  0.27662200  0.06320301  1
  O  O7  1  0.50062305  0.78658101  0.06320302  1
  O  O8  1  0.78918105  0.94825201  0.58054001  1
  O  O9  1  0.29135904  0.63228801  0.58054001  1
  O  O10  1  0.21081900  0.05174800  0.41945999  1
  O  O11  1  0.70864102  0.36771200  0.41945999  1
