# generated using pymatgen
data_Bi7S13
_symmetry_space_group_name_H-M   'P 1'
_cell_length_a   6.18422508
_cell_length_b   9.75158215
_cell_length_c   9.75158119
_cell_angle_alpha   120.00000000
_cell_angle_beta   90.00000000
_cell_angle_gamma   90.00000000
_symmetry_Int_Tables_number   1
_chemical_formula_structural   Bi7S13
_chemical_formula_sum   'Bi7 S13'
_cell_volume   509.29104997
_cell_formula_units_Z   1
loop_
 _symmetry_equiv_pos_site_id
 _symmetry_equiv_pos_as_xyz
  1  'x, y, z'
loop_
 _atom_site_type_symbol
 _atom_site_label
 _atom_site_symmetry_multiplicity
 _atom_site_fract_x
 _atom_site_fract_y
 _atom_site_fract_z
 _atom_site_occupancy
  Bi  Bi0  1  0.95096799  0.66666664  0.33333331  1
  S  S1  1  0.45096799  0.33333332  0.66666666  1
  S  S2  1  0.75549299  0.87380397  0.74760797  1
  S  S3  1  0.25549300  0.74760697  0.87380298  1
  S  S4  1  0.25549300  0.12619600  0.87380301  1
  S  S5  1  0.75549299  0.87380397  0.12619696  1
  S  S6  1  0.75549299  0.25239299  0.12619699  1
  S  S7  1  0.25549300  0.12619600  0.25239200  1
  S  S8  1  0.95037299  0.45585498  0.91171000  1
  S  S9  1  0.45037299  0.91171097  0.45585597  1
  S  S10  1  0.45037299  0.54414498  0.45585598  1
  S  S11  1  0.95037299  0.45585498  0.54414399  1
  S  S12  1  0.95037299  0.08828900  0.54414401  1
  S  S13  1  0.45037299  0.54414498  0.08828998  1
  Bi  Bi14  1  0.70047799  0.18525399  0.37050800  1
  Bi  Bi15  1  0.20047800  0.37050699  0.18525299  1
  Bi  Bi16  1  0.20047800  0.81474597  0.18525297  1
  Bi  Bi17  1  0.70047799  0.18525399  0.81474701  1
  Bi  Bi18  1  0.70047799  0.62949298  0.81474699  1
  Bi  Bi19  1  0.20047800  0.81474597  0.62949198  1
