# generated using pymatgen
data_Tb9In3Pt4
_symmetry_space_group_name_H-M   'P 1'
_cell_length_a   7.60847378
_cell_length_b   8.72317886
_cell_length_c   7.60847378
_cell_angle_alpha   64.14426422
_cell_angle_beta   90.00000000
_cell_angle_gamma   115.85573578
_symmetry_Int_Tables_number   1
_chemical_formula_structural   Tb9In3Pt4
_chemical_formula_sum   'Tb9 In3 Pt4'
_cell_volume   397.49644730
_cell_formula_units_Z   1
loop_
 _symmetry_equiv_pos_site_id
 _symmetry_equiv_pos_as_xyz
  1  'x, y, z'
loop_
 _atom_site_type_symbol
 _atom_site_label
 _atom_site_symmetry_multiplicity
 _atom_site_fract_x
 _atom_site_fract_y
 _atom_site_fract_z
 _atom_site_occupancy
  Tb  Tb0  1  0.00000000  0.00000000  0.00000000  1
  In  In1  1  0.50000001  0.00000000  0.50000001  1
  Tb  Tb2  1  0.79517501  0.27843099  0.01674401  1
  Tb  Tb3  1  0.20482497  0.72156898  0.98325606  1
  Tb  Tb4  1  0.48325700  0.27843299  0.70482403  1
  Tb  Tb5  1  0.29517500  0.27843199  0.20482502  1
  Tb  Tb6  1  0.01674297  0.72156798  0.48325705  1
  Tb  Tb7  1  0.51674298  0.72156698  0.29517604  1
  Tb  Tb8  1  0.70482499  0.72156798  0.79517506  1
  Tb  Tb9  1  0.98325702  0.27843199  0.51674303  1
  In  In10  1  0.24999998  0.49999999  0.75000004  1
  In  In11  1  0.75000000  0.49999999  0.25000003  1
  Pt  Pt12  1  0.13798600  0.00000000  0.63798602  1
  Pt  Pt13  1  0.86201402  0.00000000  0.36201401  1
  Pt  Pt14  1  0.63798602  0.00000000  0.86201402  1
  Pt  Pt15  1  0.36201401  0.00000000  0.13798600  1
