# generated using pymatgen
data_Co7F8
_symmetry_space_group_name_H-M   'P 1'
_cell_length_a   5.94637871
_cell_length_b   5.94637871
_cell_length_c   5.98487043
_cell_angle_alpha   60.21252441
_cell_angle_beta   60.21252441
_cell_angle_gamma   59.99998856
_symmetry_Int_Tables_number   1
_chemical_formula_structural   Co7F8
_chemical_formula_sum   'Co7 F8'
_cell_volume   150.11790314
_cell_formula_units_Z   1
loop_
 _symmetry_equiv_pos_site_id
 _symmetry_equiv_pos_as_xyz
  1  'x, y, z'
loop_
 _atom_site_type_symbol
 _atom_site_label
 _atom_site_symmetry_multiplicity
 _atom_site_fract_x
 _atom_site_fract_y
 _atom_site_fract_z
 _atom_site_occupancy
  F  F0  1  -0.00000003  0.50000002  0.00000002  1
  F  F1  1  0.50000001  0.00000000  0.00000001  1
  F  F2  1  0.49999998  0.50000002  0.00000003  1
  F  F3  1  0.50000001  0.00000000  0.50000002  1
  Co  Co4  1  0.00000000  0.00000000  0.00000000  1
  F  F5  1  0.00000000  0.00000000  0.50000000  1
  F  F6  1  -0.00000003  0.50000002  0.50000003  1
  Co  Co7  1  0.22239597  0.76245903  0.25268604  1
  Co  Co8  1  0.75531798  0.75531803  0.73404606  1
  Co  Co9  1  0.23754099  0.23754101  0.74731402  1
  Co  Co10  1  0.76245900  0.22239601  0.25268603  1
  F  F11  1  0.23754097  0.77760403  0.74731404  1
  F  F12  1  0.76245898  0.76245903  0.25268605  1
  Co  Co13  1  0.24468199  0.24468201  0.26595402  1
  Co  Co14  1  0.77760400  0.23754101  0.74731404  1
