# generated using pymatgen
data_Li3Co5O8
_symmetry_space_group_name_H-M   'P 1'
_cell_length_a   5.13395119
_cell_length_b   5.71340513
_cell_length_c   5.87123632
_cell_angle_alpha   60.89994049
_cell_angle_beta   71.14319611
_cell_angle_gamma   89.99420929
_symmetry_Int_Tables_number   1
_chemical_formula_structural   Li3Co5O8
_chemical_formula_sum   'Li3 Co5 O8'
_cell_volume   139.80889786
_cell_formula_units_Z   1
loop_
 _symmetry_equiv_pos_site_id
 _symmetry_equiv_pos_as_xyz
  1  'x, y, z'
loop_
 _atom_site_type_symbol
 _atom_site_label
 _atom_site_symmetry_multiplicity
 _atom_site_fract_x
 _atom_site_fract_y
 _atom_site_fract_z
 _atom_site_occupancy
  Li  Li0  1  0.50000106  0.74999798  0.50000001  1
  Co  Co1  1  0.00453000  0.00125600  0.49749301  1
  Li  Li2  1  0.99547006  0.49873998  0.50250701  1
  Li  Li3  1  0.50000003  0.24999699  0.50000101  1
  Co  Co4  1  0.50000003  0.24999799  0.00000100  1
  Co  Co5  1  0.99999802  0.00057400  0.00007600  1
  Co  Co6  1  0.00000204  0.49942698  0.99992502  1
  Co  Co7  1  0.50000006  0.74999898  0.00000100  1
  O  O8  1  0.78193702  0.13312500  0.23397500  1
  O  O9  1  0.24515603  0.40730199  0.21042100  1
  O  O10  1  0.24510507  0.88232597  0.21049100  1
  O  O11  1  0.77409706  0.63083398  0.23845600  1
  O  O12  1  0.21806303  0.36688099  0.76602302  1
  O  O13  1  0.75489406  0.61767398  0.78950901  1
  O  O14  1  0.75484302  0.09269800  0.78957902  1
  O  O15  1  0.22590407  0.86917097  0.76154302  1
