# generated using pymatgen
data_CsScS2
_symmetry_space_group_name_H-M   'P 1'
_cell_length_a   3.89019561
_cell_length_b   3.89019561
_cell_length_c   8.09868717
_cell_angle_alpha   76.10315704
_cell_angle_beta   76.10315704
_cell_angle_gamma   60.00000763
_symmetry_Int_Tables_number   1
_chemical_formula_structural   CsScS2
_chemical_formula_sum   'Cs1 Sc1 S2'
_cell_volume   101.97877153
_cell_formula_units_Z   1
loop_
 _symmetry_equiv_pos_site_id
 _symmetry_equiv_pos_as_xyz
  1  'x, y, z'
loop_
 _atom_site_type_symbol
 _atom_site_label
 _atom_site_symmetry_multiplicity
 _atom_site_fract_x
 _atom_site_fract_y
 _atom_site_fract_z
 _atom_site_occupancy
  Cs  Cs0  1  0.16548600  0.16548600  0.50354100  1
  Sc  Sc1  1  0.99804200  0.99804199  0.00587494  1
  S  S2  1  0.38766300  0.38766299  0.83701200  1
  S  S3  1  0.60881000  0.60880999  0.17357197  1
