# generated using pymatgen
data_BaIn4
_symmetry_space_group_name_H-M   'P 1'
_cell_length_a   5.04576588
_cell_length_b   5.59372997
_cell_length_c   6.58707190
_cell_angle_alpha   115.12528992
_cell_angle_beta   112.51995850
_cell_angle_gamma   90.00000000
_symmetry_Int_Tables_number   1
_chemical_formula_structural   BaIn4
_chemical_formula_sum   'Ba1 In4'
_cell_volume   152.52316935
_cell_formula_units_Z   1
loop_
 _symmetry_equiv_pos_site_id
 _symmetry_equiv_pos_as_xyz
  1  'x, y, z'
loop_
 _atom_site_type_symbol
 _atom_site_label
 _atom_site_symmetry_multiplicity
 _atom_site_fract_x
 _atom_site_fract_y
 _atom_site_fract_z
 _atom_site_occupancy
  Ba  Ba0  1  0.80383302  0.30383300  0.60766600  1
  In  In1  1  0.19616699  0.69616699  0.39233397  1
  In  In2  1  0.50000000  0.74636799  0.99999998  1
  In  In3  1  0.00000000  0.00000000  0.00000000  1
  In  In4  1  0.50000001  0.25363200  -0.00000001  1
