# generated using pymatgen
data_Cs2LiF2
_symmetry_space_group_name_H-M   'P 1'
_cell_length_a   4.19874907
_cell_length_b   4.20050812
_cell_length_c   7.24510765
_cell_angle_alpha   73.14888000
_cell_angle_beta   73.15615082
_cell_angle_gamma   90.00000000
_symmetry_Int_Tables_number   1
_chemical_formula_structural   Cs2LiF2
_chemical_formula_sum   'Cs2 Li1 F2'
_cell_volume   116.55448588
_cell_formula_units_Z   1
loop_
 _symmetry_equiv_pos_site_id
 _symmetry_equiv_pos_as_xyz
  1  'x, y, z'
loop_
 _atom_site_type_symbol
 _atom_site_label
 _atom_site_symmetry_multiplicity
 _atom_site_fract_x
 _atom_site_fract_y
 _atom_site_fract_z
 _atom_site_occupancy
  Cs  Cs0  1  0.13900499  0.63900498  0.22199000  1
  Cs  Cs1  1  0.86099498  0.36099499  0.77800999  1
  Li  Li2  1  0.49999999  0.00000000  0.49999999  1
  F  F3  1  0.63795899  0.13795900  0.22408200  1
  F  F4  1  0.36204099  0.86204097  0.77591800  1
