# generated using pymatgen
data_Ga
_symmetry_space_group_name_H-M   'P 1'
_cell_length_a   3.34470105
_cell_length_b   7.76891088
_cell_length_c   7.76882648
_cell_angle_alpha   119.99963379
_cell_angle_beta   90.00000000
_cell_angle_gamma   90.00000000
_symmetry_Int_Tables_number   1
_chemical_formula_structural   Ga
_chemical_formula_sum   Ga9
_cell_volume   174.82563023
_cell_formula_units_Z   9
loop_
 _symmetry_equiv_pos_site_id
 _symmetry_equiv_pos_as_xyz
  1  'x, y, z'
loop_
 _atom_site_type_symbol
 _atom_site_label
 _atom_site_symmetry_multiplicity
 _atom_site_fract_x
 _atom_site_fract_y
 _atom_site_fract_z
 _atom_site_occupancy
  Ga  Ga0  1  0.00000000  0.00000000  0.75108898  1
  Ga  Ga1  1  0.00000000  0.75105198  0.00005295  1
  Ga  Ga2  1  0.99999998  0.24894799  0.24900098  1
  Ga  Ga3  1  0.49999999  0.00000000  0.40192899  1
  Ga  Ga4  1  0.49999999  0.40195599  0.99998794  1
  Ga  Ga5  1  0.49999999  0.59804399  0.59803194  1
  Ga  Ga6  1  0.00000000  0.66666665  0.33333328  1
  Ga  Ga7  1  0.00000000  0.33328099  0.66661429  1
  Ga  Ga8  1  0.49999999  0.00000000  0.99995897  1
