# generated using pymatgen
data_Cs4Se3I2
_symmetry_space_group_name_H-M   'P 1'
_cell_length_a   5.78554392
_cell_length_b   7.16049671
_cell_length_c   11.40396595
_cell_angle_alpha   74.65181732
_cell_angle_beta   75.30558014
_cell_angle_gamma   66.17212677
_symmetry_Int_Tables_number   1
_chemical_formula_structural   Cs4Se3I2
_chemical_formula_sum   'Cs4 Se3 I2'
_cell_volume   410.94823495
_cell_formula_units_Z   1
loop_
 _symmetry_equiv_pos_site_id
 _symmetry_equiv_pos_as_xyz
  1  'x, y, z'
loop_
 _atom_site_type_symbol
 _atom_site_label
 _atom_site_symmetry_multiplicity
 _atom_site_fract_x
 _atom_site_fract_y
 _atom_site_fract_z
 _atom_site_occupancy
  Cs  Cs0  1  0.75022809  0.83360197  0.66594199  1
  Cs  Cs1  1  0.26005602  0.14777499  0.33211299  1
  I  I2  1  0.39515904  0.31414899  0.89553299  1
  Cs  Cs3  1  0.60472008  0.69016997  0.10038999  1
  I  I4  1  0.52807906  0.46029598  0.48354599  1
  Cs  Cs5  1  0.04206202  0.23296599  0.68291000  1
  Se  Se6  1  0.95590109  0.76948497  0.31871298  1
  Se  Se7  1  0.10031408  0.90894796  0.89042401  1
  Se  Se8  1  0.89878003  0.09311100  0.10932897  1
