# generated using pymatgen
data_Ga3(Co2B)2
_symmetry_space_group_name_H-M   'P 1'
_cell_length_a   3.33265996
_cell_length_b   5.79885578
_cell_length_c   5.79885626
_cell_angle_alpha   120.00000000
_cell_angle_beta   90.00000000
_cell_angle_gamma   90.00000000
_symmetry_Int_Tables_number   1
_chemical_formula_structural   Ga3(Co2B)2
_chemical_formula_sum   'Ga3 Co4 B2'
_cell_volume   97.05240166
_cell_formula_units_Z   1
loop_
 _symmetry_equiv_pos_site_id
 _symmetry_equiv_pos_as_xyz
  1  'x, y, z'
loop_
 _atom_site_type_symbol
 _atom_site_label
 _atom_site_symmetry_multiplicity
 _atom_site_fract_x
 _atom_site_fract_y
 _atom_site_fract_z
 _atom_site_occupancy
  B  B0  1  0.00000000  0.00000000  0.73899401  1
  Co  Co1  1  -0.00000000  0.73899404  0.00000003  1
  B  B2  1  0.00000000  0.26100601  0.26100601  1
  Co  Co3  1  0.50000001  1.00000006  0.39632604  1
  Co  Co4  1  0.50000001  0.39632602  0.00000002  1
  Co  Co5  1  0.50000001  0.60367403  0.60367403  1
  Ga  Ga6  1  0.00000000  0.66666670  0.33333336  1
  Ga  Ga7  1  -0.00000000  0.33333335  0.66666669  1
  Ga  Ga8  1  0.50000001  0.00000000  -0.00000000  1
