# generated using pymatgen
data_BaP6
_symmetry_space_group_name_H-M   'P 1'
_cell_length_a   5.48864079
_cell_length_b   5.48864079
_cell_length_c   5.48864079
_cell_angle_alpha   74.65057373
_cell_angle_beta   72.78490448
_cell_angle_gamma   116.06147003
_symmetry_Int_Tables_number   1
_chemical_formula_structural   BaP6
_chemical_formula_sum   'Ba1 P6'
_cell_volume   125.97681695
_cell_formula_units_Z   1
loop_
 _symmetry_equiv_pos_site_id
 _symmetry_equiv_pos_as_xyz
  1  'x, y, z'
loop_
 _atom_site_type_symbol
 _atom_site_label
 _atom_site_symmetry_multiplicity
 _atom_site_fract_x
 _atom_site_fract_y
 _atom_site_fract_z
 _atom_site_occupancy
  Ba  Ba0  1  0.00000000  0.00000000  0.00000000  1
  P  P1  1  0.73832795  0.23832798  0.50000000  1
  P  P2  1  0.26167193  0.76167192  0.50000005  1
  P  P3  1  0.74551493  0.49999995  0.75448501  1
  P  P4  1  0.25448495  0.49999995  0.24551504  1
  P  P5  1  0.49999996  0.26067397  0.23932601  1
  P  P6  1  0.49999992  0.73932593  0.76067404  1
