# generated using pymatgen
data_Bi2ClO2
_symmetry_space_group_name_H-M   'P 1'
_cell_length_a   4.05351782
_cell_length_b   4.05351782
_cell_length_c   6.14790297
_cell_angle_alpha   109.24855042
_cell_angle_beta   109.24855042
_cell_angle_gamma   90.00000000
_symmetry_Int_Tables_number   1
_chemical_formula_structural   Bi2ClO2
_chemical_formula_sum   'Bi2 Cl1 O2'
_cell_volume   89.36595519
_cell_formula_units_Z   1
loop_
 _symmetry_equiv_pos_site_id
 _symmetry_equiv_pos_as_xyz
  1  'x, y, z'
loop_
 _atom_site_type_symbol
 _atom_site_label
 _atom_site_symmetry_multiplicity
 _atom_site_fract_x
 _atom_site_fract_y
 _atom_site_fract_z
 _atom_site_occupancy
  Cl  Cl0  1  0.00000000  0.00000000  0.00000000  1
  Bi  Bi1  1  0.64271607  0.64271604  0.28543206  1
  Bi  Bi2  1  0.35728404  0.35728402  0.71456805  1
  O  O3  1  0.75000006  0.25000002  0.50000005  1
  O  O4  1  0.25000005  0.75000005  0.50000006  1
