# generated using pymatgen
data_Ge
_symmetry_space_group_name_H-M   'P 1'
_cell_length_a   4.23322773
_cell_length_b   7.41973639
_cell_length_c   7.42222548
_cell_angle_alpha   98.41684723
_cell_angle_beta   90.00000000
_cell_angle_gamma   106.57487488
_symmetry_Int_Tables_number   1
_chemical_formula_structural   Ge
_chemical_formula_sum   Ge7
_cell_volume   220.81984814
_cell_formula_units_Z   7
loop_
 _symmetry_equiv_pos_site_id
 _symmetry_equiv_pos_as_xyz
  1  'x, y, z'
loop_
 _atom_site_type_symbol
 _atom_site_label
 _atom_site_symmetry_multiplicity
 _atom_site_fract_x
 _atom_site_fract_y
 _atom_site_fract_z
 _atom_site_occupancy
  Ge  Ge0  1  0.24628203  0.49256400  0.74651600  1
  Ge  Ge1  1  0.50940500  0.01881100  0.48838100  1
  Ge  Ge2  1  0.74122802  0.48245600  0.25318601  1
  Ge  Ge3  1  0.31821903  0.63643700  0.43747001  1
  Ge  Ge4  1  0.55972200  0.11944300  0.17265400  1
  Ge  Ge5  1  0.81732803  0.63465500  0.94137801  1
  Ge  Ge6  1  0.05781701  0.11563300  0.71041500  1
