# generated using pymatgen
data_Li2CuAgF8
_symmetry_space_group_name_H-M   'P 1'
_cell_length_a   4.74461794
_cell_length_b   5.53173399
_cell_length_c   5.62228346
_cell_angle_alpha   114.37511444
_cell_angle_beta   90.00000000
_cell_angle_gamma   90.00000000
_symmetry_Int_Tables_number   1
_chemical_formula_structural   Li2CuAgF8
_chemical_formula_sum   'Li2 Cu1 Ag1 F8'
_cell_volume   134.40899478
_cell_formula_units_Z   1
loop_
 _symmetry_equiv_pos_site_id
 _symmetry_equiv_pos_as_xyz
  1  'x, y, z'
loop_
 _atom_site_type_symbol
 _atom_site_label
 _atom_site_symmetry_multiplicity
 _atom_site_fract_x
 _atom_site_fract_y
 _atom_site_fract_z
 _atom_site_occupancy
  Li  Li0  1  0.50000001  0.50000001  0.00000001  1
  Ag  Ag1  1  0.00000000  0.50000001  0.50000001  1
  Cu  Cu2  1  0.00000000  0.00000000  0.00000000  1
  Li  Li3  1  0.50000001  0.00000000  0.50000000  1
  F  F4  1  0.79520501  0.14653000  0.34250100  1
  F  F5  1  0.81748601  0.67886501  0.87278501  1
  F  F6  1  0.20479500  0.85347001  0.65749902  1
  F  F7  1  0.29520500  0.85347001  0.15749902  1
  F  F8  1  0.70479501  0.14653000  0.84250100  1
  F  F9  1  0.18251400  0.32113500  0.12721501  1
  F  F10  1  0.68251401  0.67886501  0.37278501  1
  F  F11  1  0.31748600  0.32113500  0.62721500  1
