# generated using pymatgen
data_MoSe
_symmetry_space_group_name_H-M   'P 1'
_cell_length_a   4.01801825
_cell_length_b   4.01801825
_cell_length_c   7.24726295
_cell_angle_alpha   73.90628052
_cell_angle_beta   73.90628052
_cell_angle_gamma   60.00000000
_symmetry_Int_Tables_number   1
_chemical_formula_structural   MoSe
_chemical_formula_sum   'Mo2 Se2'
_cell_volume   95.99649164
_cell_formula_units_Z   2
loop_
 _symmetry_equiv_pos_site_id
 _symmetry_equiv_pos_as_xyz
  1  'x, y, z'
loop_
 _atom_site_type_symbol
 _atom_site_label
 _atom_site_symmetry_multiplicity
 _atom_site_fract_x
 _atom_site_fract_y
 _atom_site_fract_z
 _atom_site_occupancy
  Se  Se0  1  0.90410793  0.90410794  0.28767606  1
  Se  Se1  1  0.09589199  0.09589199  0.71232398  1
  Mo  Mo2  1  0.63057295  0.63057296  0.10828104  1
  Mo  Mo3  1  0.36942697  0.36942698  0.89171900  1
