# generated using pymatgen
data_YF2
_symmetry_space_group_name_H-M   'P 1'
_cell_length_a   3.49255800
_cell_length_b   4.22377872
_cell_length_c   6.45183420
_cell_angle_alpha   79.84062958
_cell_angle_beta   74.29621887
_cell_angle_gamma   65.57888794
_symmetry_Int_Tables_number   1
_chemical_formula_structural   YF2
_chemical_formula_sum   'Y1 F2'
_cell_volume   83.20007648
_cell_formula_units_Z   1
loop_
 _symmetry_equiv_pos_site_id
 _symmetry_equiv_pos_as_xyz
  1  'x, y, z'
loop_
 _atom_site_type_symbol
 _atom_site_label
 _atom_site_symmetry_multiplicity
 _atom_site_fract_x
 _atom_site_fract_y
 _atom_site_fract_z
 _atom_site_occupancy
  F  F0  1  0.00000000  0.00000000  0.00000000  1
  Y  Y1  1  0.50937401  0.22325100  0.75800099  1
  F  F2  1  0.49062604  0.77674899  0.24199896  1
