# generated using pymatgen
data_PrGa7O12
_symmetry_space_group_name_H-M   'P 1'
_cell_length_a   6.59640121
_cell_length_b   6.59640121
_cell_length_c   6.59640121
_cell_angle_alpha   109.47122192
_cell_angle_beta   109.47122192
_cell_angle_gamma   109.47122192
_symmetry_Int_Tables_number   1
_chemical_formula_structural   PrGa7O12
_chemical_formula_sum   'Pr1 Ga7 O12'
_cell_volume   220.95268195
_cell_formula_units_Z   1
loop_
 _symmetry_equiv_pos_site_id
 _symmetry_equiv_pos_as_xyz
  1  'x, y, z'
loop_
 _atom_site_type_symbol
 _atom_site_label
 _atom_site_symmetry_multiplicity
 _atom_site_fract_x
 _atom_site_fract_y
 _atom_site_fract_z
 _atom_site_occupancy
  Pr  Pr0  1  0.00000000  0.00000000  0.00000000  1
  Ga  Ga1  1  0.00000003  0.50000002  0.50000003  1
  Ga  Ga2  1  0.50000003  0.50000002  1.00000004  1
  Ga  Ga3  1  0.50000000  0.00000000  0.50000001  1
  Ga  Ga4  1  0.50000003  0.50000002  0.50000004  1
  Ga  Ga5  1  0.00000000  0.00000000  0.50000000  1
  Ga  Ga6  1  1.00000004  0.50000002  0.00000005  1
  Ga  Ga7  1  0.50000000  0.00000000  1.00000001  1
  O  O8  1  0.47287202  0.30657301  0.16629903  1
  O  O9  1  0.14027402  0.30657301  0.83370102  1
  O  O10  1  0.85972605  0.69342702  0.16629906  1
  O  O11  1  0.52712805  0.69342702  0.83370105  1
  O  O12  1  0.30657305  0.83370103  0.14027405  1
  O  O13  1  0.30657301  0.16629901  0.47287201  1
  O  O14  1  0.69342706  0.83370103  0.52712806  1
  O  O15  1  0.69342701  0.16629901  0.85972602  1
  O  O16  1  0.16629906  0.85972603  0.69342705  1
  O  O17  1  0.83370104  0.52712802  0.69342705  1
  O  O18  1  0.16629903  0.47287202  0.30657303  1
  O  O19  1  0.83370101  0.14027401  0.30657303  1
