# generated using pymatgen
data_HfSiOs
_symmetry_space_group_name_H-M   'P 1'
_cell_length_a   3.84574699
_cell_length_b   6.42648983
_cell_length_c   6.42649031
_cell_angle_alpha   120.00000000
_cell_angle_beta   90.00000000
_cell_angle_gamma   90.00000000
_symmetry_Int_Tables_number   1
_chemical_formula_structural   HfSiOs
_chemical_formula_sum   'Hf3 Si3 Os3'
_cell_volume   137.54950201
_cell_formula_units_Z   3
loop_
 _symmetry_equiv_pos_site_id
 _symmetry_equiv_pos_as_xyz
  1  'x, y, z'
loop_
 _atom_site_type_symbol
 _atom_site_label
 _atom_site_symmetry_multiplicity
 _atom_site_fract_x
 _atom_site_fract_y
 _atom_site_fract_z
 _atom_site_occupancy
  Hf  Hf0  1  0.50000000  0.58395103  1.00000003  1
  Hf  Hf1  1  0.50000000  0.41604902  0.41604902  1
  Hf  Hf2  1  0.50000000  0.00000000  0.58395100  1
  Si  Si3  1  -0.00000000  0.33333335  0.66666668  1
  Si  Si4  1  0.00000000  0.66666670  0.33333336  1
  Si  Si5  1  0.50000000  0.00000000  -0.00000000  1
  Os  Os6  1  -0.00000000  0.24811801  1.00000002  1
  Os  Os7  1  0.00000000  0.75188203  0.75188203  1
  Os  Os8  1  0.00000000  0.00000000  0.24811800  1
