# generated using pymatgen
data_CuSiAg
_symmetry_space_group_name_H-M   'P 1'
_cell_length_a   3.62262797
_cell_length_b   3.93234015
_cell_length_c   3.62262797
_cell_angle_alpha   117.42711639
_cell_angle_beta   90.00000000
_cell_angle_gamma   117.42711639
_symmetry_Int_Tables_number   1
_chemical_formula_structural   CuSiAg
_chemical_formula_sum   'Si1 Cu1 Ag1'
_cell_volume   39.15444273
_cell_formula_units_Z   1
loop_
 _symmetry_equiv_pos_site_id
 _symmetry_equiv_pos_as_xyz
  1  'x, y, z'
loop_
 _atom_site_type_symbol
 _atom_site_label
 _atom_site_symmetry_multiplicity
 _atom_site_fract_x
 _atom_site_fract_y
 _atom_site_fract_z
 _atom_site_occupancy
  Si  Si0  1  0.00000000  0.00000000  0.00000000  1
  Cu  Cu1  1  0.39470907  0.78941807  0.39470907  1
  Ag  Ag2  1  0.60529102  0.21058202  0.60529102  1
