# generated using pymatgen
data_NaHo5O8
_symmetry_space_group_name_H-M   'P 1'
_cell_length_a   6.88710117
_cell_length_b   6.88710117
_cell_length_c   6.88710117
_cell_angle_alpha   89.77846527
_cell_angle_beta   60.08996201
_cell_angle_gamma   119.83432770
_symmetry_Int_Tables_number   1
_chemical_formula_structural   NaHo5O8
_chemical_formula_sum   'Na1 Ho5 O8'
_cell_volume   231.43492192
_cell_formula_units_Z   1
loop_
 _symmetry_equiv_pos_site_id
 _symmetry_equiv_pos_as_xyz
  1  'x, y, z'
loop_
 _atom_site_type_symbol
 _atom_site_label
 _atom_site_symmetry_multiplicity
 _atom_site_fract_x
 _atom_site_fract_y
 _atom_site_fract_z
 _atom_site_occupancy
  Na  Na0  1  0.00000000  0.00000000  0.50000001  1
  Ho  Ho1  1  0.50000000  0.00000000  0.00000001  1
  Ho  Ho2  1  0.50000000  0.00000000  0.50000002  1
  Ho  Ho3  1  0.49999993  0.49999997  0.50000008  1
  Ho  Ho4  1  0.99999993  0.49999997  0.50000009  1
  Ho  Ho5  1  0.99999993  0.49999997  0.00000008  1
  O  O6  1  0.01769889  0.74056195  0.74174011  1
  O  O7  1  0.48080489  0.73913295  0.74167212  1
  O  O8  1  0.48230089  0.74056095  0.27713811  1
  O  O9  1  0.98080490  0.72247696  0.25832711  1
  O  O10  1  0.51769896  0.25943898  0.72286205  1
  O  O11  1  0.51919496  0.26086698  0.25832805  1
  O  O12  1  0.01919496  0.27752298  0.74167305  1
  O  O13  1  0.98230097  0.25943798  0.25826005  1
