# generated using pymatgen
data_LuGeIr
_symmetry_space_group_name_H-M   'P 1'
_cell_length_a   4.01496410
_cell_length_b   6.85058880
_cell_length_c   7.65036297
_cell_angle_alpha   90.00000000
_cell_angle_beta   90.00000000
_cell_angle_gamma   90.00000000
_symmetry_Int_Tables_number   1
_chemical_formula_structural   LuGeIr
_chemical_formula_sum   'Lu4 Ge4 Ir4'
_cell_volume   210.42222448
_cell_formula_units_Z   4
loop_
 _symmetry_equiv_pos_site_id
 _symmetry_equiv_pos_as_xyz
  1  'x, y, z'
loop_
 _atom_site_type_symbol
 _atom_site_label
 _atom_site_symmetry_multiplicity
 _atom_site_fract_x
 _atom_site_fract_y
 _atom_site_fract_z
 _atom_site_occupancy
  Lu  Lu0  1  0.24999999  0.51853402  0.18384200  1
  Lu  Lu1  1  0.74999998  0.48146601  0.81615800  1
  Lu  Lu2  1  0.74999998  0.98146603  0.68384200  1
  Lu  Lu3  1  0.24999999  0.01853400  0.31615800  1
  Ir  Ir4  1  0.24999999  0.63756702  0.55746700  1
  Ir  Ir5  1  0.74999998  0.36243301  0.44253300  1
  Ir  Ir6  1  0.74999998  0.86243303  0.05746700  1
  Ir  Ir7  1  0.24999999  0.13756700  0.94253300  1
  Ge  Ge8  1  0.24999999  0.78217002  0.88543600  1
  Ge  Ge9  1  0.74999998  0.21783001  0.11456400  1
  Ge  Ge10  1  0.74999998  0.71783002  0.38543600  1
  Ge  Ge11  1  0.24999999  0.28217001  0.61456400  1
