# generated using pymatgen
data_LuCo3B2
_symmetry_space_group_name_H-M   'P 1'
_cell_length_a   3.02885008
_cell_length_b   4.98077393
_cell_length_c   4.98077345
_cell_angle_alpha   120.00000763
_cell_angle_beta   90.00000000
_cell_angle_gamma   90.00000000
_symmetry_Int_Tables_number   1
_chemical_formula_structural   LuCo3B2
_chemical_formula_sum   'Lu1 Co3 B2'
_cell_volume   65.07317449
_cell_formula_units_Z   1
loop_
 _symmetry_equiv_pos_site_id
 _symmetry_equiv_pos_as_xyz
  1  'x, y, z'
loop_
 _atom_site_type_symbol
 _atom_site_label
 _atom_site_symmetry_multiplicity
 _atom_site_fract_x
 _atom_site_fract_y
 _atom_site_fract_z
 _atom_site_occupancy
  Lu  Lu0  1  0.00000000  0.00000000  0.00000000  1
  Co  Co1  1  0.49999999  0.50000002  0.50000001  1
  Co  Co2  1  0.49999999  0.00000000  0.49999998  1
  Co  Co3  1  0.49999999  0.50000002  0.00000003  1
  B  B4  1  0.99999997  0.33333335  0.66666667  1
  B  B5  1  0.00000000  0.66666670  0.33333336  1
