# generated using pymatgen
data_Ba3LaV2N7O
_symmetry_space_group_name_H-M   'P 1'
_cell_length_a   6.08126020
_cell_length_b   6.08125925
_cell_length_c   7.80113077
_cell_angle_alpha   90.00000000
_cell_angle_beta   90.00000000
_cell_angle_gamma   120.00000000
_symmetry_Int_Tables_number   1
_chemical_formula_structural   Ba3LaV2N7O
_chemical_formula_sum   'Ba3 La1 V2 N7 O1'
_cell_volume   249.84766465
_cell_formula_units_Z   1
loop_
 _symmetry_equiv_pos_site_id
 _symmetry_equiv_pos_as_xyz
  1  'x, y, z'
loop_
 _atom_site_type_symbol
 _atom_site_label
 _atom_site_symmetry_multiplicity
 _atom_site_fract_x
 _atom_site_fract_y
 _atom_site_fract_z
 _atom_site_occupancy
  Ba  Ba0  1  0.33333328  0.66666667  0.65434102  1
  Ba  Ba1  1  0.00000000  0.00000000  0.00000000  1
  Ba  Ba2  1  0.66666662  0.33333333  0.34565901  1
  La  La3  1  0.00000000  0.00000000  0.50000001  1
  V  V4  1  0.33333328  0.66666667  0.21345901  1
  V  V5  1  0.66666662  0.33333333  0.78654102  1
  N  N6  1  0.82443796  0.17556200  0.69565902  1
  N  N7  1  0.35112398  0.17556200  0.69565902  1
  N  N8  1  0.82443793  0.64887600  0.69565902  1
  N  N9  1  0.17556194  0.82443800  0.30434101  1
  N  N10  1  0.17556197  0.35112400  0.30434101  1
  N  N11  1  0.64887593  0.82443800  0.30434101  1
  O  O12  1  0.33333328  0.66666667  0.98648703  1
  N  N13  1  0.66666662  0.33333333  0.01351300  1
