# generated using pymatgen
data_P11Os3
_symmetry_space_group_name_H-M   'P 1'
_cell_length_a   3.36526394
_cell_length_b   5.75198603
_cell_length_c   10.17753696
_cell_angle_alpha   90.00000000
_cell_angle_beta   90.00000000
_cell_angle_gamma   90.00000000
_symmetry_Int_Tables_number   1
_chemical_formula_structural   P11Os3
_chemical_formula_sum   'P11 Os3'
_cell_volume   197.00608588
_cell_formula_units_Z   1
loop_
 _symmetry_equiv_pos_site_id
 _symmetry_equiv_pos_as_xyz
  1  'x, y, z'
loop_
 _atom_site_type_symbol
 _atom_site_label
 _atom_site_symmetry_multiplicity
 _atom_site_fract_x
 _atom_site_fract_y
 _atom_site_fract_z
 _atom_site_occupancy
  P  P0  1  0.50000001  0.56013700  0.32282900  1
  P  P1  1  0.50000001  0.93986300  0.82282900  1
  P  P2  1  0.50000001  0.06013700  0.17717100  1
  Os  Os3  1  0.50000001  0.43986300  0.67717100  1
  P  P4  1  0.00000000  0.50000000  -0.00000000  1
  P  P5  1  0.00000000  0.00000000  0.50000000  1
  P  P6  1  0.00000000  0.64647000  0.80127000  1
  P  P7  1  0.50000001  0.74693400  0.03850100  1
  P  P8  1  0.50000001  0.75306600  0.53850100  1
  Os  Os9  1  0.00000000  0.85353000  0.30127000  1
  P  P10  1  0.00000000  0.14647000  0.69873000  1
  P  P11  1  0.50000001  0.24693400  0.46149900  1
  P  P12  1  0.50000001  0.25306600  0.96149900  1
  Os  Os13  1  0.00000000  0.35353000  0.19873000  1
