# generated using pymatgen
data_Cs5Be2F7
_symmetry_space_group_name_H-M   'P 1'
_cell_length_a   5.96258116
_cell_length_b   5.96258116
_cell_length_c   8.41797543
_cell_angle_alpha   90.00000000
_cell_angle_beta   90.00000000
_cell_angle_gamma   90.00000000
_symmetry_Int_Tables_number   1
_chemical_formula_structural   Cs5Be2F7
_chemical_formula_sum   'Cs5 Be2 F7'
_cell_volume   299.27901118
_cell_formula_units_Z   1
loop_
 _symmetry_equiv_pos_site_id
 _symmetry_equiv_pos_as_xyz
  1  'x, y, z'
loop_
 _atom_site_type_symbol
 _atom_site_label
 _atom_site_symmetry_multiplicity
 _atom_site_fract_x
 _atom_site_fract_y
 _atom_site_fract_z
 _atom_site_occupancy
  Cs  Cs0  1  0.00000000  0.49999999  0.24999999  1
  Cs  Cs1  1  0.49999999  0.00000000  0.74999996  1
  Cs  Cs2  1  0.00000000  0.49999999  0.74999996  1
  Cs  Cs3  1  0.49999999  0.00000000  0.24999999  1
  F  F4  1  0.49999999  0.49999999  0.30243098  1
  F  F5  1  0.00000000  0.00000000  0.80243096  1
  F  F6  1  0.49999999  0.49999999  0.69756896  1
  F  F7  1  0.00000000  0.00000000  0.19756899  1
  F  F8  1  0.30271299  0.69728698  0.49999997  1
  F  F9  1  0.69728698  0.30271299  0.49999997  1
  F  F10  1  0.19728699  0.19728699  -0.00000000  1
  Cs  Cs11  1  0.80271298  0.80271298  -0.00000000  1
  Be  Be12  1  0.49999999  0.49999999  0.49999997  1
  Be  Be13  1  0.00000000  0.00000000  0.00000000  1
