# generated using pymatgen
data_TbB4
_symmetry_space_group_name_H-M   'P 1'
_cell_length_a   4.03146315
_cell_length_b   7.11916590
_cell_length_c   7.11916590
_cell_angle_alpha   90.00000000
_cell_angle_beta   90.00000000
_cell_angle_gamma   90.00000000
_symmetry_Int_Tables_number   1
_chemical_formula_structural   TbB4
_chemical_formula_sum   'Tb4 B16'
_cell_volume   204.32472393
_cell_formula_units_Z   4
loop_
 _symmetry_equiv_pos_site_id
 _symmetry_equiv_pos_as_xyz
  1  'x, y, z'
loop_
 _atom_site_type_symbol
 _atom_site_label
 _atom_site_symmetry_multiplicity
 _atom_site_fract_x
 _atom_site_fract_y
 _atom_site_fract_z
 _atom_site_occupancy
  Tb  Tb0  1  0.00000000  0.81762001  0.31762000  1
  Tb  Tb1  1  0.00000000  0.31762000  0.18238000  1
  Tb  Tb2  1  0.00000000  0.68238001  0.81762001  1
  Tb  Tb3  1  0.00000000  0.18238000  0.68238001  1
  B  B4  1  0.49999998  0.53891001  0.32420700  1
  B  B5  1  0.49999998  0.82420701  0.03891100  1
  B  B6  1  0.49999998  0.03891100  0.17579300  1
  B  B7  1  0.49999998  0.32420700  0.46109001  1
  B  B8  1  0.49999998  0.67579301  0.53891001  1
  B  B9  1  0.79678897  0.50000001  0.50000001  1
  B  B10  1  0.49999998  0.96109001  0.82420701  1
  B  B11  1  0.49999998  0.58722201  0.08722200  1
  B  B12  1  0.49999998  0.41277801  0.91277801  1
  B  B13  1  0.49999998  0.08722200  0.41277801  1
  B  B14  1  0.49999998  0.46109001  0.67579301  1
  B  B15  1  0.49999998  0.17579300  0.96109001  1
  B  B16  1  0.79678897  0.00000000  0.00000000  1
  B  B17  1  0.20321099  0.50000001  0.50000001  1
  B  B18  1  0.49999998  0.91277801  0.58722201  1
  B  B19  1  0.20321099  0.00000000  0.00000000  1
