# generated using pymatgen
data_InAu
_symmetry_space_group_name_H-M   'P 1'
_cell_length_a   5.82935476
_cell_length_b   8.66146564
_cell_length_c   8.66146660
_cell_angle_alpha   120.00000000
_cell_angle_beta   90.00000000
_cell_angle_gamma   90.00000000
_symmetry_Int_Tables_number   1
_chemical_formula_structural   InAu
_chemical_formula_sum   'In9 Au9'
_cell_volume   378.73369085
_cell_formula_units_Z   9
loop_
 _symmetry_equiv_pos_site_id
 _symmetry_equiv_pos_as_xyz
  1  'x, y, z'
loop_
 _atom_site_type_symbol
 _atom_site_label
 _atom_site_symmetry_multiplicity
 _atom_site_fract_x
 _atom_site_fract_y
 _atom_site_fract_z
 _atom_site_occupancy
  Au  Au0  1  0.25000001  0.26771301  0.99999998  1
  In  In1  1  0.25000001  0.73228704  0.73228700  1
  In  In2  1  0.25000001  0.00000000  0.26771299  1
  In  In3  1  0.75000003  0.73228704  0.99999999  1
  In  In4  1  0.75000003  0.26771301  0.26771300  1
  In  In5  1  0.75000003  0.00000000  0.73228698  1
  In  In6  1  1.00000004  0.33333335  0.66666666  1
  In  In7  1  1.00000004  0.66666670  0.33333334  1
  In  In8  1  0.50000002  0.66666670  0.33333334  1
  In  In9  1  0.50000002  0.33333335  0.66666666  1
  Au  Au10  1  0.00000000  0.00000000  0.00000000  1
  Au  Au11  1  0.50000002  0.00000000  -0.00000000  1
  Au  Au12  1  0.25000001  0.61125803  0.99999999  1
  Au  Au13  1  0.25000001  0.38874202  0.38874200  1
  Au  Au14  1  0.25000001  0.00000000  0.61125798  1
  Au  Au15  1  0.75000003  0.38874202  0.99999998  1
  Au  Au16  1  0.75000003  0.61125803  0.61125800  1
  Au  Au17  1  0.75000003  0.00000000  0.38874199  1
