# generated using pymatgen
data_BaS
_symmetry_space_group_name_H-M   'P 1'
_cell_length_a   8.05137634
_cell_length_b   8.05137634
_cell_length_c   8.05137634
_cell_angle_alpha   107.33552551
_cell_angle_beta   110.54950714
_cell_angle_gamma   110.54950714
_symmetry_Int_Tables_number   1
_chemical_formula_structural   BaS
_chemical_formula_sum   'Ba7 S7'
_cell_volume   401.36342690
_cell_formula_units_Z   7
loop_
 _symmetry_equiv_pos_site_id
 _symmetry_equiv_pos_as_xyz
  1  'x, y, z'
loop_
 _atom_site_type_symbol
 _atom_site_label
 _atom_site_symmetry_multiplicity
 _atom_site_fract_x
 _atom_site_fract_y
 _atom_site_fract_z
 _atom_site_occupancy
  Ba  Ba0  1  0.12173500  0.99744499  0.73524298  1
  S  S1  1  0.73779800  0.12429000  0.00255500  1
  S  S2  1  0.26220200  0.26475700  0.38649200  1
  S  S3  1  0.37826500  0.62571000  0.86350799  1
  S  S4  1  0.23779800  0.75255500  0.37428998  1
  S  S5  1  0.76220200  0.13649200  0.51475700  1
  S  S6  1  0.87826500  0.61350800  0.87570999  1
  S  S7  1  0.62173500  0.48524300  0.24744499  1
  Ba  Ba8  1  0.87764500  0.87500000  0.25264499  1
  Ba  Ba9  1  0.62235500  0.74735500  0.62499999  1
  Ba  Ba10  1  0.12235500  0.37500000  0.99735499  1
  Ba  Ba11  1  0.37764500  0.00264500  0.12500000  1
  Ba  Ba12  1  -0.00000000  0.50000000  0.49999999  1
  Ba  Ba13  1  0.50000000  0.25000000  0.75000000  1
