# generated using pymatgen
data_TbInAu
_symmetry_space_group_name_H-M   'P 1'
_cell_length_a   4.04139090
_cell_length_b   7.63886213
_cell_length_c   7.63886261
_cell_angle_alpha   120.00000000
_cell_angle_beta   90.00000000
_cell_angle_gamma   90.00000000
_symmetry_Int_Tables_number   1
_chemical_formula_structural   TbInAu
_chemical_formula_sum   'Tb3 In3 Au3'
_cell_volume   204.22968213
_cell_formula_units_Z   3
loop_
 _symmetry_equiv_pos_site_id
 _symmetry_equiv_pos_as_xyz
  1  'x, y, z'
loop_
 _atom_site_type_symbol
 _atom_site_label
 _atom_site_symmetry_multiplicity
 _atom_site_fract_x
 _atom_site_fract_y
 _atom_site_fract_z
 _atom_site_occupancy
  Tb  Tb0  1  0.50000001  0.00000000  0.41451699  1
  Tb  Tb1  1  0.50000001  0.41451700  0.00000001  1
  Tb  Tb2  1  0.50000001  0.58548300  0.58548300  1
  In  In3  1  0.00000000  0.00000000  0.75596598  1
  In  In4  1  0.00000000  0.75596600  1.00000000  1
  In  In5  1  0.00000000  0.24403400  0.24403400  1
  Au  Au6  1  0.00000000  0.66666667  0.33333335  1
  Au  Au7  1  0.00000000  0.33333333  0.66666666  1
  Au  Au8  1  0.50000001  0.00000000  -0.00000000  1
