# generated using pymatgen
data_AlH2N
_symmetry_space_group_name_H-M   'P 1'
_cell_length_a   3.72125101
_cell_length_b   3.72125101
_cell_length_c   5.40360594
_cell_angle_alpha   69.85906982
_cell_angle_beta   69.85906982
_cell_angle_gamma   60.00001526
_symmetry_Int_Tables_number   1
_chemical_formula_structural   AlH2N
_chemical_formula_sum   'Al1 H2 N1'
_cell_volume   59.46022032
_cell_formula_units_Z   1
loop_
 _symmetry_equiv_pos_site_id
 _symmetry_equiv_pos_as_xyz
  1  'x, y, z'
loop_
 _atom_site_type_symbol
 _atom_site_label
 _atom_site_symmetry_multiplicity
 _atom_site_fract_x
 _atom_site_fract_y
 _atom_site_fract_z
 _atom_site_occupancy
  Al  Al0  1  0.00000000  0.00000000  0.00000000  1
  H  H1  1  0.50000002  0.50000002  0.49999998  1
  H  H2  1  0.58314802  0.58314802  0.25055598  1
  N  N3  1  0.41685202  0.41685201  0.74944398  1
