# generated using pymatgen
data_LiAl(BO3)2
_symmetry_space_group_name_H-M   'P 1'
_cell_length_a   4.69228125
_cell_length_b   5.91169167
_cell_length_c   5.91169167
_cell_angle_alpha   85.26266479
_cell_angle_beta   76.01843262
_cell_angle_gamma   76.01843262
_symmetry_Int_Tables_number   1
_chemical_formula_structural   LiAl(BO3)2
_chemical_formula_sum   'Li2 Al2 B4 O12'
_cell_volume   154.36250583
_cell_formula_units_Z   2
loop_
 _symmetry_equiv_pos_site_id
 _symmetry_equiv_pos_as_xyz
  1  'x, y, z'
loop_
 _atom_site_type_symbol
 _atom_site_label
 _atom_site_symmetry_multiplicity
 _atom_site_fract_x
 _atom_site_fract_y
 _atom_site_fract_z
 _atom_site_occupancy
  Li  Li0  1  0.74999999  0.09933500  0.90066495  1
  Al  Al1  1  0.24999998  0.29095499  0.70904497  1
  Li  Li2  1  0.74999995  0.70904499  0.29095497  1
  Al  Al3  1  0.24999995  0.90066498  0.09933499  1
  B  B4  1  0.73919298  0.19820500  0.37286796  1
  B  B5  1  0.23919298  0.37286799  0.19820499  1
  B  B6  1  0.76080696  0.62713199  0.80179495  1
  B  B7  1  0.26080695  0.80179498  0.62713198  1
  O  O8  1  0.83926799  0.02004200  0.20814797  1
  O  O9  1  0.65840299  0.11633000  0.60564496  1
  O  O10  1  0.33926799  0.20814800  0.02004199  1
  O  O11  1  0.95867897  0.34391599  0.36811396  1
  O  O12  1  0.45867898  0.36811399  0.34391598  1
  O  O13  1  0.84159697  0.39435499  0.88366995  1
  O  O14  1  0.15840297  0.60564499  0.11632999  1
  O  O15  1  0.54132096  0.63188599  0.65608396  1
  O  O16  1  0.04132096  0.65608399  0.63188598  1
  O  O17  1  0.66073195  0.79185198  0.97995795  1
  O  O18  1  0.34159695  0.88366998  0.39435498  1
  O  O19  1  0.16073195  0.97995798  0.79185197  1
