# generated using pymatgen
data_AsPb2O3
_symmetry_space_group_name_H-M   'P 1'
_cell_length_a   3.48899102
_cell_length_b   6.16532087
_cell_length_c   6.92974710
_cell_angle_alpha   90.00000000
_cell_angle_beta   90.00000000
_cell_angle_gamma   90.00000000
_symmetry_Int_Tables_number   1
_chemical_formula_structural   AsPb2O3
_chemical_formula_sum   'As1 Pb2 O3'
_cell_volume   149.06405182
_cell_formula_units_Z   1
loop_
 _symmetry_equiv_pos_site_id
 _symmetry_equiv_pos_as_xyz
  1  'x, y, z'
loop_
 _atom_site_type_symbol
 _atom_site_label
 _atom_site_symmetry_multiplicity
 _atom_site_fract_x
 _atom_site_fract_y
 _atom_site_fract_z
 _atom_site_occupancy
  Pb  Pb0  1  0.50000000  0.50000001  0.49999999  1
  As  As1  1  0.00000000  0.00000000  0.00000000  1
  Pb  Pb2  1  0.50000000  0.78634802  0.13683100  1
  O  O3  1  0.50000000  0.21365200  0.86316899  1
  O  O4  1  -0.00000000  0.71365201  0.63683099  1
  O  O5  1  -0.00000000  0.28634801  0.36316899  1
