# generated using pymatgen
data_LiBeAsP
_symmetry_space_group_name_H-M   'P 1'
_cell_length_a   4.20209408
_cell_length_b   4.20209408
_cell_length_c   4.94781923
_cell_angle_alpha   90.00000000
_cell_angle_beta   90.00000000
_cell_angle_gamma   120.00000000
_symmetry_Int_Tables_number   1
_chemical_formula_structural   LiBeAsP
_chemical_formula_sum   'Li1 Be1 As1 P1'
_cell_volume   75.66168324
_cell_formula_units_Z   1
loop_
 _symmetry_equiv_pos_site_id
 _symmetry_equiv_pos_as_xyz
  1  'x, y, z'
loop_
 _atom_site_type_symbol
 _atom_site_label
 _atom_site_symmetry_multiplicity
 _atom_site_fract_x
 _atom_site_fract_y
 _atom_site_fract_z
 _atom_site_occupancy
  Li  Li0  1  0.33333331  0.66666663  0.00314200  1
  Be  Be1  1  0.66666665  0.33333331  0.45232398  1
  As  As2  1  0.00000000  0.00000000  0.55595797  1
  P  P3  1  0.66666665  0.33333331  0.09167600  1
