# generated using pymatgen
data_CsBa3TlAgS6
_symmetry_space_group_name_H-M   'P 1'
_cell_length_a   4.18109989
_cell_length_b   8.37413692
_cell_length_c   11.03437805
_cell_angle_alpha   90.00000000
_cell_angle_beta   90.00000000
_cell_angle_gamma   104.45642853
_symmetry_Int_Tables_number   1
_chemical_formula_structural   CsBa3TlAgS6
_chemical_formula_sum   'Cs1 Ba3 Tl1 Ag1 S6'
_cell_volume   374.11518014
_cell_formula_units_Z   1
loop_
 _symmetry_equiv_pos_site_id
 _symmetry_equiv_pos_as_xyz
  1  'x, y, z'
loop_
 _atom_site_type_symbol
 _atom_site_label
 _atom_site_symmetry_multiplicity
 _atom_site_fract_x
 _atom_site_fract_y
 _atom_site_fract_z
 _atom_site_occupancy
  Ba  Ba0  1  0.25822806  0.51645600  0.75000000  1
  Cs  Cs1  1  0.74177207  0.48354400  0.25000000  1
  Ba  Ba2  1  0.00000000  0.00000000  0.00000000  1
  Ba  Ba3  1  0.00000000  0.00000000  0.50000000  1
  Tl  Tl4  1  0.53984602  0.07969200  0.75000000  1
  Ag  Ag5  1  0.46015410  0.92030800  0.25000000  1
  S  S6  1  0.61682204  0.23364400  0.94139400  1
  S  S7  1  0.05407901  0.10815800  0.25000000  1
  S  S8  1  0.61682204  0.23364400  0.55860600  1
  S  S9  1  0.94592111  0.89184200  0.75000000  1
  S  S10  1  0.38317809  0.76635600  0.05860600  1
  S  S11  1  0.38317809  0.76635600  0.44139400  1
