# generated using pymatgen
data_Sr3LaHfZrTa2O12
_symmetry_space_group_name_H-M   'P 1'
_cell_length_a   7.10699749
_cell_length_b   7.10699749
_cell_length_c   7.10699749
_cell_angle_alpha   109.47122192
_cell_angle_beta   109.47122192
_cell_angle_gamma   109.47122192
_symmetry_Int_Tables_number   1
_chemical_formula_structural   Sr3LaHfZrTa2O12
_chemical_formula_sum   'Sr3 La1 Hf1 Zr1 Ta2 O12'
_cell_volume   276.33543234
_cell_formula_units_Z   1
loop_
 _symmetry_equiv_pos_site_id
 _symmetry_equiv_pos_as_xyz
  1  'x, y, z'
loop_
 _atom_site_type_symbol
 _atom_site_label
 _atom_site_symmetry_multiplicity
 _atom_site_fract_x
 _atom_site_fract_y
 _atom_site_fract_z
 _atom_site_occupancy
  Sr  Sr0  1  0.00000003  0.50000003  0.00000003  1
  Sr  Sr1  1  0.00000000  0.00000000  0.50000001  1
  Sr  Sr2  1  0.50000005  0.50000003  0.50000005  1
  La  La3  1  0.50000001  0.00000000  0.00000001  1
  Ta  Ta4  1  0.00000000  0.00000000  0.00000000  1
  Zr  Zr5  1  0.50000005  0.50000003  0.00000004  1
  Ta  Ta6  1  0.50000001  0.00000000  0.50000002  1
  Hf  Hf7  1  0.00000003  0.50000003  0.50000004  1
  O  O8  1  0.50000003  0.25000002  0.75000004  1
  O  O9  1  0.75000004  0.25000002  0.50000004  1
  O  O10  1  0.25000005  0.75000005  0.50000006  1
  O  O11  1  0.75000005  0.50000003  0.25000005  1
  O  O12  1  0.25000004  0.50000003  0.75000005  1
  O  O13  1  0.50000006  0.75000005  0.25000006  1
  O  O14  1  0.00000005  0.72587804  0.72587806  1
  O  O15  1  0.72587807  0.72587804  0.00000006  1
  O  O16  1  0.00000002  0.27412202  0.27412202  1
  O  O17  1  0.72587802  0.00000000  0.72587803  1
  O  O18  1  0.27412201  0.00000000  0.27412201  1
  O  O19  1  0.27412203  0.27412202  0.00000002  1
