# generated using pymatgen
data_SiGeP5
_symmetry_space_group_name_H-M   'P 1'
_cell_length_a   3.68101811
_cell_length_b   6.16472721
_cell_length_c   6.63644981
_cell_angle_alpha   89.67028809
_cell_angle_beta   90.00000000
_cell_angle_gamma   90.00000000
_symmetry_Int_Tables_number   1
_chemical_formula_structural   SiGeP5
_chemical_formula_sum   'Si1 Ge1 P5'
_cell_volume   150.59496161
_cell_formula_units_Z   1
loop_
 _symmetry_equiv_pos_site_id
 _symmetry_equiv_pos_as_xyz
  1  'x, y, z'
loop_
 _atom_site_type_symbol
 _atom_site_label
 _atom_site_symmetry_multiplicity
 _atom_site_fract_x
 _atom_site_fract_y
 _atom_site_fract_z
 _atom_site_occupancy
  P  P0  1  0.49999998  0.51951098  0.16999503  1
  P  P1  1  0.49999998  0.97465197  0.84863106  1
  Ge  Ge2  1  -0.00000000  0.50972698  0.65526103  1
  Si  Si3  1  -0.00000000  0.88953197  0.65714605  1
  P  P4  1  0.49999998  0.87470397  0.16363405  1
  P  P5  1  0.49999998  0.36232699  0.84478803  1
  P  P6  1  -0.00000000  0.36954699  0.32719502  1
