# generated using pymatgen
data_Li4TiCoO6
_symmetry_space_group_name_H-M   'P 1'
_cell_length_a   5.18784952
_cell_length_b   5.18784952
_cell_length_c   5.64523935
_cell_angle_alpha   99.31301117
_cell_angle_beta   99.31301117
_cell_angle_gamma   119.83668518
_symmetry_Int_Tables_number   1
_chemical_formula_structural   Li4TiCoO6
_chemical_formula_sum   'Li4 Ti1 Co1 O6'
_cell_volume   124.73731509
_cell_formula_units_Z   1
loop_
 _symmetry_equiv_pos_site_id
 _symmetry_equiv_pos_as_xyz
  1  'x, y, z'
loop_
 _atom_site_type_symbol
 _atom_site_label
 _atom_site_symmetry_multiplicity
 _atom_site_fract_x
 _atom_site_fract_y
 _atom_site_fract_z
 _atom_site_occupancy
  Li  Li0  1  0.15768895  0.84231095  0.50000003  1
  Li  Li1  1  0.84231097  0.15768899  0.50000004  1
  Li  Li2  1  0.49999996  0.49999997  0.50000003  1
  Li  Li3  1  0.00000000  0.00000000  0.00000000  1
  Co  Co4  1  0.67067497  0.32932498  1.00000003  1
  Ti  Ti5  1  0.32932496  0.67067496  1.00000003  1
  O  O6  1  0.31282398  0.31282398  0.80118102  1
  O  O7  1  0.06309998  0.44587898  0.19812601  1
  O  O8  1  0.44587898  0.06310000  0.19812602  1
  O  O9  1  0.93689995  0.55412097  0.80187405  1
  O  O10  1  0.55412094  0.93689995  0.80187404  1
  O  O11  1  0.68717595  0.68717596  0.19881905  1
