# generated using pymatgen
data_Zn4CuS5
_symmetry_space_group_name_H-M   'P 1'
_cell_length_a   3.85179925
_cell_length_b   3.85179925
_cell_length_c   15.91666317
_cell_angle_alpha   83.05024719
_cell_angle_beta   83.05024719
_cell_angle_gamma   60.00001144
_symmetry_Int_Tables_number   1
_chemical_formula_structural   Zn4CuS5
_chemical_formula_sum   'Zn4 Cu1 S5'
_cell_volume   202.50192300
_cell_formula_units_Z   1
loop_
 _symmetry_equiv_pos_site_id
 _symmetry_equiv_pos_as_xyz
  1  'x, y, z'
loop_
 _atom_site_type_symbol
 _atom_site_label
 _atom_site_symmetry_multiplicity
 _atom_site_fract_x
 _atom_site_fract_y
 _atom_site_fract_z
 _atom_site_occupancy
  Zn  Zn0  1  0.60000301  0.60000301  0.19999100  1
  Zn  Zn1  1  0.86666802  0.86666802  0.39999600  1
  Zn  Zn2  1  0.46665301  0.46665301  0.60004100  1
  Zn  Zn3  1  0.00000600  0.00000600  0.99998200  1
  Cu  Cu4  1  0.73334001  0.73334002  0.79998000  1
  S  S5  1  0.05003700  0.05003700  0.84988900  1
  S  S6  1  0.78330001  0.78330002  0.65010000  1
  S  S7  1  0.65000201  0.65000201  0.04999400  1
  S  S8  1  0.51666501  0.51666501  0.45000500  1
  S  S9  1  0.91666602  0.91666602  0.25000200  1
