# generated using pymatgen
data_KRb(HO2)2
_symmetry_space_group_name_H-M   'P 1'
_cell_length_a   3.50449610
_cell_length_b   6.21182489
_cell_length_c   11.08983612
_cell_angle_alpha   90.00000000
_cell_angle_beta   90.00000000
_cell_angle_gamma   90.00000000
_symmetry_Int_Tables_number   1
_chemical_formula_structural   KRb(HO2)2
_chemical_formula_sum   'Rb2 K2 H4 O8'
_cell_volume   241.41814800
_cell_formula_units_Z   2
loop_
 _symmetry_equiv_pos_site_id
 _symmetry_equiv_pos_as_xyz
  1  'x, y, z'
loop_
 _atom_site_type_symbol
 _atom_site_label
 _atom_site_symmetry_multiplicity
 _atom_site_fract_x
 _atom_site_fract_y
 _atom_site_fract_z
 _atom_site_occupancy
  Rb  Rb0  1  0.49999999  0.90420402  0.84941499  1
  K  K1  1  0.49999999  0.09579600  0.15058500  1
  K  K2  1  0.49999999  0.40420401  0.65058499  1
  Rb  Rb3  1  0.49999999  0.59579601  0.34941500  1
  H  H4  1  -0.00000000  0.43110901  0.93957799  1
  H  H5  1  -0.00000000  0.93110902  0.56042199  1
  H  H6  1  -0.00000000  0.06889100  0.43957800  1
  H  H7  1  -0.00000000  0.56889101  0.06042200  1
  O  O8  1  -0.00000000  0.53517601  0.84078199  1
  O  O9  1  -0.00000000  0.03517600  0.65921799  1
  O  O10  1  -0.00000000  0.22798700  0.95090699  1
  O  O11  1  -0.00000000  0.96482402  0.34078200  1
  O  O12  1  -0.00000000  0.27201300  0.45090700  1
  O  O13  1  -0.00000000  0.77201301  0.04909300  1
  O  O14  1  -0.00000000  0.46482401  0.15921800  1
  O  O15  1  -0.00000000  0.72798701  0.54909299  1
