# generated using pymatgen
data_SmTmLu3ZrSc2O12
_symmetry_space_group_name_H-M   'P 1'
_cell_length_a   5.61251020
_cell_length_b   5.87614298
_cell_length_c   8.23375034
_cell_angle_alpha   90.00000000
_cell_angle_beta   90.00000000
_cell_angle_gamma   90.00000000
_symmetry_Int_Tables_number   1
_chemical_formula_structural   SmTmLu3ZrSc2O12
_chemical_formula_sum   'Sm1 Tm1 Lu3 Zr1 Sc2 O12'
_cell_volume   271.54836529
_cell_formula_units_Z   1
loop_
 _symmetry_equiv_pos_site_id
 _symmetry_equiv_pos_as_xyz
  1  'x, y, z'
loop_
 _atom_site_type_symbol
 _atom_site_label
 _atom_site_symmetry_multiplicity
 _atom_site_fract_x
 _atom_site_fract_y
 _atom_site_fract_z
 _atom_site_occupancy
  Tm  Tm0  1  0.98695196  0.05313800  0.24999999  1
  Sm  Sm1  1  0.48695198  0.44686200  0.74999997  1
  Lu  Lu2  1  0.51304798  0.55313800  0.24999999  1
  Lu  Lu3  1  0.01304800  0.94686200  0.74999997  1
  Zr  Zr4  1  0.49999998  0.00000000  0.00000000  1
  Lu  Lu5  1  0.49999998  0.00000000  0.49999998  1
  Sc  Sc6  1  -0.00000000  0.50000000  0.00000000  1
  Sc  Sc7  1  -0.00000000  0.50000000  0.49999998  1
  O  O8  1  0.63929398  0.07140000  0.74999997  1
  O  O9  1  0.17995199  0.18368600  0.57228798  1
  O  O10  1  0.17995199  0.18368600  0.92771196  1
  O  O11  1  0.67995198  0.31631400  0.42771198  1
  O  O12  1  0.67995198  0.31631400  0.07228800  1
  O  O13  1  0.13929399  0.42860000  0.24999999  1
  O  O14  1  0.86070597  0.57140000  0.74999997  1
  O  O15  1  0.32004799  0.68368600  0.57228798  1
  O  O16  1  0.32004799  0.68368600  0.92771196  1
  O  O17  1  0.82004797  0.81631400  0.07228800  1
  O  O18  1  0.82004797  0.81631400  0.42771198  1
  O  O19  1  0.36070599  0.92860000  0.24999999  1
