# generated using pymatgen
data_CdIn2Si(AsS)2
_symmetry_space_group_name_H-M   'P 1'
_cell_length_a   6.93037176
_cell_length_b   6.93037176
_cell_length_c   7.25070906
_cell_angle_alpha   99.21868134
_cell_angle_beta   99.21868134
_cell_angle_gamma   119.90730286
_symmetry_Int_Tables_number   1
_chemical_formula_structural   CdIn2Si(AsS)2
_chemical_formula_sum   'Cd1 In2 Si1 As2 S2'
_cell_volume   286.00723857
_cell_formula_units_Z   1
loop_
 _symmetry_equiv_pos_site_id
 _symmetry_equiv_pos_as_xyz
  1  'x, y, z'
loop_
 _atom_site_type_symbol
 _atom_site_label
 _atom_site_symmetry_multiplicity
 _atom_site_fract_x
 _atom_site_fract_y
 _atom_site_fract_z
 _atom_site_occupancy
  Si  Si0  1  0.16672800  0.83327201  -0.00000004  1
  Cd  Cd1  1  0.83327201  0.16672800  0.99999997  1
  S  S2  1  0.57376101  0.93112001  0.22055295  1
  In  In3  1  0.42623900  0.06888000  0.77944699  1
  S  S4  1  0.06888000  0.42623900  0.77944699  1
  As  As5  1  0.93112001  0.57376101  0.22055295  1
  As  As6  1  0.21760700  0.21760700  0.22078699  1
  In  In7  1  0.78239301  0.78239301  0.77921295  1
