# generated using pymatgen
data_BaZnCdGaFeSnSb3As11
_symmetry_space_group_name_H-M   'P 1'
_cell_length_a   7.91369534
_cell_length_b   7.91369534
_cell_length_c   7.91369534
_cell_angle_alpha   109.47122192
_cell_angle_beta   109.47122192
_cell_angle_gamma   109.47122192
_symmetry_Int_Tables_number   1
_chemical_formula_structural   BaZnCdGaFeSnSb3As11
_chemical_formula_sum   'Ba1 Zn1 Cd1 Ga1 Fe1 Sn1 Sb3 As11'
_cell_volume   381.51890973
_cell_formula_units_Z   1
loop_
 _symmetry_equiv_pos_site_id
 _symmetry_equiv_pos_as_xyz
  1  'x, y, z'
loop_
 _atom_site_type_symbol
 _atom_site_label
 _atom_site_symmetry_multiplicity
 _atom_site_fract_x
 _atom_site_fract_y
 _atom_site_fract_z
 _atom_site_occupancy
  Ba  Ba0  1  0.74999999  0.12500000  0.37500001  1
  Sn  Sn1  1  0.37500003  0.62500001  0.75000002  1
  Sb  Sb2  1  0.12500005  0.87500001  0.25000004  1
  Cd  Cd3  1  0.87500003  0.75000001  0.62500004  1
  Zn  Zn4  1  0.62500000  0.25000000  0.87500000  1
  Sb  Sb5  1  0.25000002  0.37500000  0.12500002  1
  Fe  Fe6  1  0.87499999  0.12500000  0.75000001  1
  Ga  Ga7  1  0.25000005  0.87500001  0.62500004  1
  Sb  Sb8  1  0.62500001  0.37500000  0.25000003  1
  As  As9  1  0.37500004  0.75000001  0.12500005  1
  As  As10  1  0.12500001  0.25000000  0.37500001  1
  As  As11  1  0.75000002  0.62500001  0.87500003  1
  As  As12  1  0.16535701  0.16535700  0.66535699  1
  As  As13  1  0.83464305  1.00000001  1.00000005  1
  As  As14  1  0.00000003  0.50000001  0.83464300  1
  As  As15  1  0.50000001  0.33464300  0.50000002  1
  As  As16  1  0.00000003  0.50000001  0.33464302  1
  As  As17  1  0.50000004  0.83464301  0.50000004  1
  As  As18  1  0.66535703  0.66535701  0.16535705  1
  As  As19  1  0.33464306  1.00000001  1.00000004  1
