# generated using pymatgen
data_KNaLiTl(IBr)2
_symmetry_space_group_name_H-M   'P 1'
_cell_length_a   4.73749113
_cell_length_b   7.11546803
_cell_length_c   7.11546803
_cell_angle_alpha   90.00000000
_cell_angle_beta   90.00000000
_cell_angle_gamma   90.00000000
_symmetry_Int_Tables_number   1
_chemical_formula_structural   KNaLiTl(IBr)2
_chemical_formula_sum   'K1 Na1 Li1 Tl1 I2 Br2'
_cell_volume   239.85863217
_cell_formula_units_Z   1
loop_
 _symmetry_equiv_pos_site_id
 _symmetry_equiv_pos_as_xyz
  1  'x, y, z'
loop_
 _atom_site_type_symbol
 _atom_site_label
 _atom_site_symmetry_multiplicity
 _atom_site_fract_x
 _atom_site_fract_y
 _atom_site_fract_z
 _atom_site_occupancy
  Li  Li0  1  0.19099499  0.50000000  0.00000000  1
  K  K1  1  0.80900498  1.00000000  0.50000000  1
  Na  Na2  1  0.00000000  0.00000000  0.00000000  1
  Tl  Tl3  1  -0.00000000  0.50000000  0.50000000  1
  I  I4  1  0.29063399  0.20181100  0.29818900  1
  I  I5  1  0.70936598  0.70181100  0.20181100  1
  Br  Br6  1  0.29063399  0.79818900  0.70181100  1
  Br  Br7  1  0.70936598  0.29818900  0.79818900  1
