# generated using pymatgen
data_Ba2Sr4CaPbN3O
_symmetry_space_group_name_H-M   'P 1'
_cell_length_a   3.87337899
_cell_length_b   3.88647795
_cell_length_c   17.40454102
_cell_angle_alpha   90.00000000
_cell_angle_beta   90.00000000
_cell_angle_gamma   90.00000000
_symmetry_Int_Tables_number   1
_chemical_formula_structural   Ba2Sr4CaPbN3O
_chemical_formula_sum   'Ba2 Sr4 Ca1 Pb1 N3 O1'
_cell_volume   262.00451494
_cell_formula_units_Z   1
loop_
 _symmetry_equiv_pos_site_id
 _symmetry_equiv_pos_as_xyz
  1  'x, y, z'
loop_
 _atom_site_type_symbol
 _atom_site_label
 _atom_site_symmetry_multiplicity
 _atom_site_fract_x
 _atom_site_fract_y
 _atom_site_fract_z
 _atom_site_occupancy
  Ca  Ca0  1  0.75000000  0.24088500  0.86109900  1
  Ba  Ba1  1  0.75000000  0.25911500  0.36109900  1
  Sr  Sr2  1  0.25000000  0.75911501  0.13890100  1
  Ba  Ba3  1  0.25000000  0.74088501  0.63890100  1
  Sr  Sr4  1  0.25000000  0.22571300  0.50080800  1
  Sr  Sr5  1  0.25000000  0.27428700  0.00080800  1
  Pb  Pb6  1  0.75000000  0.77428701  0.49919200  1
  Sr  Sr7  1  0.75000000  0.72571301  0.99919200  1
  N  N8  1  0.75000000  0.24211900  0.68809200  1
  N  N9  1  0.75000000  0.25788100  0.18809200  1
  O  O10  1  0.25000000  0.75788001  0.31190800  1
  N  N11  1  0.25000000  0.74212001  0.81190800  1
