# generated using pymatgen
data_Li3AlB4HN7
_symmetry_space_group_name_H-M   'P 1'
_cell_length_a   4.80063105
_cell_length_b   5.35830498
_cell_length_c   5.81463480
_cell_angle_alpha   90.00000000
_cell_angle_beta   90.00000000
_cell_angle_gamma   90.00000000
_symmetry_Int_Tables_number   1
_chemical_formula_structural   Li3AlB4HN7
_chemical_formula_sum   'Li3 Al1 B4 H1 N7'
_cell_volume   149.57127688
_cell_formula_units_Z   1
loop_
 _symmetry_equiv_pos_site_id
 _symmetry_equiv_pos_as_xyz
  1  'x, y, z'
loop_
 _atom_site_type_symbol
 _atom_site_label
 _atom_site_symmetry_multiplicity
 _atom_site_fract_x
 _atom_site_fract_y
 _atom_site_fract_z
 _atom_site_occupancy
  Li  Li0  1  0.99338899  0.33638500  0.75258703  1
  Li  Li1  1  0.49338900  0.66361500  0.74741303  1
  Al  Al2  1  0.99338899  0.33638500  0.24741301  1
  Li  Li3  1  0.49338900  0.66361500  0.25258701  1
  B  B4  1  0.99611399  0.85811800  0.50000002  1
  B  B5  1  0.49611400  0.14188200  0.00000000  1
  B  B6  1  0.50240100  0.17224000  0.50000002  1
  B  B7  1  0.00240100  0.82776000  0.00000000  1
  N  N8  1  0.81233999  0.16823600  0.50000002  1
  N  N9  1  0.39330500  0.90836200  0.50000002  1
  H  H10  1  0.90452799  0.69379300  0.78713003  1
  N  N11  1  0.40452800  0.30620700  0.71287002  1
  N  N12  1  0.89330499  0.09163800  0.00000000  1
  N  N13  1  0.31234000  0.83176400  0.00000000  1
  N  N14  1  0.40452800  0.30620700  0.28713001  1
  N  N15  1  0.90452799  0.69379300  0.21287001  1
