# generated using pymatgen
data_Na4LiVCdCuO10
_symmetry_space_group_name_H-M   'P 1'
_cell_length_a   5.17473316
_cell_length_b   6.53525209
_cell_length_c   6.53525209
_cell_angle_alpha   90.00000000
_cell_angle_beta   90.00000000
_cell_angle_gamma   90.00000000
_symmetry_Int_Tables_number   1
_chemical_formula_structural   Na4LiVCdCuO10
_chemical_formula_sum   'Na4 Li1 V1 Cd1 Cu1 O10'
_cell_volume   221.01036914
_cell_formula_units_Z   1
loop_
 _symmetry_equiv_pos_site_id
 _symmetry_equiv_pos_as_xyz
  1  'x, y, z'
loop_
 _atom_site_type_symbol
 _atom_site_label
 _atom_site_symmetry_multiplicity
 _atom_site_fract_x
 _atom_site_fract_y
 _atom_site_fract_z
 _atom_site_occupancy
  Na  Na0  1  0.49999998  0.25000000  0.25000000  1
  Na  Na1  1  0.49999998  0.74999999  0.25000000  1
  Na  Na2  1  0.49999998  0.25000000  0.74999999  1
  Na  Na3  1  0.49999998  0.74999999  0.74999999  1
  Li  Li4  1  0.06370400  0.99999999  0.49999999  1
  Cd  Cd5  1  0.93629597  0.49999999  0.00000000  1
  Cu  Cu6  1  0.00000000  0.00000000  0.00000000  1
  V  V7  1  -0.00000000  0.49999999  0.49999999  1
  O  O8  1  0.73125198  0.99999999  0.49999999  1
  O  O9  1  0.26874799  0.49999999  0.00000000  1
  O  O10  1  0.18225099  0.29276400  0.49999999  1
  O  O11  1  0.18225099  0.70723599  0.49999999  1
  O  O12  1  0.18225099  0.00000000  0.79276399  1
  O  O13  1  0.18225099  0.99999999  0.20723600  1
  O  O14  1  0.81774897  0.49999999  0.29276400  1
  O  O15  1  0.81774897  0.79276399  0.00000000  1
  O  O16  1  0.81774897  0.49999999  0.70723599  1
  O  O17  1  0.81774897  0.20723600  0.00000000  1
