# generated using pymatgen
data_SiB4H7
_symmetry_space_group_name_H-M   'P 1'
_cell_length_a   4.81255245
_cell_length_b   4.81255245
_cell_length_c   6.59065199
_cell_angle_alpha   90.00000000
_cell_angle_beta   90.00000000
_cell_angle_gamma   113.41501617
_symmetry_Int_Tables_number   1
_chemical_formula_structural   SiB4H7
_chemical_formula_sum   'Si1 B4 H7'
_cell_volume   140.07371323
_cell_formula_units_Z   1
loop_
 _symmetry_equiv_pos_site_id
 _symmetry_equiv_pos_as_xyz
  1  'x, y, z'
loop_
 _atom_site_type_symbol
 _atom_site_label
 _atom_site_symmetry_multiplicity
 _atom_site_fract_x
 _atom_site_fract_y
 _atom_site_fract_z
 _atom_site_occupancy
  Si  Si0  1  0.00000000  0.00000000  0.50000000  1
  B  B1  1  0.00000000  0.00000000  0.00000000  1
  B  B2  1  0.34583300  0.65416700  0.75000000  1
  B  B3  1  0.65416700  0.34583300  0.25000000  1
  H  H4  1  0.76181700  0.23818300  0.44202300  1
  H  H5  1  0.23818300  0.76181700  0.94202300  1
  H  H6  1  0.23818300  0.76181700  0.55797700  1
  B  B7  1  0.76181700  0.23818300  0.05797700  1
  H  H8  1  0.78780800  0.70139200  0.25000000  1
  H  H9  1  0.21219200  0.29860800  0.75000000  1
  H  H10  1  0.70139200  0.78780800  0.75000000  1
  H  H11  1  0.29860800  0.21219200  0.25000000  1
