# generated using pymatgen
data_Na5Mg(SiO5)2
_symmetry_space_group_name_H-M   'P 1'
_cell_length_a   4.86266184
_cell_length_b   6.81284094
_cell_length_c   6.81284094
_cell_angle_alpha   90.00000000
_cell_angle_beta   90.00000000
_cell_angle_gamma   90.00000000
_symmetry_Int_Tables_number   1
_chemical_formula_structural   Na5Mg(SiO5)2
_chemical_formula_sum   'Na5 Mg1 Si2 O10'
_cell_volume   225.69948475
_cell_formula_units_Z   1
loop_
 _symmetry_equiv_pos_site_id
 _symmetry_equiv_pos_as_xyz
  1  'x, y, z'
loop_
 _atom_site_type_symbol
 _atom_site_label
 _atom_site_symmetry_multiplicity
 _atom_site_fract_x
 _atom_site_fract_y
 _atom_site_fract_z
 _atom_site_occupancy
  Na  Na0  1  0.14431600  0.50000000  0.00000000  1
  Na  Na1  1  0.50000002  0.75000001  0.25000000  1
  Na  Na2  1  0.50000002  0.25000000  0.25000000  1
  Mg  Mg3  1  0.85568403  0.00000000  0.50000000  1
  Na  Na4  1  0.50000002  0.25000000  0.75000001  1
  Na  Na5  1  0.50000002  0.75000001  0.75000001  1
  Si  Si6  1  0.00000000  0.00000000  0.00000000  1
  Si  Si7  1  -0.00000000  0.50000000  0.50000000  1
  O  O8  1  0.66535002  0.50000000  0.00000000  1
  O  O9  1  0.33465001  0.00000000  0.50000000  1
  O  O10  1  0.20656201  0.19556100  0.00000000  1
  O  O11  1  0.20656201  0.80443901  0.00000000  1
  O  O12  1  0.79343803  0.00000000  0.19556100  1
  O  O13  1  0.20656201  0.50000000  0.30443900  1
  O  O14  1  0.79343803  0.30443900  0.50000000  1
  O  O15  1  0.79343803  0.69556101  0.50000000  1
  O  O16  1  0.20656201  0.50000000  0.69556101  1
  O  O17  1  0.79343803  0.00000000  0.80443901  1
