# generated using pymatgen
data_Na3TlI(ClO4)3
_symmetry_space_group_name_H-M   'P 1'
_cell_length_a   6.68960619
_cell_length_b   6.68960619
_cell_length_c   6.68960619
_cell_angle_alpha   90.00000000
_cell_angle_beta   90.00000000
_cell_angle_gamma   90.00000000
_symmetry_Int_Tables_number   1
_chemical_formula_structural   Na3TlI(ClO4)3
_chemical_formula_sum   'Na3 Tl1 I1 Cl3 O12'
_cell_volume   299.36543588
_cell_formula_units_Z   1
loop_
 _symmetry_equiv_pos_site_id
 _symmetry_equiv_pos_as_xyz
  1  'x, y, z'
loop_
 _atom_site_type_symbol
 _atom_site_label
 _atom_site_symmetry_multiplicity
 _atom_site_fract_x
 _atom_site_fract_y
 _atom_site_fract_z
 _atom_site_occupancy
  Na  Na0  1  0.06422900  0.06422900  0.06422900  1
  Na  Na1  1  0.43577099  0.93577097  0.56422898  1
  Tl  Tl2  1  0.56422898  0.43577099  0.93577097  1
  Na  Na3  1  0.93577097  0.56422898  0.43577099  1
  I  I4  1  0.42174499  0.42174499  0.42174499  1
  Cl  Cl5  1  0.07825500  0.57825498  0.92174497  1
  Cl  Cl6  1  0.92174497  0.07825500  0.57825498  1
  Cl  Cl7  1  0.57825498  0.92174497  0.07825500  1
  O  O8  1  0.19285799  0.40387299  0.00798400  1
  O  O9  1  0.69285798  0.09612700  0.99201597  1
  O  O10  1  0.80714198  0.90387297  0.49201599  1
  O  O11  1  0.09612700  0.99201597  0.69285798  1
  O  O12  1  0.49201599  0.80714198  0.90387297  1
  O  O13  1  0.99201597  0.69285798  0.09612700  1
  O  O14  1  0.40387299  0.00798400  0.19285799  1
  O  O15  1  0.00798400  0.19285799  0.40387299  1
  O  O16  1  0.30714199  0.59612698  0.50798399  1
  O  O17  1  0.50798399  0.30714199  0.59612698  1
  O  O18  1  0.59612698  0.50798399  0.30714199  1
  O  O19  1  0.90387297  0.49201599  0.80714198  1
