# generated using pymatgen
data_BaTlBiTeI12
_symmetry_space_group_name_H-M   'P 1'
_cell_length_a   7.89686823
_cell_length_b   7.89686775
_cell_length_c   14.28401089
_cell_angle_alpha   90.00000000
_cell_angle_beta   90.00000000
_cell_angle_gamma   120.00000000
_symmetry_Int_Tables_number   1
_chemical_formula_structural   BaTlBiTeI12
_chemical_formula_sum   'Ba1 Tl1 Bi1 Te1 I12'
_cell_volume   771.41940701
_cell_formula_units_Z   1
loop_
 _symmetry_equiv_pos_site_id
 _symmetry_equiv_pos_as_xyz
  1  'x, y, z'
loop_
 _atom_site_type_symbol
 _atom_site_label
 _atom_site_symmetry_multiplicity
 _atom_site_fract_x
 _atom_site_fract_y
 _atom_site_fract_z
 _atom_site_occupancy
  Ba  Ba0  1  0.66666664  0.33333333  0.75000001  1
  Tl  Tl1  1  0.33333331  0.66666666  0.25000000  1
  Bi  Bi2  1  0.00000000  0.00000000  0.00000000  1
  Te  Te3  1  0.00000000  0.00000000  0.50000000  1
  I  I4  1  0.65977398  0.01047300  0.87413901  1
  I  I5  1  0.35069898  0.34022600  0.87413901  1
  I  I6  1  0.98952696  0.64930099  0.87413901  1
  I  I7  1  0.35069899  0.01047300  0.62586100  1
  I  I8  1  0.98952696  0.34022600  0.62586100  1
  I  I9  1  0.65977397  0.64930099  0.62586100  1
  I  I10  1  0.34022597  0.98952699  0.12586100  1
  I  I11  1  0.64930097  0.65977399  0.12586100  1
  I  I12  1  0.01047299  0.35069900  0.12586100  1
  I  I13  1  0.64930096  0.98952699  0.37413900  1
  I  I14  1  0.01047299  0.65977399  0.37413900  1
  I  I15  1  0.34022598  0.35069900  0.37413900  1
