# generated using pymatgen
data_PrYMgSc2InBiTe5
_symmetry_space_group_name_H-M   'P 1'
_cell_length_a   8.58256626
_cell_length_b   8.58256626
_cell_length_c   8.58256626
_cell_angle_alpha   60.00000000
_cell_angle_beta   60.00000000
_cell_angle_gamma   60.00000000
_symmetry_Int_Tables_number   1
_chemical_formula_structural   PrYMgSc2InBiTe5
_chemical_formula_sum   'Pr1 Y1 Mg1 Sc2 In1 Bi1 Te5'
_cell_volume   447.02982287
_cell_formula_units_Z   1
loop_
 _symmetry_equiv_pos_site_id
 _symmetry_equiv_pos_as_xyz
  1  'x, y, z'
loop_
 _atom_site_type_symbol
 _atom_site_label
 _atom_site_symmetry_multiplicity
 _atom_site_fract_x
 _atom_site_fract_y
 _atom_site_fract_z
 _atom_site_occupancy
  Sc  Sc0  1  0.37500001  0.87500003  0.87500003  1
  Pr  Pr1  1  0.87500003  0.37500001  0.87500003  1
  Mg  Mg2  1  0.87500003  0.87500003  0.87500003  1
  Y  Y3  1  0.87500003  0.87500003  0.37500001  1
  Te  Te4  1  0.66361602  0.11212800  0.11212800  1
  Te  Te5  1  0.11212700  0.66361702  0.11212800  1
  In  In6  1  0.11212700  0.11212800  0.11212800  1
  Te  Te7  1  0.11212700  0.11212800  0.66361702  1
  Te  Te8  1  0.08638400  0.63787202  0.63787202  1
  Sc  Sc9  1  0.63787302  0.08638300  0.63787202  1
  Te  Te10  1  0.63787302  0.63787202  0.63787202  1
  Bi  Bi11  1  0.63787302  0.63787202  0.08638300  1
