# generated using pymatgen
data_Li3VP(HO2)5
_symmetry_space_group_name_H-M   'P 1'
_cell_length_a   5.10690784
_cell_length_b   5.69579506
_cell_length_c   8.57459259
_cell_angle_alpha   106.77954865
_cell_angle_beta   90.00000000
_cell_angle_gamma   90.00000000
_symmetry_Int_Tables_number   1
_chemical_formula_structural   Li3VP(HO2)5
_chemical_formula_sum   'Li3 V1 P1 H5 O10'
_cell_volume   238.79737402
_cell_formula_units_Z   1
loop_
 _symmetry_equiv_pos_site_id
 _symmetry_equiv_pos_as_xyz
  1  'x, y, z'
loop_
 _atom_site_type_symbol
 _atom_site_label
 _atom_site_symmetry_multiplicity
 _atom_site_fract_x
 _atom_site_fract_y
 _atom_site_fract_z
 _atom_site_occupancy
  Li  Li0  1  0.00634000  0.68808101  0.00844597  1
  Li  Li1  1  0.50634002  0.31191901  0.99155402  1
  V  V2  1  0.99556703  0.44956701  0.60637200  1
  Li  Li3  1  0.49556702  0.55043301  0.39362799  1
  H  H4  1  0.88534803  0.05338700  0.67540102  1
  P  P5  1  0.38534801  0.94661302  0.32459897  1
  H  H6  1  0.92144803  0.00542900  0.48913002  1
  H  H7  1  0.42144801  0.99457102  0.51086998  1
  H  H8  1  0.50619802  0.71623602  0.79170000  1
  H  H9  1  0.00619800  0.28376401  0.20830000  1
  O  O10  1  0.58514102  0.00887300  0.81569703  1
  O  O11  1  0.08514100  0.99112702  0.18430297  1
  O  O12  1  0.62288802  0.54923201  0.61156000  1
  O  O13  1  0.12288800  0.45076801  0.38843999  1
  O  O14  1  0.63851202  0.61408101  0.93844401  1
  O  O15  1  0.13851200  0.38591901  0.06155599  1
  O  O16  1  0.18137601  0.67506701  0.79506500  1
  O  O17  1  0.68137602  0.32493301  0.20493499  1
  O  O18  1  0.99694203  0.09747400  0.59399801  1
  O  O19  1  0.49694202  0.90252602  0.40600198  1
