# generated using pymatgen
data_LiV2OF4
_symmetry_space_group_name_H-M   'P 1'
_cell_length_a   3.79520392
_cell_length_b   5.32952023
_cell_length_c   10.02789879
_cell_angle_alpha   90.00000000
_cell_angle_beta   90.00000000
_cell_angle_gamma   110.85811615
_symmetry_Int_Tables_number   1
_chemical_formula_structural   LiV2OF4
_chemical_formula_sum   'Li2 V4 O2 F8'
_cell_volume   189.53796554
_cell_formula_units_Z   2
loop_
 _symmetry_equiv_pos_site_id
 _symmetry_equiv_pos_as_xyz
  1  'x, y, z'
loop_
 _atom_site_type_symbol
 _atom_site_label
 _atom_site_symmetry_multiplicity
 _atom_site_fract_x
 _atom_site_fract_y
 _atom_site_fract_z
 _atom_site_occupancy
  Li  Li0  1  0.18128202  0.36256299  0.75000002  1
  Li  Li1  1  0.81871805  0.63743698  0.25000001  1
  V  V2  1  0.14069502  0.28138899  0.43958301  1
  V  V3  1  0.85930506  0.71861098  0.56041801  1
  V  V4  1  0.85930506  0.71861098  0.93958202  1
  V  V5  1  0.14069502  0.28138899  0.06041800  1
  O  O6  1  0.30597904  0.61195698  0.57859001  1
  O  O7  1  0.69402104  0.38804299  0.42141101  1
  F  F8  1  0.69402104  0.38804299  0.07859000  1
  F  F9  1  0.30597904  0.61195698  0.92141002  1
  F  F10  1  0.04698601  0.09397100  0.61977601  1
  F  F11  1  0.95301407  0.90602897  0.38022301  1
  F  F12  1  0.74586504  0.49173099  0.75000002  1
  F  F13  1  0.25413503  0.50826899  0.25000001  1
  F  F14  1  0.95301407  0.90602897  0.11977700  1
  F  F15  1  0.04698601  0.09397100  0.88022402  1
