# generated using pymatgen
data_TiGa(CoN2)2
_symmetry_space_group_name_H-M   'P 1'
_cell_length_a   3.29293203
_cell_length_b   5.68951893
_cell_length_c   6.20959091
_cell_angle_alpha   117.26660919
_cell_angle_beta   105.37580109
_cell_angle_gamma   90.00000000
_symmetry_Int_Tables_number   1
_chemical_formula_structural   TiGa(CoN2)2
_chemical_formula_sum   'Ti1 Ga1 Co2 N4'
_cell_volume   98.70307650
_cell_formula_units_Z   1
loop_
 _symmetry_equiv_pos_site_id
 _symmetry_equiv_pos_as_xyz
  1  'x, y, z'
loop_
 _atom_site_type_symbol
 _atom_site_label
 _atom_site_symmetry_multiplicity
 _atom_site_fract_x
 _atom_site_fract_y
 _atom_site_fract_z
 _atom_site_occupancy
  Ga  Ga0  1  0.25084103  0.91960896  0.50168200  1
  Ti  Ti1  1  0.75130101  0.41625898  0.50260202  1
  Co  Co2  1  0.49932803  0.83077896  0.99865602  1
  Co  Co3  1  0.99892401  0.33391698  0.99784804  1
  N  N4  1  0.06128702  0.72797096  0.12257399  1
  N  N5  1  0.55915501  0.22591799  0.11831001  1
  N  N6  1  0.80832201  0.13890699  0.61664403  1
  N  N7  1  0.30880202  0.64455797  0.61760401  1
