# generated using pymatgen
data_LiBi3Sb3TeO12
_symmetry_space_group_name_H-M   'P 1'
_cell_length_a   5.61453152
_cell_length_b   5.61453152
_cell_length_c   9.86803532
_cell_angle_alpha   91.59475708
_cell_angle_beta   105.28479767
_cell_angle_gamma   119.19317627
_symmetry_Int_Tables_number   1
_chemical_formula_structural   LiBi3Sb3TeO12
_chemical_formula_sum   'Li1 Bi3 Sb3 Te1 O12'
_cell_volume   257.39380294
_cell_formula_units_Z   1
loop_
 _symmetry_equiv_pos_site_id
 _symmetry_equiv_pos_as_xyz
  1  'x, y, z'
loop_
 _atom_site_type_symbol
 _atom_site_label
 _atom_site_symmetry_multiplicity
 _atom_site_fract_x
 _atom_site_fract_y
 _atom_site_fract_z
 _atom_site_occupancy
  Li  Li0  1  0.53816005  0.77267102  0.75686502  1
  Te  Te1  1  0.48419402  0.21870501  0.25686502  1
  Bi  Bi2  1  0.01431502  0.49682802  0.00670099  1
  Bi  Bi3  1  0.00987304  0.99238603  0.50670099  1
  Bi  Bi4  1  0.30567503  0.65117802  0.37844401  1
  Sb  Sb5  1  0.22726601  0.07276900  0.87844403  1
  Sb  Sb6  1  0.78692006  0.92013103  0.13245201  1
  Sb  Sb7  1  0.71232104  0.34553201  0.63245203  1
  O  O8  1  0.84593205  0.72082902  0.92678904  1
  O  O9  1  0.70596002  0.08085700  0.42678904  1
  O  O10  1  0.31709604  0.90716703  0.58682101  1
  O  O11  1  0.17965402  0.26972501  0.08682100  1
  O  O12  1  0.74344603  0.29840101  0.14140203  1
  O  O13  1  0.34300103  0.39795601  0.64140202  1
  O  O14  1  0.67193904  0.58401702  0.37805402  1
  O  O15  1  0.29403704  0.70611502  0.87805402  1
  O  O16  1  0.15905901  0.09248200  0.34242701  1
  O  O17  1  0.74994503  0.18336801  0.84242704  1
  O  O18  1  0.29322504  0.81140302  0.16932500  1
  O  O19  1  0.85792206  0.87610003  0.66932503  1
