# generated using pymatgen
data_Zr4TaAlOs5N7
_symmetry_space_group_name_H-M   'P 1'
_cell_length_a   5.95398378
_cell_length_b   7.82736015
_cell_length_c   7.82736015
_cell_angle_alpha   81.68286896
_cell_angle_beta   67.64578247
_cell_angle_gamma   67.64578247
_symmetry_Int_Tables_number   1
_chemical_formula_structural   Zr4TaAlOs5N7
_chemical_formula_sum   'Zr4 Ta1 Al1 Os5 N7'
_cell_volume   312.01904531
_cell_formula_units_Z   1
loop_
 _symmetry_equiv_pos_site_id
 _symmetry_equiv_pos_as_xyz
  1  'x, y, z'
loop_
 _atom_site_type_symbol
 _atom_site_label
 _atom_site_symmetry_multiplicity
 _atom_site_fract_x
 _atom_site_fract_y
 _atom_site_fract_z
 _atom_site_occupancy
  Zr  Zr0  1  0.50000008  0.99999999  1.00000004  1
  Ta  Ta1  1  0.73096903  0.26662400  0.27143704  1
  Al  Al2  1  0.99759303  0.27143700  0.73337706  1
  Zr  Zr3  1  0.00240705  0.72856299  0.26662301  1
  Zr  Zr4  1  0.26903106  0.73337599  0.72856303  1
  Zr  Zr5  1  0.86976702  0.09145200  0.68843105  1
  N  N6  1  0.03878102  0.31156900  0.09145201  1
  Os  Os7  1  0.44180206  0.68843099  0.90854804  1
  Os  Os8  1  0.64965008  0.90854799  0.31156904  1
  N  N9  1  0.57564805  0.53781999  0.31088403  1
  N  N10  1  0.88653106  0.68911699  0.53782005  1
  N  N11  1  0.13023307  0.90854799  0.31156902  1
  N  N12  1  0.11346902  0.31088300  0.46218001  1
  N  N13  1  0.42435204  0.46217999  0.68911603  1
  N  N14  1  0.96121906  0.68843099  0.90854806  1
  Os  Os15  1  0.55819803  0.31156900  0.09145203  1
  Os  Os16  1  0.00000000  0.00000000  0.00000000  1
  Os  Os17  1  0.35035001  0.09145200  0.68843102  1
