# generated using pymatgen
data_KMnVWO8
_symmetry_space_group_name_H-M   'P 1'
_cell_length_a   5.88499022
_cell_length_b   5.88498926
_cell_length_c   7.40486622
_cell_angle_alpha   90.00000000
_cell_angle_beta   90.00000000
_cell_angle_gamma   120.00000763
_symmetry_Int_Tables_number   1
_chemical_formula_structural   KMnVWO8
_chemical_formula_sum   'K1 Mn1 V1 W1 O8'
_cell_volume   222.09523184
_cell_formula_units_Z   1
loop_
 _symmetry_equiv_pos_site_id
 _symmetry_equiv_pos_as_xyz
  1  'x, y, z'
loop_
 _atom_site_type_symbol
 _atom_site_label
 _atom_site_symmetry_multiplicity
 _atom_site_fract_x
 _atom_site_fract_y
 _atom_site_fract_z
 _atom_site_occupancy
  K  K0  1  0.00000000  0.00000000  0.49999999  1
  Mn  Mn1  1  0.00000000  0.00000000  0.00000000  1
  W  W2  1  0.66666667  0.33333335  0.75181998  1
  V  V3  1  0.33333337  0.66666669  0.24817999  1
  O  O4  1  0.67100003  0.83550003  0.17192299  1
  O  O5  1  0.16450002  0.32900001  0.17192299  1
  O  O6  1  0.16450005  0.83550003  0.17192299  1
  O  O7  1  0.83550002  0.67100002  0.82807698  1
  O  O8  1  0.66666667  0.33333335  0.51563198  1
  O  O9  1  0.33333337  0.66666669  0.48436799  1
  O  O10  1  0.83549998  0.16450001  0.82807698  1
  O  O11  1  0.32900000  0.16450001  0.82807698  1
