# generated using pymatgen
data_NaLaS2
_symmetry_space_group_name_H-M   'P 1'
_cell_length_a   4.14285374
_cell_length_b   4.14285374
_cell_length_c   7.44564152
_cell_angle_alpha   73.84678650
_cell_angle_beta   73.84678650
_cell_angle_gamma   60.00000381
_symmetry_Int_Tables_number   1
_chemical_formula_structural   NaLaS2
_chemical_formula_sum   'Na1 La1 S2'
_cell_volume   104.80453521
_cell_formula_units_Z   1
loop_
 _symmetry_equiv_pos_site_id
 _symmetry_equiv_pos_as_xyz
  1  'x, y, z'
loop_
 _atom_site_type_symbol
 _atom_site_label
 _atom_site_symmetry_multiplicity
 _atom_site_fract_x
 _atom_site_fract_y
 _atom_site_fract_z
 _atom_site_occupancy
  La  La0  1  0.00000000  0.00000000  0.00000000  1
  Na  Na1  1  0.50000000  0.50000000  0.49999997  1
  S  S2  1  0.75695400  0.75695400  0.72913795  1
  S  S3  1  0.24304600  0.24304600  0.27086199  1
