# generated using pymatgen
data_Ba3SrZrTi3O12
_symmetry_space_group_name_H-M   'P 1'
_cell_length_a   5.86271811
_cell_length_b   5.89095592
_cell_length_c   8.29842758
_cell_angle_alpha   90.00000000
_cell_angle_beta   90.00000000
_cell_angle_gamma   90.00000000
_symmetry_Int_Tables_number   1
_chemical_formula_structural   Ba3SrZrTi3O12
_chemical_formula_sum   'Ba3 Sr1 Zr1 Ti3 O12'
_cell_volume   286.60290923
_cell_formula_units_Z   1
loop_
 _symmetry_equiv_pos_site_id
 _symmetry_equiv_pos_as_xyz
  1  'x, y, z'
loop_
 _atom_site_type_symbol
 _atom_site_label
 _atom_site_symmetry_multiplicity
 _atom_site_fract_x
 _atom_site_fract_y
 _atom_site_fract_z
 _atom_site_occupancy
  Sr  Sr0  1  0.00202300  0.48370701  0.25192201  1
  Ba  Ba1  1  0.00202300  0.51629301  0.74807804  1
  Ba  Ba2  1  0.50202299  0.98370701  0.24807801  1
  Ba  Ba3  1  0.50202299  0.01629300  0.75192204  1
  Ti  Ti4  1  0.00295300  0.00000000  0.00000000  1
  Zr  Zr5  1  0.50295299  0.50000001  0.50000003  1
  Ti  Ti6  1  0.00327000  0.00000000  0.50000003  1
  Ti  Ti7  1  0.50326999  0.50000001  0.00000000  1
  O  O8  1  0.48636899  0.51044601  0.23990701  1
  O  O9  1  0.48636899  0.48955401  0.76009304  1
  O  O10  1  0.98636898  0.01044600  0.26009301  1
  O  O11  1  0.98636898  0.98955401  0.73990704  1
  O  O12  1  0.25139700  0.23166900  0.49733903  1
  O  O13  1  0.25139700  0.76833101  0.50266103  1
  O  O14  1  0.75139699  0.73166901  0.00266100  1
  O  O15  1  0.75139699  0.26833100  0.99733905  1
  O  O16  1  0.27319900  0.25039200  0.00698200  1
  O  O17  1  0.27319900  0.74960801  0.99301805  1
  O  O18  1  0.77319899  0.75039201  0.49301802  1
  O  O19  1  0.77319899  0.24960800  0.50698203  1
