# generated using pymatgen
data_Sr3Ca(CO3)4
_symmetry_space_group_name_H-M   'P 1'
_cell_length_a   5.16955519
_cell_length_b   6.41023016
_cell_length_c   7.15275717
_cell_angle_alpha   90.00000000
_cell_angle_beta   90.00000000
_cell_angle_gamma   90.00000000
_symmetry_Int_Tables_number   1
_chemical_formula_structural   Sr3Ca(CO3)4
_chemical_formula_sum   'Sr3 Ca1 C4 O12'
_cell_volume   237.02834294
_cell_formula_units_Z   1
loop_
 _symmetry_equiv_pos_site_id
 _symmetry_equiv_pos_as_xyz
  1  'x, y, z'
loop_
 _atom_site_type_symbol
 _atom_site_label
 _atom_site_symmetry_multiplicity
 _atom_site_fract_x
 _atom_site_fract_y
 _atom_site_fract_z
 _atom_site_occupancy
  Ca  Ca0  1  -0.00000000  0.48228399  0.02779400  1
  Sr  Sr1  1  -0.00000000  0.51771599  0.52779399  1
  Sr  Sr2  1  0.49999998  0.12979000  0.32795799  1
  Sr  Sr3  1  0.49999998  0.87020998  0.82795798  1
  C  C4  1  0.49999998  0.58018299  0.24320099  1
  C  C5  1  0.49999998  0.41981699  0.74320098  1
  C  C6  1  -0.00000000  0.03632100  0.99855998  1
  C  C7  1  -0.00000000  0.96367898  0.49855999  1
  O  O8  1  -0.00000000  0.14193400  0.41446899  1
  O  O9  1  -0.00000000  0.85806598  0.91446898  1
  O  O10  1  0.28744399  0.48365999  0.28024699  1
  O  O11  1  0.71255697  0.51633999  0.78024698  1
  O  O12  1  0.28744399  0.51633999  0.78024698  1
  O  O13  1  0.71255697  0.48365999  0.28024699  1
  O  O14  1  0.22075799  0.12522300  0.03434700  1
  O  O15  1  0.77924197  0.87477698  0.53434699  1
  O  O16  1  0.22075799  0.87477698  0.53434699  1
  O  O17  1  0.77924197  0.12522300  0.03434700  1
  O  O18  1  0.49999998  0.23465399  0.66482998  1
  O  O19  1  0.49999998  0.76534598  0.16483000  1
