# generated using pymatgen
data_SrAgBr5
_symmetry_space_group_name_H-M   'P 1'
_cell_length_a   6.76854563
_cell_length_b   6.76854563
_cell_length_c   6.76854563
_cell_angle_alpha   105.38185120
_cell_angle_beta   105.38185120
_cell_angle_gamma   118.00175476
_symmetry_Int_Tables_number   1
_chemical_formula_structural   SrAgBr5
_chemical_formula_sum   'Sr1 Ag1 Br5'
_cell_volume   234.68401779
_cell_formula_units_Z   1
loop_
 _symmetry_equiv_pos_site_id
 _symmetry_equiv_pos_as_xyz
  1  'x, y, z'
loop_
 _atom_site_type_symbol
 _atom_site_label
 _atom_site_symmetry_multiplicity
 _atom_site_fract_x
 _atom_site_fract_y
 _atom_site_fract_z
 _atom_site_occupancy
  Sr  Sr0  1  0.25000004  0.75000004  0.50000005  1
  Ag  Ag1  1  0.75000004  0.25000001  0.50000004  1
  Br  Br2  1  0.82212206  0.67382404  0.49594606  1
  Br  Br3  1  0.17787802  0.32617602  0.50405403  1
  Br  Br4  1  0.32617604  0.82212205  0.14829804  1
  Br  Br5  1  0.67382403  0.17787801  0.85170205  1
  Br  Br6  1  0.00000000  0.00000000  0.00000000  1
