# generated using pymatgen
data_LaTaInBi(IBr3)2
_symmetry_space_group_name_H-M   'P 1'
_cell_length_a   3.94338012
_cell_length_b   8.26290417
_cell_length_c   10.82424831
_cell_angle_alpha   97.35968018
_cell_angle_beta   90.00000000
_cell_angle_gamma   90.00000000
_symmetry_Int_Tables_number   1
_chemical_formula_structural   LaTaInBi(IBr3)2
_chemical_formula_sum   'La1 Ta1 In1 Bi1 I2 Br6'
_cell_volume   349.78918111
_cell_formula_units_Z   1
loop_
 _symmetry_equiv_pos_site_id
 _symmetry_equiv_pos_as_xyz
  1  'x, y, z'
loop_
 _atom_site_type_symbol
 _atom_site_label
 _atom_site_symmetry_multiplicity
 _atom_site_fract_x
 _atom_site_fract_y
 _atom_site_fract_z
 _atom_site_occupancy
  Ta  Ta0  1  0.74999998  0.40885399  0.33469598  1
  In  In1  1  0.24999999  0.59114598  0.66530396  1
  Bi  Bi2  1  0.74999998  0.06351200  0.65823698  1
  La  La3  1  0.24999999  0.93648797  0.34176295  1
  I  I4  1  0.74999998  0.74873098  0.00042897  1
  I  I5  1  0.24999999  0.25126899  0.99957097  1
  Br  Br6  1  0.74999998  0.13334800  0.19242599  1
  Br  Br7  1  0.24999999  0.86665198  0.80757395  1
  Br  Br8  1  0.74999998  0.45399299  0.78630896  1
  Br  Br9  1  0.24999999  0.54600699  0.21369097  1
  Br  Br10  1  0.74999998  0.68790598  0.51489996  1
  Br  Br11  1  0.24999999  0.31209399  0.48509998  1
