# generated using pymatgen
data_Li3VO4
_symmetry_space_group_name_H-M   'P 1'
_cell_length_a   5.37817907
_cell_length_b   5.69963503
_cell_length_c   6.58537197
_cell_angle_alpha   90.00000000
_cell_angle_beta   90.00000000
_cell_angle_gamma   90.00000000
_symmetry_Int_Tables_number   1
_chemical_formula_structural   Li3VO4
_chemical_formula_sum   'Li6 V2 O8'
_cell_volume   201.86573914
_cell_formula_units_Z   2
loop_
 _symmetry_equiv_pos_site_id
 _symmetry_equiv_pos_as_xyz
  1  'x, y, z'
loop_
 _atom_site_type_symbol
 _atom_site_label
 _atom_site_symmetry_multiplicity
 _atom_site_fract_x
 _atom_site_fract_y
 _atom_site_fract_z
 _atom_site_occupancy
  Li  Li0  1  0.26937100  0.16777300  0.74861400  1
  Li  Li1  1  0.76937099  0.83222700  0.75138600  1
  Li  Li2  1  0.26937100  0.16777300  0.25138600  1
  Li  Li3  1  0.76937099  0.83222700  0.24861400  1
  Li  Li4  1  0.27029200  0.66647400  0.00000000  1
  Li  Li5  1  0.77029199  0.33352600  0.50000000  1
  V  V6  1  0.77062399  0.32978300  1.00000000  1
  V  V7  1  0.27062400  0.67021700  0.50000000  1
  O  O8  1  0.88642899  0.17352700  0.23634400  1
  O  O9  1  0.38642899  0.82647300  0.26365600  1
  O  O10  1  0.88642899  0.17352700  0.76365600  1
  O  O11  1  0.38642899  0.82647300  0.73634400  1
  O  O12  1  0.88688699  0.64253300  1.00000000  1
  O  O13  1  0.38688699  0.35746700  0.50000000  1
  O  O14  1  0.42133699  0.32871600  1.00000000  1
  O  O15  1  0.92133699  0.67128400  0.50000000  1
