# generated using pymatgen
data_Na4VAgO8
_symmetry_space_group_name_H-M   'P 1'
_cell_length_a   5.57766151
_cell_length_b   5.57766151
_cell_length_c   7.20486879
_cell_angle_alpha   90.00000000
_cell_angle_beta   90.00000000
_cell_angle_gamma   115.19745636
_symmetry_Int_Tables_number   1
_chemical_formula_structural   Na4VAgO8
_chemical_formula_sum   'Na4 V1 Ag1 O8'
_cell_volume   202.81731802
_cell_formula_units_Z   1
loop_
 _symmetry_equiv_pos_site_id
 _symmetry_equiv_pos_as_xyz
  1  'x, y, z'
loop_
 _atom_site_type_symbol
 _atom_site_label
 _atom_site_symmetry_multiplicity
 _atom_site_fract_x
 _atom_site_fract_y
 _atom_site_fract_z
 _atom_site_occupancy
  Na  Na0  1  0.82138699  0.17861300  0.25000001  1
  Na  Na1  1  0.17861300  0.82138699  0.75000002  1
  Na  Na2  1  0.49999999  0.50000000  0.50000001  1
  Na  Na3  1  0.49999999  0.50000000  1.00000003  1
  V  V4  1  0.14800400  0.85199599  0.25000001  1
  Ag  Ag5  1  0.85199599  0.14800400  0.75000002  1
  O  O6  1  0.74515699  0.25484300  0.94341003  1
  O  O7  1  0.25484300  0.74515699  0.44341001  1
  O  O8  1  0.25484300  0.74515699  0.05659000  1
  O  O9  1  0.74515699  0.25484300  0.55659002  1
  O  O10  1  0.27767200  0.20309200  0.25000001  1
  O  O11  1  0.72232799  0.79690799  0.75000002  1
  O  O12  1  0.79690799  0.72232799  0.25000001  1
  O  O13  1  0.20309200  0.27767200  0.75000002  1
