# generated using pymatgen
data_GaCu3Rh2Se7S
_symmetry_space_group_name_H-M   'P 1'
_cell_length_a   7.39033985
_cell_length_b   7.40173244
_cell_length_c   7.40173244
_cell_angle_alpha   60.07535934
_cell_angle_beta   60.05090332
_cell_angle_gamma   60.05090332
_symmetry_Int_Tables_number   1
_chemical_formula_structural   GaCu3Rh2Se7S
_chemical_formula_sum   'Ga1 Cu3 Rh2 Se7 S1'
_cell_volume   286.67974507
_cell_formula_units_Z   1
loop_
 _symmetry_equiv_pos_site_id
 _symmetry_equiv_pos_as_xyz
  1  'x, y, z'
loop_
 _atom_site_type_symbol
 _atom_site_label
 _atom_site_symmetry_multiplicity
 _atom_site_fract_x
 _atom_site_fract_y
 _atom_site_fract_z
 _atom_site_occupancy
  Cu  Cu0  1  0.86990202  0.37951001  0.37951002  1
  Ga  Ga1  1  0.37107801  0.37950901  0.37951001  1
  Rh  Rh2  1  0.37449102  0.86741901  0.38359800  1
  Rh  Rh3  1  0.37449201  0.38359701  0.86741901  1
  Cu  Cu4  1  0.74661202  0.75338801  0.75338801  1
  Cu  Cu5  1  0.01475602  0.98524401  0.98524400  1
  S  S6  1  0.58463201  0.13850700  0.13850701  1
  Se  Se7  1  0.13835400  0.13850700  0.13850700  1
  Se  Se8  1  0.14300601  0.57074601  0.14324200  1
  Se  Se9  1  0.14300500  0.14324200  0.57074701  1
  Se  Se10  1  0.16871901  0.61124901  0.61124900  1
  Se  Se11  1  0.60878302  0.61125001  0.61124901  1
  Se  Se12  1  0.60608501  0.17862200  0.60920802  1
  Se  Se13  1  0.60608502  0.60920801  0.17862200  1
