# generated using pymatgen
data_LiPO6
_symmetry_space_group_name_H-M   'P 1'
_cell_length_a   5.58425856
_cell_length_b   5.58425856
_cell_length_c   5.58425856
_cell_angle_alpha   60.00000000
_cell_angle_beta   60.00000000
_cell_angle_gamma   60.00000000
_symmetry_Int_Tables_number   1
_chemical_formula_structural   LiPO6
_chemical_formula_sum   'Li1 P1 O6'
_cell_volume   123.13501202
_cell_formula_units_Z   1
loop_
 _symmetry_equiv_pos_site_id
 _symmetry_equiv_pos_as_xyz
  1  'x, y, z'
loop_
 _atom_site_type_symbol
 _atom_site_label
 _atom_site_symmetry_multiplicity
 _atom_site_fract_x
 _atom_site_fract_y
 _atom_site_fract_z
 _atom_site_occupancy
  Li  Li0  1  0.49999999  0.49999999  0.49999999  1
  P  P1  1  0.00000000  0.00000000  0.00000000  1
  O  O2  1  0.79288998  0.79288998  0.20710999  1
  O  O3  1  0.79288998  0.20710999  0.20710999  1
  O  O4  1  0.20710999  0.20710999  0.79288998  1
  O  O5  1  0.79288998  0.20710999  0.79288998  1
  O  O6  1  0.20710999  0.79288998  0.20710999  1
  O  O7  1  0.20710999  0.79288998  0.79288998  1
