# generated using pymatgen
data_Ca4Ti3WO12
_symmetry_space_group_name_H-M   'P 1'
_cell_length_a   5.59674406
_cell_length_b   5.71500778
_cell_length_c   7.85787582
_cell_angle_alpha   90.00000000
_cell_angle_beta   90.00000000
_cell_angle_gamma   90.00000000
_symmetry_Int_Tables_number   1
_chemical_formula_structural   Ca4Ti3WO12
_chemical_formula_sum   'Ca4 Ti3 W1 O12'
_cell_volume   251.33758316
_cell_formula_units_Z   1
loop_
 _symmetry_equiv_pos_site_id
 _symmetry_equiv_pos_as_xyz
  1  'x, y, z'
loop_
 _atom_site_type_symbol
 _atom_site_label
 _atom_site_symmetry_multiplicity
 _atom_site_fract_x
 _atom_site_fract_y
 _atom_site_fract_z
 _atom_site_occupancy
  Ca  Ca0  1  0.24227100  0.45072202  0.50000001  1
  Ca  Ca1  1  0.75772899  0.95072204  0.50000001  1
  Ca  Ca2  1  0.73211799  0.03748600  0.00000000  1
  Ca  Ca3  1  0.26788200  0.53748602  -0.00000000  1
  Ti  Ti4  1  0.76538299  0.48804302  0.25405301  1
  Ti  Ti5  1  0.23461700  0.98804304  0.25405301  1
  Ti  Ti6  1  0.23461700  0.98804304  0.74594702  1
  W  W7  1  0.76538299  0.48804302  0.74594702  1
  O  O8  1  0.96430199  0.21632401  0.70403302  1
  O  O9  1  0.03569800  0.71632403  0.29596701  1
  O  O10  1  0.96430199  0.21632401  0.29596701  1
  O  O11  1  0.03569800  0.71632403  0.70403302  1
  O  O12  1  0.83204499  0.48195702  -0.00000000  1
  O  O13  1  0.53763999  0.79611803  0.20198800  1
  O  O14  1  0.34674800  0.02906500  0.50000001  1
  O  O15  1  0.16795500  0.98195704  0.00000000  1
  O  O16  1  0.65325199  0.52906502  0.50000001  1
  O  O17  1  0.53763999  0.79611803  0.79801202  1
  O  O18  1  0.46236000  0.29611801  0.20198800  1
  O  O19  1  0.46236000  0.29611801  0.79801202  1
