# generated using pymatgen
data_BaSr2ZrO4
_symmetry_space_group_name_H-M   'P 1'
_cell_length_a   4.17695618
_cell_length_b   4.17695618
_cell_length_c   8.07885742
_cell_angle_alpha   90.00000000
_cell_angle_beta   90.00000000
_cell_angle_gamma   90.00000000
_symmetry_Int_Tables_number   1
_chemical_formula_structural   BaSr2ZrO4
_chemical_formula_sum   'Ba1 Sr2 Zr1 O4'
_cell_volume   140.95152573
_cell_formula_units_Z   1
loop_
 _symmetry_equiv_pos_site_id
 _symmetry_equiv_pos_as_xyz
  1  'x, y, z'
loop_
 _atom_site_type_symbol
 _atom_site_label
 _atom_site_symmetry_multiplicity
 _atom_site_fract_x
 _atom_site_fract_y
 _atom_site_fract_z
 _atom_site_occupancy
  Sr  Sr0  1  0.49999998  0.49999998  0.76797696  1
  Ba  Ba1  1  0.49999998  0.49999998  0.23202299  1
  Zr  Zr2  1  0.00000000  0.00000000  0.00000000  1
  Sr  Sr3  1  0.00000000  0.00000000  0.49999997  1
  O  O4  1  -0.00000000  0.49999998  0.00000000  1
  O  O5  1  0.49999998  0.00000000  0.00000000  1
  O  O6  1  0.00000000  0.00000000  0.72467096  1
  O  O7  1  0.00000000  0.00000000  0.27532899  1
