# generated using pymatgen
data_NaCa4Lu(InSe4)2
_symmetry_space_group_name_H-M   'P 1'
_cell_length_a   6.62041712
_cell_length_b   6.62041712
_cell_length_c   13.00611496
_cell_angle_alpha   90.00000000
_cell_angle_beta   90.00000000
_cell_angle_gamma   90.00000000
_symmetry_Int_Tables_number   1
_chemical_formula_structural   NaCa4Lu(InSe4)2
_chemical_formula_sum   'Na1 Ca4 Lu1 In2 Se8'
_cell_volume   570.05701484
_cell_formula_units_Z   1
loop_
 _symmetry_equiv_pos_site_id
 _symmetry_equiv_pos_as_xyz
  1  'x, y, z'
loop_
 _atom_site_type_symbol
 _atom_site_label
 _atom_site_symmetry_multiplicity
 _atom_site_fract_x
 _atom_site_fract_y
 _atom_site_fract_z
 _atom_site_occupancy
  Na  Na0  1  0.49999999  0.00000000  0.24922500  1
  Ca  Ca1  1  -0.00000000  0.49999999  0.75077500  1
  Ca  Ca2  1  0.49999999  0.49999999  0.00000000  1
  Ca  Ca3  1  -0.00000000  0.49999999  0.24948500  1
  Lu  Lu4  1  0.49999999  0.00000000  0.75051500  1
  Ca  Ca5  1  0.00000000  0.00000000  0.00000000  1
  In  In6  1  0.49999999  0.49999999  0.50000000  1
  In  In7  1  0.00000000  0.00000000  0.50000000  1
  Se  Se8  1  0.75378499  0.25223700  0.37151600  1
  Se  Se9  1  0.24901000  0.75617099  0.87533300  1
  Se  Se10  1  0.24621500  0.74776299  0.37151600  1
  Se  Se11  1  0.75098999  0.24382900  0.87533300  1
  Se  Se12  1  0.24382900  0.24901000  0.12466700  1
  Se  Se13  1  0.74776299  0.75378499  0.62848400  1
  Se  Se14  1  0.75617099  0.75098999  0.12466700  1
  Se  Se15  1  0.25223700  0.24621500  0.62848400  1
