# generated using pymatgen
data_MgAlCuP2Se2S
_symmetry_space_group_name_H-M   'P 1'
_cell_length_a   3.65864706
_cell_length_b   5.20195103
_cell_length_c   9.75054550
_cell_angle_alpha   96.72950745
_cell_angle_beta   90.00000000
_cell_angle_gamma   90.00000000
_symmetry_Int_Tables_number   1
_chemical_formula_structural   MgAlCuP2Se2S
_chemical_formula_sum   'Mg1 Al1 Cu1 P2 Se2 S1'
_cell_volume   184.29486424
_cell_formula_units_Z   1
loop_
 _symmetry_equiv_pos_site_id
 _symmetry_equiv_pos_as_xyz
  1  'x, y, z'
loop_
 _atom_site_type_symbol
 _atom_site_label
 _atom_site_symmetry_multiplicity
 _atom_site_fract_x
 _atom_site_fract_y
 _atom_site_fract_z
 _atom_site_occupancy
  Al  Al0  1  0.74999999  0.28157300  0.64330896  1
  Mg  Mg1  1  0.25000000  0.71842699  0.35669096  1
  P  P2  1  0.74999999  0.88271599  0.19377096  1
  Cu  Cu3  1  0.25000000  0.11728400  0.80622896  1
  Se  Se4  1  0.25000000  0.23891200  0.44936097  1
  Se  Se5  1  0.74999999  0.76108799  0.55063895  1
  P  P6  1  0.25000000  0.51625399  0.80723395  1
  S  S7  1  0.74999999  0.48374599  0.19276598  1
