# generated using pymatgen
data_SrCa2V(BiO4)3
_symmetry_space_group_name_H-M   'P 1'
_cell_length_a   3.85188961
_cell_length_b   8.53469658
_cell_length_c   8.69695663
_cell_angle_alpha   83.68271637
_cell_angle_beta   77.28838348
_cell_angle_gamma   89.95252991
_symmetry_Int_Tables_number   1
_chemical_formula_structural   SrCa2V(BiO4)3
_chemical_formula_sum   'Sr1 Ca2 V1 Bi3 O12'
_cell_volume   277.12807141
_cell_formula_units_Z   1
loop_
 _symmetry_equiv_pos_site_id
 _symmetry_equiv_pos_as_xyz
  1  'x, y, z'
loop_
 _atom_site_type_symbol
 _atom_site_label
 _atom_site_symmetry_multiplicity
 _atom_site_fract_x
 _atom_site_fract_y
 _atom_site_fract_z
 _atom_site_occupancy
  Sr  Sr0  1  0.28974594  0.30564999  0.42301001  1
  Ca  Ca1  1  0.71025287  0.69434897  0.57699003  1
  Ca  Ca2  1  0.07605794  0.36844798  0.82829600  1
  V  V3  1  0.92394087  0.63155197  0.17170404  1
  Bi  Bi4  1  0.10792484  0.97986896  0.80637302  1
  Bi  Bi5  1  0.89207397  0.02013100  0.19362702  1
  Bi  Bi6  1  0.00104497  0.15402799  0.99404899  1
  O  O7  1  0.40305699  0.00762300  0.18420201  1
  O  O8  1  0.57239692  0.35628898  0.84586201  1
  O  O9  1  0.42760188  0.64371097  0.15413902  1
  O  O10  1  -0.00000008  0.49999998  1.00000000  1
  O  O11  1  0.16414091  0.51354598  0.65933201  1
  O  O12  1  0.83585790  0.48645498  0.34066803  1
  O  O13  1  0.17556386  0.85072496  0.65602902  1
  O  O14  1  0.84637884  0.80666497  0.30775304  1
  O  O15  1  0.59694182  0.99237696  0.81579803  1
  O  O16  1  0.99895383  0.84597196  0.00595105  1
  O  O17  1  0.82443795  0.14927499  0.34397102  1
  O  O18  1  0.15361996  0.19333599  0.69224700  1
