# generated using pymatgen
data_Cs2Rb2I2O
_symmetry_space_group_name_H-M   'P 1'
_cell_length_a   5.36729622
_cell_length_b   5.36729622
_cell_length_c   10.20822334
_cell_angle_alpha   105.24166107
_cell_angle_beta   105.24166107
_cell_angle_gamma   90.00000000
_symmetry_Int_Tables_number   1
_chemical_formula_structural   Cs2Rb2I2O
_chemical_formula_sum   'Cs2 Rb2 I2 O1'
_cell_volume   272.99752295
_cell_formula_units_Z   1
loop_
 _symmetry_equiv_pos_site_id
 _symmetry_equiv_pos_as_xyz
  1  'x, y, z'
loop_
 _atom_site_type_symbol
 _atom_site_label
 _atom_site_symmetry_multiplicity
 _atom_site_fract_x
 _atom_site_fract_y
 _atom_site_fract_z
 _atom_site_occupancy
  Cs  Cs0  1  0.99742895  0.49742898  0.99485794  1
  Cs  Cs1  1  0.49742897  0.99742895  0.99485794  1
  Rb  Rb2  1  0.83400595  0.83400596  0.66801195  1
  Rb  Rb3  1  0.17586399  0.17586399  0.35172798  1
  I  I4  1  0.63631096  0.63631097  0.27262198  1
  I  I5  1  0.36066098  0.36066098  0.72132196  1
  O  O6  1  0.98109995  0.98109995  0.96219994  1
