# generated using pymatgen
data_CeRhO3
_symmetry_space_group_name_H-M   'P 1'
_cell_length_a   5.52132988
_cell_length_b   5.87862682
_cell_length_c   7.94544411
_cell_angle_alpha   90.00000000
_cell_angle_beta   90.00000000
_cell_angle_gamma   90.00000000
_symmetry_Int_Tables_number   1
_chemical_formula_structural   CeRhO3
_chemical_formula_sum   'Ce4 Rh4 O12'
_cell_volume   257.89193713
_cell_formula_units_Z   4
loop_
 _symmetry_equiv_pos_site_id
 _symmetry_equiv_pos_as_xyz
  1  'x, y, z'
loop_
 _atom_site_type_symbol
 _atom_site_label
 _atom_site_symmetry_multiplicity
 _atom_site_fract_x
 _atom_site_fract_y
 _atom_site_fract_z
 _atom_site_occupancy
  Ce  Ce0  1  0.47982701  0.57006702  0.74999999  1
  Ce  Ce1  1  0.97982702  0.92993303  0.25000000  1
  Ce  Ce2  1  0.02017300  0.07006700  0.74999999  1
  Ce  Ce3  1  0.52017301  0.42993301  0.25000000  1
  Rh  Rh4  1  0.50000001  0.00000000  0.49999999  1
  Rh  Rh5  1  -0.00000000  0.50000002  0.49999999  1
  Rh  Rh6  1  -0.00000000  0.50000002  0.00000000  1
  Rh  Rh7  1  0.50000001  0.00000000  -0.00000000  1
  O  O8  1  0.81064902  0.19782101  0.44720199  1
  O  O9  1  0.31064901  0.30217901  0.55279799  1
  O  O10  1  0.68935102  0.69782102  0.05279800  1
  O  O11  1  0.18935100  0.80217902  0.94720199  1
  O  O12  1  0.18935100  0.80217902  0.55279799  1
  O  O13  1  0.68935102  0.69782102  0.44720199  1
  O  O14  1  0.31064901  0.30217901  0.94720199  1
  O  O15  1  0.81064902  0.19782101  0.05279800  1
  O  O16  1  0.39418101  0.03116700  0.25000000  1
  O  O17  1  0.89418102  0.46883301  0.74999999  1
  O  O18  1  0.10581900  0.53116702  0.25000000  1
  O  O19  1  0.60581901  0.96883303  0.74999999  1
