# generated using pymatgen
data_K2BH3
_symmetry_space_group_name_H-M   'P 1'
_cell_length_a   6.32802820
_cell_length_b   8.33198643
_cell_length_c   8.33198643
_cell_angle_alpha   90.00000000
_cell_angle_beta   90.00000000
_cell_angle_gamma   90.00000000
_symmetry_Int_Tables_number   1
_chemical_formula_structural   K2BH3
_chemical_formula_sum   'K6 B3 H9'
_cell_volume   439.30436008
_cell_formula_units_Z   3
loop_
 _symmetry_equiv_pos_site_id
 _symmetry_equiv_pos_as_xyz
  1  'x, y, z'
loop_
 _atom_site_type_symbol
 _atom_site_label
 _atom_site_symmetry_multiplicity
 _atom_site_fract_x
 _atom_site_fract_y
 _atom_site_fract_z
 _atom_site_occupancy
  K  K0  1  -0.00000000  0.49999997  0.49999997  1
  K  K1  1  0.00000000  0.00000000  0.00000000  1
  K  K2  1  0.49999998  0.18351199  0.68351196  1
  K  K3  1  0.49999998  0.81648796  0.31648798  1
  K  K4  1  0.49999998  0.68351196  0.81648796  1
  K  K5  1  0.49999998  0.31648798  0.18351199  1
  H  H6  1  0.49999998  0.49999997  0.49999997  1
  H  H7  1  0.49999998  0.00000000  -0.00000000  1
  H  H8  1  0.81353897  0.60058897  0.10058899  1
  B  B9  1  0.81353897  0.39941098  0.89941095  1
  H  H10  1  0.81353897  0.10058899  0.39941098  1
  H  H11  1  0.81353897  0.89941095  0.60058897  1
  H  H12  1  0.18646099  0.39941098  0.89941095  1
  H  H13  1  0.18646099  0.60058897  0.10058899  1
  H  H14  1  0.18646099  0.89941095  0.60058897  1
  H  H15  1  0.18646099  0.10058899  0.39941098  1
  B  B16  1  -0.00000000  0.49999997  0.00000000  1
  B  B17  1  0.00000000  0.00000000  0.49999997  1
