# generated using pymatgen
data_BaMo(PbO4)2
_symmetry_space_group_name_H-M   'P 1'
_cell_length_a   5.52420807
_cell_length_b   5.52420807
_cell_length_c   7.30242491
_cell_angle_alpha   112.22499847
_cell_angle_beta   112.22499847
_cell_angle_gamma   90.00000000
_symmetry_Int_Tables_number   1
_chemical_formula_structural   BaMo(PbO4)2
_chemical_formula_sum   'Ba1 Mo1 Pb2 O8'
_cell_volume   188.28436119
_cell_formula_units_Z   1
loop_
 _symmetry_equiv_pos_site_id
 _symmetry_equiv_pos_as_xyz
  1  'x, y, z'
loop_
 _atom_site_type_symbol
 _atom_site_label
 _atom_site_symmetry_multiplicity
 _atom_site_fract_x
 _atom_site_fract_y
 _atom_site_fract_z
 _atom_site_occupancy
  Ba  Ba0  1  0.24999996  0.74999997  0.49999996  1
  Mo  Mo1  1  0.49999996  0.49999998  -0.00000005  1
  Pb  Pb2  1  0.74999996  0.24999999  0.49999997  1
  Pb  Pb3  1  0.00000000  0.00000000  0.00000000  1
  O  O4  1  0.56747995  0.69499497  0.66125896  1
  O  O5  1  0.09377895  0.96626396  0.66125896  1
  O  O6  1  0.44499497  0.34377799  0.16125797  1
  O  O7  1  0.71626394  0.81748097  0.16125993  1
  O  O8  1  0.18251997  0.55500498  0.83874098  1
  O  O9  1  0.65622097  0.28373599  0.83874098  1
  O  O10  1  0.30500495  0.90622196  0.33874195  1
  O  O11  1  0.03373598  0.43251898  0.33873998  1
