# generated using pymatgen
data_Ba2SrLiHC2N13
_symmetry_space_group_name_H-M   'P 1'
_cell_length_a   5.60223484
_cell_length_b   6.40508509
_cell_length_c   9.26819611
_cell_angle_alpha   90.00000000
_cell_angle_beta   90.00000000
_cell_angle_gamma   90.00000000
_symmetry_Int_Tables_number   1
_chemical_formula_structural   Ba2SrLiHC2N13
_chemical_formula_sum   'Ba2 Sr1 Li1 H1 C2 N13'
_cell_volume   332.56874223
_cell_formula_units_Z   1
loop_
 _symmetry_equiv_pos_site_id
 _symmetry_equiv_pos_as_xyz
  1  'x, y, z'
loop_
 _atom_site_type_symbol
 _atom_site_label
 _atom_site_symmetry_multiplicity
 _atom_site_fract_x
 _atom_site_fract_y
 _atom_site_fract_z
 _atom_site_occupancy
  Sr  Sr0  1  0.25000001  0.13596600  0.38995400  1
  Li  Li1  1  0.75000002  0.36403400  0.88995399  1
  Ba  Ba2  1  0.25000001  0.63596599  0.11004600  1
  Ba  Ba3  1  0.75000002  0.86403399  0.61004599  1
  C  C4  1  0.75000002  0.88537099  0.13414700  1
  C  C5  1  0.25000001  0.61462899  0.63414699  1
  H  H6  1  0.25000001  0.11462900  0.86585299  1
  N  N7  1  0.75000002  0.38537099  0.36585300  1
  N  N8  1  0.25000001  0.77409599  0.55169599  1
  N  N9  1  0.55371402  0.46398499  0.32576200  1
  N  N10  1  0.44628601  0.53601499  0.67423799  1
  N  N11  1  0.94628603  0.46398499  0.32576200  1
  N  N12  1  0.44628601  0.03601500  0.82576199  1
  N  N13  1  0.05371400  0.03601500  0.82576199  1
  N  N14  1  0.05371400  0.53601499  0.67423799  1
  N  N15  1  0.55371402  0.96398499  0.17423800  1
  N  N16  1  0.25000001  0.27409600  0.94830399  1
  N  N17  1  0.75000002  0.22590400  0.44830399  1
  N  N18  1  0.75000002  0.72590399  0.05169600  1
  N  N19  1  0.94628603  0.96398499  0.17423800  1
