# generated using pymatgen
data_BaSr2YbH8
_symmetry_space_group_name_H-M   'P 1'
_cell_length_a   4.17469501
_cell_length_b   6.84929705
_cell_length_c   7.88257980
_cell_angle_alpha   90.00000000
_cell_angle_beta   90.00000000
_cell_angle_gamma   90.00000000
_symmetry_Int_Tables_number   1
_chemical_formula_structural   BaSr2YbH8
_chemical_formula_sum   'Ba1 Sr2 Yb1 H8'
_cell_volume   225.39232894
_cell_formula_units_Z   1
loop_
 _symmetry_equiv_pos_site_id
 _symmetry_equiv_pos_as_xyz
  1  'x, y, z'
loop_
 _atom_site_type_symbol
 _atom_site_label
 _atom_site_symmetry_multiplicity
 _atom_site_fract_x
 _atom_site_fract_y
 _atom_site_fract_z
 _atom_site_occupancy
  Yb  Yb0  1  0.25000000  0.76080299  0.38756201  1
  Sr  Sr1  1  0.75000000  0.23919700  0.61243802  1
  Sr  Sr2  1  0.25000000  0.26080300  0.11243800  1
  Ba  Ba3  1  0.75000000  0.73919699  0.88756202  1
  H  H4  1  0.25000000  0.52814900  0.68051402  1
  H  H5  1  0.75000000  0.47185100  0.31948601  1
  H  H6  1  0.25000000  0.02814900  0.81948602  1
  H  H7  1  0.75000000  0.97185099  0.18051400  1
  H  H8  1  0.75000000  0.35500000  0.92838102  1
  H  H9  1  0.25000000  0.64500000  0.07161900  1
  H  H10  1  0.75000000  0.85499999  0.57161901  1
  H  H11  1  0.25000000  0.14500000  0.42838101  1
