# generated using pymatgen
data_LiBeAlSiB4H5N3
_symmetry_space_group_name_H-M   'P 1'
_cell_length_a   4.70033979
_cell_length_b   4.99916697
_cell_length_c   5.77286005
_cell_angle_alpha   90.00000000
_cell_angle_beta   90.00000000
_cell_angle_gamma   90.00000000
_symmetry_Int_Tables_number   1
_chemical_formula_structural   LiBeAlSiB4H5N3
_chemical_formula_sum   'Li1 Be1 Al1 Si1 B4 H5 N3'
_cell_volume   135.64941521
_cell_formula_units_Z   1
loop_
 _symmetry_equiv_pos_site_id
 _symmetry_equiv_pos_as_xyz
  1  'x, y, z'
loop_
 _atom_site_type_symbol
 _atom_site_label
 _atom_site_symmetry_multiplicity
 _atom_site_fract_x
 _atom_site_fract_y
 _atom_site_fract_z
 _atom_site_occupancy
  Si  Si0  1  0.99980604  0.08317200  0.62522499  1
  Al  Al1  1  0.49980602  0.91682801  0.37477500  1
  Li  Li2  1  0.49980602  0.41682800  0.12522500  1
  B  B3  1  0.99980604  0.58317200  0.87477499  1
  B  B4  1  0.99931804  0.08516400  0.12509200  1
  B  B5  1  0.99931804  0.58516400  0.37490800  1
  Be  Be6  1  0.49931802  0.41483600  0.62509199  1
  B  B7  1  0.49931802  0.91483601  0.87490799  1
  H  H8  1  0.37849702  0.58420200  0.87257999  1
  H  H9  1  0.37437902  0.07946600  0.12277900  1
  N  N10  1  0.87849704  0.41579800  0.12742000  1
  H  H11  1  0.87849704  0.91579801  0.37258000  1
  H  H12  1  0.87437904  0.42053400  0.62277899  1
  N  N13  1  0.87437904  0.92053401  0.87722099  1
  N  N14  1  0.37437902  0.57946600  0.37722100  1
  H  H15  1  0.37849702  0.08420200  0.62741999  1
