# generated using pymatgen
data_CeCu3Se3S
_symmetry_space_group_name_H-M   'P 1'
_cell_length_a   3.73122501
_cell_length_b   5.42199421
_cell_length_c   9.60828686
_cell_angle_alpha   96.21288300
_cell_angle_beta   90.00000000
_cell_angle_gamma   90.00000000
_symmetry_Int_Tables_number   1
_chemical_formula_structural   CeCu3Se3S
_chemical_formula_sum   'Ce1 Cu3 Se3 S1'
_cell_volume   193.24050719
_cell_formula_units_Z   1
loop_
 _symmetry_equiv_pos_site_id
 _symmetry_equiv_pos_as_xyz
  1  'x, y, z'
loop_
 _atom_site_type_symbol
 _atom_site_label
 _atom_site_symmetry_multiplicity
 _atom_site_fract_x
 _atom_site_fract_y
 _atom_site_fract_z
 _atom_site_occupancy
  Cu  Cu0  1  0.50000000  0.27742599  0.65572100  1
  Ce  Ce1  1  -0.00000000  0.72051998  0.34167502  1
  Cu  Cu2  1  -0.00000000  0.52219298  0.83181600  1
  Cu  Cu3  1  0.50000000  0.75888898  0.55403002  1
  Se  Se4  1  -0.00000000  0.23901499  0.44286500  1
  S  S5  1  0.50000000  0.87802097  0.17826903  1
  Se  Se6  1  -0.00000000  0.10843100  0.81291599  1
  Se  Se7  1  0.50000000  0.49550498  0.18270701  1
