# generated using pymatgen
data_LiV3Sb2O11
_symmetry_space_group_name_H-M   'P 1'
_cell_length_a   5.21433401
_cell_length_b   5.50148344
_cell_length_c   7.63254309
_cell_angle_alpha   94.41532898
_cell_angle_beta   90.34260559
_cell_angle_gamma   90.79564667
_symmetry_Int_Tables_number   1
_chemical_formula_structural   LiV3Sb2O11
_chemical_formula_sum   'Li1 V3 Sb2 O11'
_cell_volume   218.27518817
_cell_formula_units_Z   1
loop_
 _symmetry_equiv_pos_site_id
 _symmetry_equiv_pos_as_xyz
  1  'x, y, z'
loop_
 _atom_site_type_symbol
 _atom_site_label
 _atom_site_symmetry_multiplicity
 _atom_site_fract_x
 _atom_site_fract_y
 _atom_site_fract_z
 _atom_site_occupancy
  Li  Li0  1  0.00550897  0.57790800  0.18967999  1
  V  V1  1  0.00236000  0.00201900  0.50376700  1
  V  V2  1  0.50420198  0.49867100  0.49981600  1
  V  V3  1  0.48370798  0.48524200  0.99671901  1
  Sb  Sb4  1  0.00831100  0.02203100  0.00083300  1
  O  O5  1  0.19587399  0.30755400  0.05482300  1
  Sb  Sb6  1  0.89303795  0.99323600  0.25791700  1
  O  O7  1  0.81432198  0.31185700  0.55450302  1
  O  O8  1  0.80442697  0.69425200  0.97020201  1
  O  O9  1  0.69502599  0.18713300  0.93697202  1
  O  O10  1  0.69198696  0.80799700  0.55076900  1
  O  O11  1  0.63242298  0.49770000  0.25287700  1
  O  O12  1  0.39502898  0.50708000  0.74323900  1
  O  O13  1  0.30929399  0.19380600  0.44544501  1
  O  O14  1  0.27871496  0.78996500  0.06787899  1
  O  O15  1  0.18708497  0.68307400  0.42870999  1
  O  O16  1  0.11366095  0.98707000  0.74324599  1
