# generated using pymatgen
data_LiBi(SbO3)4
_symmetry_space_group_name_H-M   'P 1'
_cell_length_a   5.43845463
_cell_length_b   5.50072813
_cell_length_c   8.99978638
_cell_angle_alpha   107.79446411
_cell_angle_beta   90.76911926
_cell_angle_gamma   90.00000000
_symmetry_Int_Tables_number   1
_chemical_formula_structural   LiBi(SbO3)4
_chemical_formula_sum   'Li1 Bi1 Sb4 O12'
_cell_volume   256.32689243
_cell_formula_units_Z   1
loop_
 _symmetry_equiv_pos_site_id
 _symmetry_equiv_pos_as_xyz
  1  'x, y, z'
loop_
 _atom_site_type_symbol
 _atom_site_label
 _atom_site_symmetry_multiplicity
 _atom_site_fract_x
 _atom_site_fract_y
 _atom_site_fract_z
 _atom_site_occupancy
  Li  Li0  1  0.97230796  0.37177800  0.65765498  1
  Bi  Bi1  1  0.02769199  0.71412300  0.34234502  1
  Sb  Sb2  1  0.54379697  0.86727899  0.64512701  1
  Sb  Sb3  1  0.45620298  0.22215200  0.35487299  1
  Sb  Sb4  1  0.49999998  0.47328700  0.00000000  1
  Sb  Sb5  1  0.99999996  0.97440899  1.00000000  1
  O  O6  1  0.78101598  0.00209600  0.51472198  1
  O  O7  1  0.21898399  0.48737400  0.48527801  1
  O  O8  1  0.71092397  0.50838900  0.50746500  1
  O  O9  1  0.28907599  0.00092400  0.49253499  1
  O  O10  1  0.75198797  0.72048900  0.04591801  1
  O  O11  1  0.24801198  0.67457100  0.95408201  1
  O  O12  1  0.75345097  0.22266400  0.04388899  1
  O  O13  1  0.24654899  0.17877500  0.95611099  1
  O  O14  1  0.59026998  0.31929900  0.78634299  1
  O  O15  1  0.40972998  0.53295600  0.21365701  1
  O  O16  1  0.90161296  0.82529899  0.78476200  1
  O  O17  1  0.09838700  0.04053700  0.21523800  1
