# generated using pymatgen
data_Na4MnCu2AgS4
_symmetry_space_group_name_H-M   'P 1'
_cell_length_a   6.44631577
_cell_length_b   7.01218987
_cell_length_c   7.91525936
_cell_angle_alpha   116.29250336
_cell_angle_beta   114.02957153
_cell_angle_gamma   90.00000000
_symmetry_Int_Tables_number   1
_chemical_formula_structural   Na4MnCu2AgS4
_chemical_formula_sum   'Na4 Mn1 Cu2 Ag1 S4'
_cell_volume   285.77990389
_cell_formula_units_Z   1
loop_
 _symmetry_equiv_pos_site_id
 _symmetry_equiv_pos_as_xyz
  1  'x, y, z'
loop_
 _atom_site_type_symbol
 _atom_site_label
 _atom_site_symmetry_multiplicity
 _atom_site_fract_x
 _atom_site_fract_y
 _atom_site_fract_z
 _atom_site_occupancy
  Na  Na0  1  0.49999999  0.75000001  -0.00000003  1
  Na  Na1  1  0.50000000  0.25000000  -0.00000002  1
  Na  Na2  1  0.23207098  0.98207101  0.46414199  1
  Na  Na3  1  0.76792900  0.51792901  0.53585798  1
  Cu  Cu4  1  0.76792901  0.01792900  0.53585799  1
  Ag  Ag5  1  0.23207099  0.48207101  0.46414200  1
  Cu  Cu6  1  1.00000001  0.50000001  0.99999998  1
  Mn  Mn7  1  0.00000000  0.00000000  0.00000000  1
  S  S8  1  0.40146899  0.63146501  0.26292999  1
  S  S9  1  0.13853898  0.86853501  0.73707000  1
  S  S10  1  0.86146101  0.13146500  0.26292997  1
  S  S11  1  0.59853100  0.36853501  0.73706999  1
