# generated using pymatgen
data_BaSrLa2CePrNbVO10
_symmetry_space_group_name_H-M   'P 1'
_cell_length_a   5.99689484
_cell_length_b   6.86452198
_cell_length_c   6.86452198
_cell_angle_alpha   90.00000000
_cell_angle_beta   90.00000000
_cell_angle_gamma   90.00000000
_symmetry_Int_Tables_number   1
_chemical_formula_structural   BaSrLa2CePrNbVO10
_chemical_formula_sum   'Ba1 Sr1 La2 Ce1 Pr1 Nb1 V1 O10'
_cell_volume   282.58365164
_cell_formula_units_Z   1
loop_
 _symmetry_equiv_pos_site_id
 _symmetry_equiv_pos_as_xyz
  1  'x, y, z'
loop_
 _atom_site_type_symbol
 _atom_site_label
 _atom_site_symmetry_multiplicity
 _atom_site_fract_x
 _atom_site_fract_y
 _atom_site_fract_z
 _atom_site_occupancy
  Sr  Sr0  1  1.00000003  0.50000000  0.50000000  1
  Ba  Ba1  1  0.00000000  0.00000000  0.00000000  1
  La  La2  1  0.50000001  0.67367900  0.17367900  1
  La  La3  1  0.50000001  0.17367900  0.32632100  1
  Ce  Ce4  1  0.50000001  0.82632100  0.67367900  1
  Pr  Pr5  1  0.50000001  0.32632100  0.82632100  1
  V  V6  1  1.00000003  1.00000000  0.50000000  1
  Nb  Nb7  1  1.00000003  0.50000000  -0.00000000  1
  O  O8  1  0.50000001  0.50000000  0.50000000  1
  O  O9  1  0.50000001  0.00000000  -0.00000000  1
  O  O10  1  0.25015301  0.14038400  0.64038400  1
  O  O11  1  0.25015301  0.85961600  0.35961600  1
  O  O12  1  0.25015301  0.35961600  0.14038400  1
  O  O13  1  0.25015301  0.64038400  0.85961600  1
  O  O14  1  0.74984702  0.14038400  0.64038400  1
  O  O15  1  0.74984702  0.64038400  0.85961600  1
  O  O16  1  0.74984702  0.85961600  0.35961600  1
  O  O17  1  0.74984702  0.35961600  0.14038400  1
