# generated using pymatgen
data_Ba2InSe3
_symmetry_space_group_name_H-M   'P 1'
_cell_length_a   4.52230597
_cell_length_b   8.78965569
_cell_length_c   11.84959507
_cell_angle_alpha   90.00000000
_cell_angle_beta   90.00000000
_cell_angle_gamma   104.90704346
_symmetry_Int_Tables_number   1
_chemical_formula_structural   Ba2InSe3
_chemical_formula_sum   'Ba4 In2 Se6'
_cell_volume   455.16334131
_cell_formula_units_Z   2
loop_
 _symmetry_equiv_pos_site_id
 _symmetry_equiv_pos_as_xyz
  1  'x, y, z'
loop_
 _atom_site_type_symbol
 _atom_site_label
 _atom_site_symmetry_multiplicity
 _atom_site_fract_x
 _atom_site_fract_y
 _atom_site_fract_z
 _atom_site_occupancy
  Ba  Ba0  1  0.74417099  0.48834199  0.75000000  1
  Ba  Ba1  1  0.25582899  0.51165799  0.25000000  1
  Ba  Ba2  1  0.00000000  0.00000000  0.50000000  1
  Ba  Ba3  1  0.00000000  0.00000000  0.00000000  1
  In  In4  1  0.45997998  0.91995999  0.75000000  1
  In  In5  1  0.54002000  0.08004000  0.25000000  1
  Se  Se6  1  0.37816198  0.75632399  0.55867000  1
  Se  Se7  1  0.62183800  0.24367600  0.44133000  1
  Se  Se8  1  0.37816198  0.75632399  0.94132999  1
  Se  Se9  1  0.62183800  0.24367600  0.05867000  1
  Se  Se10  1  0.05800300  0.11600600  0.75000000  1
  Se  Se11  1  0.94199698  0.88399399  0.25000000  1
