# generated using pymatgen
data_Sr4LaY(RuO6)2
_symmetry_space_group_name_H-M   'P 1'
_cell_length_a   5.84887362
_cell_length_b   5.96145296
_cell_length_c   8.33296299
_cell_angle_alpha   90.00000000
_cell_angle_beta   90.23028564
_cell_angle_gamma   90.00000000
_symmetry_Int_Tables_number   1
_chemical_formula_structural   Sr4LaY(RuO6)2
_chemical_formula_sum   'Sr4 La1 Y1 Ru2 O12'
_cell_volume   290.54961454
_cell_formula_units_Z   1
loop_
 _symmetry_equiv_pos_site_id
 _symmetry_equiv_pos_as_xyz
  1  'x, y, z'
loop_
 _atom_site_type_symbol
 _atom_site_label
 _atom_site_symmetry_multiplicity
 _atom_site_fract_x
 _atom_site_fract_y
 _atom_site_fract_z
 _atom_site_occupancy
  Sr  Sr0  1  0.00961000  0.45977700  0.25191901  1
  Sr  Sr1  1  0.99038999  0.54022300  0.74808104  1
  Sr  Sr2  1  0.49038999  0.95977701  0.24808102  1
  Sr  Sr3  1  0.50960999  0.04022300  0.75191903  1
  La  La4  1  0.00000000  0.00000000  0.50000002  1
  Y  Y5  1  0.49999999  0.50000000  0.00000001  1
  Ru  Ru6  1  0.00000000  0.00000000  0.00000000  1
  Ru  Ru7  1  0.49999999  0.50000000  0.50000003  1
  O  O8  1  0.91615899  0.02814500  0.23358602  1
  O  O9  1  0.08384100  0.97185501  0.76641403  1
  O  O10  1  0.58384099  0.52814500  0.26641402  1
  O  O11  1  0.41615899  0.47185500  0.73358603  1
  O  O12  1  0.19228300  0.72589300  0.04843900  1
  O  O13  1  0.80771699  0.27410700  0.95156105  1
  O  O14  1  0.30771700  0.22589300  0.45156102  1
  O  O15  1  0.69228299  0.77410701  0.54843903  1
  O  O16  1  0.27530700  0.19452600  0.04127201  1
  O  O17  1  0.72469299  0.80547401  0.95872804  1
  O  O18  1  0.22469300  0.69452600  0.45872802  1
  O  O19  1  0.77530699  0.30547400  0.54127203  1
