# generated using pymatgen
data_Sr2PCNO6
_symmetry_space_group_name_H-M   'P 1'
_cell_length_a   5.20511627
_cell_length_b   5.20511627
_cell_length_c   6.58569813
_cell_angle_alpha   91.79431915
_cell_angle_beta   111.54524231
_cell_angle_gamma   119.71880341
_symmetry_Int_Tables_number   1
_chemical_formula_structural   Sr2PCNO6
_chemical_formula_sum   'Sr2 P1 C1 N1 O6'
_cell_volume   139.01291698
_cell_formula_units_Z   1
loop_
 _symmetry_equiv_pos_site_id
 _symmetry_equiv_pos_as_xyz
  1  'x, y, z'
loop_
 _atom_site_type_symbol
 _atom_site_label
 _atom_site_symmetry_multiplicity
 _atom_site_fract_x
 _atom_site_fract_y
 _atom_site_fract_z
 _atom_site_occupancy
  Sr  Sr0  1  0.42234003  0.21570901  0.63804902  1
  Sr  Sr1  1  0.57766007  0.78429104  0.36195105  1
  P  P2  1  0.00000000  0.00000000  0.00000000  1
  C  C3  1  0.18823104  0.60374403  0.79197502  1
  N  N4  1  0.81176906  0.39625602  0.20802505  1
  O  O5  1  0.02728104  0.73820004  0.76548102  1
  O  O6  1  0.97271906  0.26180001  0.23451905  1
  O  O7  1  0.48066706  0.75156304  0.79963304  1
  O  O8  1  0.04807002  0.31896602  0.79963301  1
  O  O9  1  0.51933304  0.24843701  0.20036703  1
  O  O10  1  0.95193008  0.68103403  0.20036706  1
