# generated using pymatgen
data_Li3PO5
_symmetry_space_group_name_H-M   'P 1'
_cell_length_a   5.37179279
_cell_length_b   5.42605925
_cell_length_c   7.51008987
_cell_angle_alpha   107.06274414
_cell_angle_beta   107.92467499
_cell_angle_gamma   94.82419586
_symmetry_Int_Tables_number   1
_chemical_formula_structural   Li3PO5
_chemical_formula_sum   'Li6 P2 O10'
_cell_volume   195.41472898
_cell_formula_units_Z   2
loop_
 _symmetry_equiv_pos_site_id
 _symmetry_equiv_pos_as_xyz
  1  'x, y, z'
loop_
 _atom_site_type_symbol
 _atom_site_label
 _atom_site_symmetry_multiplicity
 _atom_site_fract_x
 _atom_site_fract_y
 _atom_site_fract_z
 _atom_site_occupancy
  Li  Li0  1  0.23383106  0.58209300  0.15153402  1
  Li  Li1  1  0.46509903  0.13058400  0.84985400  1
  Li  Li2  1  0.49921610  0.99433300  0.47978103  1
  Li  Li3  1  0.80427208  0.44680200  0.82738802  1
  Li  Li4  1  0.99874705  0.00168700  0.00818203  1
  Li  Li5  1  0.98394713  0.98713800  0.49155304  1
  P  P6  1  0.65896206  0.37049400  0.24130902  1
  P  P7  1  0.33728606  0.62515500  0.76725201  1
  O  O8  1  0.26040507  0.78722000  0.62591401  1
  O  O9  1  0.73761206  0.22526700  0.39154402  1
  O  O10  1  0.33150804  0.32908900  0.66423900  1
  O  O11  1  0.14788806  0.65082300  0.89091600  1
  O  O12  1  0.83970407  0.34393300  0.10953203  1
  O  O13  1  0.36706804  0.24766600  0.08819002  1
  O  O14  1  0.65476608  0.66239500  0.34444603  1
  O  O15  1  0.63020809  0.74787200  0.90700902  1
  O  O16  1  0.81717305  0.08789600  0.73020601  1
  O  O17  1  0.16019008  0.91118700  0.27256002  1
