# generated using pymatgen
data_TlVO5
_symmetry_space_group_name_H-M   'P 1'
_cell_length_a   5.49785566
_cell_length_b   5.49785566
_cell_length_c   5.70273399
_cell_angle_alpha   61.18147659
_cell_angle_beta   61.18147659
_cell_angle_gamma   60.00000763
_symmetry_Int_Tables_number   1
_chemical_formula_structural   TlVO5
_chemical_formula_sum   'Tl1 V1 O5'
_cell_volume   124.01775908
_cell_formula_units_Z   1
loop_
 _symmetry_equiv_pos_site_id
 _symmetry_equiv_pos_as_xyz
  1  'x, y, z'
loop_
 _atom_site_type_symbol
 _atom_site_label
 _atom_site_symmetry_multiplicity
 _atom_site_fract_x
 _atom_site_fract_y
 _atom_site_fract_z
 _atom_site_occupancy
  V  V0  1  0.00000000  0.00000000  0.00000000  1
  Tl  Tl1  1  0.32336200  0.12710899  0.77274498  1
  O  O2  1  0.12710903  0.77678397  0.77274496  1
  O  O3  1  0.22321603  0.67663797  0.22725496  1
  O  O4  1  0.87289099  0.22321599  0.22725497  1
  O  O5  1  0.67663803  0.87289097  0.22725494  1
  O  O6  1  0.77678400  0.32336199  0.77274496  1
