# generated using pymatgen
data_NaLiMgAl2Cu2ReMoOs2Pt4S3
_symmetry_space_group_name_H-M   'P 1'
_cell_length_a   7.95327282
_cell_length_b   7.95327282
_cell_length_c   7.95327282
_cell_angle_alpha   60.00000000
_cell_angle_beta   60.00000000
_cell_angle_gamma   60.00000000
_symmetry_Int_Tables_number   1
_chemical_formula_structural   NaLiMgAl2Cu2ReMoOs2Pt4S3
_chemical_formula_sum   'Na1 Li1 Mg1 Al2 Cu2 Re1 Mo1 Os2 Pt4 S3'
_cell_volume   355.73176146
_cell_formula_units_Z   1
loop_
 _symmetry_equiv_pos_site_id
 _symmetry_equiv_pos_as_xyz
  1  'x, y, z'
loop_
 _atom_site_type_symbol
 _atom_site_label
 _atom_site_symmetry_multiplicity
 _atom_site_fract_x
 _atom_site_fract_y
 _atom_site_fract_z
 _atom_site_occupancy
  Cu  Cu0  1  0.74999998  0.74999998  0.74999998  1
  Na  Na1  1  0.00000000  0.00000000  0.00000000  1
  Mg  Mg2  1  0.37499999  0.87499998  0.37499999  1
  Al  Al3  1  0.37499999  0.37499999  0.37499999  1
  Al  Al4  1  0.37499999  0.37499999  0.87499998  1
  Li  Li5  1  0.87499998  0.37499999  0.37499999  1
  Pt  Pt6  1  0.44038699  0.05961300  0.44038699  1
  Re  Re7  1  0.69038698  0.30961299  0.69038698  1
  Cu  Cu8  1  0.44038699  0.05961300  0.05961300  1
  Mo  Mo9  1  0.44038699  0.44038699  0.05961300  1
  Os  Os10  1  0.05961300  0.05961300  0.44038699  1
  Os  Os11  1  0.05961300  0.44038699  0.44038699  1
  Pt  Pt12  1  0.05961300  0.44038699  0.05961300  1
  Pt  Pt13  1  0.30961299  0.69038698  0.69038698  1
  S  S14  1  0.69038698  0.30961299  0.30961299  1
  Pt  Pt15  1  0.69038698  0.69038698  0.30961299  1
  S  S16  1  0.30961299  0.30961299  0.69038698  1
  S  S17  1  0.30961299  0.69038698  0.30961299  1
