# generated using pymatgen
data_BaHfZr2NbAlGaO11
_symmetry_space_group_name_H-M   'P 1'
_cell_length_a   7.51971054
_cell_length_b   7.52160358
_cell_length_c   7.55251503
_cell_angle_alpha   61.06300735
_cell_angle_beta   61.07356644
_cell_angle_gamma   91.61853790
_symmetry_Int_Tables_number   1
_chemical_formula_structural   BaHfZr2NbAlGaO11
_chemical_formula_sum   'Ba1 Hf1 Zr2 Nb1 Al1 Ga1 O11'
_cell_volume   307.42199147
_cell_formula_units_Z   1
loop_
 _symmetry_equiv_pos_site_id
 _symmetry_equiv_pos_as_xyz
  1  'x, y, z'
loop_
 _atom_site_type_symbol
 _atom_site_label
 _atom_site_symmetry_multiplicity
 _atom_site_fract_x
 _atom_site_fract_y
 _atom_site_fract_z
 _atom_site_occupancy
  Nb  Nb0  1  0.62302199  0.37270698  0.75442505  1
  Ba  Ba1  1  0.36985297  0.62015096  0.26001005  1
  Hf  Hf2  1  0.99752901  0.00777800  0.51778302  1
  Zr  Zr3  1  0.48458595  0.97444194  0.51776409  1
  Ga  Ga4  1  0.00361997  0.50180497  0.99877806  1
  Zr  Zr5  1  0.99770596  0.99932894  0.99888211  1
  Al  Al6  1  0.71276996  0.96269794  0.57441309  1
  O  O7  1  0.30492500  0.05511500  0.39002802  1
  O  O8  1  0.92826101  0.04795400  0.75931703  1
  O  O9  1  0.31268197  0.69256796  0.75853207  1
  O  O10  1  0.92984898  0.67871996  0.14265006  1
  O  O11  1  0.06299498  0.31422198  0.87141705  1
  O  O12  1  0.34596300  0.08174999  0.73125803  1
  O  O13  1  0.92296598  0.68703096  0.73109208  1
  O  O14  1  0.08541898  0.31948598  0.25694603  1
  O  O15  1  0.65761296  0.92396694  0.25670408  1
  O  O16  1  0.68037399  0.31241098  0.24028203  1
  O  O17  1  0.07986695  0.94786894  0.23971908  1
