# generated using pymatgen
data_Li2SN
_symmetry_space_group_name_H-M   'P 1'
_cell_length_a   3.85505605
_cell_length_b   3.85505557
_cell_length_c   6.10045815
_cell_angle_alpha   90.00000000
_cell_angle_beta   90.00000000
_cell_angle_gamma   120.00000000
_symmetry_Int_Tables_number   1
_chemical_formula_structural   Li2SN
_chemical_formula_sum   'Li2 S1 N1'
_cell_volume   78.51532321
_cell_formula_units_Z   1
loop_
 _symmetry_equiv_pos_site_id
 _symmetry_equiv_pos_as_xyz
  1  'x, y, z'
loop_
 _atom_site_type_symbol
 _atom_site_label
 _atom_site_symmetry_multiplicity
 _atom_site_fract_x
 _atom_site_fract_y
 _atom_site_fract_z
 _atom_site_occupancy
  Li  Li0  1  0.66666664  0.33333333  0.99690998  1
  Li  Li1  1  0.33333329  0.66666666  0.60191199  1
  S  S2  1  0.33333329  0.66666666  0.22629099  1
  N  N3  1  0.00000000  0.00000000  0.73188698  1
