# generated using pymatgen
data_ThBi2PbF12
_symmetry_space_group_name_H-M   'P 1'
_cell_length_a   5.01044989
_cell_length_b   6.54745817
_cell_length_c   7.10367918
_cell_angle_alpha   90.00000000
_cell_angle_beta   90.00000000
_cell_angle_gamma   90.00000000
_symmetry_Int_Tables_number   1
_chemical_formula_structural   ThBi2PbF12
_chemical_formula_sum   'Th1 Bi2 Pb1 F12'
_cell_volume   233.04124660
_cell_formula_units_Z   1
loop_
 _symmetry_equiv_pos_site_id
 _symmetry_equiv_pos_as_xyz
  1  'x, y, z'
loop_
 _atom_site_type_symbol
 _atom_site_label
 _atom_site_symmetry_multiplicity
 _atom_site_fract_x
 _atom_site_fract_y
 _atom_site_fract_z
 _atom_site_occupancy
  Th  Th0  1  0.97016302  0.63470998  0.74999998  1
  Pb  Pb1  1  0.47016301  0.86528998  0.24999999  1
  Bi  Bi2  1  0.52983701  0.13471000  0.74999998  1
  Bi  Bi3  1  0.02983700  0.36528999  0.24999999  1
  F  F4  1  0.35155201  0.16071800  0.43965499  1
  F  F5  1  0.85155202  0.33928199  0.56034499  1
  F  F6  1  0.14844800  0.66071798  0.06034500  1
  F  F7  1  0.64844801  0.83928198  0.93965498  1
  F  F8  1  0.63700801  0.54053999  0.24999999  1
  F  F9  1  0.13700800  0.95945997  0.74999998  1
  F  F10  1  0.86299202  0.04054000  0.24999999  1
  F  F11  1  0.36299201  0.45945999  0.74999998  1
  F  F12  1  0.35155201  0.16071800  0.06034500  1
  F  F13  1  0.85155202  0.33928199  0.93965498  1
  F  F14  1  0.14844800  0.66071798  0.43965499  1
  F  F15  1  0.64844801  0.83928198  0.56034499  1
