# generated using pymatgen
data_Li2CoCuF8
_symmetry_space_group_name_H-M   'P 1'
_cell_length_a   4.51143312
_cell_length_b   4.92307806
_cell_length_c   5.42824507
_cell_angle_alpha   90.00000000
_cell_angle_beta   90.00000000
_cell_angle_gamma   90.00000000
_symmetry_Int_Tables_number   1
_chemical_formula_structural   Li2CoCuF8
_chemical_formula_sum   'Li2 Co1 Cu1 F8'
_cell_volume   120.56206898
_cell_formula_units_Z   1
loop_
 _symmetry_equiv_pos_site_id
 _symmetry_equiv_pos_as_xyz
  1  'x, y, z'
loop_
 _atom_site_type_symbol
 _atom_site_label
 _atom_site_symmetry_multiplicity
 _atom_site_fract_x
 _atom_site_fract_y
 _atom_site_fract_z
 _atom_site_occupancy
  Li  Li0  1  0.49999999  0.74999999  0.82973499  1
  Li  Li1  1  -0.00000000  0.25000000  0.67026499  1
  Co  Co2  1  0.49999999  0.25000000  0.17026500  1
  Cu  Cu3  1  -0.00000000  0.74999999  0.32973500  1
  F  F4  1  0.72730598  0.42047399  0.89130599  1
  F  F5  1  0.22730599  0.57952599  0.60869399  1
  F  F6  1  0.77269398  0.92047399  0.60869399  1
  F  F7  1  0.27269399  0.07952600  0.89130599  1
  F  F8  1  0.72730598  0.92047399  0.10869400  1
  F  F9  1  0.22730599  0.07952600  0.39130600  1
  F  F10  1  0.77269398  0.42047399  0.39130600  1
  F  F11  1  0.27269399  0.57952599  0.10869400  1
