# generated using pymatgen
data_KAgHg3SbCl8
_symmetry_space_group_name_H-M   'P 1'
_cell_length_a   8.11759949
_cell_length_b   8.11759949
_cell_length_c   8.11759949
_cell_angle_alpha   109.47122192
_cell_angle_beta   109.47122192
_cell_angle_gamma   109.47122192
_symmetry_Int_Tables_number   1
_chemical_formula_structural   KAgHg3SbCl8
_chemical_formula_sum   'K1 Ag1 Hg3 Sb1 Cl8'
_cell_volume   411.77592204
_cell_formula_units_Z   1
loop_
 _symmetry_equiv_pos_site_id
 _symmetry_equiv_pos_as_xyz
  1  'x, y, z'
loop_
 _atom_site_type_symbol
 _atom_site_label
 _atom_site_symmetry_multiplicity
 _atom_site_fract_x
 _atom_site_fract_y
 _atom_site_fract_z
 _atom_site_occupancy
  K  K0  1  0.81005397  0.06005400  0.74999998  1
  Sb  Sb1  1  0.43994603  0.74999999  0.18994604  1
  Hg  Hg2  1  0.75000001  0.68994599  0.93994601  1
  Hg  Hg3  1  0.06005401  0.25000000  0.31005400  1
  Hg  Hg4  1  0.25000004  0.81005399  0.56005402  1
  Ag  Ag5  1  0.68994600  0.43994599  0.25000003  1
  Cl  Cl6  1  0.99999999  0.49999999  0.54057302  1
  Cl  Cl7  1  0.04057306  0.99999999  1.00000000  1
  Cl  Cl8  1  0.45942701  0.45942699  0.95942699  1
  Cl  Cl9  1  0.49999998  0.04057300  0.49999999  1
  Cl  Cl10  1  0.99999999  0.49999999  0.01402705  1
  Cl  Cl11  1  0.51402704  0.99999999  1.00000002  1
  Cl  Cl12  1  0.50000001  0.51402699  0.50000001  1
  Cl  Cl13  1  0.98597302  0.98597299  0.48597305  1
