# generated using pymatgen
data_KBa2InSeS3
_symmetry_space_group_name_H-M   'P 1'
_cell_length_a   4.28305817
_cell_length_b   4.28305721
_cell_length_c   16.18898392
_cell_angle_alpha   90.00000000
_cell_angle_beta   90.00000000
_cell_angle_gamma   120.00000763
_symmetry_Int_Tables_number   1
_chemical_formula_structural   KBa2InSeS3
_chemical_formula_sum   'K1 Ba2 In1 Se1 S3'
_cell_volume   257.19234490
_cell_formula_units_Z   1
loop_
 _symmetry_equiv_pos_site_id
 _symmetry_equiv_pos_as_xyz
  1  'x, y, z'
loop_
 _atom_site_type_symbol
 _atom_site_label
 _atom_site_symmetry_multiplicity
 _atom_site_fract_x
 _atom_site_fract_y
 _atom_site_fract_z
 _atom_site_occupancy
  Ba  Ba0  1  0.33333333  0.66666665  0.25000000  1
  K  K1  1  0.66666664  0.33333333  0.75000000  1
  Ba  Ba2  1  0.00000000  0.00000000  0.00000000  1
  In  In3  1  0.00000000  0.00000000  0.50000000  1
  S  S4  1  0.66666664  0.33333333  0.09401600  1
  S  S5  1  0.33333333  0.66666665  0.59401600  1
  Se  Se6  1  0.66666664  0.33333333  0.40598400  1
  S  S7  1  0.33333333  0.66666665  0.90598400  1
