# generated using pymatgen
data_NaZrSO2
_symmetry_space_group_name_H-M   'P 1'
_cell_length_a   3.62221003
_cell_length_b   3.62220931
_cell_length_c   6.65625286
_cell_angle_alpha   90.00000000
_cell_angle_beta   90.00000000
_cell_angle_gamma   120.00000763
_symmetry_Int_Tables_number   1
_chemical_formula_structural   NaZrSO2
_chemical_formula_sum   'Na1 Zr1 S1 O2'
_cell_volume   75.63234760
_cell_formula_units_Z   1
loop_
 _symmetry_equiv_pos_site_id
 _symmetry_equiv_pos_as_xyz
  1  'x, y, z'
loop_
 _atom_site_type_symbol
 _atom_site_label
 _atom_site_symmetry_multiplicity
 _atom_site_fract_x
 _atom_site_fract_y
 _atom_site_fract_z
 _atom_site_occupancy
  Na  Na0  1  0.33333334  0.66666666  0.30547001  1
  Zr  Zr1  1  0.66666667  0.33333333  0.69453001  1
  S  S2  1  0.00000000  0.00000000  0.00000000  1
  O  O3  1  0.33333334  0.66666666  0.63109801  1
  O  O4  1  0.66666667  0.33333333  0.36890201  1
