# generated using pymatgen
data_SrMnVCo(OF)5
_symmetry_space_group_name_H-M   'P 1'
_cell_length_a   4.89088392
_cell_length_b   5.51956081
_cell_length_c   6.88058853
_cell_angle_alpha   102.65603638
_cell_angle_beta   110.81867981
_cell_angle_gamma   90.00000000
_symmetry_Int_Tables_number   1
_chemical_formula_structural   SrMnVCo(OF)5
_chemical_formula_sum   'Sr1 Mn1 V1 Co1 O5 F5'
_cell_volume   168.78079162
_cell_formula_units_Z   1
loop_
 _symmetry_equiv_pos_site_id
 _symmetry_equiv_pos_as_xyz
  1  'x, y, z'
loop_
 _atom_site_type_symbol
 _atom_site_label
 _atom_site_symmetry_multiplicity
 _atom_site_fract_x
 _atom_site_fract_y
 _atom_site_fract_z
 _atom_site_occupancy
  Sr  Sr0  1  0.10076499  0.21747001  0.72371700  1
  Mn  Mn1  1  0.37704799  0.28253001  0.27628298  1
  V  V2  1  0.89923498  0.78253002  0.27628294  1
  Co  Co3  1  0.62295198  0.71747002  0.72371696  1
  O  O4  1  0.41971399  0.25000001  -0.00000002  1
  O  O5  1  0.58028598  0.75000002  -0.00000005  1
  F  F6  1  0.01437898  0.45037701  0.20373798  1
  O  O7  1  0.81064100  0.04962300  0.79626200  1
  O  O8  1  0.62301198  0.62313802  0.40501396  1
  F  F9  1  0.21799797  0.87686202  0.59498596  1
  F  F10  1  0.37698799  0.37686201  0.59498599  1
  F  F11  1  0.78200200  0.12313800  0.40501399  1
  F  F12  1  0.18935897  0.95037702  0.20373794  1
  O  O13  1  0.98562099  0.54962301  0.79626197  1
