# generated using pymatgen
data_BaSrTaWO7
_symmetry_space_group_name_H-M   'P 1'
_cell_length_a   3.93270206
_cell_length_b   3.94580007
_cell_length_c   11.35639858
_cell_angle_alpha   100.00451660
_cell_angle_beta   90.00000000
_cell_angle_gamma   90.00000000
_symmetry_Int_Tables_number   1
_chemical_formula_structural   BaSrTaWO7
_chemical_formula_sum   'Ba1 Sr1 Ta1 W1 O7'
_cell_volume   173.54502556
_cell_formula_units_Z   1
loop_
 _symmetry_equiv_pos_site_id
 _symmetry_equiv_pos_as_xyz
  1  'x, y, z'
loop_
 _atom_site_type_symbol
 _atom_site_label
 _atom_site_symmetry_multiplicity
 _atom_site_fract_x
 _atom_site_fract_y
 _atom_site_fract_z
 _atom_site_occupancy
  Sr  Sr0  1  0.99999998  0.76582098  0.53164100  1
  Ba  Ba1  1  0.99999998  0.00102600  0.00205300  1
  W  W2  1  0.49999999  0.60339899  0.20679800  1
  Ta  Ta3  1  0.49999999  0.39776099  0.79552201  1
  O  O4  1  0.49999999  0.91560598  0.83121200  1
  O  O5  1  0.49999999  0.08301900  0.16603800  1
  O  O6  1  0.99999998  0.58276599  0.16553199  1
  O  O7  1  0.99999998  0.41637999  0.83276001  1
  O  O8  1  0.49999999  0.68368298  0.36736500  1
  O  O9  1  0.49999999  0.31640299  0.63280501  1
  O  O10  1  0.49999999  0.49933699  0.99867501  1
