# generated using pymatgen
data_BaSrVCuO8
_symmetry_space_group_name_H-M   'P 1'
_cell_length_a   5.57870722
_cell_length_b   5.61591101
_cell_length_c   7.21995115
_cell_angle_alpha   67.16228485
_cell_angle_beta   67.43991852
_cell_angle_gamma   89.98798370
_symmetry_Int_Tables_number   1
_chemical_formula_structural   BaSrVCuO8
_chemical_formula_sum   'Ba1 Sr1 V1 Cu1 O8'
_cell_volume   189.55234387
_cell_formula_units_Z   1
loop_
 _symmetry_equiv_pos_site_id
 _symmetry_equiv_pos_as_xyz
  1  'x, y, z'
loop_
 _atom_site_type_symbol
 _atom_site_label
 _atom_site_symmetry_multiplicity
 _atom_site_fract_x
 _atom_site_fract_y
 _atom_site_fract_z
 _atom_site_occupancy
  Sr  Sr0  1  0.12700302  0.38107202  0.75023200  1
  Ba  Ba1  1  0.87299700  0.61892803  0.24976798  1
  V  V2  1  0.37908999  0.12445901  0.25112100  1
  Cu  Cu3  1  0.62091003  0.87554104  0.74887897  1
  O  O4  1  0.56548999  0.19099301  0.57877001  1
  O  O5  1  0.15028901  0.27366701  0.41449299  1
  O  O6  1  0.30476403  0.65020303  0.91525898  1
  O  O7  1  0.23504199  0.06890000  0.08048700  1
  O  O8  1  0.76495802  0.93110005  0.91951297  1
  O  O9  1  0.69523599  0.34979702  0.08474099  1
  O  O10  1  0.84971101  0.72633304  0.58550698  1
  O  O11  1  0.43451003  0.80900704  0.42122997  1
