# generated using pymatgen
data_RbTlCl2
_symmetry_space_group_name_H-M   'P 1'
_cell_length_a   4.21940279
_cell_length_b   4.52401876
_cell_length_c   11.78980064
_cell_angle_alpha   90.00000000
_cell_angle_beta   90.00000000
_cell_angle_gamma   90.00000000
_symmetry_Int_Tables_number   1
_chemical_formula_structural   RbTlCl2
_chemical_formula_sum   'Rb2 Tl2 Cl4'
_cell_volume   225.05146527
_cell_formula_units_Z   2
loop_
 _symmetry_equiv_pos_site_id
 _symmetry_equiv_pos_as_xyz
  1  'x, y, z'
loop_
 _atom_site_type_symbol
 _atom_site_label
 _atom_site_symmetry_multiplicity
 _atom_site_fract_x
 _atom_site_fract_y
 _atom_site_fract_z
 _atom_site_occupancy
  Tl  Tl0  1  0.25000001  0.40028002  0.62187802  1
  Rb  Rb1  1  0.75000004  0.59972003  0.37812201  1
  Tl  Tl2  1  0.75000004  0.90028005  0.87812203  1
  Rb  Rb3  1  0.25000001  0.09972001  0.12187800  1
  Cl  Cl4  1  0.25000001  0.01438400  0.35514501  1
  Cl  Cl5  1  0.75000004  0.98561605  0.64485502  1
  Cl  Cl6  1  0.75000004  0.51438403  0.14485500  1
  Cl  Cl7  1  0.25000001  0.48561603  0.85514503  1
