# generated using pymatgen
data_H2
_symmetry_space_group_name_H-M   'P 1'
_cell_length_a   3.88653803
_cell_length_b   4.21923447
_cell_length_c   3.88653803
_cell_angle_alpha   117.42414093
_cell_angle_beta   90.00000000
_cell_angle_gamma   117.42414093
_symmetry_Int_Tables_number   1
_chemical_formula_structural   H2
_chemical_formula_sum   H3
_cell_volume   48.35863496
_cell_formula_units_Z   1
loop_
 _symmetry_equiv_pos_site_id
 _symmetry_equiv_pos_as_xyz
  1  'x, y, z'
loop_
 _atom_site_type_symbol
 _atom_site_label
 _atom_site_symmetry_multiplicity
 _atom_site_fract_x
 _atom_site_fract_y
 _atom_site_fract_z
 _atom_site_occupancy
  H  H0  1  0.00000000  0.00000000  0.00000000  1
  H  H1  1  0.40140300  0.80280605  0.40140300  1
  H  H2  1  0.59859700  0.19719401  0.59859700  1
