# generated using pymatgen
data_KNaLi4AgS7
_symmetry_space_group_name_H-M   'P 1'
_cell_length_a   6.26102781
_cell_length_b   6.37864351
_cell_length_c   11.14119053
_cell_angle_alpha   90.00000000
_cell_angle_beta   90.00000000
_cell_angle_gamma   119.39189911
_symmetry_Int_Tables_number   1
_chemical_formula_structural   KNaLi4AgS7
_chemical_formula_sum   'K1 Na1 Li4 Ag1 S7'
_cell_volume   387.67242465
_cell_formula_units_Z   1
loop_
 _symmetry_equiv_pos_site_id
 _symmetry_equiv_pos_as_xyz
  1  'x, y, z'
loop_
 _atom_site_type_symbol
 _atom_site_label
 _atom_site_symmetry_multiplicity
 _atom_site_fract_x
 _atom_site_fract_y
 _atom_site_fract_z
 _atom_site_occupancy
  Na  Na0  1  0.50000006  1.00000000  0.75000003  1
  K  K1  1  0.50000006  1.00000000  0.25000001  1
  Li  Li2  1  0.75818605  0.51871300  1.00000004  1
  Li  Li3  1  0.24181403  0.48128700  0.00000000  1
  Li  Li4  1  0.23947303  0.48128700  0.50000002  1
  Li  Li5  1  0.76052705  0.51871300  0.50000002  1
  S  S6  1  0.00000002  0.50000000  0.66616803  1
  Ag  Ag7  1  0.00000002  0.50000000  0.33383201  1
  S  S8  1  0.50000004  0.50000000  0.16616801  1
  S  S9  1  0.35006102  0.16905700  0.50000002  1
  S  S10  1  0.64993906  0.83094300  0.50000002  1
  S  S11  1  0.18100405  0.83094300  1.00000004  1
  S  S12  1  0.81899603  0.16905700  0.00000000  1
  S  S13  1  0.50000004  0.50000000  0.83383204  1
