# generated using pymatgen
data_BaYIBrO2
_symmetry_space_group_name_H-M   'P 1'
_cell_length_a   3.91479445
_cell_length_b   3.91479445
_cell_length_c   11.20944786
_cell_angle_alpha   79.94344330
_cell_angle_beta   79.94344330
_cell_angle_gamma   59.99999237
_symmetry_Int_Tables_number   1
_chemical_formula_structural   BaYIBrO2
_chemical_formula_sum   'Ba1 Y1 I1 Br1 O2'
_cell_volume   145.72023553
_cell_formula_units_Z   1
loop_
 _symmetry_equiv_pos_site_id
 _symmetry_equiv_pos_as_xyz
  1  'x, y, z'
loop_
 _atom_site_type_symbol
 _atom_site_label
 _atom_site_symmetry_multiplicity
 _atom_site_fract_x
 _atom_site_fract_y
 _atom_site_fract_z
 _atom_site_occupancy
  Ba  Ba0  1  0.37566397  0.37566400  0.87300798  1
  Y  Y1  1  0.62433595  0.62433599  0.12699202  1
  I  I2  1  0.10838099  0.10838100  0.67485698  1
  Br  Br3  1  0.89161892  0.89161899  0.32514303  1
  O  O4  1  0.30736897  0.30736900  0.07789301  1
  O  O5  1  0.69263094  0.69263099  0.92210700  1
