# generated using pymatgen
data_Ba3SrHCNO9
_symmetry_space_group_name_H-M   'P 1'
_cell_length_a   4.56160021
_cell_length_b   7.17530203
_cell_length_c   9.72632980
_cell_angle_alpha   90.00000000
_cell_angle_beta   90.00000000
_cell_angle_gamma   107.31538391
_symmetry_Int_Tables_number   1
_chemical_formula_structural   Ba3SrHCNO9
_chemical_formula_sum   'Ba3 Sr1 H1 C1 N1 O9'
_cell_volume   303.92375119
_cell_formula_units_Z   1
loop_
 _symmetry_equiv_pos_site_id
 _symmetry_equiv_pos_as_xyz
  1  'x, y, z'
loop_
 _atom_site_type_symbol
 _atom_site_label
 _atom_site_symmetry_multiplicity
 _atom_site_fract_x
 _atom_site_fract_y
 _atom_site_fract_z
 _atom_site_occupancy
  Sr  Sr0  1  0.70505696  0.29004700  0.64027501  1
  Ba  Ba1  1  0.79494296  0.20995300  0.14027500  1
  Ba  Ba2  1  0.29494297  0.70995301  0.35972501  1
  Ba  Ba3  1  0.20505697  0.79004701  0.85972502  1
  C  C4  1  0.76209095  0.68859801  0.08783600  1
  H  H5  1  0.23790898  0.31140200  0.91216402  1
  O  O6  1  0.26209098  0.18859800  0.41216401  1
  N  N7  1  0.73790895  0.81140201  0.58783601  1
  O  O8  1  0.74693494  0.90996201  0.69740401  1
  O  O9  1  0.24693498  0.40996200  0.80259602  1
  O  O10  1  0.75306495  0.59003801  0.19740400  1
  O  O11  1  0.25306499  0.09003800  0.30259601  1
  O  O12  1  0.90025194  0.69449701  0.58939301  1
  O  O13  1  0.59974795  0.80550301  0.08939300  1
  O  O14  1  0.09974799  0.30550300  0.41060701  1
  O  O15  1  0.40025198  0.19449700  0.91060702  1
