# generated using pymatgen
data_Li4MnV(OF4)2
_symmetry_space_group_name_H-M   'P 1'
_cell_length_a   3.77772188
_cell_length_b   5.31123352
_cell_length_c   10.05308437
_cell_angle_alpha   90.00000000
_cell_angle_beta   90.00000000
_cell_angle_gamma   110.83237457
_symmetry_Int_Tables_number   1
_chemical_formula_structural   Li4MnV(OF4)2
_chemical_formula_sum   'Li4 Mn1 V1 O2 F8'
_cell_volume   188.52200158
_cell_formula_units_Z   1
loop_
 _symmetry_equiv_pos_site_id
 _symmetry_equiv_pos_as_xyz
  1  'x, y, z'
loop_
 _atom_site_type_symbol
 _atom_site_label
 _atom_site_symmetry_multiplicity
 _atom_site_fract_x
 _atom_site_fract_y
 _atom_site_fract_z
 _atom_site_occupancy
  Li  Li0  1  0.86502006  0.73004000  0.05748600  1
  Li  Li1  1  0.86539106  0.73078200  0.45054998  1
  Li  Li2  1  0.80498606  0.60997200  0.75369097  1
  Li  Li3  1  0.19501403  0.39002800  0.25369099  1
  V  V4  1  0.13460902  0.26921800  0.95054996  1
  Mn  Mn5  1  0.13498002  0.26996000  0.55748598  1
  O  O6  1  0.95422508  0.90845000  0.61787998  1
  O  O7  1  0.30326204  0.60652400  0.42367598  1
  F  F8  1  0.69673804  0.39347600  0.92367597  1
  F  F9  1  0.04577501  0.09155000  0.11788000  1
  F  F10  1  0.95489208  0.90978400  0.88037397  1
  F  F11  1  0.31364404  0.62728800  0.07737500  1
  F  F12  1  0.24595803  0.49191600  0.73896697  1
  F  F13  1  0.75404205  0.50808400  0.23896699  1
  F  F14  1  0.68635604  0.37271200  0.57737498  1
  F  F15  1  0.04510801  0.09021600  0.38037399  1
