# generated using pymatgen
data_LiY5ScInO6
_symmetry_space_group_name_H-M   'P 1'
_cell_length_a   6.25822878
_cell_length_b   6.25822878
_cell_length_c   6.25822878
_cell_angle_alpha   109.47122192
_cell_angle_beta   109.47122192
_cell_angle_gamma   109.47122192
_symmetry_Int_Tables_number   1
_chemical_formula_structural   LiY5ScInO6
_chemical_formula_sum   'Li1 Y5 Sc1 In1 O6'
_cell_volume   188.68283572
_cell_formula_units_Z   1
loop_
 _symmetry_equiv_pos_site_id
 _symmetry_equiv_pos_as_xyz
  1  'x, y, z'
loop_
 _atom_site_type_symbol
 _atom_site_label
 _atom_site_symmetry_multiplicity
 _atom_site_fract_x
 _atom_site_fract_y
 _atom_site_fract_z
 _atom_site_occupancy
  Sc  Sc0  1  0.59856803  0.59856801  0.09856805  1
  Y  Y1  1  0.40143200  0.00000000  0.99999999  1
  Y  Y2  1  0.50000005  0.90143202  0.50000005  1
  Y  Y3  1  0.00000003  0.50000001  0.40143202  1
  Y  Y4  1  0.50000002  0.40143201  0.50000002  1
  Y  Y5  1  0.00000003  0.50000001  0.90143201  1
  In  In6  1  0.09856801  0.09856800  0.59856800  1
  Li  Li7  1  0.90143199  0.00000000  1.00000000  1
  O  O8  1  0.25000002  0.37500001  0.12500002  1
  O  O9  1  0.37500004  0.62500001  0.75000003  1
  O  O10  1  0.12500005  0.87500002  0.25000005  1
  O  O11  1  0.87500004  0.75000002  0.62500005  1
  O  O12  1  0.62500001  0.25000001  0.87500001  1
  O  O13  1  0.75000000  0.12500000  0.37500002  1
