# generated using pymatgen
data_CsBaScBH7I
_symmetry_space_group_name_H-M   'P 1'
_cell_length_a   6.93287802
_cell_length_b   6.93287802
_cell_length_c   6.93287802
_cell_angle_alpha   60.00000000
_cell_angle_beta   60.00000000
_cell_angle_gamma   60.00000000
_symmetry_Int_Tables_number   1
_chemical_formula_structural   CsBaScBH7I
_chemical_formula_sum   'Cs1 Ba1 Sc1 B1 H7 I1'
_cell_volume   235.62733917
_cell_formula_units_Z   1
loop_
 _symmetry_equiv_pos_site_id
 _symmetry_equiv_pos_as_xyz
  1  'x, y, z'
loop_
 _atom_site_type_symbol
 _atom_site_label
 _atom_site_symmetry_multiplicity
 _atom_site_fract_x
 _atom_site_fract_y
 _atom_site_fract_z
 _atom_site_occupancy
  Sc  Sc0  1  0.05286500  0.64904499  0.64904499  1
  B  B1  1  0.64904499  0.05286500  0.64904499  1
  Ba  Ba2  1  0.64904499  0.64904499  0.64904499  1
  Cs  Cs3  1  0.64904499  0.64904499  0.05286500  1
  I  I4  1  0.34823400  0.88392199  0.88392199  1
  H  H5  1  0.88392299  0.34823300  0.88392199  1
  H  H6  1  0.88392299  0.88392199  0.88392199  1
  H  H7  1  0.88392299  0.88392199  0.34823300  1
  H  H8  1  0.85392199  0.38202600  0.38202600  1
  H  H9  1  0.38202500  0.85392299  0.38202600  1
  H  H10  1  0.38202500  0.38202600  0.38202600  1
  H  H11  1  0.38202500  0.38202600  0.85392299  1
