# generated using pymatgen
data_Sr2LiTi3NbWO12
_symmetry_space_group_name_H-M   'P 1'
_cell_length_a   5.55185509
_cell_length_b   5.55939913
_cell_length_c   7.76769304
_cell_angle_alpha   90.00000000
_cell_angle_beta   89.99923706
_cell_angle_gamma   90.00000000
_symmetry_Int_Tables_number   1
_chemical_formula_structural   Sr2LiTi3NbWO12
_chemical_formula_sum   'Sr2 Li1 Ti3 Nb1 W1 O12'
_cell_volume   239.74967742
_cell_formula_units_Z   1
loop_
 _symmetry_equiv_pos_site_id
 _symmetry_equiv_pos_as_xyz
  1  'x, y, z'
loop_
 _atom_site_type_symbol
 _atom_site_label
 _atom_site_symmetry_multiplicity
 _atom_site_fract_x
 _atom_site_fract_y
 _atom_site_fract_z
 _atom_site_occupancy
  Sr  Sr0  1  -0.00000000  0.49999999  0.50000000  1
  Li  Li1  1  -0.00000000  0.49999999  0.00000000  1
  Sr  Sr2  1  0.49999999  0.99092098  0.24999998  1
  Ti  Ti3  1  0.49999999  0.00907900  0.74999998  1
  Ti  Ti4  1  0.49999999  0.49999999  0.49999998  1
  Ti  Ti5  1  0.00000000  0.00000000  0.50000000  1
  Nb  Nb6  1  0.00000000  0.00000000  0.00000000  1
  W  W7  1  0.49999999  0.49999999  -0.00000002  1
  O  O8  1  0.73096199  0.23143699  0.01784797  1
  O  O9  1  0.25000000  0.25049799  0.01972999  1
  O  O10  1  0.74999999  0.25049799  0.48026997  1
  O  O11  1  0.49999999  0.54456099  0.24999998  1
  O  O12  1  0.26903800  0.23143699  0.48215199  1
  O  O13  1  0.73096199  0.76856298  0.51784797  1
  O  O14  1  -0.00000000  0.96220098  0.25000000  1
  O  O15  1  0.49999999  0.45543899  0.74999998  1
  O  O16  1  -0.00000000  0.03779900  0.75000000  1
  O  O17  1  0.25000000  0.74950198  0.51972999  1
  O  O18  1  0.74999999  0.74950198  0.98026996  1
  O  O19  1  0.26903800  0.76856298  0.98215198  1
