# generated using pymatgen
data_Sr4CeYTi2O12
_symmetry_space_group_name_H-M   'P 1'
_cell_length_a   5.83867979
_cell_length_b   6.10664415
_cell_length_c   8.36580944
_cell_angle_alpha   90.00000000
_cell_angle_beta   90.00000000
_cell_angle_gamma   90.00000000
_symmetry_Int_Tables_number   1
_chemical_formula_structural   Sr4CeYTi2O12
_chemical_formula_sum   'Sr4 Ce1 Y1 Ti2 O12'
_cell_volume   298.28075888
_cell_formula_units_Z   1
loop_
 _symmetry_equiv_pos_site_id
 _symmetry_equiv_pos_as_xyz
  1  'x, y, z'
loop_
 _atom_site_type_symbol
 _atom_site_label
 _atom_site_symmetry_multiplicity
 _atom_site_fract_x
 _atom_site_fract_y
 _atom_site_fract_z
 _atom_site_occupancy
  Sr  Sr0  1  0.50000002  0.79573898  0.76762696  1
  Sr  Sr1  1  -0.00000000  0.20426099  0.26762699  1
  Sr  Sr2  1  0.50000002  0.79573898  0.23237299  1
  Sr  Sr3  1  -0.00000000  0.20426099  0.73237296  1
  Ce  Ce4  1  -0.00000000  0.72460198  0.49999997  1
  Y  Y5  1  0.50000002  0.27539799  0.00000000  1
  Ti  Ti6  1  0.50000002  0.23496499  0.49999997  1
  Ti  Ti7  1  -0.00000000  0.76503498  0.00000000  1
  O  O8  1  0.50000002  0.21794999  0.73262796  1
  O  O9  1  0.50000002  0.21794999  0.26737199  1
  O  O10  1  -0.00000000  0.78204998  0.76737196  1
  O  O11  1  -0.00000000  0.78204998  0.23262799  1
  O  O12  1  0.73298503  0.99803797  0.49999997  1
  O  O13  1  0.26701501  0.99803797  0.49999997  1
  O  O14  1  0.74460103  0.44482999  0.49999997  1
  O  O15  1  0.25539901  0.44482999  0.49999997  1
  O  O16  1  0.24460101  0.55516999  0.00000000  1
  O  O17  1  0.75539903  0.55516999  0.00000000  1
  O  O18  1  0.76701503  0.00196200  0.00000000  1
  O  O19  1  0.23298501  0.00196200  0.00000000  1
