# generated using pymatgen
data_LiMnO2
_symmetry_space_group_name_H-M   'P 1'
_cell_length_a   6.07940292
_cell_length_b   6.07940292
_cell_length_c   6.17304277
_cell_angle_alpha   93.10692596
_cell_angle_beta   118.31107330
_cell_angle_gamma   117.60687256
_symmetry_Int_Tables_number   1
_chemical_formula_structural   LiMnO2
_chemical_formula_sum   'Li4 Mn4 O8'
_cell_volume   166.65544970
_cell_formula_units_Z   4
loop_
 _symmetry_equiv_pos_site_id
 _symmetry_equiv_pos_as_xyz
  1  'x, y, z'
loop_
 _atom_site_type_symbol
 _atom_site_label
 _atom_site_symmetry_multiplicity
 _atom_site_fract_x
 _atom_site_fract_y
 _atom_site_fract_z
 _atom_site_occupancy
  Li  Li0  1  0.49999999  0.00000000  -0.00000004  1
  Li  Li1  1  -0.00000003  0.50000000  0.00000001  1
  Li  Li2  1  0.49999999  0.00000000  0.49999998  1
  Li  Li3  1  0.00000000  0.00000000  0.00000000  1
  Mn  Mn4  1  0.49999996  0.50000000  0.49999999  1
  Mn  Mn5  1  -0.00000000  0.00000000  0.50000002  1
  Mn  Mn6  1  -0.00000003  0.50000000  0.50000003  1
  Mn  Mn7  1  0.49999996  0.50000000  -0.00000003  1
  O  O8  1  0.49329798  0.26082600  0.75412400  1
  O  O9  1  0.95907494  0.72249800  0.22375695  1
  O  O10  1  0.50125898  0.26468200  0.22375698  1
  O  O11  1  0.50670195  0.73917400  0.24587599  1
  O  O12  1  0.97793894  0.75079000  0.72872897  1
  O  O13  1  0.04092498  0.27750200  0.77624303  1
  O  O14  1  0.49874095  0.73531800  0.77624301  1
  O  O15  1  0.02206099  0.24921000  0.27127101  1
