# generated using pymatgen
data_Li4CoO5
_symmetry_space_group_name_H-M   'P 1'
_cell_length_a   4.97698212
_cell_length_b   5.10497713
_cell_length_c   7.84223413
_cell_angle_alpha   84.17382050
_cell_angle_beta   71.49912262
_cell_angle_gamma   71.34304047
_symmetry_Int_Tables_number   1
_chemical_formula_structural   Li4CoO5
_chemical_formula_sum   'Li8 Co2 O10'
_cell_volume   179.02378531
_cell_formula_units_Z   2
loop_
 _symmetry_equiv_pos_site_id
 _symmetry_equiv_pos_as_xyz
  1  'x, y, z'
loop_
 _atom_site_type_symbol
 _atom_site_label
 _atom_site_symmetry_multiplicity
 _atom_site_fract_x
 _atom_site_fract_y
 _atom_site_fract_z
 _atom_site_occupancy
  Li  Li0  1  0.19791400  0.00000000  0.60417199  1
  Li  Li1  1  0.59200698  1.00000001  0.81598594  1
  Li  Li2  1  0.00000000  0.00000000  0.00000000  1
  Li  Li3  1  0.40799300  0.00000000  0.18401399  1
  Li  Li4  1  0.80208598  1.00000001  0.39582795  1
  Li  Li5  1  0.49999999  0.50000001  -0.00000003  1
  Li  Li6  1  0.30027599  0.50000001  0.39944797  1
  Li  Li7  1  0.69972399  0.50000001  0.60055196  1
  Co  Co8  1  0.09412999  0.50000001  0.81173997  1
  Co  Co9  1  0.90586998  0.50000001  0.18825996  1
  O  O10  1  0.04712600  0.27776100  0.41055098  1
  O  O11  1  0.45767699  0.27776100  0.58944897  1
  O  O12  1  0.85507599  0.27977100  0.78120296  1
  O  O13  1  0.22585199  0.25608700  0.99999997  1
  O  O14  1  0.63627899  0.27977100  0.21879697  1
  O  O15  1  0.36372099  0.72022901  0.78120296  1
  O  O16  1  0.77414798  0.74391301  -0.00000004  1
  O  O17  1  0.14492399  0.72022901  0.21879697  1
  O  O18  1  0.54232298  0.72223901  0.41055096  1
  O  O19  1  0.95287398  0.72223901  0.58944895  1
