# generated using pymatgen
data_Na3Y4ScCd3InO8
_symmetry_space_group_name_H-M   'P 1'
_cell_length_a   6.11587620
_cell_length_b   6.13738298
_cell_length_c   8.45848656
_cell_angle_alpha   90.00000000
_cell_angle_beta   90.00000000
_cell_angle_gamma   90.00000000
_symmetry_Int_Tables_number   1
_chemical_formula_structural   Na3Y4ScCd3InO8
_chemical_formula_sum   'Na3 Y4 Sc1 Cd3 In1 O8'
_cell_volume   317.49330655
_cell_formula_units_Z   1
loop_
 _symmetry_equiv_pos_site_id
 _symmetry_equiv_pos_as_xyz
  1  'x, y, z'
loop_
 _atom_site_type_symbol
 _atom_site_label
 _atom_site_symmetry_multiplicity
 _atom_site_fract_x
 _atom_site_fract_y
 _atom_site_fract_z
 _atom_site_occupancy
  Cd  Cd0  1  0.94688197  0.07969200  0.31815602  1
  Na  Na1  1  0.94688197  0.07969200  0.68184404  1
  Na  Na2  1  0.75996498  0.59958800  0.69195404  1
  Y  Y3  1  0.75996498  0.59958800  0.30804602  1
  Y  Y4  1  0.72582498  0.33886700  0.00000000  1
  Na  Na5  1  0.44688199  0.92030800  0.81815604  1
  Y  Y6  1  0.44688199  0.92030800  0.18184401  1
  Y  Y7  1  0.25996499  0.40041200  0.80804604  1
  Cd  Cd8  1  0.25996499  0.40041200  0.19195401  1
  Cd  Cd9  1  0.22582499  0.66113300  0.50000003  1
  Sc  Sc10  1  0.99202797  0.83863100  0.00000000  1
  In  In11  1  0.49202798  0.16136900  0.50000003  1
  O  O12  1  0.65320998  0.73861200  0.00000000  1
  O  O13  1  0.58715898  0.81803000  0.50000003  1
  O  O14  1  0.61006198  0.25949100  0.26492801  1
  O  O15  1  0.61006198  0.25949100  0.73507204  1
  O  O16  1  0.15321000  0.26138800  0.50000003  1
  O  O17  1  0.08715900  0.18197000  0.00000000  1
  O  O18  1  0.11006200  0.74050900  0.76492804  1
  O  O19  1  0.11006200  0.74050900  0.23507201  1
