# generated using pymatgen
data_K2MnF4
_symmetry_space_group_name_H-M   'P 1'
_cell_length_a   4.14416981
_cell_length_b   4.14416981
_cell_length_c   7.24294472
_cell_angle_alpha   106.62361145
_cell_angle_beta   106.62361145
_cell_angle_gamma   90.00000000
_symmetry_Int_Tables_number   1
_chemical_formula_structural   K2MnF4
_chemical_formula_sum   'K2 Mn1 F4'
_cell_volume   113.75607762
_cell_formula_units_Z   1
loop_
 _symmetry_equiv_pos_site_id
 _symmetry_equiv_pos_as_xyz
  1  'x, y, z'
loop_
 _atom_site_type_symbol
 _atom_site_label
 _atom_site_symmetry_multiplicity
 _atom_site_fract_x
 _atom_site_fract_y
 _atom_site_fract_z
 _atom_site_occupancy
  K  K0  1  0.35473203  0.35473202  0.70946402  1
  K  K1  1  0.64526806  0.64526804  0.29053604  1
  Mn  Mn2  1  0.00000000  0.00000000  0.00000000  1
  F  F3  1  0.00000001  0.50000003  0.00000002  1
  F  F4  1  0.50000003  0.00000000  0.00000001  1
  F  F5  1  0.84509807  0.84509805  0.69019605  1
  F  F6  1  0.15490201  0.15490201  0.30980401  1
