# generated using pymatgen
data_Ba2Al(O2F)2
_symmetry_space_group_name_H-M   'P 1'
_cell_length_a   4.75350285
_cell_length_b   5.90755415
_cell_length_c   5.90755415
_cell_angle_alpha   60.00000000
_cell_angle_beta   90.00000000
_cell_angle_gamma   90.00000000
_symmetry_Int_Tables_number   1
_chemical_formula_structural   Ba2Al(O2F)2
_chemical_formula_sum   'Ba2 Al1 O4 F2'
_cell_volume   143.66792266
_cell_formula_units_Z   1
loop_
 _symmetry_equiv_pos_site_id
 _symmetry_equiv_pos_as_xyz
  1  'x, y, z'
loop_
 _atom_site_type_symbol
 _atom_site_label
 _atom_site_symmetry_multiplicity
 _atom_site_fract_x
 _atom_site_fract_y
 _atom_site_fract_z
 _atom_site_occupancy
  Ba  Ba0  1  0.71469802  0.66666666  0.66666666  1
  Ba  Ba1  1  0.28530201  0.33333333  0.33333333  1
  Al  Al2  1  0.00000000  0.00000000  0.00000000  1
  O  O3  1  0.22364801  0.83702899  0.32594199  1
  F  F4  1  0.22364801  0.32594199  0.83702899  1
  F  F5  1  0.22364801  0.83702899  0.83702899  1
  O  O6  1  0.77635203  0.16297100  0.67405800  1
  O  O7  1  0.77635203  0.67405799  0.16297099  1
  O  O8  1  0.77635203  0.16297100  0.16297100  1
