# generated using pymatgen
data_LiMnF4
_symmetry_space_group_name_H-M   'P 1'
_cell_length_a   4.67097902
_cell_length_b   5.00790119
_cell_length_c   5.65089321
_cell_angle_alpha   90.00000000
_cell_angle_beta   90.00000000
_cell_angle_gamma   90.00000000
_symmetry_Int_Tables_number   1
_chemical_formula_structural   LiMnF4
_chemical_formula_sum   'Li2 Mn2 F8'
_cell_volume   132.18457182
_cell_formula_units_Z   2
loop_
 _symmetry_equiv_pos_site_id
 _symmetry_equiv_pos_as_xyz
  1  'x, y, z'
loop_
 _atom_site_type_symbol
 _atom_site_label
 _atom_site_symmetry_multiplicity
 _atom_site_fract_x
 _atom_site_fract_y
 _atom_site_fract_z
 _atom_site_occupancy
  Li  Li0  1  0.00000000  0.00000000  0.82006597  1
  Li  Li1  1  0.50000000  0.00000000  0.32006599  1
  Mn  Mn2  1  -0.00000000  0.49999998  0.16974199  1
  Mn  Mn3  1  0.50000000  0.49999998  0.66974197  1
  F  F4  1  0.77324700  0.16843599  0.11539300  1
  F  F5  1  0.77278300  0.67694797  0.88970297  1
  F  F6  1  0.72721700  0.67694797  0.38970299  1
  F  F7  1  0.72675300  0.16843599  0.61539298  1
  F  F8  1  0.27278300  0.32305199  0.38970299  1
  F  F9  1  0.27324700  0.83156397  0.61539298  1
  F  F10  1  0.22675300  0.83156397  0.11539300  1
  F  F11  1  0.22721700  0.32305199  0.88970297  1
