# generated using pymatgen
data_TiAlB2C2N5O
_symmetry_space_group_name_H-M   'P 1'
_cell_length_a   4.74764633
_cell_length_b   4.74764633
_cell_length_c   7.49772310
_cell_angle_alpha   86.73210144
_cell_angle_beta   86.73210144
_cell_angle_gamma   65.41342926
_symmetry_Int_Tables_number   1
_chemical_formula_structural   TiAlB2C2N5O
_chemical_formula_sum   'Ti1 Al1 B2 C2 N5 O1'
_cell_volume   153.32412188
_cell_formula_units_Z   1
loop_
 _symmetry_equiv_pos_site_id
 _symmetry_equiv_pos_as_xyz
  1  'x, y, z'
loop_
 _atom_site_type_symbol
 _atom_site_label
 _atom_site_symmetry_multiplicity
 _atom_site_fract_x
 _atom_site_fract_y
 _atom_site_fract_z
 _atom_site_occupancy
  Al  Al0  1  0.00000000  0.00000000  0.50000001  1
  Ti  Ti1  1  0.00000000  0.00000000  0.00000000  1
  C  C2  1  0.63474403  0.63474397  0.20613905  1
  C  C3  1  0.36525602  0.36525598  0.79386104  1
  B  B4  1  0.76954704  0.76954697  0.05001006  1
  N  N5  1  0.23045301  0.23045299  0.94999004  1
  B  B6  1  0.69203804  0.69203797  0.39512506  1
  O  O7  1  0.30796202  0.30796199  0.60487504  1
  N  N8  1  0.27351405  0.76941897  0.18620104  1
  N  N9  1  0.76941901  0.27351399  0.18620104  1
  N  N10  1  0.72648600  0.23058099  0.81379905  1
  N  N11  1  0.23058105  0.72648597  0.81379905  1
