# generated using pymatgen
data_NaSr(ClO)2
_symmetry_space_group_name_H-M   'P 1'
_cell_length_a   4.10760021
_cell_length_b   4.10760021
_cell_length_c   6.88123322
_cell_angle_alpha   90.00000000
_cell_angle_beta   90.00000000
_cell_angle_gamma   90.00000000
_symmetry_Int_Tables_number   1
_chemical_formula_structural   NaSr(ClO)2
_chemical_formula_sum   'Na1 Sr1 Cl2 O2'
_cell_volume   116.10277825
_cell_formula_units_Z   1
loop_
 _symmetry_equiv_pos_site_id
 _symmetry_equiv_pos_as_xyz
  1  'x, y, z'
loop_
 _atom_site_type_symbol
 _atom_site_label
 _atom_site_symmetry_multiplicity
 _atom_site_fract_x
 _atom_site_fract_y
 _atom_site_fract_z
 _atom_site_occupancy
  Sr  Sr0  1  0.49999997  0.00000000  0.82632397  1
  Na  Na1  1  -0.00000000  0.49999997  0.17367599  1
  Cl  Cl2  1  -0.00000000  0.49999997  0.62746698  1
  Cl  Cl3  1  0.49999997  0.00000000  0.37253299  1
  O  O4  1  0.00000000  0.00000000  0.00000000  1
  O  O5  1  0.49999997  0.49999997  0.00000000  1
