# generated using pymatgen
data_NaTaSbMoO6
_symmetry_space_group_name_H-M   'P 1'
_cell_length_a   5.41731691
_cell_length_b   5.41731691
_cell_length_c   6.49332809
_cell_angle_alpha   65.34553528
_cell_angle_beta   65.34553528
_cell_angle_gamma   59.99999237
_symmetry_Int_Tables_number   1
_chemical_formula_structural   NaTaSbMoO6
_chemical_formula_sum   'Na1 Ta1 Sb1 Mo1 O6'
_cell_volume   144.62498326
_cell_formula_units_Z   1
loop_
 _symmetry_equiv_pos_site_id
 _symmetry_equiv_pos_as_xyz
  1  'x, y, z'
loop_
 _atom_site_type_symbol
 _atom_site_label
 _atom_site_symmetry_multiplicity
 _atom_site_fract_x
 _atom_site_fract_y
 _atom_site_fract_z
 _atom_site_occupancy
  Na  Na0  1  0.36156098  0.36156098  0.91531706  1
  Ta  Ta1  1  0.63843896  0.63843897  0.08468307  1
  Mo  Mo2  1  0.16289599  0.16289599  0.51131203  1
  Sb  Sb3  1  0.83710395  0.83710396  0.48868810  1
  O  O4  1  0.81487095  0.44055998  0.69997708  1
  O  O5  1  0.55943997  0.95540795  0.30002308  1
  O  O6  1  0.95540795  0.18512899  0.30002306  1
  O  O7  1  0.04459200  0.81487096  0.69997706  1
  O  O8  1  0.44055998  0.04459200  0.69997704  1
  O  O9  1  0.18512899  0.55943997  0.30002304  1
