# generated using pymatgen
data_NaSrNi2F6
_symmetry_space_group_name_H-M   'P 1'
_cell_length_a   3.96565199
_cell_length_b   3.96565199
_cell_length_c   7.88860512
_cell_angle_alpha   90.00000000
_cell_angle_beta   90.00000000
_cell_angle_gamma   90.00000000
_symmetry_Int_Tables_number   1
_chemical_formula_structural   NaSrNi2F6
_chemical_formula_sum   'Na1 Sr1 Ni2 F6'
_cell_volume   124.05932559
_cell_formula_units_Z   1
loop_
 _symmetry_equiv_pos_site_id
 _symmetry_equiv_pos_as_xyz
  1  'x, y, z'
loop_
 _atom_site_type_symbol
 _atom_site_label
 _atom_site_symmetry_multiplicity
 _atom_site_fract_x
 _atom_site_fract_y
 _atom_site_fract_z
 _atom_site_occupancy
  Sr  Sr0  1  0.00000000  0.00000000  0.71567399  1
  Na  Na1  1  0.00000000  0.00000000  0.28432600  1
  Ni  Ni2  1  0.50000000  0.50000000  0.00000000  1
  Ni  Ni3  1  0.50000000  0.50000000  0.49999999  1
  F  F4  1  0.50000000  0.00000000  -0.00000000  1
  F  F5  1  0.50000000  0.00000000  0.49999999  1
  F  F6  1  -0.00000000  0.50000000  0.00000000  1
  F  F7  1  -0.00000000  0.50000000  0.49999999  1
  F  F8  1  0.50000000  0.50000000  0.74920999  1
  F  F9  1  0.50000000  0.50000000  0.25079000  1
