# generated using pymatgen
data_NaEuF3
_symmetry_space_group_name_H-M   'P 1'
_cell_length_a   4.00055885
_cell_length_b   4.00055885
_cell_length_c   6.51162148
_cell_angle_alpha   89.15370178
_cell_angle_beta   89.15370178
_cell_angle_gamma   60.13223267
_symmetry_Int_Tables_number   1
_chemical_formula_structural   NaEuF3
_chemical_formula_sum   'Na1 Eu1 F3'
_cell_volume   90.35974372
_cell_formula_units_Z   1
loop_
 _symmetry_equiv_pos_site_id
 _symmetry_equiv_pos_as_xyz
  1  'x, y, z'
loop_
 _atom_site_type_symbol
 _atom_site_label
 _atom_site_symmetry_multiplicity
 _atom_site_fract_x
 _atom_site_fract_y
 _atom_site_fract_z
 _atom_site_occupancy
  Na  Na0  1  0.29821199  0.29821199  0.29195697  1
  Eu  Eu1  1  0.62194099  0.62194099  0.74499094  1
  F  F2  1  0.62940699  0.62940699  0.38147094  1
  F  F3  1  0.29206099  0.29206099  0.63235997  1
  F  F4  1  0.96665598  0.96665598  0.09852092  1
