# generated using pymatgen
data_Cs3Te2
_symmetry_space_group_name_H-M   'P 1'
_cell_length_a   12.21087074
_cell_length_b   12.84885883
_cell_length_c   12.92943954
_cell_angle_alpha   84.10426331
_cell_angle_beta   87.71994019
_cell_angle_gamma   88.25926971
_symmetry_Int_Tables_number   1
_chemical_formula_structural   Cs3Te2
_chemical_formula_sum   'Cs6 Te4'
_cell_volume   2015.54096743
_cell_formula_units_Z   2
loop_
 _symmetry_equiv_pos_site_id
 _symmetry_equiv_pos_as_xyz
  1  'x, y, z'
loop_
 _atom_site_type_symbol
 _atom_site_label
 _atom_site_symmetry_multiplicity
 _atom_site_fract_x
 _atom_site_fract_y
 _atom_site_fract_z
 _atom_site_occupancy
  Te  Te0  1  0.64816001  0.31806099  0.53070000  1
  Te  Te1  1  0.51978800  0.48191299  0.46593899  1
  Te  Te2  1  0.46598700  0.29667999  0.48906099  1
  Cs  Cs3  1  0.42560600  0.35888599  0.62755298  1
  Cs  Cs4  1  0.29239600  0.45889399  0.60334197  1
  Cs  Cs5  1  0.34088599  0.58898999  0.50386098  1
  Cs  Cs6  1  0.41949299  0.68964298  0.59285297  1
  Cs  Cs7  1  0.58372700  0.69874398  0.54455098  1
  Cs  Cs8  1  0.67548200  0.57315499  0.60773399  1
  Te  Te9  1  0.71507700  0.48503299  0.48440800  1
