# generated using pymatgen
data_Hg2F3
_symmetry_space_group_name_H-M   'P 1'
_cell_length_a   5.59025955
_cell_length_b   5.59025955
_cell_length_c   6.16293097
_cell_angle_alpha   105.47339630
_cell_angle_beta   105.47339630
_cell_angle_gamma   114.31529999
_symmetry_Int_Tables_number   1
_chemical_formula_structural   Hg2F3
_chemical_formula_sum   'Hg4 F6'
_cell_volume   152.80725739
_cell_formula_units_Z   2
loop_
 _symmetry_equiv_pos_site_id
 _symmetry_equiv_pos_as_xyz
  1  'x, y, z'
loop_
 _atom_site_type_symbol
 _atom_site_label
 _atom_site_symmetry_multiplicity
 _atom_site_fract_x
 _atom_site_fract_y
 _atom_site_fract_z
 _atom_site_occupancy
  F  F0  1  0.75000005  0.25000002  0.50000006  1
  F  F1  1  0.50000006  0.50000004  0.00000007  1
  Hg  Hg2  1  0.07323007  0.92677008  0.50000007  1
  Hg  Hg3  1  0.82323005  0.17677002  0.00000006  1
  F  F4  1  0.42677006  0.57323005  0.50000006  1
  Hg  Hg5  1  0.17677007  0.82323007  0.00000008  1
  Hg  Hg6  1  0.38046108  0.88046108  0.76092208  1
  F  F7  1  0.13046102  0.13046101  0.26092201  1
  F  F8  1  0.86953910  0.86953908  0.73907811  1
  F  F9  1  0.11953905  0.61953905  0.23907806  1
