# generated using pymatgen
data_HgF2
_symmetry_space_group_name_H-M   'P 1'
_cell_length_a   4.10293579
_cell_length_b   4.35227346
_cell_length_c   4.35224104
_cell_angle_alpha   119.99089813
_cell_angle_beta   90.00000000
_cell_angle_gamma   90.00000000
_symmetry_Int_Tables_number   1
_chemical_formula_structural   HgF2
_chemical_formula_sum   'Hg1 F2'
_cell_volume   67.31227857
_cell_formula_units_Z   1
loop_
 _symmetry_equiv_pos_site_id
 _symmetry_equiv_pos_as_xyz
  1  'x, y, z'
loop_
 _atom_site_type_symbol
 _atom_site_label
 _atom_site_symmetry_multiplicity
 _atom_site_fract_x
 _atom_site_fract_y
 _atom_site_fract_z
 _atom_site_occupancy
  F  F0  1  0.00000000  0.99996800  0.00000700  1
  F  F1  1  0.50000003  0.33333333  0.66666667  1
  Hg  Hg2  1  0.50000003  0.66666667  0.33333333  1
