# generated using pymatgen
data_F2
_symmetry_space_group_name_H-M   'P 1'
_cell_length_a   3.99687099
_cell_length_b   6.07787991
_cell_length_c   10.07212353
_cell_angle_alpha   90.00000000
_cell_angle_beta   90.00000000
_cell_angle_gamma   90.00000000
_symmetry_Int_Tables_number   1
_chemical_formula_structural   F2
_chemical_formula_sum   F20
_cell_volume   244.67707997
_cell_formula_units_Z   10
loop_
 _symmetry_equiv_pos_site_id
 _symmetry_equiv_pos_as_xyz
  1  'x, y, z'
loop_
 _atom_site_type_symbol
 _atom_site_label
 _atom_site_symmetry_multiplicity
 _atom_site_fract_x
 _atom_site_fract_y
 _atom_site_fract_z
 _atom_site_occupancy
  F  F0  1  0.50000000  0.34651801  0.34121802  1
  F  F1  1  0.50000000  0.65348201  0.84121804  1
  F  F2  1  0.00000000  0.16017000  0.66047203  1
  F  F3  1  0.00000000  0.83983001  0.16047201  1
  F  F4  1  0.50000000  0.42606101  0.09104000  1
  F  F5  1  0.50000000  0.57393901  0.59104003  1
  F  F6  1  0.00000000  0.06443700  0.90809504  1
  F  F7  1  0.00000000  0.93556301  0.40809502  1
  F  F8  1  0.50000000  0.08886600  0.03869400  1
  F  F9  1  0.50000000  0.91113401  0.53869403  1
  F  F10  1  0.00000000  0.37387601  0.96659605  1
  F  F11  1  0.00000000  0.62612401  0.46659602  1
  F  F12  1  0.50000000  0.58623601  0.10457800  1
  F  F13  1  0.50000000  0.41376401  0.60457803  1
  F  F14  1  0.00000000  0.90292701  0.90070704  1
  F  F15  1  0.00000000  0.09707300  0.40070702  1
  F  F16  1  0.50000000  0.10512900  0.13536001  1
  F  F17  1  0.50000000  0.89487101  0.63536003  1
  F  F18  1  0.00000000  0.38334701  0.86942804  1
  F  F19  1  0.00000000  0.61665301  0.36942802  1
