# generated using pymatgen
data_F2
_symmetry_space_group_name_H-M   'P 1'
_cell_length_a   6.35661554
_cell_length_b   6.35661554
_cell_length_c   6.35661554
_cell_angle_alpha   60.00000000
_cell_angle_beta   60.00000000
_cell_angle_gamma   60.00000000
_symmetry_Int_Tables_number   1
_chemical_formula_structural   F2
_chemical_formula_sum   F14
_cell_volume   181.61965180
_cell_formula_units_Z   7
loop_
 _symmetry_equiv_pos_site_id
 _symmetry_equiv_pos_as_xyz
  1  'x, y, z'
loop_
 _atom_site_type_symbol
 _atom_site_label
 _atom_site_symmetry_multiplicity
 _atom_site_fract_x
 _atom_site_fract_y
 _atom_site_fract_z
 _atom_site_occupancy
  F  F0  1  0.25000000  0.25000000  0.25000000  1
  F  F1  1  0.50000001  0.50000001  0.50000001  1
  F  F2  1  0.87500001  0.37500000  0.87500001  1
  F  F3  1  0.87500001  0.87500001  0.87500001  1
  F  F4  1  0.37500000  0.87500001  0.87500001  1
  F  F5  1  0.87500001  0.87500001  0.37500000  1
  F  F6  1  0.63202001  0.63202101  0.63202101  1
  F  F7  1  0.10393700  0.63202101  0.63202101  1
  F  F8  1  0.63202001  0.63202101  0.10393800  1
  F  F9  1  0.11798000  0.64606201  0.11797900  1
  F  F10  1  0.11798000  0.11797900  0.64606201  1
  F  F11  1  0.64606301  0.11797900  0.11797900  1
  F  F12  1  0.63202001  0.10393800  0.63202101  1
  F  F13  1  0.11798000  0.11797900  0.11797900  1
