# generated using pymatgen
data_F2
_symmetry_space_group_name_H-M   'P 1'
_cell_length_a   6.07601786
_cell_length_b   6.07601786
_cell_length_c   6.07601786
_cell_angle_alpha   106.18344116
_cell_angle_beta   106.18344116
_cell_angle_gamma   116.26815796
_symmetry_Int_Tables_number   1
_chemical_formula_structural   F2
_chemical_formula_sum   F12
_cell_volume   170.83384929
_cell_formula_units_Z   6
loop_
 _symmetry_equiv_pos_site_id
 _symmetry_equiv_pos_as_xyz
  1  'x, y, z'
loop_
 _atom_site_type_symbol
 _atom_site_label
 _atom_site_symmetry_multiplicity
 _atom_site_fract_x
 _atom_site_fract_y
 _atom_site_fract_z
 _atom_site_occupancy
  F  F0  1  0.74999999  0.25000000  0.49999999  1
  F  F1  1  0.00000000  0.00000000  0.00000000  1
  F  F2  1  0.50000000  0.50000000  0.00000001  1
  F  F3  1  0.25000002  0.74999999  0.50000000  1
  F  F4  1  0.67378001  0.85706099  0.18328102  1
  F  F5  1  0.67378000  0.49049900  0.81671899  1
  F  F6  1  0.50950000  0.32621900  0.18328000  1
  F  F7  1  0.07622003  0.75950099  0.68328100  1
  F  F8  1  0.07622001  0.39293900  0.31671900  1
  F  F9  1  0.14293901  0.32622000  0.81671898  1
  F  F10  1  0.60706102  0.92377999  0.68328100  1
  F  F11  1  0.24050003  0.92378099  0.31672001  1
