# generated using pymatgen
data_F2
_symmetry_space_group_name_H-M   'P 1'
_cell_length_a   4.45449209
_cell_length_b   6.94400978
_cell_length_c   7.73087406
_cell_angle_alpha   90.00000000
_cell_angle_beta   90.00000000
_cell_angle_gamma   90.00000000
_symmetry_Int_Tables_number   1
_chemical_formula_structural   F2
_chemical_formula_sum   F12
_cell_volume   239.13167986
_cell_formula_units_Z   6
loop_
 _symmetry_equiv_pos_site_id
 _symmetry_equiv_pos_as_xyz
  1  'x, y, z'
loop_
 _atom_site_type_symbol
 _atom_site_label
 _atom_site_symmetry_multiplicity
 _atom_site_fract_x
 _atom_site_fract_y
 _atom_site_fract_z
 _atom_site_occupancy
  F  F0  1  0.24999999  0.02846800  0.68242099  1
  F  F1  1  0.24999999  0.52846802  0.81757899  1
  F  F2  1  0.74999998  0.97153203  0.31757900  1
  F  F3  1  0.74999998  0.47153201  0.18242100  1
  F  F4  1  0.24999999  0.14905300  0.06539200  1
  F  F5  1  0.24999999  0.64905302  0.43460800  1
  F  F6  1  0.74999998  0.85094703  0.93460799  1
  F  F7  1  0.74999998  0.35094701  0.56539200  1
  F  F8  1  0.24999999  0.27757601  0.38557700  1
  F  F9  1  0.24999999  0.77757602  0.11442300  1
  F  F10  1  0.74999998  0.72242402  0.61442300  1
  F  F11  1  0.74999998  0.22242401  0.88557699  1
