# generated using pymatgen
data_Hg5F7
_symmetry_space_group_name_H-M   'P 1'
_cell_length_a   4.15847683
_cell_length_b   8.31903839
_cell_length_c   8.52979565
_cell_angle_alpha   119.18596649
_cell_angle_beta   90.00000000
_cell_angle_gamma   90.00000000
_symmetry_Int_Tables_number   1
_chemical_formula_structural   Hg5F7
_chemical_formula_sum   'Hg5 F7'
_cell_volume   257.62081565
_cell_formula_units_Z   1
loop_
 _symmetry_equiv_pos_site_id
 _symmetry_equiv_pos_as_xyz
  1  'x, y, z'
loop_
 _atom_site_type_symbol
 _atom_site_label
 _atom_site_symmetry_multiplicity
 _atom_site_fract_x
 _atom_site_fract_y
 _atom_site_fract_z
 _atom_site_occupancy
  Hg  Hg0  1  0.00000000  0.17023700  0.34047400  1
  F  F1  1  0.00000000  0.67048398  0.34096802  1
  F  F2  1  0.50000002  0.08371600  0.66327099  1
  F  F3  1  0.50000002  0.57955499  0.66327102  1
  Hg  Hg4  1  0.00000000  0.93245498  0.86491003  1
  Hg  Hg5  1  0.50000002  0.81402498  0.13324103  1
  F  F6  1  0.50000002  0.31921599  0.13324101  1
  Hg  Hg7  1  0.00000000  0.42791599  0.85583201  1
  Hg  Hg8  1  0.50000002  0.25052399  0.50104800  1
  F  F9  1  0.50000002  0.75065498  0.50131003  1
  F  F10  1  0.00000000  0.49962699  0.50121701  1
  F  F11  1  0.00000000  0.00159000  0.50121699  1
