# generated using pymatgen
data_F2
_symmetry_space_group_name_H-M   'P 1'
_cell_length_a   3.95928788
_cell_length_b   8.29141521
_cell_length_c   8.29141521
_cell_angle_alpha   108.69091034
_cell_angle_beta   90.00000000
_cell_angle_gamma   90.00000000
_symmetry_Int_Tables_number   1
_chemical_formula_structural   F2
_chemical_formula_sum   F14
_cell_volume   257.83633864
_cell_formula_units_Z   7
loop_
 _symmetry_equiv_pos_site_id
 _symmetry_equiv_pos_as_xyz
  1  'x, y, z'
loop_
 _atom_site_type_symbol
 _atom_site_label
 _atom_site_symmetry_multiplicity
 _atom_site_fract_x
 _atom_site_fract_y
 _atom_site_fract_z
 _atom_site_occupancy
  F  F0  1  0.50000001  0.78733998  0.78733998  1
  F  F1  1  1.00000003  0.36218199  0.63781798  1
  F  F2  1  0.50000001  0.21266000  0.21265999  1
  F  F3  1  -0.00000000  0.63781799  0.36218198  1
  F  F4  1  0.50000001  0.49999999  -0.00000001  1
  F  F5  1  0.50000001  0.00000000  0.49999999  1
  F  F6  1  -0.00000000  0.34431299  0.34431299  1
  F  F7  1  -0.00000000  0.65568699  0.65568698  1
  F  F8  1  0.50000001  0.50528299  0.15061699  1
  F  F9  1  0.50000001  0.49471699  0.84938298  1
  F  F10  1  0.50000001  0.84938298  0.49471698  1
  F  F11  1  0.50000001  0.15061700  0.50528299  1
  F  F12  1  -0.00000000  0.87812498  0.12187499  1
  F  F13  1  -0.00000000  0.12187500  0.87812498  1
