# generated using pymatgen
data_F2
_symmetry_space_group_name_H-M   'P 1'
_cell_length_a   7.13346148
_cell_length_b   7.13346148
_cell_length_c   7.13346148
_cell_angle_alpha   60.00000000
_cell_angle_beta   60.00000000
_cell_angle_gamma   60.00000000
_symmetry_Int_Tables_number   1
_chemical_formula_structural   F2
_chemical_formula_sum   F14
_cell_volume   256.67641368
_cell_formula_units_Z   7
loop_
 _symmetry_equiv_pos_site_id
 _symmetry_equiv_pos_as_xyz
  1  'x, y, z'
loop_
 _atom_site_type_symbol
 _atom_site_label
 _atom_site_symmetry_multiplicity
 _atom_site_fract_x
 _atom_site_fract_y
 _atom_site_fract_z
 _atom_site_occupancy
  F  F0  1  0.87500000  0.37500000  0.87500000  1
  F  F1  1  0.87500000  0.87500000  0.87500000  1
  F  F2  1  0.37500000  0.87500000  0.87500000  1
  F  F3  1  0.87500000  0.87500000  0.37500000  1
  F  F4  1  0.25000000  0.25000000  0.25000000  1
  F  F5  1  0.50000000  0.50000000  0.50000000  1
  F  F6  1  0.11524400  0.11524500  0.65426600  1
  F  F7  1  0.09573500  0.63475500  0.63475500  1
  F  F8  1  0.65426500  0.11524500  0.11524500  1
  F  F9  1  0.63475600  0.63475500  0.09573400  1
  F  F10  1  0.63475600  0.63475500  0.63475500  1
  F  F11  1  0.63475600  0.09573400  0.63475500  1
  F  F12  1  0.11524400  0.11524500  0.11524500  1
  F  F13  1  0.11524400  0.65426600  0.11524500  1
