# generated using pymatgen
data_F2
_symmetry_space_group_name_H-M   'P 1'
_cell_length_a   4.76147795
_cell_length_b   5.77056885
_cell_length_c   7.06238890
_cell_angle_alpha   90.00000000
_cell_angle_beta   107.91654205
_cell_angle_gamma   90.00000000
_symmetry_Int_Tables_number   1
_chemical_formula_structural   F2
_chemical_formula_sum   F10
_cell_volume   184.63898049
_cell_formula_units_Z   5
loop_
 _symmetry_equiv_pos_site_id
 _symmetry_equiv_pos_as_xyz
  1  'x, y, z'
loop_
 _atom_site_type_symbol
 _atom_site_label
 _atom_site_symmetry_multiplicity
 _atom_site_fract_x
 _atom_site_fract_y
 _atom_site_fract_z
 _atom_site_occupancy
  F  F0  1  0.65407101  0.25000001  0.29472702  1
  F  F1  1  0.34592901  0.75000002  0.70527302  1
  F  F2  1  0.06474100  0.75000002  0.16356201  1
  F  F3  1  0.93525902  0.25000001  0.83643804  1
  F  F4  1  0.82710302  0.01745900  0.67549004  1
  F  F5  1  0.17289700  0.51745901  0.32451001  1
  F  F6  1  0.17289700  0.98254103  0.32451001  1
  F  F7  1  0.82710302  0.48254101  0.67549004  1
  F  F8  1  0.31371001  0.25000001  0.88614803  1
  F  F9  1  0.68629002  0.75000002  0.11385202  1
