# generated using pymatgen
data_HgF8
_symmetry_space_group_name_H-M   'P 1'
_cell_length_a   4.09600306
_cell_length_b   7.53384781
_cell_length_c   7.53384829
_cell_angle_alpha   120.00000000
_cell_angle_beta   90.00000000
_cell_angle_gamma   90.00000000
_symmetry_Int_Tables_number   1
_chemical_formula_structural   HgF8
_chemical_formula_sum   'Hg1 F8'
_cell_volume   201.33747450
_cell_formula_units_Z   1
loop_
 _symmetry_equiv_pos_site_id
 _symmetry_equiv_pos_as_xyz
  1  'x, y, z'
loop_
 _atom_site_type_symbol
 _atom_site_label
 _atom_site_symmetry_multiplicity
 _atom_site_fract_x
 _atom_site_fract_y
 _atom_site_fract_z
 _atom_site_occupancy
  F  F0  1  0.00000000  1.00000003  0.41307401  1
  F  F1  1  0.00000000  0.41307401  1.00000000  1
  F  F2  1  0.99999999  0.58692602  0.58692601  1
  F  F3  1  0.49999999  1.00000003  0.75717801  1
  F  F4  1  0.49999999  0.75717803  1.00000000  1
  F  F5  1  0.49999999  0.24282201  0.24282200  1
  F  F6  1  0.49999999  0.66666669  0.33333334  1
  F  F7  1  0.49999999  0.33333334  0.66666667  1
  Hg  Hg8  1  0.00000000  0.00000000  0.00000000  1
