# generated using pymatgen
data_HgF2
_symmetry_space_group_name_H-M   'P 1'
_cell_length_a   4.44146299
_cell_length_b   5.42871380
_cell_length_c   5.42871380
_cell_angle_alpha   120.00000000
_cell_angle_beta   90.00000000
_cell_angle_gamma   90.00000000
_symmetry_Int_Tables_number   1
_chemical_formula_structural   HgF2
_chemical_formula_sum   'Hg2 F4'
_cell_volume   113.35758165
_cell_formula_units_Z   2
loop_
 _symmetry_equiv_pos_site_id
 _symmetry_equiv_pos_as_xyz
  1  'x, y, z'
loop_
 _atom_site_type_symbol
 _atom_site_label
 _atom_site_symmetry_multiplicity
 _atom_site_fract_x
 _atom_site_fract_y
 _atom_site_fract_z
 _atom_site_occupancy
  F  F0  1  0.00000000  0.00000000  0.00000000  1
  F  F1  1  1.00000000  0.66666668  0.33333332  1
  Hg  Hg2  1  0.00000000  0.33333334  0.66666666  1
  Hg  Hg3  1  0.50000000  0.50000001  0.49999999  1
  F  F4  1  0.50000000  0.50000001  -0.00000001  1
  F  F5  1  0.50000000  0.00000000  0.50000000  1
