# generated using pymatgen
data_Te3Br2F
_symmetry_space_group_name_H-M   'P 1'
_cell_length_a   3.32354593
_cell_length_b   3.32354569
_cell_length_c   37.82531357
_cell_angle_alpha   90.00000000
_cell_angle_beta   90.00000000
_cell_angle_gamma   120.00000000
_symmetry_Int_Tables_number   1
_chemical_formula_structural   Te3Br2F
_chemical_formula_sum   'Te6 Br4 F2'
_cell_volume   361.83994445
_cell_formula_units_Z   2
loop_
 _symmetry_equiv_pos_site_id
 _symmetry_equiv_pos_as_xyz
  1  'x, y, z'
loop_
 _atom_site_type_symbol
 _atom_site_label
 _atom_site_symmetry_multiplicity
 _atom_site_fract_x
 _atom_site_fract_y
 _atom_site_fract_z
 _atom_site_occupancy
  Br  Br0  1  0.00000000  0.00000000  0.90607903  1
  Te  Te1  1  0.66666666  0.33333333  0.71820003  1
  F  F2  1  0.66666666  0.33333333  0.34245901  1
  Te  Te3  1  0.00000000  0.00000000  0.53034002  1
  Te  Te4  1  0.00000000  0.00000000  0.67388703  1
  Br  Br5  1  0.00000000  0.00000000  0.29815901  1
  Br  Br6  1  0.66666666  0.33333333  0.95037704  1
  Te  Te7  1  0.66666666  0.33333333  0.57486202  1
  Br  Br8  1  0.66666666  0.33333333  0.86177003  1
  Te  Te9  1  0.66666666  0.33333333  0.48582302  1
  F  F10  1  0.00000000  0.00000000  0.76251803  1
  Te  Te11  1  0.00000000  0.00000000  0.38677701  1
