# generated using pymatgen
data_F2
_symmetry_space_group_name_H-M   'P 1'
_cell_length_a   4.90985584
_cell_length_b   4.90985584
_cell_length_c   5.35010481
_cell_angle_alpha   90.00000000
_cell_angle_beta   90.00000000
_cell_angle_gamma   90.00000000
_symmetry_Int_Tables_number   1
_chemical_formula_structural   F2
_chemical_formula_sum   F16
_cell_volume   128.97328811
_cell_formula_units_Z   8
loop_
 _symmetry_equiv_pos_site_id
 _symmetry_equiv_pos_as_xyz
  1  'x, y, z'
loop_
 _atom_site_type_symbol
 _atom_site_label
 _atom_site_symmetry_multiplicity
 _atom_site_fract_x
 _atom_site_fract_y
 _atom_site_fract_z
 _atom_site_occupancy
  F  F0  1  0.00000000  0.00000000  0.50192502  1
  F  F1  1  0.00000000  0.00000000  0.00192500  1
  F  F2  1  0.50000002  0.50000002  0.50870102  1
  F  F3  1  0.50000002  0.50000002  0.00870100  1
  F  F4  1  0.50000002  0.00000000  0.47118102  1
  F  F5  1  0.00000000  0.50000002  0.97118103  1
  F  F6  1  0.50000002  0.00000000  0.04580300  1
  F  F7  1  0.00000000  0.50000002  0.54580302  1
  F  F8  1  0.22800001  0.46064501  0.25666101  1
  F  F9  1  0.77200002  0.53935502  0.25666101  1
  F  F10  1  0.46064501  0.77200002  0.75666103  1
  F  F11  1  0.53935502  0.22800001  0.75666103  1
  F  F12  1  0.25018801  0.74457902  0.75763503  1
  F  F13  1  0.74981202  0.25542101  0.75763503  1
  F  F14  1  0.74457902  0.74981202  0.25763501  1
  F  F15  1  0.25542101  0.25018801  0.25763501  1
