# generated using pymatgen
data_HgF9
_symmetry_space_group_name_H-M   'P 1'
_cell_length_a   7.07672930
_cell_length_b   7.07672882
_cell_length_c   7.07672882
_cell_angle_alpha   60.00000000
_cell_angle_beta   60.00000000
_cell_angle_gamma   60.00000381
_symmetry_Int_Tables_number   1
_chemical_formula_structural   HgF9
_chemical_formula_sum   'Hg1 F9'
_cell_volume   250.60094562
_cell_formula_units_Z   1
loop_
 _symmetry_equiv_pos_site_id
 _symmetry_equiv_pos_as_xyz
  1  'x, y, z'
loop_
 _atom_site_type_symbol
 _atom_site_label
 _atom_site_symmetry_multiplicity
 _atom_site_fract_x
 _atom_site_fract_y
 _atom_site_fract_z
 _atom_site_occupancy
  F  F0  1  0.75000001  0.74999999  0.74999995  1
  Hg  Hg1  1  0.25000000  0.25000000  0.24999998  1
  F  F2  1  0.50000001  0.50000000  0.49999997  1
  F  F3  1  0.00000000  0.00000000  0.00000000  1
  F  F4  1  0.19847702  0.80152299  0.80152296  1
  F  F5  1  0.80152301  0.80152299  0.19847696  1
  F  F6  1  0.80152300  0.19847700  0.19847698  1
  F  F7  1  0.19847702  0.80152299  0.19847697  1
  F  F8  1  0.80152300  0.19847700  0.80152297  1
  F  F9  1  0.19847700  0.19847700  0.80152297  1
