# generated using pymatgen
data_HgF4
_symmetry_space_group_name_H-M   'P 1'
_cell_length_a   3.44014192
_cell_length_b   9.91975880
_cell_length_c   10.51197052
_cell_angle_alpha   94.58743286
_cell_angle_beta   90.00000000
_cell_angle_gamma   99.98547363
_symmetry_Int_Tables_number   1
_chemical_formula_structural   HgF4
_chemical_formula_sum   'Hg3 F12'
_cell_volume   352.12398198
_cell_formula_units_Z   3
loop_
 _symmetry_equiv_pos_site_id
 _symmetry_equiv_pos_as_xyz
  1  'x, y, z'
loop_
 _atom_site_type_symbol
 _atom_site_label
 _atom_site_symmetry_multiplicity
 _atom_site_fract_x
 _atom_site_fract_y
 _atom_site_fract_z
 _atom_site_occupancy
  F  F0  1  0.86685207  0.73370402  0.27181001  1
  Hg  Hg1  1  0.66437804  0.32875601  0.67769699  1
  Hg  Hg2  1  0.47425108  0.94850202  0.05767402  1
  F  F3  1  0.26961705  0.53923401  0.46697500  1
  F  F4  1  0.06783301  0.13566600  0.87097898  1
  F  F5  1  0.60405003  0.20810001  0.04801900  1
  F  F6  1  0.40213307  0.80426602  0.45211201  1
  F  F7  1  0.99946310  0.99892602  0.24532302  1
  F  F8  1  0.19892903  0.39785801  0.85587699  1
  F  F9  1  0.79766206  0.59532401  0.65186600  1
  F  F10  1  0.26820205  0.53640401  0.21881201  1
  F  F11  1  0.06697801  0.13395600  0.62542499  1
  Hg  Hg12  1  0.87229607  0.74459202  0.02298402  1
  F  F13  1  0.66913604  0.33827201  0.42767600  1
  F  F14  1  0.47086308  0.94172602  0.81517100  1
