# generated using pymatgen
data_F2
_symmetry_space_group_name_H-M   'P 1'
_cell_length_a   4.37060785
_cell_length_b   4.37060738
_cell_length_c   17.82438850
_cell_angle_alpha   90.00000000
_cell_angle_beta   90.00000000
_cell_angle_gamma   120.00000000
_symmetry_Int_Tables_number   1
_chemical_formula_structural   F2
_chemical_formula_sum   F10
_cell_volume   294.86885769
_cell_formula_units_Z   5
loop_
 _symmetry_equiv_pos_site_id
 _symmetry_equiv_pos_as_xyz
  1  'x, y, z'
loop_
 _atom_site_type_symbol
 _atom_site_label
 _atom_site_symmetry_multiplicity
 _atom_site_fract_x
 _atom_site_fract_y
 _atom_site_fract_z
 _atom_site_occupancy
  F  F0  1  0.00000000  0.00000000  0.89424402  1
  F  F1  1  0.00000000  0.00000000  0.10575600  1
  F  F2  1  0.00000000  0.00000000  0.39424401  1
  F  F3  1  0.00000000  0.00000000  0.60575602  1
  F  F4  1  0.66666666  0.33333333  0.49918401  1
  F  F5  1  0.33333330  0.66666666  0.50081601  1
  F  F6  1  0.33333330  0.66666666  0.99918403  1
  F  F7  1  0.66666666  0.33333333  0.00081600  1
  F  F8  1  0.66666666  0.33333333  0.75000002  1
  F  F9  1  0.33333330  0.66666666  0.25000001  1
