# generated using pymatgen
data_F2
_symmetry_space_group_name_H-M   'P 1'
_cell_length_a   5.06085300
_cell_length_b   6.64972067
_cell_length_c   6.64972067
_cell_angle_alpha   101.23802948
_cell_angle_beta   90.00000000
_cell_angle_gamma   90.00000000
_symmetry_Int_Tables_number   1
_chemical_formula_structural   F2
_chemical_formula_sum   F14
_cell_volume   219.49392567
_cell_formula_units_Z   7
loop_
 _symmetry_equiv_pos_site_id
 _symmetry_equiv_pos_as_xyz
  1  'x, y, z'
loop_
 _atom_site_type_symbol
 _atom_site_label
 _atom_site_symmetry_multiplicity
 _atom_site_fract_x
 _atom_site_fract_y
 _atom_site_fract_z
 _atom_site_occupancy
  F  F0  1  0.75000000  0.83049000  0.59556697  1
  F  F1  1  0.25000000  0.10677800  0.89322200  1
  F  F2  1  0.25000000  0.59556700  0.83048998  1
  F  F3  1  0.75000000  0.89322200  0.10677796  1
  F  F4  1  0.25000000  0.16951000  0.40443300  1
  F  F5  1  0.75000000  0.40443300  0.16950998  1
  F  F6  1  0.25000000  0.69579500  0.30420497  1
  F  F7  1  0.75000000  0.30420500  0.69579499  1
  F  F8  1  0.25000000  0.81801000  0.56568597  1
  F  F9  1  0.75000000  0.12697800  0.87302200  1
  F  F10  1  0.25000000  0.87302200  0.12697796  1
  F  F11  1  0.75000000  0.56568600  0.81800998  1
  F  F12  1  0.75000000  0.18199000  0.43431400  1
  F  F13  1  0.25000000  0.43431400  0.18198998  1
