# generated using pymatgen
data_F2
_symmetry_space_group_name_H-M   'P 1'
_cell_length_a   4.46162891
_cell_length_b   7.35470533
_cell_length_c   9.62748623
_cell_angle_alpha   101.79833984
_cell_angle_beta   102.99842834
_cell_angle_gamma   107.10823822
_symmetry_Int_Tables_number   1
_chemical_formula_structural   F2
_chemical_formula_sum   F18
_cell_volume   281.50281258
_cell_formula_units_Z   9
loop_
 _symmetry_equiv_pos_site_id
 _symmetry_equiv_pos_as_xyz
  1  'x, y, z'
loop_
 _atom_site_type_symbol
 _atom_site_label
 _atom_site_symmetry_multiplicity
 _atom_site_fract_x
 _atom_site_fract_y
 _atom_site_fract_z
 _atom_site_occupancy
  F  F0  1  0.43390194  0.64921100  0.21820698  1
  F  F1  1  0.54375198  0.33594800  0.78415197  1
  F  F2  1  0.22901394  0.66545400  0.40357397  1
  F  F3  1  0.86571195  0.67140900  0.40471697  1
  F  F4  1  0.78965498  0.32900300  0.60098597  1
  F  F5  1  0.15756397  0.33088000  0.60034298  1
  F  F6  1  0.55425093  0.86542800  0.32164997  1
  F  F7  1  0.36578399  0.12513900  0.67262298  1
  F  F8  1  0.00677795  0.49973300  0.50335798  1
  F  F9  1  0.13457700  0.00098200  0.00086000  1
  F  F10  1  0.31213900  0.09860900  0.25947699  1
  F  F11  1  0.93552493  0.90359200  0.74269795  1
  F  F12  1  0.97849195  0.67057800  0.99641795  1
  F  F13  1  0.32607697  0.33147800  0.00484099  1
  F  F14  1  0.53053094  0.72807300  0.32394297  1
  F  F15  1  0.47243898  0.26492100  0.67701697  1
  F  F16  1  0.06108394  0.64611400  0.45881598  1
  F  F17  1  0.95742098  0.35414700  0.54662097  1
