# generated using pymatgen
data_PrDyY(Al2Ga)2
_symmetry_space_group_name_H-M   'P 1'
_cell_length_a   4.07440376
_cell_length_b   7.46801376
_cell_length_c   7.46801424
_cell_angle_alpha   120.00000000
_cell_angle_beta   90.00000000
_cell_angle_gamma   90.00000000
_symmetry_Int_Tables_number   1
_chemical_formula_structural   PrDyY(Al2Ga)2
_chemical_formula_sum   'Pr1 Y1 Dy1 Al4 Ga2'
_cell_volume   196.79086878
_cell_formula_units_Z   1
loop_
 _symmetry_equiv_pos_site_id
 _symmetry_equiv_pos_as_xyz
  1  'x, y, z'
loop_
 _atom_site_type_symbol
 _atom_site_label
 _atom_site_symmetry_multiplicity
 _atom_site_fract_x
 _atom_site_fract_y
 _atom_site_fract_z
 _atom_site_occupancy
  Y  Y0  1  0.00000000  0.00000000  0.58862599  1
  Dy  Dy1  1  1.00000006  0.58862602  0.00000001  1
  Pr  Pr2  1  1.00000006  0.41137402  0.41137400  1
  Al  Al3  1  0.50000003  0.33333335  0.66666666  1
  Al  Al4  1  0.00000000  0.00000000  0.00000000  1
  Al  Al5  1  0.50000003  0.66666669  0.33333334  1
  Al  Al6  1  0.50000003  0.24937601  0.99999999  1
  Ga  Ga7  1  0.50000003  0.00000000  0.24937600  1
  Ga  Ga8  1  0.50000003  0.75062403  0.75062400  1
