# generated using pymatgen
data_NaSr2TiCuNiO9
_symmetry_space_group_name_H-M   'P 1'
_cell_length_a   5.56480980
_cell_length_b   5.56480932
_cell_length_c   6.81819487
_cell_angle_alpha   90.00000000
_cell_angle_beta   90.00000000
_cell_angle_gamma   120.00000763
_symmetry_Int_Tables_number   1
_chemical_formula_structural   NaSr2TiCuNiO9
_chemical_formula_sum   'Na1 Sr2 Ti1 Cu1 Ni1 O9'
_cell_volume   182.85238132
_cell_formula_units_Z   1
loop_
 _symmetry_equiv_pos_site_id
 _symmetry_equiv_pos_as_xyz
  1  'x, y, z'
loop_
 _atom_site_type_symbol
 _atom_site_label
 _atom_site_symmetry_multiplicity
 _atom_site_fract_x
 _atom_site_fract_y
 _atom_site_fract_z
 _atom_site_occupancy
  Na  Na0  1  0.33333339  0.66666668  0.17388300  1
  Sr  Sr1  1  0.66666671  0.33333334  0.82611702  1
  Sr  Sr2  1  0.00000000  0.00000000  0.50000001  1
  Ti  Ti3  1  0.33333339  0.66666668  0.65891801  1
  Cu  Cu4  1  0.66666671  0.33333334  0.34108201  1
  Ni  Ni5  1  0.00000000  0.00000000  0.00000000  1
  O  O6  1  0.50000002  0.00000000  0.50000001  1
  O  O7  1  0.83865708  0.67731402  0.17074900  1
  O  O8  1  0.16134303  0.32268601  0.82925102  1
  O  O9  1  0.32268702  0.16134400  0.17074900  1
  O  O10  1  0.67731308  0.83865602  0.82925102  1
  O  O11  1  0.00000003  0.50000001  0.50000001  1
  O  O12  1  0.50000005  0.50000001  0.50000001  1
  O  O13  1  0.83865704  0.16134400  0.17074900  1
  O  O14  1  0.16134306  0.83865602  0.82925102  1
