# generated using pymatgen
data_EuYMgInGe3Au2
_symmetry_space_group_name_H-M   'P 1'
_cell_length_a   4.65858793
_cell_length_b   5.74821377
_cell_length_c   9.60977936
_cell_angle_alpha   73.30950928
_cell_angle_beta   75.97248077
_cell_angle_gamma   66.09505463
_symmetry_Int_Tables_number   1
_chemical_formula_structural   EuYMgInGe3Au2
_chemical_formula_sum   'Eu1 Y1 Mg1 In1 Ge3 Au2'
_cell_volume   223.00479721
_cell_formula_units_Z   1
loop_
 _symmetry_equiv_pos_site_id
 _symmetry_equiv_pos_as_xyz
  1  'x, y, z'
loop_
 _atom_site_type_symbol
 _atom_site_label
 _atom_site_symmetry_multiplicity
 _atom_site_fract_x
 _atom_site_fract_y
 _atom_site_fract_z
 _atom_site_occupancy
  Y  Y0  1  0.09957800  0.18596099  0.61488299  1
  Eu  Eu1  1  0.90042203  0.81403898  0.38511699  1
  Mg  Mg2  1  0.75489802  0.65498298  0.83522098  1
  In  In3  1  0.24510201  0.34501699  0.16477900  1
  Ge  Ge4  1  0.00000000  0.00000000  0.00000000  1
  Ge  Ge5  1  0.45649601  0.25913099  0.82787698  1
  Ge  Ge6  1  0.54350402  0.74086898  0.17212299  1
  Au  Au7  1  0.39258401  0.60903698  0.60579499  1
  Au  Au8  1  0.60741602  0.39096299  0.39420499  1
