# generated using pymatgen
data_NaLi4Cu2O11
_symmetry_space_group_name_H-M   'P 1'
_cell_length_a   3.79223609
_cell_length_b   7.14001799
_cell_length_c   7.14001799
_cell_angle_alpha   90.00000000
_cell_angle_beta   90.00000000
_cell_angle_gamma   90.00000000
_symmetry_Int_Tables_number   1
_chemical_formula_structural   NaLi4Cu2O11
_chemical_formula_sum   'Na1 Li4 Cu2 O11'
_cell_volume   193.32765297
_cell_formula_units_Z   1
loop_
 _symmetry_equiv_pos_site_id
 _symmetry_equiv_pos_as_xyz
  1  'x, y, z'
loop_
 _atom_site_type_symbol
 _atom_site_label
 _atom_site_symmetry_multiplicity
 _atom_site_fract_x
 _atom_site_fract_y
 _atom_site_fract_z
 _atom_site_occupancy
  Li  Li0  1  0.00000000  0.00000000  0.00000000  1
  Na  Na1  1  0.49999999  0.50000000  0.50000000  1
  Li  Li2  1  0.89472298  0.38523300  0.14312100  1
  Li  Li3  1  0.89472298  0.61476700  0.85687900  1
  Li  Li4  1  0.39472299  0.35687900  0.88523300  1
  Cu  Cu5  1  0.39472299  0.64312100  0.11476700  1
  Cu  Cu6  1  0.60527699  0.11476700  0.35687900  1
  O  O7  1  0.60527699  0.88523300  0.64312100  1
  O  O8  1  0.10527700  0.14312100  0.61476700  1
  O  O9  1  0.10527700  0.85687900  0.38523300  1
  O  O10  1  0.10297600  0.79361100  0.66064000  1
  O  O11  1  0.10297600  0.20638900  0.33936000  1
  O  O12  1  0.60297599  0.83936000  0.29361100  1
  O  O13  1  0.60297599  0.16064000  0.70638900  1
  O  O14  1  0.39702399  0.70638900  0.83936000  1
  O  O15  1  0.39702399  0.29361100  0.16064000  1
  O  O16  1  0.89702398  0.66064000  0.20638900  1
  O  O17  1  0.89702398  0.33936000  0.79361100  1
