# generated using pymatgen
data_LaYIn2Au
_symmetry_space_group_name_H-M   'P 1'
_cell_length_a   4.84614992
_cell_length_b   4.84614992
_cell_length_c   7.86137199
_cell_angle_alpha   90.00000000
_cell_angle_beta   90.00000000
_cell_angle_gamma   120.00000000
_symmetry_Int_Tables_number   1
_chemical_formula_structural   LaYIn2Au
_chemical_formula_sum   'La1 Y1 In2 Au1'
_cell_volume   159.89050338
_cell_formula_units_Z   1
loop_
 _symmetry_equiv_pos_site_id
 _symmetry_equiv_pos_as_xyz
  1  'x, y, z'
loop_
 _atom_site_type_symbol
 _atom_site_label
 _atom_site_symmetry_multiplicity
 _atom_site_fract_x
 _atom_site_fract_y
 _atom_site_fract_z
 _atom_site_occupancy
  Y  Y0  1  0.00000000  0.00000000  0.00000000  1
  La  La1  1  0.33333334  0.66666668  0.37200200  1
  In  In2  1  0.66666668  0.33333334  0.62799800  1
  In  In3  1  0.33333334  0.66666668  0.75497700  1
  Au  Au4  1  0.66666668  0.33333334  0.24502300  1
