# generated using pymatgen
data_La3Mg2In
_symmetry_space_group_name_H-M   'P 1'
_cell_length_a   4.09184599
_cell_length_b   6.07456112
_cell_length_c   9.58572769
_cell_angle_alpha   90.00000000
_cell_angle_beta   102.32368469
_cell_angle_gamma   90.00000000
_symmetry_Int_Tables_number   1
_chemical_formula_structural   La3Mg2In
_chemical_formula_sum   'La3 Mg2 In1'
_cell_volume   232.77423746
_cell_formula_units_Z   1
loop_
 _symmetry_equiv_pos_site_id
 _symmetry_equiv_pos_as_xyz
  1  'x, y, z'
loop_
 _atom_site_type_symbol
 _atom_site_label
 _atom_site_symmetry_multiplicity
 _atom_site_fract_x
 _atom_site_fract_y
 _atom_site_fract_z
 _atom_site_occupancy
  Mg  Mg0  1  0.22790800  0.25000000  0.45581601  1
  La  La1  1  0.91668600  0.25000000  0.83337200  1
  Mg  Mg2  1  0.77209200  0.74999999  0.54418400  1
  La  La3  1  0.08331400  0.74999999  0.16662800  1
  In  In4  1  0.57051000  0.25000000  0.14101999  1
  La  La5  1  0.42949000  0.74999999  0.85898001  1
