# generated using pymatgen
data_TlCu3Sb4(SeS)6
_symmetry_space_group_name_H-M   'P 1'
_cell_length_a   3.87034011
_cell_length_b   11.23080063
_cell_length_c   12.13389683
_cell_angle_alpha   90.00000000
_cell_angle_beta   90.00000000
_cell_angle_gamma   90.00000000
_symmetry_Int_Tables_number   1
_chemical_formula_structural   TlCu3Sb4(SeS)6
_chemical_formula_sum   'Tl1 Cu3 Sb4 Se6 S6'
_cell_volume   527.42431337
_cell_formula_units_Z   1
loop_
 _symmetry_equiv_pos_site_id
 _symmetry_equiv_pos_as_xyz
  1  'x, y, z'
loop_
 _atom_site_type_symbol
 _atom_site_label
 _atom_site_symmetry_multiplicity
 _atom_site_fract_x
 _atom_site_fract_y
 _atom_site_fract_z
 _atom_site_occupancy
  Cu  Cu0  1  0.74999998  0.46659602  0.85905401  1
  Tl  Tl1  1  0.24999999  0.53340402  0.14094600  1
  Cu  Cu2  1  0.24999999  0.96659603  0.64094601  1
  Cu  Cu3  1  0.74999998  0.03340400  0.35905401  1
  Sb  Sb4  1  0.24999999  0.17181001  0.96603801  1
  Sb  Sb5  1  0.74999998  0.82819003  0.03396200  1
  Sb  Sb6  1  0.74999998  0.67181002  0.53396201  1
  Sb  Sb7  1  0.24999999  0.32819001  0.46603801  1
  Se  Se8  1  0.74999998  0.05716500  0.87589601  1
  Se  Se9  1  0.24999999  0.94283503  0.12410400  1
  Se  Se10  1  0.24999999  0.55716502  0.62410401  1
  Se  Se11  1  0.74999998  0.44283501  0.37589601  1
  Se  Se12  1  0.74999998  0.37510701  0.04529100  1
  Se  Se13  1  0.24999999  0.62489302  0.95470901  1
  S  S14  1  0.24999999  0.87510703  0.45470901  1
  S  S15  1  0.74999998  0.12489300  0.54529101  1
  S  S16  1  0.24999999  0.18794001  0.30080000  1
  S  S17  1  0.74999998  0.81206003  0.69920001  1
  S  S18  1  0.74999998  0.68794002  0.19920000  1
  S  S19  1  0.24999999  0.31206001  0.80080001  1
