# generated using pymatgen
data_Li2O2
_symmetry_space_group_name_H-M   'P 1'
_cell_length_a   6.31223059
_cell_length_b   6.31223059
_cell_length_c   6.31223059
_cell_angle_alpha   60.00000000
_cell_angle_beta   60.00000000
_cell_angle_gamma   60.00000000
_symmetry_Int_Tables_number   1
_chemical_formula_structural   Li2O2
_chemical_formula_sum   'Li7 O7'
_cell_volume   177.84168651
_cell_formula_units_Z   3
loop_
 _symmetry_equiv_pos_site_id
 _symmetry_equiv_pos_as_xyz
  1  'x, y, z'
loop_
 _atom_site_type_symbol
 _atom_site_label
 _atom_site_symmetry_multiplicity
 _atom_site_fract_x
 _atom_site_fract_y
 _atom_site_fract_z
 _atom_site_occupancy
  Li  Li0  1  0.74999999  0.74999999  0.74999999  1
  Li  Li1  1  0.00000000  0.00000000  0.00000000  1
  Li  Li2  1  0.37500000  0.87499999  0.37500000  1
  Li  Li3  1  0.37500000  0.37500000  0.37500000  1
  Li  Li4  1  0.37500000  0.37500000  0.87499999  1
  Li  Li5  1  0.87499999  0.37500000  0.37500000  1
  Li  Li6  1  0.14346500  0.56960699  0.14346400  1
  O  O7  1  0.14346500  0.14346400  0.14346400  1
  O  O8  1  0.14346500  0.14346400  0.56960699  1
  O  O9  1  0.56960799  0.14346400  0.14346400  1
  O  O10  1  0.60653499  0.18039300  0.60653599  1
  O  O11  1  0.60653499  0.60653599  0.60653599  1
  O  O12  1  0.60653499  0.60653599  0.18039300  1
  O  O13  1  0.18039200  0.60653599  0.60653599  1
