# generated using pymatgen
data_KRbNCl
_symmetry_space_group_name_H-M   'P 1'
_cell_length_a   4.37771082
_cell_length_b   4.37771082
_cell_length_c   8.61063385
_cell_angle_alpha   75.27359009
_cell_angle_beta   75.27359009
_cell_angle_gamma   59.99998856
_symmetry_Int_Tables_number   1
_chemical_formula_structural   KRbNCl
_chemical_formula_sum   'Rb1 K1 N1 Cl1'
_cell_volume   136.61395612
_cell_formula_units_Z   1
loop_
 _symmetry_equiv_pos_site_id
 _symmetry_equiv_pos_as_xyz
  1  'x, y, z'
loop_
 _atom_site_type_symbol
 _atom_site_label
 _atom_site_symmetry_multiplicity
 _atom_site_fract_x
 _atom_site_fract_y
 _atom_site_fract_z
 _atom_site_occupancy
  Rb  Rb0  1  0.50000001  0.49999999  0.49999999  1
  K  K1  1  0.00000000  0.00000000  0.00000000  1
  N  N2  1  0.76398701  0.76398699  0.70803899  1
  Cl  Cl3  1  0.23601300  0.23601300  0.29196100  1
