# generated using pymatgen
data_ErAl3(GaSi)2
_symmetry_space_group_name_H-M   'P 1'
_cell_length_a   4.10202122
_cell_length_b   4.10202122
_cell_length_c   10.19306374
_cell_angle_alpha   90.00000000
_cell_angle_beta   90.00000000
_cell_angle_gamma   90.00000000
_symmetry_Int_Tables_number   1
_chemical_formula_structural   ErAl3(GaSi)2
_chemical_formula_sum   'Er1 Al3 Ga2 Si2'
_cell_volume   171.51438270
_cell_formula_units_Z   1
loop_
 _symmetry_equiv_pos_site_id
 _symmetry_equiv_pos_as_xyz
  1  'x, y, z'
loop_
 _atom_site_type_symbol
 _atom_site_label
 _atom_site_symmetry_multiplicity
 _atom_site_fract_x
 _atom_site_fract_y
 _atom_site_fract_z
 _atom_site_occupancy
  Al  Al0  1  0.49999997  0.00000000  0.77880902  1
  Er  Er1  1  0.00000000  0.49999997  0.22119101  1
  Al  Al2  1  0.49999997  0.49999997  0.50000001  1
  Al  Al3  1  0.00000000  0.00000000  0.50000001  1
  Ga  Ga4  1  0.49999997  0.00000000  0.31150401  1
  Si  Si5  1  0.00000000  0.49999997  0.68849602  1
  Ga  Ga6  1  0.49999997  0.49999997  -0.00000000  1
  Si  Si7  1  0.00000000  0.00000000  0.00000000  1
