# generated using pymatgen
data_EuAlCrBC8
_symmetry_space_group_name_H-M   'P 1'
_cell_length_a   4.20129395
_cell_length_b   5.30136013
_cell_length_c   5.30136061
_cell_angle_alpha   60.00000381
_cell_angle_beta   90.00000000
_cell_angle_gamma   90.00000000
_symmetry_Int_Tables_number   1
_chemical_formula_structural   EuAlCrBC8
_chemical_formula_sum   'Eu1 Al1 Cr1 B1 C8'
_cell_volume   102.25589890
_cell_formula_units_Z   1
loop_
 _symmetry_equiv_pos_site_id
 _symmetry_equiv_pos_as_xyz
  1  'x, y, z'
loop_
 _atom_site_type_symbol
 _atom_site_label
 _atom_site_symmetry_multiplicity
 _atom_site_fract_x
 _atom_site_fract_y
 _atom_site_fract_z
 _atom_site_occupancy
  Eu  Eu0  1  0.10385100  0.66666665  0.66666666  1
  Al  Al1  1  0.50051401  0.17676999  0.17677000  1
  Cr  Cr2  1  0.50051401  0.17676999  0.64645999  1
  C  C3  1  0.50051401  0.64645998  0.17677001  1
  C  C4  1  0.95055601  0.00000000  -0.00000000  1
  B  B5  1  0.98373701  0.33333332  0.33333333  1
  C  C6  1  0.11305700  0.16260499  0.16260600  1
  C  C7  1  0.11305700  0.16260499  0.67478999  1
  C  C8  1  0.11305700  0.67478898  0.16260601  1
  C  C9  1  0.63846801  0.84368797  0.84368899  1
  C  C10  1  0.63846801  0.84368797  0.31262401  1
  C  C11  1  0.63846801  0.31262299  0.84368899  1
