# generated using pymatgen
data_Hf4In2SnPd8Au3
_symmetry_space_group_name_H-M   'P 1'
_cell_length_a   5.65634203
_cell_length_b   8.31993008
_cell_length_c   8.31992912
_cell_angle_alpha   120.00000000
_cell_angle_beta   90.00000000
_cell_angle_gamma   90.00000000
_symmetry_Int_Tables_number   1
_chemical_formula_structural   Hf4In2SnPd8Au3
_chemical_formula_sum   'Hf4 In2 Sn1 Pd8 Au3'
_cell_volume   339.08267238
_cell_formula_units_Z   1
loop_
 _symmetry_equiv_pos_site_id
 _symmetry_equiv_pos_as_xyz
  1  'x, y, z'
loop_
 _atom_site_type_symbol
 _atom_site_label
 _atom_site_symmetry_multiplicity
 _atom_site_fract_x
 _atom_site_fract_y
 _atom_site_fract_z
 _atom_site_occupancy
  Hf  Hf0  1  0.25000000  0.71823097  0.71823098  1
  Hf  Hf1  1  0.75000000  0.28176899  0.28176899  1
  Hf  Hf2  1  0.25000000  0.00000000  0.28176901  1
  Hf  Hf3  1  0.75000000  0.99999997  0.71823097  1
  In  In4  1  0.25000000  0.28176899  -0.00000001  1
  In  In5  1  0.75000000  0.71823097  0.99999999  1
  Pd  Pd6  1  0.50000000  0.66666664  0.33333331  1
  Pd  Pd7  1  0.50000000  0.33333332  0.66666667  1
  Pd  Pd8  1  0.99999999  0.33333332  0.66666667  1
  Pd  Pd9  1  0.99999999  0.66666664  0.33333331  1
  Au  Au10  1  0.25000000  0.38199599  0.38199599  1
  Pd  Pd11  1  0.75000000  0.61800398  0.61800399  1
  Pd  Pd12  1  0.25000000  0.99999997  0.61800397  1
  Au  Au13  1  0.75000000  0.00000000  0.38199601  1
  Pd  Pd14  1  0.25000000  0.61800398  -0.00000003  1
  Sn  Sn15  1  0.75000000  0.38199599  -0.00000002  1
  Pd  Pd16  1  0.50000000  0.00000000  -0.00000000  1
  Au  Au17  1  0.00000000  0.00000000  0.00000000  1
