# generated using pymatgen
data_CsKLiYNi2H4SN
_symmetry_space_group_name_H-M   'P 1'
_cell_length_a   4.05947399
_cell_length_b   4.05947447
_cell_length_c   14.21617699
_cell_angle_alpha   90.00000000
_cell_angle_beta   90.00000000
_cell_angle_gamma   120.00000000
_symmetry_Int_Tables_number   1
_chemical_formula_structural   CsKLiYNi2H4SN
_chemical_formula_sum   'Cs1 K1 Li1 Y1 Ni2 H4 S1 N1'
_cell_volume   202.88644428
_cell_formula_units_Z   1
loop_
 _symmetry_equiv_pos_site_id
 _symmetry_equiv_pos_as_xyz
  1  'x, y, z'
loop_
 _atom_site_type_symbol
 _atom_site_label
 _atom_site_symmetry_multiplicity
 _atom_site_fract_x
 _atom_site_fract_y
 _atom_site_fract_z
 _atom_site_occupancy
  Y  Y0  1  0.00000000  0.00000000  0.25000000  1
  Cs  Cs1  1  0.00000000  0.00000000  0.75000000  1
  K  K2  1  0.00000000  0.00000000  0.50000000  1
  Li  Li3  1  0.00000000  0.00000000  0.00000000  1
  H  H4  1  0.66666669  0.33333333  0.57164800  1
  Ni  Ni5  1  0.33333337  0.66666666  0.07164800  1
  H  H6  1  0.66666669  0.33333333  0.92835200  1
  Ni  Ni7  1  0.33333337  0.66666666  0.42835200  1
  S  S8  1  0.66666669  0.33333333  0.40346500  1
  H  H9  1  0.33333337  0.66666666  0.59653500  1
  H  H10  1  0.33333337  0.66666666  0.90346500  1
  N  N11  1  0.66666669  0.33333333  0.09653500  1
