# generated using pymatgen
data_Na2Li4CuNiO10
_symmetry_space_group_name_H-M   'P 1'
_cell_length_a   4.97852802
_cell_length_b   7.27996826
_cell_length_c   9.02668858
_cell_angle_alpha   90.00000000
_cell_angle_beta   90.00000000
_cell_angle_gamma   109.69335938
_symmetry_Int_Tables_number   1
_chemical_formula_structural   Na2Li4CuNiO10
_chemical_formula_sum   'Na2 Li4 Cu1 Ni1 O10'
_cell_volume   308.02336263
_cell_formula_units_Z   1
loop_
 _symmetry_equiv_pos_site_id
 _symmetry_equiv_pos_as_xyz
  1  'x, y, z'
loop_
 _atom_site_type_symbol
 _atom_site_label
 _atom_site_symmetry_multiplicity
 _atom_site_fract_x
 _atom_site_fract_y
 _atom_site_fract_z
 _atom_site_occupancy
  Na  Na0  1  0.00000004  0.50000000  0.50000002  1
  Na  Na1  1  0.50000000  0.00000000  1.00000005  1
  Li  Li2  1  0.32666301  0.18615500  0.65151303  1
  Li  Li3  1  0.67333706  0.81384499  0.34848702  1
  Li  Li4  1  0.82666305  0.68615499  0.84848704  1
  Li  Li5  1  0.17333702  0.31384500  0.15151301  1
  Cu  Cu6  1  0.14402205  0.72980199  0.94319804  1
  Ni  Ni7  1  0.21947501  0.08630000  0.15344701  1
  O  O8  1  0.43196701  0.20665100  0.83604504  1
  O  O9  1  0.93196705  0.70665099  0.66395503  1
  O  O10  1  0.35597806  0.77019799  0.44319802  1
  O  O11  1  0.85597802  0.27019800  0.05680200  1
  O  O12  1  0.64402201  0.22980200  0.55680203  1
  O  O13  1  0.06803302  0.29334900  0.33604502  1
  O  O14  1  0.56803306  0.79334899  0.16395501  1
  O  O15  1  0.28052503  0.41370000  0.65344703  1
  O  O16  1  0.71947504  0.58629999  0.34655302  1
  O  O17  1  0.78052507  0.91369999  0.84655304  1
