# generated using pymatgen
data_LaTl2Bi
_symmetry_space_group_name_H-M   'P 1'
_cell_length_a   5.15516376
_cell_length_b   5.15516376
_cell_length_c   6.32248306
_cell_angle_alpha   114.05949402
_cell_angle_beta   114.05949402
_cell_angle_gamma   90.00000000
_symmetry_Int_Tables_number   1
_chemical_formula_structural   LaTl2Bi
_chemical_formula_sum   'La1 Tl2 Bi1'
_cell_volume   137.28597383
_cell_formula_units_Z   1
loop_
 _symmetry_equiv_pos_site_id
 _symmetry_equiv_pos_as_xyz
  1  'x, y, z'
loop_
 _atom_site_type_symbol
 _atom_site_label
 _atom_site_symmetry_multiplicity
 _atom_site_fract_x
 _atom_site_fract_y
 _atom_site_fract_z
 _atom_site_occupancy
  La  La0  1  0.00000000  0.00000000  0.00000000  1
  Tl  Tl1  1  0.74999999  0.25000000  0.49999993  1
  Tl  Tl2  1  0.24999995  0.75000000  0.49999992  1
  Bi  Bi3  1  0.49999997  0.50000000  -0.00000007  1
