# generated using pymatgen
data_GdYC4
_symmetry_space_group_name_H-M   'P 1'
_cell_length_a   3.74451995
_cell_length_b   3.74451971
_cell_length_c   7.25462580
_cell_angle_alpha   90.00000000
_cell_angle_beta   90.00000000
_cell_angle_gamma   120.00000000
_symmetry_Int_Tables_number   1
_chemical_formula_structural   GdYC4
_chemical_formula_sum   'Gd1 Y1 C4'
_cell_volume   88.09229353
_cell_formula_units_Z   1
loop_
 _symmetry_equiv_pos_site_id
 _symmetry_equiv_pos_as_xyz
  1  'x, y, z'
loop_
 _atom_site_type_symbol
 _atom_site_label
 _atom_site_symmetry_multiplicity
 _atom_site_fract_x
 _atom_site_fract_y
 _atom_site_fract_z
 _atom_site_occupancy
  Y  Y0  1  0.00000000  0.00000000  0.50000001  1
  Gd  Gd1  1  0.00000000  0.00000000  0.00000000  1
  C  C2  1  0.33333329  0.66666663  0.25000001  1
  C  C3  1  0.66666665  0.33333331  0.75000002  1
  C  C4  1  0.33333329  0.66666663  0.75000002  1
  C  C5  1  0.66666665  0.33333331  0.25000001  1
