# generated using pymatgen
data_NdEr3Ga2Ge5Pd
_symmetry_space_group_name_H-M   'P 1'
_cell_length_a   4.47029877
_cell_length_b   6.92303801
_cell_length_c   7.69092894
_cell_angle_alpha   90.00000000
_cell_angle_beta   90.00000000
_cell_angle_gamma   90.00000000
_symmetry_Int_Tables_number   1
_chemical_formula_structural   NdEr3Ga2Ge5Pd
_chemical_formula_sum   'Nd1 Er3 Ga2 Ge5 Pd1'
_cell_volume   238.01923989
_cell_formula_units_Z   1
loop_
 _symmetry_equiv_pos_site_id
 _symmetry_equiv_pos_as_xyz
  1  'x, y, z'
loop_
 _atom_site_type_symbol
 _atom_site_label
 _atom_site_symmetry_multiplicity
 _atom_site_fract_x
 _atom_site_fract_y
 _atom_site_fract_z
 _atom_site_occupancy
  Er  Er0  1  0.75000004  0.01790900  0.69835901  1
  Nd  Nd1  1  0.75000004  0.51790900  0.80164101  1
  Er  Er2  1  0.25000001  0.98209100  0.30164100  1
  Er  Er3  1  0.25000001  0.48209100  0.19835900  1
  Ga  Ga4  1  0.25000001  0.82305200  0.92590001  1
  Ga  Ga5  1  0.25000001  0.32305200  0.57410000  1
  Ge  Ge6  1  0.75000004  0.17694800  0.07410000  1
  Ge  Ge7  1  0.75000004  0.67694800  0.42590000  1
  Ge  Ge8  1  0.75000004  0.78004000  0.09816300  1
  Ge  Ge9  1  0.25000001  0.71996000  0.59816300  1
  Pd  Pd10  1  0.25000001  0.21996000  0.90183701  1
  Ge  Ge11  1  0.75000004  0.28004000  0.40183700  1
