# generated using pymatgen
data_BaFeNiP2
_symmetry_space_group_name_H-M   'P 1'
_cell_length_a   3.76020193
_cell_length_b   3.76020193
_cell_length_c   7.15656996
_cell_angle_alpha   105.23091125
_cell_angle_beta   105.23091125
_cell_angle_gamma   90.00000000
_symmetry_Int_Tables_number   1
_chemical_formula_structural   BaFeNiP2
_chemical_formula_sum   'Ba1 Fe1 Ni1 P2'
_cell_volume   93.94477175
_cell_formula_units_Z   1
loop_
 _symmetry_equiv_pos_site_id
 _symmetry_equiv_pos_as_xyz
  1  'x, y, z'
loop_
 _atom_site_type_symbol
 _atom_site_label
 _atom_site_symmetry_multiplicity
 _atom_site_fract_x
 _atom_site_fract_y
 _atom_site_fract_z
 _atom_site_occupancy
  Ba  Ba0  1  0.00000000  0.00000000  0.00000000  1
  Fe  Fe1  1  0.75000001  0.25000000  0.49999999  1
  Ni  Ni2  1  0.24999999  0.75000001  0.49999999  1
  P  P3  1  0.33953500  0.33953500  0.67907000  1
  P  P4  1  0.66046500  0.66046501  0.32092999  1
