# generated using pymatgen
data_KNa2BrO8
_symmetry_space_group_name_H-M   'P 1'
_cell_length_a   3.94674492
_cell_length_b   3.94674492
_cell_length_c   11.81499767
_cell_angle_alpha   90.00000000
_cell_angle_beta   90.00000000
_cell_angle_gamma   90.00000000
_symmetry_Int_Tables_number   1
_chemical_formula_structural   KNa2BrO8
_chemical_formula_sum   'K1 Na2 Br1 O8'
_cell_volume   184.03980205
_cell_formula_units_Z   1
loop_
 _symmetry_equiv_pos_site_id
 _symmetry_equiv_pos_as_xyz
  1  'x, y, z'
loop_
 _atom_site_type_symbol
 _atom_site_label
 _atom_site_symmetry_multiplicity
 _atom_site_fract_x
 _atom_site_fract_y
 _atom_site_fract_z
 _atom_site_occupancy
  Na  Na0  1  0.50000001  0.50000001  0.00000000  1
  K  K1  1  0.00000000  0.00000000  0.80869402  1
  Na  Na2  1  0.00000000  0.00000000  0.19130601  1
  O  O3  1  0.00000000  0.00000000  0.50000001  1
  Br  Br4  1  0.50000001  0.50000001  0.50000001  1
  O  O5  1  0.50000001  0.00000000  0.15524400  1
  O  O6  1  0.00000000  0.50000001  0.15524400  1
  O  O7  1  0.00000000  0.00000000  0.34397201  1
  O  O8  1  0.00000000  0.50000001  0.84475602  1
  O  O9  1  0.50000001  0.00000000  0.84475602  1
  O  O10  1  0.00000000  0.00000000  0.65602802  1
  O  O11  1  0.00000000  0.00000000  0.00000000  1
