# generated using pymatgen
data_Ba2Sr7Sn3Bi3Pb4Au
_symmetry_space_group_name_H-M   'P 1'
_cell_length_a   6.92154789
_cell_length_b   7.10970879
_cell_length_c   15.50380039
_cell_angle_alpha   90.00000000
_cell_angle_beta   90.00000000
_cell_angle_gamma   90.00000000
_symmetry_Int_Tables_number   1
_chemical_formula_structural   Ba2Sr7Sn3Bi3Pb4Au
_chemical_formula_sum   'Ba2 Sr7 Sn3 Bi3 Pb4 Au1'
_cell_volume   762.94496061
_cell_formula_units_Z   1
loop_
 _symmetry_equiv_pos_site_id
 _symmetry_equiv_pos_as_xyz
  1  'x, y, z'
loop_
 _atom_site_type_symbol
 _atom_site_label
 _atom_site_symmetry_multiplicity
 _atom_site_fract_x
 _atom_site_fract_y
 _atom_site_fract_z
 _atom_site_occupancy
  Ba  Ba0  1  0.54576801  0.50000002  0.24999999  1
  Sr  Sr1  1  0.45423201  0.50000002  0.74999998  1
  Ba  Ba2  1  0.95423202  0.00000000  0.24999999  1
  Sr  Sr3  1  0.04576800  0.00000000  0.74999998  1
  Sr  Sr4  1  0.75000001  0.75000002  0.00002900  1
  Sr  Sr5  1  0.25000000  0.25000001  0.99997097  1
  Sr  Sr6  1  0.75000001  0.25000001  0.49997099  1
  Sr  Sr7  1  0.25000000  0.75000002  0.50002899  1
  Bi  Bi8  1  0.75000001  0.75000002  0.44175399  1
  Sr  Sr9  1  0.25000000  0.25000001  0.55824599  1
  Bi  Bi10  1  0.75000001  0.25000001  0.05824600  1
  Bi  Bi11  1  0.25000000  0.75000002  0.94175398  1
  Sn  Sn12  1  0.06582700  0.55197402  0.14891700  1
  Pb  Pb13  1  0.93417301  0.44802601  0.85108298  1
  Sn  Sn14  1  0.06582700  0.44802601  0.35108299  1
  Sn  Sn15  1  0.43417301  0.05197400  0.35108299  1
  Pb  Pb16  1  0.93417301  0.55197402  0.64891698  1
  Pb  Pb17  1  0.56582701  0.94802603  0.64891698  1
  Au  Au18  1  0.43417301  0.94802603  0.14891700  1
  Pb  Pb19  1  0.56582701  0.05197400  0.85108298  1
