# generated using pymatgen
data_ScTi(CuP)2
_symmetry_space_group_name_H-M   'P 1'
_cell_length_a   5.09898233
_cell_length_b   5.09898233
_cell_length_c   5.09898233
_cell_angle_alpha   60.00000000
_cell_angle_beta   60.00000000
_cell_angle_gamma   60.00000000
_symmetry_Int_Tables_number   1
_chemical_formula_structural   ScTi(CuP)2
_chemical_formula_sum   'Sc1 Ti1 Cu2 P2'
_cell_volume   93.74228257
_cell_formula_units_Z   1
loop_
 _symmetry_equiv_pos_site_id
 _symmetry_equiv_pos_as_xyz
  1  'x, y, z'
loop_
 _atom_site_type_symbol
 _atom_site_label
 _atom_site_symmetry_multiplicity
 _atom_site_fract_x
 _atom_site_fract_y
 _atom_site_fract_z
 _atom_site_occupancy
  Ti  Ti0  1  0.75000000  0.75000000  0.75000000  1
  Sc  Sc1  1  0.00000000  0.00000000  0.00000000  1
  Cu  Cu2  1  0.87546500  0.37484500  0.37484500  1
  Cu  Cu3  1  0.37484400  0.87546600  0.37484500  1
  P  P4  1  0.37484400  0.37484500  0.37484500  1
  P  P5  1  0.37484400  0.37484500  0.87546600  1
