# generated using pymatgen
data_Na2EuYCu4HgAs2Au3Se
_symmetry_space_group_name_H-M   'P 1'
_cell_length_a   4.20230389
_cell_length_b   4.20230293
_cell_length_c   24.93014145
_cell_angle_alpha   90.00000000
_cell_angle_beta   90.00000000
_cell_angle_gamma   120.00000763
_symmetry_Int_Tables_number   1
_chemical_formula_structural   Na2EuYCu4HgAs2Au3Se
_chemical_formula_sum   'Na2 Eu1 Y1 Cu4 Hg1 As2 Au3 Se1'
_cell_volume   381.26782079
_cell_formula_units_Z   1
loop_
 _symmetry_equiv_pos_site_id
 _symmetry_equiv_pos_as_xyz
  1  'x, y, z'
loop_
 _atom_site_type_symbol
 _atom_site_label
 _atom_site_symmetry_multiplicity
 _atom_site_fract_x
 _atom_site_fract_y
 _atom_site_fract_z
 _atom_site_occupancy
  Y  Y0  1  0.00000000  0.00000000  0.89953202  1
  Eu  Eu1  1  0.00000000  0.00000000  0.10046800  1
  Na  Na2  1  0.00000000  0.00000000  0.30027901  1
  Na  Na3  1  0.00000000  0.00000000  0.50000001  1
  Cu  Cu4  1  0.00000000  0.00000000  0.69972102  1
  Hg  Hg5  1  0.66666669  0.33333335  0.38030501  1
  Cu  Cu6  1  0.66666669  0.33333335  0.58021001  1
  Cu  Cu7  1  0.66666669  0.33333335  0.77855002  1
  Au  Au8  1  0.66666669  0.33333335  0.98046402  1
  Cu  Cu9  1  0.66666669  0.33333335  0.18241600  1
  As  As10  1  0.33333335  0.66666670  0.41979001  1
  As  As11  1  0.33333335  0.66666670  0.61969501  1
  Au  Au12  1  0.33333335  0.66666670  0.81758402  1
  Au  Au13  1  0.33333335  0.66666670  0.01953600  1
  Se  Se14  1  0.33333335  0.66666670  0.22145000  1
