# generated using pymatgen
data_PrY(AlGa2)2
_symmetry_space_group_name_H-M   'P 1'
_cell_length_a   4.91142178
_cell_length_b   6.39917803
_cell_length_c   6.39917755
_cell_angle_alpha   120.00000000
_cell_angle_beta   90.00000000
_cell_angle_gamma   90.00000000
_symmetry_Int_Tables_number   1
_chemical_formula_structural   PrY(AlGa2)2
_chemical_formula_sum   'Pr1 Y1 Al2 Ga4'
_cell_volume   174.17515913
_cell_formula_units_Z   1
loop_
 _symmetry_equiv_pos_site_id
 _symmetry_equiv_pos_as_xyz
  1  'x, y, z'
loop_
 _atom_site_type_symbol
 _atom_site_label
 _atom_site_symmetry_multiplicity
 _atom_site_fract_x
 _atom_site_fract_y
 _atom_site_fract_z
 _atom_site_occupancy
  Y  Y0  1  0.75000003  0.66666664  0.33333328  1
  Pr  Pr1  1  0.25000001  0.33333332  0.66666663  1
  Al  Al2  1  0.75000003  0.16696599  0.83303397  1
  Al  Al3  1  0.25000001  0.83303397  0.66606793  1
  Ga  Ga4  1  0.25000001  0.33393199  0.16696597  1
  Ga  Ga5  1  0.75000003  0.66606798  0.83303393  1
  Ga  Ga6  1  0.75000003  0.16696599  0.33393198  1
  Ga  Ga7  1  0.25000001  0.83303397  0.16696594  1
