# generated using pymatgen
data_ScTiAlNi2Rh
_symmetry_space_group_name_H-M   'P 1'
_cell_length_a   5.01674318
_cell_length_b   5.01674318
_cell_length_c   5.01674318
_cell_angle_alpha   60.00000000
_cell_angle_beta   60.00000000
_cell_angle_gamma   60.00000000
_symmetry_Int_Tables_number   1
_chemical_formula_structural   ScTiAlNi2Rh
_chemical_formula_sum   'Sc1 Ti1 Al1 Ni2 Rh1'
_cell_volume   89.27926574
_cell_formula_units_Z   1
loop_
 _symmetry_equiv_pos_site_id
 _symmetry_equiv_pos_as_xyz
  1  'x, y, z'
loop_
 _atom_site_type_symbol
 _atom_site_label
 _atom_site_symmetry_multiplicity
 _atom_site_fract_x
 _atom_site_fract_y
 _atom_site_fract_z
 _atom_site_occupancy
  Ti  Ti0  1  0.49999998  0.49999998  0.49999998  1
  Sc  Sc1  1  0.24999999  0.24999999  0.24999999  1
  Al  Al2  1  0.37499999  0.87499997  0.87499997  1
  Rh  Rh3  1  0.87499997  0.87499997  0.37499999  1
  Ni  Ni4  1  0.87499997  0.87499997  0.87499997  1
  Ni  Ni5  1  0.87499997  0.37499999  0.87499997  1
