# generated using pymatgen
data_ErIn7Sn6GeAu
_symmetry_space_group_name_H-M   'P 1'
_cell_length_a   6.08096981
_cell_length_b   6.08097029
_cell_length_c   9.74802208
_cell_angle_alpha   90.00000000
_cell_angle_beta   90.00000000
_cell_angle_gamma   120.00000000
_symmetry_Int_Tables_number   1
_chemical_formula_structural   ErIn7Sn6GeAu
_chemical_formula_sum   'Er1 In7 Sn6 Ge1 Au1'
_cell_volume   312.17122211
_cell_formula_units_Z   1
loop_
 _symmetry_equiv_pos_site_id
 _symmetry_equiv_pos_as_xyz
  1  'x, y, z'
loop_
 _atom_site_type_symbol
 _atom_site_label
 _atom_site_symmetry_multiplicity
 _atom_site_fract_x
 _atom_site_fract_y
 _atom_site_fract_z
 _atom_site_occupancy
  In  In0  1  0.00000000  0.00000000  0.50000000  1
  Er  Er1  1  0.00000000  0.00000000  0.00000000  1
  In  In2  1  0.66666670  0.33333335  0.74999999  1
  In  In3  1  0.33333338  0.66666670  0.25000000  1
  In  In4  1  0.17783304  0.82216804  0.74999999  1
  In  In5  1  0.64433506  0.82216804  0.74999999  1
  In  In6  1  0.17783302  0.35566602  0.74999999  1
  In  In7  1  0.82216703  0.17783201  0.25000000  1
  Au  Au8  1  0.35566502  0.17783201  0.25000000  1
  Sn  Sn9  1  0.82216706  0.64433403  0.25000000  1
  Sn  Sn10  1  0.50000006  1.00000005  0.50000000  1
  Sn  Sn11  1  0.50000004  0.50000002  0.50000000  1
  Sn  Sn12  1  0.00000002  0.50000002  0.50000000  1
  Sn  Sn13  1  0.50000006  1.00000005  0.99999999  1
  Ge  Ge14  1  0.50000004  0.50000002  0.99999999  1
  Sn  Sn15  1  0.00000002  0.50000002  -0.00000000  1
