# generated using pymatgen
data_Mn3FeGePd
_symmetry_space_group_name_H-M   'P 1'
_cell_length_a   3.82116008
_cell_length_b   5.31691980
_cell_length_c   6.26029921
_cell_angle_alpha   91.25144196
_cell_angle_beta   90.00000000
_cell_angle_gamma   90.00000000
_symmetry_Int_Tables_number   1
_chemical_formula_structural   Mn3FeGePd
_chemical_formula_sum   'Mn3 Fe1 Ge1 Pd1'
_cell_volume   127.15892003
_cell_formula_units_Z   1
loop_
 _symmetry_equiv_pos_site_id
 _symmetry_equiv_pos_as_xyz
  1  'x, y, z'
loop_
 _atom_site_type_symbol
 _atom_site_label
 _atom_site_symmetry_multiplicity
 _atom_site_fract_x
 _atom_site_fract_y
 _atom_site_fract_z
 _atom_site_occupancy
  Mn  Mn0  1  0.49999999  0.49999998  0.50000000  1
  Fe  Fe1  1  0.00000000  0.00000000  0.00000000  1
  Mn  Mn2  1  0.49999999  0.71866497  0.13780903  1
  Mn  Mn3  1  0.49999999  0.28133499  0.86219098  1
  Ge  Ge4  1  0.00000000  0.22541699  0.35689700  1
  Pd  Pd5  1  0.00000000  0.77458297  0.64310301  1
