# generated using pymatgen
data_Li3CuO3
_symmetry_space_group_name_H-M   'P 1'
_cell_length_a   5.96477890
_cell_length_b   5.96973753
_cell_length_c   5.96972704
_cell_angle_alpha   60.14187622
_cell_angle_beta   60.02759171
_cell_angle_gamma   60.02744293
_symmetry_Int_Tables_number   1
_chemical_formula_structural   Li3CuO3
_chemical_formula_sum   'Li6 Cu2 O6'
_cell_volume   150.53360422
_cell_formula_units_Z   2
loop_
 _symmetry_equiv_pos_site_id
 _symmetry_equiv_pos_as_xyz
  1  'x, y, z'
loop_
 _atom_site_type_symbol
 _atom_site_label
 _atom_site_symmetry_multiplicity
 _atom_site_fract_x
 _atom_site_fract_y
 _atom_site_fract_z
 _atom_site_occupancy
  Li  Li0  1  0.99608398  0.00391700  0.00391700  1
  Li  Li1  1  0.25391699  0.24608200  0.24608300  1
  Li  Li2  1  0.62499999  0.62500001  0.12499999  1
  Li  Li3  1  0.62499999  0.12500000  0.62500001  1
  Li  Li4  1  0.12500000  0.62500001  0.62500000  1
  Li  Li5  1  0.62499999  0.62500001  0.62500000  1
  Cu  Cu6  1  0.38530099  0.85622002  0.37317799  1
  Cu  Cu7  1  0.38530199  0.37317801  0.85621801  1
  O  O8  1  0.86469798  0.87682202  0.39378199  1
  O  O9  1  0.86469898  0.39378101  0.87682201  1
  O  O10  1  0.38736499  0.37745001  0.37744900  1
  O  O11  1  0.85773498  0.37744901  0.37744900  1
  O  O12  1  0.39226499  0.87255102  0.87255001  1
  O  O13  1  0.86263398  0.87255002  0.87255101  1
