# generated using pymatgen
data_La3In2Sn
_symmetry_space_group_name_H-M   'P 1'
_cell_length_a   6.02421999
_cell_length_b   6.30646229
_cell_length_c   6.30646229
_cell_angle_alpha   76.81337738
_cell_angle_beta   61.46974182
_cell_angle_gamma   61.46974182
_symmetry_Int_Tables_number   1
_chemical_formula_structural   La3In2Sn
_chemical_formula_sum   'La3 In2 Sn1'
_cell_volume   184.93547417
_cell_formula_units_Z   1
loop_
 _symmetry_equiv_pos_site_id
 _symmetry_equiv_pos_as_xyz
  1  'x, y, z'
loop_
 _atom_site_type_symbol
 _atom_site_label
 _atom_site_symmetry_multiplicity
 _atom_site_fract_x
 _atom_site_fract_y
 _atom_site_fract_z
 _atom_site_occupancy
  La  La0  1  0.34725899  0.80548300  0.49999996  1
  La  La1  1  0.15274200  0.50000000  0.19451598  1
  La  La2  1  0.84725801  0.50000000  0.80548395  1
  In  In3  1  0.65274101  0.19451700  0.49999997  1
  In  In4  1  0.75000001  0.00000000  -0.00000002  1
  Sn  Sn5  1  0.25000000  0.00000000  0.99999998  1
