# generated using pymatgen
data_NaNbCuSiS6
_symmetry_space_group_name_H-M   'P 1'
_cell_length_a   6.08197021
_cell_length_b   6.09156609
_cell_length_c   6.12348557
_cell_angle_alpha   60.47394562
_cell_angle_beta   60.22401810
_cell_angle_gamma   60.05209732
_symmetry_Int_Tables_number   1
_chemical_formula_structural   NaNbCuSiS6
_chemical_formula_sum   'Na1 Nb1 Cu1 Si1 S6'
_cell_volume   161.32293726
_cell_formula_units_Z   1
loop_
 _symmetry_equiv_pos_site_id
 _symmetry_equiv_pos_as_xyz
  1  'x, y, z'
loop_
 _atom_site_type_symbol
 _atom_site_label
 _atom_site_symmetry_multiplicity
 _atom_site_fract_x
 _atom_site_fract_y
 _atom_site_fract_z
 _atom_site_occupancy
  Na  Na0  1  0.75115699  0.25203599  0.24564997  1
  Nb  Nb1  1  0.24884303  0.74796397  0.75434997  1
  Cu  Cu2  1  0.00000002  0.49999998  0.49999998  1
  Si  Si3  1  0.49999999  0.00000000  0.99999999  1
  S  S4  1  0.27267000  0.17635999  0.27829999  1
  S  S5  1  0.72733002  0.82363997  0.72169995  1
  S  S6  1  0.70182400  0.25581799  0.79470697  1
  S  S7  1  0.29817603  0.74418197  0.20529297  1
  S  S8  1  0.24765101  0.25581799  0.79470699  1
  S  S9  1  0.75234902  0.74418197  0.20529295  1
