# generated using pymatgen
data_Na2SrCuO6
_symmetry_space_group_name_H-M   'P 1'
_cell_length_a   5.85838747
_cell_length_b   5.93250608
_cell_length_c   8.33047390
_cell_angle_alpha   90.00000000
_cell_angle_beta   90.28521729
_cell_angle_gamma   90.00000000
_symmetry_Int_Tables_number   1
_chemical_formula_structural   Na2SrCuO6
_chemical_formula_sum   'Na4 Sr2 Cu2 O12'
_cell_volume   289.52136097
_cell_formula_units_Z   2
loop_
 _symmetry_equiv_pos_site_id
 _symmetry_equiv_pos_as_xyz
  1  'x, y, z'
loop_
 _atom_site_type_symbol
 _atom_site_label
 _atom_site_symmetry_multiplicity
 _atom_site_fract_x
 _atom_site_fract_y
 _atom_site_fract_z
 _atom_site_occupancy
  Na  Na0  1  0.00781400  0.46439499  0.25102500  1
  Sr  Sr1  1  0.99218602  0.53560499  0.74897504  1
  Sr  Sr2  1  0.49218601  0.96439499  0.24897502  1
  Na  Na3  1  0.50781401  0.03560500  0.75102502  1
  Na  Na4  1  0.00000000  0.00000000  0.50000000  1
  Na  Na5  1  0.50000001  0.49999999  0.00000002  1
  Cu  Cu6  1  0.00000000  0.00000000  0.00000000  1
  Cu  Cu7  1  0.50000001  0.49999999  0.50000002  1
  O  O8  1  0.91937302  0.02440300  0.23460104  1
  O  O9  1  0.08062700  0.97559699  0.76539900  1
  O  O10  1  0.58062701  0.52440299  0.26539902  1
  O  O11  1  0.41937301  0.47559699  0.73460101  1
  O  O12  1  0.19451300  0.72508799  0.04583501  1
  O  O13  1  0.80548702  0.27491200  0.95416503  1
  O  O14  1  0.30548701  0.22508800  0.45416501  1
  O  O15  1  0.69451301  0.77491199  0.54583503  1
  O  O16  1  0.27427701  0.19711500  0.04091401  1
  O  O17  1  0.72572301  0.80288499  0.95908602  1
  O  O18  1  0.22572300  0.69711499  0.45908601  1
  O  O19  1  0.77427701  0.30288500  0.54091403  1
