# generated using pymatgen
data_Zr2ScPt
_symmetry_space_group_name_H-M   'P 1'
_cell_length_a   3.16830993
_cell_length_b   3.16831088
_cell_length_c   10.06194115
_cell_angle_alpha   90.00000000
_cell_angle_beta   90.00000000
_cell_angle_gamma   119.99999237
_symmetry_Int_Tables_number   1
_chemical_formula_structural   Zr2ScPt
_chemical_formula_sum   'Zr2 Sc1 Pt1'
_cell_volume   87.47176398
_cell_formula_units_Z   1
loop_
 _symmetry_equiv_pos_site_id
 _symmetry_equiv_pos_as_xyz
  1  'x, y, z'
loop_
 _atom_site_type_symbol
 _atom_site_label
 _atom_site_symmetry_multiplicity
 _atom_site_fract_x
 _atom_site_fract_y
 _atom_site_fract_z
 _atom_site_occupancy
  Zr  Zr0  1  0.33333337  0.66666669  0.49999999  1
  Sc  Sc1  1  0.33333337  0.66666669  -0.00000000  1
  Zr  Zr2  1  0.00000000  0.00000000  0.25471300  1
  Pt  Pt3  1  0.00000000  0.00000000  0.74528699  1
