# generated using pymatgen
data_ErMn3Fe8Si
_symmetry_space_group_name_H-M   'P 1'
_cell_length_a   5.22668982
_cell_length_b   5.22703648
_cell_length_c   8.17795467
_cell_angle_alpha   90.00000000
_cell_angle_beta   90.00000000
_cell_angle_gamma   119.99779510
_symmetry_Int_Tables_number   1
_chemical_formula_structural   ErMn3Fe8Si
_chemical_formula_sum   'Er1 Mn3 Fe8 Si1'
_cell_volume   193.49388184
_cell_formula_units_Z   1
loop_
 _symmetry_equiv_pos_site_id
 _symmetry_equiv_pos_as_xyz
  1  'x, y, z'
loop_
 _atom_site_type_symbol
 _atom_site_label
 _atom_site_symmetry_multiplicity
 _atom_site_fract_x
 _atom_site_fract_y
 _atom_site_fract_z
 _atom_site_occupancy
  Er  Er0  1  0.00002100  0.00000000  -0.00000000  1
  Mn  Mn1  1  0.49999799  0.00000000  0.25228201  1
  Mn  Mn2  1  0.49997796  0.49999598  0.25227401  1
  Mn  Mn3  1  0.99998195  0.50000398  0.25227401  1
  Fe  Fe4  1  0.49999799  0.00000000  0.74771803  1
  Fe  Fe5  1  0.49997796  0.49999598  0.74772603  1
  Fe  Fe6  1  0.99998195  0.50000398  0.74772603  1
  Fe  Fe7  1  0.33333328  0.66666664  0.00000000  1
  Fe  Fe8  1  0.66666663  0.33326899  0.00000000  1
  Fe  Fe9  1  0.33333328  0.66666664  0.50000002  1
  Fe  Fe10  1  0.66666663  0.33333332  0.50000002  1
  Si  Si11  1  0.99995298  0.00000000  0.34755601  1
  Fe  Fe12  1  0.99995298  0.00000000  0.65244403  1
