# generated using pymatgen
data_YEr2AlSi8
_symmetry_space_group_name_H-M   'P 1'
_cell_length_a   4.06456089
_cell_length_b   6.48534012
_cell_length_c   7.06557798
_cell_angle_alpha   90.00000000
_cell_angle_beta   90.00000000
_cell_angle_gamma   90.00000000
_symmetry_Int_Tables_number   1
_chemical_formula_structural   YEr2AlSi8
_chemical_formula_sum   'Y1 Er2 Al1 Si8'
_cell_volume   186.24905821
_cell_formula_units_Z   1
loop_
 _symmetry_equiv_pos_site_id
 _symmetry_equiv_pos_as_xyz
  1  'x, y, z'
loop_
 _atom_site_type_symbol
 _atom_site_label
 _atom_site_symmetry_multiplicity
 _atom_site_fract_x
 _atom_site_fract_y
 _atom_site_fract_z
 _atom_site_occupancy
  Er  Er0  1  0.25000001  0.99929998  0.29991300  1
  Er  Er1  1  0.25000001  0.49929999  0.20008700  1
  Al  Al2  1  0.75000002  0.00070000  0.70008700  1
  Y  Y3  1  0.75000002  0.50069999  0.79991300  1
  Si  Si4  1  0.25000001  0.15407300  0.93935100  1
  Si  Si5  1  0.25000001  0.65407299  0.56064900  1
  Si  Si6  1  0.75000002  0.84592698  0.06064900  1
  Si  Si7  1  0.75000002  0.34592699  0.43935100  1
  Si  Si8  1  0.25000001  0.28587099  0.60942800  1
  Si  Si9  1  0.25000001  0.78587099  0.89057200  1
  Si  Si10  1  0.75000002  0.71412899  0.39057200  1
  Si  Si11  1  0.75000002  0.21412900  0.10942800  1
