# generated using pymatgen
data_Li8Si2Ni3O
_symmetry_space_group_name_H-M   'P 1'
_cell_length_a   3.51338792
_cell_length_b   5.43262005
_cell_length_c   11.59014225
_cell_angle_alpha   90.00000000
_cell_angle_beta   90.00000000
_cell_angle_gamma   90.00000000
_symmetry_Int_Tables_number   1
_chemical_formula_structural   Li8Si2Ni3O
_chemical_formula_sum   'Li8 Si2 Ni3 O1'
_cell_volume   221.21990517
_cell_formula_units_Z   1
loop_
 _symmetry_equiv_pos_site_id
 _symmetry_equiv_pos_as_xyz
  1  'x, y, z'
loop_
 _atom_site_type_symbol
 _atom_site_label
 _atom_site_symmetry_multiplicity
 _atom_site_fract_x
 _atom_site_fract_y
 _atom_site_fract_z
 _atom_site_occupancy
  Li  Li0  1  0.50000001  0.82117699  0.14887300  1
  Li  Li1  1  -0.00000000  0.32117700  0.35112699  1
  Li  Li2  1  0.00000000  0.67882299  0.64887299  1
  Li  Li3  1  0.50000001  0.17882300  0.85112698  1
  Li  Li4  1  0.50000001  0.81350899  0.41373399  1
  Li  Li5  1  -0.00000000  0.31350900  0.08626600  1
  Li  Li6  1  0.50000001  0.18649100  0.58626599  1
  Li  Li7  1  -0.00000000  0.68649099  0.91373398  1
  Ni  Ni8  1  -0.00000000  0.17186600  0.68921199  1
  Ni  Ni9  1  0.50000001  0.67186599  0.81078798  1
  Si  Si10  1  -0.00000000  0.82813399  0.31078799  1
  Si  Si11  1  0.00000000  0.00000000  0.00000000  1
  O  O12  1  0.50000001  0.32813400  0.18921200  1
  Ni  Ni13  1  0.50000001  0.50000000  0.49999999  1
