# generated using pymatgen
data_Na2Cu4Se5
_symmetry_space_group_name_H-M   'P 1'
_cell_length_a   6.78498602
_cell_length_b   6.78498602
_cell_length_c   7.39901495
_cell_angle_alpha   90.00000000
_cell_angle_beta   90.00000000
_cell_angle_gamma   120.00000000
_symmetry_Int_Tables_number   1
_chemical_formula_structural   Na2Cu4Se5
_chemical_formula_sum   'Na2 Cu4 Se5'
_cell_volume   294.98671036
_cell_formula_units_Z   1
loop_
 _symmetry_equiv_pos_site_id
 _symmetry_equiv_pos_as_xyz
  1  'x, y, z'
loop_
 _atom_site_type_symbol
 _atom_site_label
 _atom_site_symmetry_multiplicity
 _atom_site_fract_x
 _atom_site_fract_y
 _atom_site_fract_z
 _atom_site_occupancy
  Na  Na0  1  0.66666666  0.33333332  0.39831700  1
  Na  Na1  1  0.33333332  0.66666664  0.60168300  1
  Cu  Cu2  1  0.00000000  0.00000000  0.00000000  1
  Cu  Cu3  1  0.66666666  0.33333332  0.93398801  1
  Cu  Cu4  1  0.33333332  0.66666664  0.06601200  1
  Cu  Cu5  1  0.77086198  0.66158997  0.77820601  1
  Se  Se6  1  0.10927198  0.77086197  0.22179400  1
  Se  Se7  1  0.22913799  0.33840999  0.22179400  1
  Se  Se8  1  0.66158998  0.89072796  0.22179400  1
  Se  Se9  1  0.33841000  0.10927200  0.77820601  1
  Se  Se10  1  0.89072799  0.22913799  0.77820601  1
