# generated using pymatgen
data_Li3Co(HO3)3
_symmetry_space_group_name_H-M   'P 1'
_cell_length_a   3.04801297
_cell_length_b   4.50882101
_cell_length_c   9.97023010
_cell_angle_alpha   89.99992371
_cell_angle_beta   89.99985504
_cell_angle_gamma   89.99989319
_symmetry_Int_Tables_number   1
_chemical_formula_structural   Li3Co(HO3)3
_chemical_formula_sum   'Li3 Co1 H3 O9'
_cell_volume   137.02032322
_cell_formula_units_Z   1
loop_
 _symmetry_equiv_pos_site_id
 _symmetry_equiv_pos_as_xyz
  1  'x, y, z'
loop_
 _atom_site_type_symbol
 _atom_site_label
 _atom_site_symmetry_multiplicity
 _atom_site_fract_x
 _atom_site_fract_y
 _atom_site_fract_z
 _atom_site_occupancy
  Li  Li0  1  0.25005101  0.55250600  0.63860998  1
  Li  Li1  1  0.24997701  0.94750200  0.13862097  1
  Li  Li2  1  0.75001901  0.44750500  0.36138598  1
  Co  Co3  1  0.74999301  0.05249000  0.86138799  1
  H  H4  1  0.24999501  0.91166200  0.40137797  1
  H  H5  1  0.24999501  0.58833900  0.90137797  1
  H  H6  1  0.74999801  0.08833700  0.59862199  1
  O  O7  1  0.74999601  0.41165900  0.09862098  1
  O  O8  1  0.24998900  0.18362500  0.30836799  1
  O  O9  1  0.24999101  0.31637800  0.80836598  1
  O  O10  1  0.75000702  0.81637700  0.69162897  1
  O  O11  1  0.74999801  0.68362100  0.19162897  1
  O  O12  1  0.24999201  0.69930200  0.44088297  1
  O  O13  1  0.25000201  0.80069700  0.94087997  1
  O  O14  1  0.75000201  0.30069300  0.55912198  1
  O  O15  1  0.74999501  0.19930500  0.05911799  1
