# generated using pymatgen
data_BaNa2Sr2MgInTeAu6
_symmetry_space_group_name_H-M   'P 1'
_cell_length_a   7.49351120
_cell_length_b   7.49443007
_cell_length_c   9.71964741
_cell_angle_alpha   67.32335663
_cell_angle_beta   90.00000000
_cell_angle_gamma   90.00000000
_symmetry_Int_Tables_number   1
_chemical_formula_structural   BaNa2Sr2MgInTeAu6
_chemical_formula_sum   'Ba1 Na2 Sr2 Mg1 In1 Te1 Au6'
_cell_volume   503.65459906
_cell_formula_units_Z   1
loop_
 _symmetry_equiv_pos_site_id
 _symmetry_equiv_pos_as_xyz
  1  'x, y, z'
loop_
 _atom_site_type_symbol
 _atom_site_label
 _atom_site_symmetry_multiplicity
 _atom_site_fract_x
 _atom_site_fract_y
 _atom_site_fract_z
 _atom_site_occupancy
  Ba  Ba0  1  0.49999999  0.12638800  0.74722398  1
  Na  Na1  1  0.49999999  0.87361199  0.25277600  1
  Na  Na2  1  0.00000000  0.37361200  0.25277599  1
  Sr  Sr3  1  0.99999997  0.62638799  0.74722398  1
  Mg  Mg4  1  0.49999999  0.49999999  0.00000000  1
  Sr  Sr5  1  0.00000000  0.00000000  0.00000000  1
  Au  Au6  1  0.49999999  0.34418000  0.31163999  1
  Au  Au7  1  0.49999999  0.65581999  0.68835998  1
  Au  Au8  1  0.00000000  0.15582000  0.68835998  1
  In  In9  1  0.00000000  0.84417999  0.31164000  1
  Au  Au10  1  0.27148399  0.27102700  0.99999998  1
  Au  Au11  1  0.72851598  0.72897299  0.99999998  1
  Au  Au12  1  0.77148398  0.22897300  0.00000000  1
  Te  Te13  1  0.22851599  0.77102699  0.99999998  1
