# generated using pymatgen
data_NaCu2PS4ClO
_symmetry_space_group_name_H-M   'P 1'
_cell_length_a   6.29879570
_cell_length_b   6.29879570
_cell_length_c   8.19684601
_cell_angle_alpha   67.40463257
_cell_angle_beta   67.40463257
_cell_angle_gamma   60.00000381
_symmetry_Int_Tables_number   1
_chemical_formula_structural   NaCu2PS4ClO
_chemical_formula_sum   'Na1 Cu2 P1 S4 Cl1 O1'
_cell_volume   252.40335000
_cell_formula_units_Z   1
loop_
 _symmetry_equiv_pos_site_id
 _symmetry_equiv_pos_as_xyz
  1  'x, y, z'
loop_
 _atom_site_type_symbol
 _atom_site_label
 _atom_site_symmetry_multiplicity
 _atom_site_fract_x
 _atom_site_fract_y
 _atom_site_fract_z
 _atom_site_occupancy
  Na  Na0  1  0.66738399  0.66738399  0.99784798  1
  Cu  Cu1  1  0.33261600  0.33261600  0.00215198  1
  Cu  Cu2  1  0.94888799  0.94888799  0.15333594  1
  P  P3  1  0.05111200  0.05111200  0.84666402  1
  S  S4  1  0.92137399  0.23425600  0.23189196  1
  Cl  Cl5  1  0.61247799  0.92137399  0.23189195  1
  S  S6  1  0.76574399  0.38752200  0.76810798  1
  S  S7  1  0.07862600  0.76574399  0.76810799  1
  S  S8  1  0.38752200  0.07862600  0.76810800  1
  O  O9  1  0.23425600  0.61247799  0.23189198  1
