# generated using pymatgen
data_NaCa(CuO5)2
_symmetry_space_group_name_H-M   'P 1'
_cell_length_a   4.34216976
_cell_length_b   4.34216976
_cell_length_c   8.76562023
_cell_angle_alpha   90.00000000
_cell_angle_beta   90.00000000
_cell_angle_gamma   120.00000000
_symmetry_Int_Tables_number   1
_chemical_formula_structural   NaCa(CuO5)2
_chemical_formula_sum   'Na1 Ca1 Cu2 O10'
_cell_volume   143.12875052
_cell_formula_units_Z   1
loop_
 _symmetry_equiv_pos_site_id
 _symmetry_equiv_pos_as_xyz
  1  'x, y, z'
loop_
 _atom_site_type_symbol
 _atom_site_label
 _atom_site_symmetry_multiplicity
 _atom_site_fract_x
 _atom_site_fract_y
 _atom_site_fract_z
 _atom_site_occupancy
  Na  Na0  1  0.66666668  0.33333330  0.74999998  1
  Ca  Ca1  1  0.33333330  0.66666661  0.24999999  1
  Cu  Cu2  1  0.66666663  0.99999991  0.49999999  1
  Cu  Cu3  1  0.33333333  0.33333330  0.49999999  1
  O  O4  1  1.00000001  0.66666661  0.49999999  1
  O  O5  1  0.33333328  0.99999991  0.49999999  1
  O  O6  1  1.00000003  0.33333330  0.49999999  1
  O  O7  1  0.66666666  0.66666661  0.49999999  1
  O  O8  1  0.33333328  0.99999991  -0.00000000  1
  O  O9  1  0.66666666  0.66666661  -0.00000000  1
  O  O10  1  1.00000003  0.33333330  -0.00000000  1
  O  O11  1  0.66666663  0.99999991  -0.00000000  1
  O  O12  1  1.00000001  0.66666661  -0.00000000  1
  O  O13  1  0.33333333  0.33333330  -0.00000000  1
