# generated using pymatgen
data_LiCeMgCuAg
_symmetry_space_group_name_H-M   'P 1'
_cell_length_a   4.38907385
_cell_length_b   5.51963711
_cell_length_c   5.51963711
_cell_angle_alpha   60.17564011
_cell_angle_beta   66.57257080
_cell_angle_gamma   66.57257080
_symmetry_Int_Tables_number   1
_chemical_formula_structural   LiCeMgCuAg
_chemical_formula_sum   'Li1 Ce1 Mg1 Cu1 Ag1'
_cell_volume   103.03625395
_cell_formula_units_Z   1
loop_
 _symmetry_equiv_pos_site_id
 _symmetry_equiv_pos_as_xyz
  1  'x, y, z'
loop_
 _atom_site_type_symbol
 _atom_site_label
 _atom_site_symmetry_multiplicity
 _atom_site_fract_x
 _atom_site_fract_y
 _atom_site_fract_z
 _atom_site_occupancy
  Li  Li0  1  0.19915000  0.30084999  0.30085000  1
  Ce  Ce1  1  0.80085002  0.69914999  0.69915000  1
  Mg  Mg2  1  0.00000000  0.00000000  0.00000000  1
  Ag  Ag3  1  0.50000001  0.74223398  0.25776601  1
  Cu  Cu4  1  0.50000002  0.25776599  0.74223399  1
