# generated using pymatgen
data_ErLuScIn2SnPdAu2
_symmetry_space_group_name_H-M   'P 1'
_cell_length_a   3.29266191
_cell_length_b   7.85163403
_cell_length_c   7.85163355
_cell_angle_alpha   120.00000000
_cell_angle_beta   90.00000000
_cell_angle_gamma   90.00000000
_symmetry_Int_Tables_number   1
_chemical_formula_structural   ErLuScIn2SnPdAu2
_chemical_formula_sum   'Er1 Lu1 Sc1 In2 Sn1 Pd1 Au2'
_cell_volume   175.79148757
_cell_formula_units_Z   1
loop_
 _symmetry_equiv_pos_site_id
 _symmetry_equiv_pos_as_xyz
  1  'x, y, z'
loop_
 _atom_site_type_symbol
 _atom_site_label
 _atom_site_symmetry_multiplicity
 _atom_site_fract_x
 _atom_site_fract_y
 _atom_site_fract_z
 _atom_site_occupancy
  Er  Er0  1  0.50000001  0.74346798  -0.00000003  1
  Lu  Lu1  1  0.50000001  0.25653199  0.25653199  1
  Sc  Sc2  1  0.50000001  0.00000000  0.74346800  1
  In  In3  1  -0.00000000  0.39770999  -0.00000001  1
  In  In4  1  -0.00000000  0.60228999  0.60228998  1
  Sn  Sn5  1  1.00000003  0.00000000  0.39771000  1
  Au  Au6  1  0.50000001  0.33333333  0.66666666  1
  Au  Au7  1  0.50000001  0.66666665  0.33333331  1
  Pd  Pd8  1  0.00000000  0.00000000  0.00000000  1
