# generated using pymatgen
data_DyInSnGePd2
_symmetry_space_group_name_H-M   'P 1'
_cell_length_a   5.21101999
_cell_length_b   5.39063597
_cell_length_c   5.39063597
_cell_angle_alpha   61.91404724
_cell_angle_beta   61.09622955
_cell_angle_gamma   61.09622955
_symmetry_Int_Tables_number   1
_chemical_formula_structural   DyInSnGePd2
_chemical_formula_sum   'Dy1 In1 Sn1 Ge1 Pd2'
_cell_volume   110.35353576
_cell_formula_units_Z   1
loop_
 _symmetry_equiv_pos_site_id
 _symmetry_equiv_pos_as_xyz
  1  'x, y, z'
loop_
 _atom_site_type_symbol
 _atom_site_label
 _atom_site_symmetry_multiplicity
 _atom_site_fract_x
 _atom_site_fract_y
 _atom_site_fract_z
 _atom_site_occupancy
  Dy  Dy0  1  0.87545999  0.37453999  0.87454001  1
  In  In1  1  0.12454000  0.62545998  0.12546002  1
  Sn  Sn2  1  1.00000000  0.99999997  0.50000004  1
  Ge  Ge3  1  0.50000000  0.00000000  0.50000000  1
  Pd  Pd4  1  0.50000000  0.49999998  0.50000002  1
  Pd  Pd5  1  0.50000000  0.99999997  0.00000004  1
