# generated using pymatgen
data_LiCu2GePd
_symmetry_space_group_name_H-M   'P 1'
_cell_length_a   4.05141783
_cell_length_b   4.05141783
_cell_length_c   5.73019266
_cell_angle_alpha   110.70246124
_cell_angle_beta   110.70246124
_cell_angle_gamma   90.00000000
_symmetry_Int_Tables_number   1
_chemical_formula_structural   LiCu2GePd
_chemical_formula_sum   'Li1 Cu2 Ge1 Pd1'
_cell_volume   81.45722899
_cell_formula_units_Z   1
loop_
 _symmetry_equiv_pos_site_id
 _symmetry_equiv_pos_as_xyz
  1  'x, y, z'
loop_
 _atom_site_type_symbol
 _atom_site_label
 _atom_site_symmetry_multiplicity
 _atom_site_fract_x
 _atom_site_fract_y
 _atom_site_fract_z
 _atom_site_occupancy
  Li  Li0  1  0.00000000  0.00000000  0.00000000  1
  Cu  Cu1  1  0.62069105  0.62069104  0.24138204  1
  Cu  Cu2  1  0.37930903  0.37930902  0.75861802  1
  Ge  Ge3  1  0.75000005  0.25000002  0.50000002  1
  Pd  Pd4  1  0.25000004  0.75000005  0.50000003  1
