# generated using pymatgen
data_YErSc2(FeNi)4
_symmetry_space_group_name_H-M   'P 1'
_cell_length_a   4.80771589
_cell_length_b   4.80771589
_cell_length_c   7.90994501
_cell_angle_alpha   90.00000000
_cell_angle_beta   90.00000000
_cell_angle_gamma   120.00000000
_symmetry_Int_Tables_number   1
_chemical_formula_structural   YErSc2(FeNi)4
_chemical_formula_sum   'Y1 Er1 Sc2 Fe4 Ni4'
_cell_volume   158.33673568
_cell_formula_units_Z   1
loop_
 _symmetry_equiv_pos_site_id
 _symmetry_equiv_pos_as_xyz
  1  'x, y, z'
loop_
 _atom_site_type_symbol
 _atom_site_label
 _atom_site_symmetry_multiplicity
 _atom_site_fract_x
 _atom_site_fract_y
 _atom_site_fract_z
 _atom_site_occupancy
  Er  Er0  1  0.66666667  0.33333333  0.93660600  1
  Y  Y1  1  0.33333333  0.66666665  0.43660600  1
  Sc  Sc2  1  0.33333333  0.66666665  0.06339400  1
  Sc  Sc3  1  0.66666667  0.33333333  0.56339400  1
  Fe  Fe4  1  0.00000000  0.00000000  0.00000000  1
  Fe  Fe5  1  0.00000000  0.00000000  0.50000000  1
  Fe  Fe6  1  0.17185499  0.82814398  0.75000000  1
  Ni  Ni7  1  0.82814500  0.65628999  0.25000000  1
  Ni  Ni8  1  0.34371100  0.17185600  0.25000000  1
  Fe  Fe9  1  0.65628900  0.82814398  0.75000000  1
  Ni  Ni10  1  0.17185500  0.34370999  0.75000000  1
  Ni  Ni11  1  0.82814502  0.17185600  0.25000000  1
