# generated using pymatgen
data_ErAlGa2
_symmetry_space_group_name_H-M   'P 1'
_cell_length_a   5.52535200
_cell_length_b   5.52535200
_cell_length_c   8.26491928
_cell_angle_alpha   90.00000000
_cell_angle_beta   90.00000000
_cell_angle_gamma   120.00000000
_symmetry_Int_Tables_number   1
_chemical_formula_structural   ErAlGa2
_chemical_formula_sum   'Er3 Al3 Ga6'
_cell_volume   218.51897233
_cell_formula_units_Z   3
loop_
 _symmetry_equiv_pos_site_id
 _symmetry_equiv_pos_as_xyz
  1  'x, y, z'
loop_
 _atom_site_type_symbol
 _atom_site_label
 _atom_site_symmetry_multiplicity
 _atom_site_fract_x
 _atom_site_fract_y
 _atom_site_fract_z
 _atom_site_occupancy
  Er  Er0  1  0.66666666  0.33333332  0.58926298  1
  Er  Er1  1  0.33333332  0.66666664  0.41073699  1
  Al  Al2  1  0.33333332  0.66666664  0.08926300  1
  Er  Er3  1  0.66666666  0.33333332  0.91073697  1
  Ga  Ga4  1  0.00000000  0.00000000  0.49999998  1
  Al  Al5  1  0.00000000  0.00000000  0.00000000  1
  Ga  Ga6  1  0.17136899  0.34273799  0.74999997  1
  Al  Al7  1  0.17136898  0.82863097  0.74999997  1
  Ga  Ga8  1  0.65726198  0.82863097  0.74999997  1
  Ga  Ga9  1  0.82863099  0.65726197  0.24999999  1
  Ga  Ga10  1  0.82863100  0.17136899  0.24999999  1
  Ga  Ga11  1  0.34273800  0.17136899  0.24999999  1
