# generated using pymatgen
data_HfFe5CuP5
_symmetry_space_group_name_H-M   'P 1'
_cell_length_a   3.94983196
_cell_length_b   8.00686646
_cell_length_c   8.00686646
_cell_angle_alpha   120.00000000
_cell_angle_beta   90.00000000
_cell_angle_gamma   90.00000000
_symmetry_Int_Tables_number   1
_chemical_formula_structural   HfFe5CuP5
_chemical_formula_sum   'Hf1 Fe5 Cu1 P5'
_cell_volume   219.29787414
_cell_formula_units_Z   1
loop_
 _symmetry_equiv_pos_site_id
 _symmetry_equiv_pos_as_xyz
  1  'x, y, z'
loop_
 _atom_site_type_symbol
 _atom_site_label
 _atom_site_symmetry_multiplicity
 _atom_site_fract_x
 _atom_site_fract_y
 _atom_site_fract_z
 _atom_site_occupancy
  Hf  Hf0  1  0.00000000  0.00000000  0.00000000  1
  Fe  Fe1  1  -0.00000000  0.49999998  0.50000003  1
  Fe  Fe2  1  -0.00000000  0.49999998  0.00000002  1
  Fe  Fe3  1  0.00000000  0.00000000  0.50000001  1
  Fe  Fe4  1  0.50000000  0.78324097  0.21675804  1
  Fe  Fe5  1  0.50000000  0.21675899  0.43351802  1
  P  P6  1  0.50000000  0.56648298  0.78324204  1
  P  P7  1  0.50000000  0.43351699  0.21675802  1
  P  P8  1  0.50000000  0.78324097  0.56648204  1
  P  P9  1  0.50000000  0.21675899  0.78324202  1
  P  P10  1  -0.00000000  0.33333332  0.66666669  1
  Cu  Cu11  1  -0.00000000  0.66666664  0.33333337  1
