# generated using pymatgen
data_HfZrMnAl3GaSi3
_symmetry_space_group_name_H-M   'P 1'
_cell_length_a   3.37771201
_cell_length_b   7.14297819
_cell_length_c   7.14297819
_cell_angle_alpha   90.00000000
_cell_angle_beta   90.00000000
_cell_angle_gamma   90.00000000
_symmetry_Int_Tables_number   1
_chemical_formula_structural   HfZrMnAl3GaSi3
_chemical_formula_sum   'Hf1 Zr1 Mn1 Al3 Ga1 Si3'
_cell_volume   172.33808648
_cell_formula_units_Z   1
loop_
 _symmetry_equiv_pos_site_id
 _symmetry_equiv_pos_as_xyz
  1  'x, y, z'
loop_
 _atom_site_type_symbol
 _atom_site_label
 _atom_site_symmetry_multiplicity
 _atom_site_fract_x
 _atom_site_fract_y
 _atom_site_fract_z
 _atom_site_occupancy
  Mn  Mn0  1  0.50000000  0.67157198  0.17157200  1
  Hf  Hf1  1  0.50000000  0.17157200  0.32842799  1
  Zr  Zr2  1  0.50000000  0.82842798  0.67157198  1
  Al  Al3  1  0.50000000  0.32842799  0.82842798  1
  Al  Al4  1  0.00000000  0.00000000  0.00000000  1
  Al  Al5  1  -0.00000000  0.49999999  0.49999999  1
  Ga  Ga6  1  -0.00000000  0.87728298  0.37728299  1
  Si  Si7  1  0.00000000  0.37728299  0.12271700  1
  Si  Si8  1  0.00000000  0.62271698  0.87728298  1
  Si  Si9  1  0.00000000  0.12271700  0.62271698  1
