# generated using pymatgen
data_LiNi
_symmetry_space_group_name_H-M   'P 1'
_cell_length_a   4.05346584
_cell_length_b   4.05346632
_cell_length_c   6.67955780
_cell_angle_alpha   90.00000000
_cell_angle_beta   90.00000000
_cell_angle_gamma   120.00000000
_symmetry_Int_Tables_number   1
_chemical_formula_structural   LiNi
_chemical_formula_sum   'Li2 Ni2'
_cell_volume   95.04547175
_cell_formula_units_Z   2
loop_
 _symmetry_equiv_pos_site_id
 _symmetry_equiv_pos_as_xyz
  1  'x, y, z'
loop_
 _atom_site_type_symbol
 _atom_site_label
 _atom_site_symmetry_multiplicity
 _atom_site_fract_x
 _atom_site_fract_y
 _atom_site_fract_z
 _atom_site_occupancy
  Li  Li0  1  0.66666672  0.33333335  0.00001100  1
  Li  Li1  1  0.33333339  0.66666670  0.50001101  1
  Ni  Ni2  1  0.66666672  0.33333335  0.62598902  1
  Ni  Ni3  1  0.33333339  0.66666670  0.12598900  1
