# generated using pymatgen
data_Na3Li5CuO11
_symmetry_space_group_name_H-M   'P 1'
_cell_length_a   5.43663406
_cell_length_b   5.47590780
_cell_length_c   10.19378853
_cell_angle_alpha   75.50354767
_cell_angle_beta   75.01567078
_cell_angle_gamma   60.60289001
_symmetry_Int_Tables_number   1
_chemical_formula_structural   Na3Li5CuO11
_chemical_formula_sum   'Na3 Li5 Cu1 O11'
_cell_volume   252.64741585
_cell_formula_units_Z   1
loop_
 _symmetry_equiv_pos_site_id
 _symmetry_equiv_pos_as_xyz
  1  'x, y, z'
loop_
 _atom_site_type_symbol
 _atom_site_label
 _atom_site_symmetry_multiplicity
 _atom_site_fract_x
 _atom_site_fract_y
 _atom_site_fract_z
 _atom_site_occupancy
  Li  Li0  1  0.69221697  0.68671999  0.96358807  1
  Li  Li1  1  0.83028797  0.81788298  0.53565806  1
  Na  Na2  1  0.41124598  0.44061899  0.71449305  1
  Na  Na3  1  0.91990596  0.95239098  0.21429805  1
  Na  Na4  1  0.08742100  0.06693500  0.78595204  1
  Li  Li5  1  0.56706698  0.58018899  0.28491604  1
  Li  Li6  1  0.20042099  0.16787400  0.46530103  1
  Li  Li7  1  0.31922399  0.31054399  0.03565302  1
  O  O8  1  0.08415899  0.67536199  0.87397005  1
  Cu  Cu9  1  0.41832098  0.82834798  0.62181005  1
  O  O10  1  0.38391999  0.07457300  0.87452505  1
  O  O11  1  0.11207699  0.42436999  0.62781704  1
  O  O12  1  0.16983098  0.86785998  0.37686004  1
  O  O13  1  0.62167597  0.91990098  0.12537204  1
  O  O14  1  0.57779998  0.17314300  0.37005903  1
  O  O15  1  0.92075997  0.32761099  0.12132403  1
  O  O16  1  0.68070498  0.37351499  0.87572606  1
  O  O17  1  0.81154898  0.12880800  0.62592405  1
  O  O18  1  0.87275897  0.56312199  0.37906105  1
  O  O19  1  0.31864998  0.62023399  0.12769302  1
