# generated using pymatgen
data_LiFeCu4
_symmetry_space_group_name_H-M   'P 1'
_cell_length_a   3.95598197
_cell_length_b   4.81211185
_cell_length_c   4.81211185
_cell_angle_alpha   116.38610840
_cell_angle_beta   90.00000000
_cell_angle_gamma   90.00000000
_symmetry_Int_Tables_number   1
_chemical_formula_structural   LiFeCu4
_chemical_formula_sum   'Li1 Fe1 Cu4'
_cell_volume   82.06278675
_cell_formula_units_Z   1
loop_
 _symmetry_equiv_pos_site_id
 _symmetry_equiv_pos_as_xyz
  1  'x, y, z'
loop_
 _atom_site_type_symbol
 _atom_site_label
 _atom_site_symmetry_multiplicity
 _atom_site_fract_x
 _atom_site_fract_y
 _atom_site_fract_z
 _atom_site_occupancy
  Li  Li0  1  0.00000000  0.00000000  0.00000000  1
  Fe  Fe1  1  0.50000000  0.49999999  0.50000001  1
  Cu  Cu2  1  -0.00000000  0.65789099  0.34210903  1
  Cu  Cu3  1  1.00000001  0.34210899  0.65789099  1
  Cu  Cu4  1  0.50000000  0.00000000  0.49999998  1
  Cu  Cu5  1  0.50000000  0.49999999  0.00000003  1
