# generated using pymatgen
data_CaMnCuO5
_symmetry_space_group_name_H-M   'P 1'
_cell_length_a   5.55949640
_cell_length_b   5.55949640
_cell_length_c   5.78854990
_cell_angle_alpha   61.30056381
_cell_angle_beta   61.30056381
_cell_angle_gamma   59.99999619
_symmetry_Int_Tables_number   1
_chemical_formula_structural   CaMnCuO5
_chemical_formula_sum   'Ca1 Mn1 Cu1 O5'
_cell_volume   128.94039819
_cell_formula_units_Z   1
loop_
 _symmetry_equiv_pos_site_id
 _symmetry_equiv_pos_as_xyz
  1  'x, y, z'
loop_
 _atom_site_type_symbol
 _atom_site_label
 _atom_site_symmetry_multiplicity
 _atom_site_fract_x
 _atom_site_fract_y
 _atom_site_fract_z
 _atom_site_occupancy
  Cu  Cu0  1  0.50000000  0.49999999  0.50000000  1
  Ca  Ca1  1  0.00000000  0.00000000  0.00000000  1
  Mn  Mn2  1  0.82678800  0.25727000  0.25225700  1
  O  O3  1  0.25727000  0.66368499  0.25225700  1
  O  O4  1  0.33631500  0.17321200  0.74774300  1
  O  O5  1  0.74273000  0.33631500  0.74774300  1
  O  O6  1  0.17321200  0.74272999  0.74774300  1
  O  O7  1  0.66368500  0.82678799  0.25225700  1
