# generated using pymatgen
data_HoErAl4
_symmetry_space_group_name_H-M   'P 1'
_cell_length_a   5.41722584
_cell_length_b   5.41722584
_cell_length_c   5.41722584
_cell_angle_alpha   88.65600586
_cell_angle_beta   60.47640610
_cell_angle_gamma   118.93147278
_symmetry_Int_Tables_number   1
_chemical_formula_structural   HoErAl4
_chemical_formula_sum   'Ho1 Er1 Al4'
_cell_volume   113.68778286
_cell_formula_units_Z   1
loop_
 _symmetry_equiv_pos_site_id
 _symmetry_equiv_pos_as_xyz
  1  'x, y, z'
loop_
 _atom_site_type_symbol
 _atom_site_label
 _atom_site_symmetry_multiplicity
 _atom_site_fract_x
 _atom_site_fract_y
 _atom_site_fract_z
 _atom_site_occupancy
  Er  Er0  1  0.25000007  0.37008304  0.87991699  1
  Ho  Ho1  1  0.75000013  0.62991707  0.12008292  1
  Al  Al2  1  0.00000000  0.00000000  0.50000002  1
  Al  Al3  1  0.50000003  0.00000000  1.00000003  1
  Al  Al4  1  0.50000003  0.00000000  0.50000001  1
  Al  Al5  1  0.00000007  0.50000006  0.49999997  1
