# generated using pymatgen
data_LaYScTlAu2Se
_symmetry_space_group_name_H-M   'P 1'
_cell_length_a   4.37071991
_cell_length_b   4.37071991
_cell_length_c   9.27830124
_cell_angle_alpha   90.00000000
_cell_angle_beta   90.00000000
_cell_angle_gamma   90.00000000
_symmetry_Int_Tables_number   1
_chemical_formula_structural   LaYScTlAu2Se
_chemical_formula_sum   'La1 Y1 Sc1 Tl1 Au2 Se1'
_cell_volume   177.24517491
_cell_formula_units_Z   1
loop_
 _symmetry_equiv_pos_site_id
 _symmetry_equiv_pos_as_xyz
  1  'x, y, z'
loop_
 _atom_site_type_symbol
 _atom_site_label
 _atom_site_symmetry_multiplicity
 _atom_site_fract_x
 _atom_site_fract_y
 _atom_site_fract_z
 _atom_site_occupancy
  Y  Y0  1  0.50000001  0.00000000  0.76252298  1
  La  La1  1  0.00000000  0.50000001  0.23747699  1
  Sc  Sc2  1  0.50000001  0.00000000  0.16608700  1
  Tl  Tl3  1  0.00000000  0.50000001  0.83391298  1
  Au  Au4  1  0.50000001  0.50000001  0.49999999  1
  Au  Au5  1  0.00000000  0.00000000  0.49999999  1
  Se  Se6  1  0.50000001  0.50000001  -0.00000000  1
