# generated using pymatgen
data_Li2MnCoNi2
_symmetry_space_group_name_H-M   'P 1'
_cell_length_a   3.71136904
_cell_length_b   5.05075884
_cell_length_c   5.12801790
_cell_angle_alpha   90.00000000
_cell_angle_beta   90.00000000
_cell_angle_gamma   95.39197540
_symmetry_Int_Tables_number   1
_chemical_formula_structural   Li2MnCoNi2
_chemical_formula_sum   'Li2 Mn1 Co1 Ni2'
_cell_volume   95.70053088
_cell_formula_units_Z   1
loop_
 _symmetry_equiv_pos_site_id
 _symmetry_equiv_pos_as_xyz
  1  'x, y, z'
loop_
 _atom_site_type_symbol
 _atom_site_label
 _atom_site_symmetry_multiplicity
 _atom_site_fract_x
 _atom_site_fract_y
 _atom_site_fract_z
 _atom_site_occupancy
  Li  Li0  1  0.50000002  0.50000001  0.50000001  1
  Co  Co1  1  0.00000000  0.00000000  0.00000000  1
  Li  Li2  1  0.44106100  0.20420100  0.79384902  1
  Mn  Mn3  1  0.05893901  0.29579901  0.29384901  1
  Ni  Ni4  1  0.94106102  0.70420101  0.70615101  1
  Ni  Ni5  1  0.55893903  0.79579901  0.20615100  1
