# generated using pymatgen
data_Na2Li2Cu
_symmetry_space_group_name_H-M   'P 1'
_cell_length_a   4.48990583
_cell_length_b   4.48990536
_cell_length_c   7.24735594
_cell_angle_alpha   90.00000000
_cell_angle_beta   90.00000000
_cell_angle_gamma   120.00000763
_symmetry_Int_Tables_number   1
_chemical_formula_structural   Na2Li2Cu
_chemical_formula_sum   'Na2 Li2 Cu1'
_cell_volume   126.52740730
_cell_formula_units_Z   1
loop_
 _symmetry_equiv_pos_site_id
 _symmetry_equiv_pos_as_xyz
  1  'x, y, z'
loop_
 _atom_site_type_symbol
 _atom_site_label
 _atom_site_symmetry_multiplicity
 _atom_site_fract_x
 _atom_site_fract_y
 _atom_site_fract_z
 _atom_site_occupancy
  Li  Li0  1  0.00000000  0.00000000  0.62669601  1
  Na  Na1  1  0.66666671  0.33333335  0.99322401  1
  Na  Na2  1  0.33333339  0.66666670  0.37319300  1
  Li  Li3  1  0.33333339  0.66666670  0.77486201  1
  Cu  Cu4  1  0.00000000  0.00000000  0.23202500  1
