# generated using pymatgen
data_Y2AlGa2SiGe4
_symmetry_space_group_name_H-M   'P 1'
_cell_length_a   4.44939995
_cell_length_b   4.44939995
_cell_length_c   10.10140133
_cell_angle_alpha   90.00000000
_cell_angle_beta   90.00000000
_cell_angle_gamma   90.00000000
_symmetry_Int_Tables_number   1
_chemical_formula_structural   Y2AlGa2SiGe4
_chemical_formula_sum   'Y2 Al1 Ga2 Si1 Ge4'
_cell_volume   199.97905731
_cell_formula_units_Z   1
loop_
 _symmetry_equiv_pos_site_id
 _symmetry_equiv_pos_as_xyz
  1  'x, y, z'
loop_
 _atom_site_type_symbol
 _atom_site_label
 _atom_site_symmetry_multiplicity
 _atom_site_fract_x
 _atom_site_fract_y
 _atom_site_fract_z
 _atom_site_occupancy
  Y  Y0  1  0.00000000  0.50000001  0.23402899  1
  Y  Y1  1  0.50000001  0.00000000  0.76597098  1
  Al  Al2  1  0.00000000  0.00000000  0.00000000  1
  Si  Si3  1  0.50000001  0.50000001  0.00000000  1
  Ga  Ga4  1  0.50000001  0.00000000  0.37241899  1
  Ga  Ga5  1  0.00000000  0.50000001  0.62758098  1
  Ge  Ge6  1  0.50000001  0.00000000  0.12554300  1
  Ge  Ge7  1  0.00000000  0.00000000  0.49999998  1
  Ge  Ge8  1  0.50000001  0.50000001  0.49999998  1
  Ge  Ge9  1  0.00000000  0.50000001  0.87445697  1
