# generated using pymatgen
data_YEr3(AlSi)4
_symmetry_space_group_name_H-M   'P 1'
_cell_length_a   5.37713957
_cell_length_b   5.37713957
_cell_length_c   8.46062374
_cell_angle_alpha   90.00000000
_cell_angle_beta   90.00000000
_cell_angle_gamma   119.98638916
_symmetry_Int_Tables_number   1
_chemical_formula_structural   YEr3(AlSi)4
_chemical_formula_sum   'Y1 Er3 Al4 Si4'
_cell_volume   211.88254439
_cell_formula_units_Z   1
loop_
 _symmetry_equiv_pos_site_id
 _symmetry_equiv_pos_as_xyz
  1  'x, y, z'
loop_
 _atom_site_type_symbol
 _atom_site_label
 _atom_site_symmetry_multiplicity
 _atom_site_fract_x
 _atom_site_fract_y
 _atom_site_fract_z
 _atom_site_occupancy
  Er  Er0  1  0.33333338  0.66666669  0.45225901  1
  Er  Er1  1  0.66666669  0.33333334  0.56944402  1
  Y  Y2  1  0.66666669  0.33333334  0.93055603  1
  Er  Er3  1  0.33333338  0.66666669  0.04774100  1
  Al  Al4  1  0.32547801  0.16273100  0.25000001  1
  Al  Al5  1  0.83725701  0.16274400  0.25000001  1
  Al  Al6  1  0.83726904  0.67452202  0.25000001  1
  Al  Al7  1  0.99996200  0.00003700  0.51752002  1
  Si  Si8  1  0.99996200  0.00003700  0.98248003  1
  Si  Si9  1  0.66831805  0.83413002  0.75000002  1
  Si  Si10  1  0.16586205  0.83413802  0.75000002  1
  Si  Si11  1  0.16587002  0.33168201  0.75000002  1
