# generated using pymatgen
data_LaInAu
_symmetry_space_group_name_H-M   'P 1'
_cell_length_a   4.47375011
_cell_length_b   6.25204182
_cell_length_c   7.56254435
_cell_angle_alpha   114.41580963
_cell_angle_beta   107.20452118
_cell_angle_gamma   90.00000000
_symmetry_Int_Tables_number   1
_chemical_formula_structural   LaInAu
_chemical_formula_sum   'La2 In2 Au2'
_cell_volume   182.16326665
_cell_formula_units_Z   2
loop_
 _symmetry_equiv_pos_site_id
 _symmetry_equiv_pos_as_xyz
  1  'x, y, z'
loop_
 _atom_site_type_symbol
 _atom_site_label
 _atom_site_symmetry_multiplicity
 _atom_site_fract_x
 _atom_site_fract_y
 _atom_site_fract_z
 _atom_site_occupancy
  In  In0  1  0.00000000  0.00000000  0.00000000  1
  La  La1  1  0.33903800  0.33903801  0.67807600  1
  La  La2  1  0.66096200  0.66096201  0.32192400  1
  In  In3  1  0.99999999  0.50000001  1.00000001  1
  Au  Au4  1  0.32873001  0.82873001  0.65745999  1
  Au  Au5  1  0.67126999  0.17127000  0.34254001  1
