# generated using pymatgen
data_MnP2
_symmetry_space_group_name_H-M   'P 1'
_cell_length_a   3.91297817
_cell_length_b   3.91297817
_cell_length_c   7.45456743
_cell_angle_alpha   75.40707397
_cell_angle_beta   75.40707397
_cell_angle_gamma   64.24311066
_symmetry_Int_Tables_number   1
_chemical_formula_structural   MnP2
_chemical_formula_sum   'Mn2 P4'
_cell_volume   98.14537544
_cell_formula_units_Z   2
loop_
 _symmetry_equiv_pos_site_id
 _symmetry_equiv_pos_as_xyz
  1  'x, y, z'
loop_
 _atom_site_type_symbol
 _atom_site_label
 _atom_site_symmetry_multiplicity
 _atom_site_fract_x
 _atom_site_fract_y
 _atom_site_fract_z
 _atom_site_occupancy
  Mn  Mn0  1  0.17724896  0.82275101  0.75000000  1
  Mn  Mn1  1  0.82275099  0.17724900  0.24999999  1
  P  P2  1  0.86177697  0.57855801  0.56118899  1
  P  P3  1  0.42144199  0.13822300  0.93881100  1
  P  P4  1  0.57855796  0.86177701  0.06118899  1
  P  P5  1  0.13822298  0.42144200  0.43881100  1
