# generated using pymatgen
data_K5BaLiNiClO4
_symmetry_space_group_name_H-M   'P 1'
_cell_length_a   4.00095797
_cell_length_b   4.18809509
_cell_length_c   15.89398384
_cell_angle_alpha   90.00000000
_cell_angle_beta   90.00000000
_cell_angle_gamma   90.00000000
_symmetry_Int_Tables_number   1
_chemical_formula_structural   K5BaLiNiClO4
_chemical_formula_sum   'K5 Ba1 Li1 Ni1 Cl1 O4'
_cell_volume   266.32583041
_cell_formula_units_Z   1
loop_
 _symmetry_equiv_pos_site_id
 _symmetry_equiv_pos_as_xyz
  1  'x, y, z'
loop_
 _atom_site_type_symbol
 _atom_site_label
 _atom_site_symmetry_multiplicity
 _atom_site_fract_x
 _atom_site_fract_y
 _atom_site_fract_z
 _atom_site_occupancy
  Ba  Ba0  1  0.25000000  0.00000000  0.10052100  1
  K  K1  1  0.25000000  0.49999999  0.60710501  1
  K  K2  1  0.75000001  0.49999999  0.39892600  1
  K  K3  1  0.75000001  0.00000000  0.89653001  1
  K  K4  1  0.25000000  0.00000000  0.31078100  1
  K  K5  1  0.25000000  0.00000000  0.46002000  1
  Li  Li6  1  0.25000000  0.49999999  0.94572001  1
  Ni  Ni7  1  0.75000001  0.49999999  0.05396000  1
  O  O8  1  0.75000001  0.00000000  0.56601301  1
  O  O9  1  0.25000000  0.49999999  0.24044900  1
  Cl  Cl10  1  0.25000000  0.00000000  0.74906701  1
  O  O11  1  0.75000001  0.00000000  0.23535100  1
  O  O12  1  0.75000001  0.49999999  0.75355701  1
