# generated using pymatgen
data_Li4Cu2BiTeO9
_symmetry_space_group_name_H-M   'P 1'
_cell_length_a   7.00161982
_cell_length_b   7.00161982
_cell_length_c   7.00161982
_cell_angle_alpha   60.00000000
_cell_angle_beta   60.00000000
_cell_angle_gamma   60.00000000
_symmetry_Int_Tables_number   1
_chemical_formula_structural   Li4Cu2BiTeO9
_chemical_formula_sum   'Li4 Cu2 Bi1 Te1 O9'
_cell_volume   242.70603618
_cell_formula_units_Z   1
loop_
 _symmetry_equiv_pos_site_id
 _symmetry_equiv_pos_as_xyz
  1  'x, y, z'
loop_
 _atom_site_type_symbol
 _atom_site_label
 _atom_site_symmetry_multiplicity
 _atom_site_fract_x
 _atom_site_fract_y
 _atom_site_fract_z
 _atom_site_occupancy
  Li  Li0  1  0.87371103  0.87371103  0.37886701  1
  Li  Li1  1  0.87371103  0.87371103  0.87371103  1
  Li  Li2  1  0.87371103  0.37886701  0.87371103  1
  Li  Li3  1  0.37886701  0.87371103  0.87371103  1
  Bi  Bi4  1  0.12628900  0.12628900  0.62113302  1
  Cu  Cu5  1  0.12628900  0.12628900  0.12628900  1
  O  O6  1  0.12628900  0.62113302  0.12628900  1
  Te  Te7  1  0.62113302  0.12628900  0.12628900  1
  Cu  Cu8  1  0.50000002  0.50000002  0.50000002  1
  O  O9  1  0.75000002  0.75000002  0.75000002  1
  O  O10  1  0.25000001  0.25000001  0.25000001  1
  O  O11  1  0.25582101  0.74417902  0.25582101  1
  O  O12  1  0.74417902  0.25582101  0.25582101  1
  O  O13  1  0.74417902  0.74417902  0.25582101  1
  O  O14  1  0.74417902  0.25582101  0.74417902  1
  O  O15  1  0.25582101  0.74417902  0.74417902  1
  O  O16  1  0.25582101  0.25582101  0.74417902  1
