# generated using pymatgen
data_Al2Ga
_symmetry_space_group_name_H-M   'P 1'
_cell_length_a   3.26039004
_cell_length_b   4.97684002
_cell_length_c   8.19328594
_cell_angle_alpha   90.00000000
_cell_angle_beta   101.47657013
_cell_angle_gamma   90.00000000
_symmetry_Int_Tables_number   1
_chemical_formula_structural   Al2Ga
_chemical_formula_sum   'Al4 Ga2'
_cell_volume   130.28972026
_cell_formula_units_Z   2
loop_
 _symmetry_equiv_pos_site_id
 _symmetry_equiv_pos_as_xyz
  1  'x, y, z'
loop_
 _atom_site_type_symbol
 _atom_site_label
 _atom_site_symmetry_multiplicity
 _atom_site_fract_x
 _atom_site_fract_y
 _atom_site_fract_z
 _atom_site_occupancy
  Al  Al0  1  0.99483899  1.00000000  0.98967805  1
  Al  Al1  1  0.66510799  0.00000000  0.33021602  1
  Al  Al2  1  0.78251799  0.50000000  0.56503603  1
  Al  Al3  1  0.33009300  1.00000000  0.66018603  1
  Ga  Ga4  1  0.44611100  0.50000000  0.89222204  1
  Ga  Ga5  1  0.11465900  0.50000000  0.22931801  1
