# generated using pymatgen
data_CaNdDyMg
_symmetry_space_group_name_H-M   'P 1'
_cell_length_a   4.60333204
_cell_length_b   5.11727095
_cell_length_c   9.83247852
_cell_angle_alpha   90.00000000
_cell_angle_beta   90.00000000
_cell_angle_gamma   116.72982025
_symmetry_Int_Tables_number   1
_chemical_formula_structural   CaNdDyMg
_chemical_formula_sum   'Ca1 Nd1 Dy1 Mg1'
_cell_volume   206.86737497
_cell_formula_units_Z   1
loop_
 _symmetry_equiv_pos_site_id
 _symmetry_equiv_pos_as_xyz
  1  'x, y, z'
loop_
 _atom_site_type_symbol
 _atom_site_label
 _atom_site_symmetry_multiplicity
 _atom_site_fract_x
 _atom_site_fract_y
 _atom_site_fract_z
 _atom_site_occupancy
  Dy  Dy0  1  0.34113300  0.99999997  0.87755704  1
  Nd  Nd1  1  0.65886700  0.99999997  0.12244301  1
  Mg  Mg2  1  0.15886701  0.99999997  0.37755702  1
  Ca  Ca3  1  0.84113300  0.99999997  0.62244303  1
