# generated using pymatgen
data_MnBeFe14
_symmetry_space_group_name_H-M   'P 1'
_cell_length_a   4.40939617
_cell_length_b   5.29250908
_cell_length_c   6.62096739
_cell_angle_alpha   90.00000000
_cell_angle_beta   89.98159027
_cell_angle_gamma   90.00000000
_symmetry_Int_Tables_number   1
_chemical_formula_structural   MnBeFe14
_chemical_formula_sum   'Mn1 Be1 Fe14'
_cell_volume   154.51198031
_cell_formula_units_Z   1
loop_
 _symmetry_equiv_pos_site_id
 _symmetry_equiv_pos_as_xyz
  1  'x, y, z'
loop_
 _atom_site_type_symbol
 _atom_site_label
 _atom_site_symmetry_multiplicity
 _atom_site_fract_x
 _atom_site_fract_y
 _atom_site_fract_z
 _atom_site_occupancy
  Mn  Mn0  1  0.10335300  0.32255100  0.30640399  1
  Fe  Fe1  1  0.89664697  0.82255099  0.69359596  1
  Fe  Fe2  1  0.39695398  0.67887799  0.81123098  1
  Fe  Fe3  1  0.60304598  0.17887800  0.18876898  1
  Fe  Fe4  1  0.40034298  0.68091199  0.18999198  1
  Fe  Fe5  1  0.59965698  0.18091200  0.81000797  1
  Fe  Fe6  1  0.09801500  0.31698200  0.68433099  1
  Fe  Fe7  1  0.90198496  0.81698199  0.31566896  1
  Fe  Fe8  1  0.62044498  0.47317099  0.50204997  1
  Fe  Fe9  1  0.37955499  0.97317099  0.49794998  1
  Fe  Fe10  1  0.88087597  0.52848499  0.99895296  1
  Fe  Fe11  1  0.11912400  0.02848500  0.00104700  1
  Fe  Fe12  1  0.80641697  0.12113500  0.49558097  1
  Be  Be13  1  0.19358299  0.62113499  0.50441899  1
  Fe  Fe14  1  0.69504297  0.87788699  0.00080297  1
  Fe  Fe15  1  0.30495699  0.37788699  0.99919698  1
