# generated using pymatgen
data_YEr2Al3Si13Ni
_symmetry_space_group_name_H-M   'P 1'
_cell_length_a   5.62900209
_cell_length_b   7.94072247
_cell_length_c   7.94072247
_cell_angle_alpha   74.86740875
_cell_angle_beta   69.24093628
_cell_angle_gamma   69.24093628
_symmetry_Int_Tables_number   1
_chemical_formula_structural   YEr2Al3Si13Ni
_chemical_formula_sum   'Y1 Er2 Al3 Si13 Ni1'
_cell_volume   306.60237580
_cell_formula_units_Z   1
loop_
 _symmetry_equiv_pos_site_id
 _symmetry_equiv_pos_as_xyz
  1  'x, y, z'
loop_
 _atom_site_type_symbol
 _atom_site_label
 _atom_site_symmetry_multiplicity
 _atom_site_fract_x
 _atom_site_fract_y
 _atom_site_fract_z
 _atom_site_occupancy
  Y  Y0  1  0.63181997  0.60327200  0.13308796  1
  Er  Er1  1  0.36817998  0.39672800  0.86691196  1
  Er  Er2  1  0.13181999  0.13308800  0.60327198  1
  Al  Al3  1  0.86817995  0.86691201  0.39672794  1
  Al  Al4  1  0.24999994  1.00000001  -0.00000003  1
  Al  Al5  1  0.74999994  1.00000001  -0.00000005  1
  Si  Si6  1  0.86349497  0.52018500  0.75282494  1
  Si  Si7  1  0.13650497  0.47981500  0.24717498  1
  Ni  Ni8  1  0.36349496  0.75282500  0.52018496  1
  Si  Si9  1  0.63650499  0.24717500  0.47981496  1
  Si  Si10  1  0.24999997  0.50000000  0.49999997  1
  Si  Si11  1  0.74999997  0.50000000  0.49999995  1
  Si  Si12  1  0.48430096  0.76569900  0.76569895  1
  Si  Si13  1  0.01569899  0.23430100  0.23430099  1
  Si  Si14  1  0.51569899  0.23430100  0.23430097  1
  Si  Si15  1  0.98430096  0.76569900  0.76569893  1
  Si  Si16  1  0.89552199  0.25345900  0.95549794  1
  Si  Si17  1  0.10447795  0.74654100  0.04450198  1
  Si  Si18  1  0.39552094  0.95549901  0.25345896  1
  Si  Si19  1  0.60447900  0.04450100  0.74654096  1
