# generated using pymatgen
data_Li3MnO4
_symmetry_space_group_name_H-M   'P 1'
_cell_length_a   5.07746506
_cell_length_b   5.97959471
_cell_length_c   6.00358391
_cell_angle_alpha   60.14088821
_cell_angle_beta   74.37207794
_cell_angle_gamma   89.99072266
_symmetry_Int_Tables_number   1
_chemical_formula_structural   Li3MnO4
_chemical_formula_sum   'Li6 Mn2 O8'
_cell_volume   150.26428277
_cell_formula_units_Z   2
loop_
 _symmetry_equiv_pos_site_id
 _symmetry_equiv_pos_as_xyz
  1  'x, y, z'
loop_
 _atom_site_type_symbol
 _atom_site_label
 _atom_site_symmetry_multiplicity
 _atom_site_fract_x
 _atom_site_fract_y
 _atom_site_fract_z
 _atom_site_occupancy
  Li  Li0  1  0.49999693  0.74985797  0.00212303  1
  Li  Li1  1  0.49997397  0.25195799  0.99789400  1
  Li  Li2  1  0.00008196  0.49816798  0.00189702  1
  Li  Li3  1  0.99992799  0.00003900  0.99811200  1
  Li  Li4  1  0.00010696  0.49632398  0.49997601  1
  Li  Li5  1  0.50017197  0.25399199  0.50005301  1
  Mn  Mn6  1  0.99993190  0.98901596  0.50005504  1
  Mn  Mn7  1  0.49971892  0.76089497  0.50006303  1
  O  O8  1  0.75303093  0.62846097  0.73492202  1
  O  O9  1  0.75598498  0.13122599  0.72798101  1
  O  O10  1  0.25587796  0.39044998  0.72803401  1
  O  O11  1  0.25226192  0.88694896  0.73438602  1
  O  O12  1  0.24392696  0.35930298  0.27196201  1
  O  O13  1  0.24708592  0.86342396  0.26504703  1
  O  O14  1  0.74781098  0.12136099  0.26568901  1
  O  O15  1  0.74410993  0.61857597  0.27180703  1
