# generated using pymatgen
data_K3Na(CuSe2)4
_symmetry_space_group_name_H-M   'P 1'
_cell_length_a   5.77970600
_cell_length_b   7.56275034
_cell_length_c   12.95499325
_cell_angle_alpha   85.11027527
_cell_angle_beta   77.11066437
_cell_angle_gamma   67.53514099
_symmetry_Int_Tables_number   1
_chemical_formula_structural   K3Na(CuSe2)4
_chemical_formula_sum   'K3 Na1 Cu4 Se8'
_cell_volume   510.11139043
_cell_formula_units_Z   1
loop_
 _symmetry_equiv_pos_site_id
 _symmetry_equiv_pos_as_xyz
  1  'x, y, z'
loop_
 _atom_site_type_symbol
 _atom_site_label
 _atom_site_symmetry_multiplicity
 _atom_site_fract_x
 _atom_site_fract_y
 _atom_site_fract_z
 _atom_site_occupancy
  K  K0  1  0.67677400  0.00000000  0.64645200  1
  K  K1  1  0.32322600  0.00000000  0.35354800  1
  K  K2  1  0.07322596  0.50000000  0.85354802  1
  Na  Na3  1  0.42677397  0.50000000  0.14645200  1
  Cu  Cu4  1  0.50000000  0.00000000  1.00000001  1
  Cu  Cu5  1  0.24999997  0.50000000  0.50000001  1
  Cu  Cu6  1  0.00000000  0.00000000  0.00000000  1
  Cu  Cu7  1  0.74999997  0.50000000  0.50000001  1
  Se  Se8  1  0.35046295  0.69284600  0.60511101  1
  Se  Se9  1  0.64841898  0.30715500  0.39489000  1
  Se  Se10  1  0.95668996  0.69284600  0.39489000  1
  Se  Se11  1  0.04442498  0.30715500  0.60511101  1
  Se  Se12  1  0.39953694  0.80715400  0.89488902  1
  Se  Se13  1  0.10158099  0.19284500  0.10511000  1
  Se  Se14  1  0.79330995  0.80715400  0.10511001  1
  Se  Se15  1  0.70557499  0.19284500  0.89488901  1
