# generated using pymatgen
data_RbNaLiBrCl3O
_symmetry_space_group_name_H-M   'P 1'
_cell_length_a   3.96406841
_cell_length_b   3.96406841
_cell_length_c   10.54629230
_cell_angle_alpha   79.16761017
_cell_angle_beta   79.16761017
_cell_angle_gamma   59.99999237
_symmetry_Int_Tables_number   1
_chemical_formula_structural   RbNaLiBrCl3O
_chemical_formula_sum   'Rb1 Na1 Li1 Br1 Cl3 O1'
_cell_volume   140.09989829
_cell_formula_units_Z   1
loop_
 _symmetry_equiv_pos_site_id
 _symmetry_equiv_pos_as_xyz
  1  'x, y, z'
loop_
 _atom_site_type_symbol
 _atom_site_label
 _atom_site_symmetry_multiplicity
 _atom_site_fract_x
 _atom_site_fract_y
 _atom_site_fract_z
 _atom_site_occupancy
  Li  Li0  1  0.38070303  0.38070301  0.85789099  1
  Na  Na1  1  0.61929705  0.61929701  0.14210897  1
  Rb  Rb2  1  0.19629101  0.19629100  0.41112699  1
  Br  Br3  1  0.80371006  0.80371002  0.58886997  1
  Cl  Cl4  1  0.11317801  0.11317800  0.66046600  1
  Cl  Cl5  1  0.88682207  0.88682202  0.33953396  1
  O  O6  1  0.69480905  0.69480901  0.91557297  1
  Cl  Cl7  1  0.30519102  0.30519101  0.08442699  1
