# generated using pymatgen
data_Li3CaEuNiO10
_symmetry_space_group_name_H-M   'P 1'
_cell_length_a   3.81419992
_cell_length_b   5.01842403
_cell_length_c   11.22433186
_cell_angle_alpha   90.00000000
_cell_angle_beta   90.00000000
_cell_angle_gamma   90.00000000
_symmetry_Int_Tables_number   1
_chemical_formula_structural   Li3CaEuNiO10
_chemical_formula_sum   'Li3 Ca1 Eu1 Ni1 O10'
_cell_volume   214.84799549
_cell_formula_units_Z   1
loop_
 _symmetry_equiv_pos_site_id
 _symmetry_equiv_pos_as_xyz
  1  'x, y, z'
loop_
 _atom_site_type_symbol
 _atom_site_label
 _atom_site_symmetry_multiplicity
 _atom_site_fract_x
 _atom_site_fract_y
 _atom_site_fract_z
 _atom_site_occupancy
  Eu  Eu0  1  0.50000001  0.64028900  0.99546201  1
  Ca  Ca1  1  0.00000000  0.35971000  0.49546201  1
  Li  Li2  1  0.50000001  0.91901199  0.65311001  1
  Li  Li3  1  0.00000000  0.08098800  0.15311000  1
  Ni  Ni4  1  0.00000000  0.10967400  0.84650401  1
  Li  Li5  1  0.50000001  0.89032599  0.34650400  1
  O  O6  1  0.50000001  0.00607100  0.82125101  1
  O  O7  1  0.00000000  0.99392899  0.32125100  1
  O  O8  1  0.00000000  0.98415199  0.68004701  1
  O  O9  1  0.50000001  0.01584800  0.18004700  1
  O  O10  1  0.50000001  0.04699800  0.50672301  1
  O  O11  1  0.00000000  0.95300199  0.00672300  1
  O  O12  1  0.00000000  0.43762100  0.86793601  1
  O  O13  1  0.50000001  0.56237900  0.36793600  1
  O  O14  1  0.50000001  0.55095200  0.62896601  1
  O  O15  1  0.00000000  0.44904800  0.12896600  1
