# generated using pymatgen
data_Na4Li2CaCuAgO5
_symmetry_space_group_name_H-M   'P 1'
_cell_length_a   6.77329016
_cell_length_b   6.79262877
_cell_length_c   6.79262877
_cell_angle_alpha   60.34957504
_cell_angle_beta   60.09413528
_cell_angle_gamma   60.09413528
_symmetry_Int_Tables_number   1
_chemical_formula_structural   Na4Li2CaCuAgO5
_chemical_formula_sum   'Na4 Li2 Ca1 Cu1 Ag1 O5'
_cell_volume   221.87810065
_cell_formula_units_Z   1
loop_
 _symmetry_equiv_pos_site_id
 _symmetry_equiv_pos_as_xyz
  1  'x, y, z'
loop_
 _atom_site_type_symbol
 _atom_site_label
 _atom_site_symmetry_multiplicity
 _atom_site_fract_x
 _atom_site_fract_y
 _atom_site_fract_z
 _atom_site_occupancy
  Na  Na0  1  0.12596701  0.62403298  0.12403300  1
  Ca  Ca1  1  0.87403297  0.37596699  0.87596701  1
  Na  Na2  1  0.49999998  0.00000000  0.50000001  1
  Na  Na3  1  0.00000000  0.00000000  0.49999999  1
  Na  Na4  1  0.49999999  0.49999998  0.50000001  1
  Li  Li5  1  0.49999998  0.00000000  1.00000000  1
  Li  Li6  1  0.26976999  0.23935299  0.73935299  1
  Cu  Cu7  1  0.74736897  0.23551999  0.26974202  1
  Ag  Ag8  1  0.75152397  0.23935299  0.73935301  1
  O  O9  1  0.74736899  0.76974198  0.73552001  1
  O  O10  1  0.25263100  0.23025799  0.26448000  1
  O  O11  1  0.25263101  0.76447998  0.73025799  1
  O  O12  1  0.24847601  0.76064698  0.26064700  1
  O  O13  1  0.73022999  0.76064698  0.26064702  1
