# generated using pymatgen
data_K5Na(CuSe3)2
_symmetry_space_group_name_H-M   'P 1'
_cell_length_a   7.67407513
_cell_length_b   7.67407513
_cell_length_c   8.32491684
_cell_angle_alpha   104.90648651
_cell_angle_beta   104.90648651
_cell_angle_gamma   110.06221008
_symmetry_Int_Tables_number   1
_chemical_formula_structural   K5Na(CuSe3)2
_chemical_formula_sum   'K5 Na1 Cu2 Se6'
_cell_volume   411.52469050
_cell_formula_units_Z   1
loop_
 _symmetry_equiv_pos_site_id
 _symmetry_equiv_pos_as_xyz
  1  'x, y, z'
loop_
 _atom_site_type_symbol
 _atom_site_label
 _atom_site_symmetry_multiplicity
 _atom_site_fract_x
 _atom_site_fract_y
 _atom_site_fract_z
 _atom_site_occupancy
  Na  Na0  1  0.21613299  0.21613299  0.68558501  1
  K  K1  1  0.78386696  0.78386698  0.31441505  1
  K  K2  1  0.49999999  0.00000000  1.00000001  1
  K  K3  1  0.99999997  0.49999999  1.00000004  1
  K  K4  1  0.66814098  0.33185899  0.50000003  1
  K  K5  1  0.33185897  0.66814098  0.50000003  1
  Cu  Cu6  1  0.88161396  0.88161398  0.84359605  1
  Cu  Cu7  1  0.11838599  0.11838600  0.15640401  1
  Se  Se8  1  0.95042498  0.24276899  0.29977305  1
  Se  Se9  1  0.75723099  0.04957500  0.70022702  1
  Se  Se10  1  0.63156397  0.63156398  0.85708303  1
  Se  Se11  1  0.36843598  0.36843599  0.14291703  1
  Se  Se12  1  0.04957497  0.75723098  0.70022701  1
  Se  Se13  1  0.24276896  0.95042497  0.29977304  1
