# generated using pymatgen
data_EuErGa6(Ge2Pd)2
_symmetry_space_group_name_H-M   'P 1'
_cell_length_a   6.77500820
_cell_length_b   6.77500820
_cell_length_c   6.77500820
_cell_angle_alpha   107.90142822
_cell_angle_beta   110.26177216
_cell_angle_gamma   110.26177216
_symmetry_Int_Tables_number   1
_chemical_formula_structural   EuErGa6(Ge2Pd)2
_chemical_formula_sum   'Eu1 Er1 Ga6 Ge4 Pd2'
_cell_volume   239.25655602
_cell_formula_units_Z   1
loop_
 _symmetry_equiv_pos_site_id
 _symmetry_equiv_pos_as_xyz
  1  'x, y, z'
loop_
 _atom_site_type_symbol
 _atom_site_label
 _atom_site_symmetry_multiplicity
 _atom_site_fract_x
 _atom_site_fract_y
 _atom_site_fract_z
 _atom_site_occupancy
  Eu  Eu0  1  0.49999998  0.49999997  -0.00000003  1
  Er  Er1  1  0.49999999  0.00000000  0.49999999  1
  Ga  Ga2  1  0.72222397  0.27641798  0.27603398  1
  Ga  Ga3  1  0.27777598  0.55380997  0.55419395  1
  Ga  Ga4  1  0.99961597  0.05381000  0.77603398  1
  Ga  Ga5  1  0.00038398  0.77641795  0.05419395  1
  Ga  Ga6  1  0.00038399  0.72396596  0.44618994  1
  Ga  Ga7  1  0.99961596  0.44580597  0.72358196  1
  Pd  Pd8  1  0.27777599  0.22396599  0.22358198  1
  Pd  Pd9  1  0.72222396  0.94580594  0.94618991  1
  Ge  Ge10  1  0.31703997  0.90851995  0.90851991  1
  Ge  Ge11  1  0.68295997  0.59147996  0.59147995  1
  Ge  Ge12  1  -0.00000000  0.09147999  0.40851998  1
  Ge  Ge13  1  -0.00000001  0.40851998  0.09147997  1
