# generated using pymatgen
data_Li2CuO3
_symmetry_space_group_name_H-M   'P 1'
_cell_length_a   2.92016602
_cell_length_b   4.81278419
_cell_length_c   4.84429598
_cell_angle_alpha   90.00000000
_cell_angle_beta   91.31771851
_cell_angle_gamma   90.00000000
_symmetry_Int_Tables_number   1
_chemical_formula_structural   Li2CuO3
_chemical_formula_sum   'Li2 Cu1 O3'
_cell_volume   68.06435517
_cell_formula_units_Z   1
loop_
 _symmetry_equiv_pos_site_id
 _symmetry_equiv_pos_as_xyz
  1  'x, y, z'
loop_
 _atom_site_type_symbol
 _atom_site_label
 _atom_site_symmetry_multiplicity
 _atom_site_fract_x
 _atom_site_fract_y
 _atom_site_fract_z
 _atom_site_occupancy
  Li  Li0  1  0.87140799  0.24824999  0.98383301  1
  Cu  Cu1  1  0.37140800  0.75174997  0.48383301  1
  Li  Li2  1  0.27979100  0.04016500  0.20866600  1
  O  O3  1  0.77979100  0.95983496  0.70866600  1
  O  O4  1  0.80780000  0.54631798  0.29649999  1
  O  O5  1  0.30780000  0.45368198  0.79650001  1
