# generated using pymatgen
data_Li(CoGe)2
_symmetry_space_group_name_H-M   'P 1'
_cell_length_a   3.97553802
_cell_length_b   3.97553802
_cell_length_c   5.90474510
_cell_angle_alpha   109.67224884
_cell_angle_beta   109.67224884
_cell_angle_gamma   90.00000000
_symmetry_Int_Tables_number   1
_chemical_formula_structural   Li(CoGe)2
_chemical_formula_sum   'Li1 Co2 Ge2'
_cell_volume   82.06925288
_cell_formula_units_Z   1
loop_
 _symmetry_equiv_pos_site_id
 _symmetry_equiv_pos_as_xyz
  1  'x, y, z'
loop_
 _atom_site_type_symbol
 _atom_site_label
 _atom_site_symmetry_multiplicity
 _atom_site_fract_x
 _atom_site_fract_y
 _atom_site_fract_z
 _atom_site_occupancy
  Li  Li0  1  0.00000000  0.00000000  0.00000000  1
  Co  Co1  1  0.24999997  0.74999998  0.49999995  1
  Co  Co2  1  0.74999997  0.24999999  0.49999995  1
  Ge  Ge3  1  0.36852198  0.36852199  0.73704396  1
  Ge  Ge4  1  0.63147796  0.63147798  0.26295595  1
