# generated using pymatgen
data_BaEr3Al2(GaSi4)2
_symmetry_space_group_name_H-M   'P 1'
_cell_length_a   4.20997810
_cell_length_b   6.71408176
_cell_length_c   12.18305588
_cell_angle_alpha   90.00000000
_cell_angle_beta   90.00000000
_cell_angle_gamma   108.27140045
_symmetry_Int_Tables_number   1
_chemical_formula_structural   BaEr3Al2(GaSi4)2
_chemical_formula_sum   'Ba1 Er3 Al2 Ga2 Si8'
_cell_volume   327.00561809
_cell_formula_units_Z   1
loop_
 _symmetry_equiv_pos_site_id
 _symmetry_equiv_pos_as_xyz
  1  'x, y, z'
loop_
 _atom_site_type_symbol
 _atom_site_label
 _atom_site_symmetry_multiplicity
 _atom_site_fract_x
 _atom_site_fract_y
 _atom_site_fract_z
 _atom_site_occupancy
  Ba  Ba0  1  0.81592397  0.63184802  0.75000001  1
  Er  Er1  1  0.18407599  0.36815201  0.25000000  1
  Er  Er2  1  0.16735699  0.33471401  0.94162801  1
  Er  Er3  1  0.83264297  0.66528602  0.05837200  1
  Al  Al4  1  0.83264297  0.66528602  0.44162800  1
  Ga  Ga5  1  0.16735699  0.33471401  0.55837201  1
  Ga  Ga6  1  0.54197399  0.08394800  0.85613601  1
  Al  Al7  1  0.45802598  0.91605203  0.14386400  1
  Si  Si8  1  0.45802598  0.91605203  0.35613600  1
  Si  Si9  1  0.54197399  0.08394800  0.64386401  1
  Si  Si10  1  0.37475898  0.74951802  0.95439201  1
  Si  Si11  1  0.62524098  0.25048201  0.04560800  1
  Si  Si12  1  0.62524098  0.25048201  0.45439200  1
  Si  Si13  1  0.37475898  0.74951802  0.54560801  1
  Si  Si14  1  0.08907100  0.17814201  0.75000001  1
  Si  Si15  1  0.91092897  0.82185803  0.25000000  1
