# generated using pymatgen
data_La3ErIn4CuSn3
_symmetry_space_group_name_H-M   'P 1'
_cell_length_a   6.05599403
_cell_length_b   6.05599356
_cell_length_c   9.78539371
_cell_angle_alpha   90.00000000
_cell_angle_beta   90.00000000
_cell_angle_gamma   120.00000000
_symmetry_Int_Tables_number   1
_chemical_formula_structural   La3ErIn4CuSn3
_chemical_formula_sum   'La3 Er1 In4 Cu1 Sn3'
_cell_volume   310.79911891
_cell_formula_units_Z   1
loop_
 _symmetry_equiv_pos_site_id
 _symmetry_equiv_pos_as_xyz
  1  'x, y, z'
loop_
 _atom_site_type_symbol
 _atom_site_label
 _atom_site_symmetry_multiplicity
 _atom_site_fract_x
 _atom_site_fract_y
 _atom_site_fract_z
 _atom_site_occupancy
  La  La0  1  0.66666664  0.33333332  0.56399702  1
  La  La1  1  0.33333329  0.66666663  0.06399700  1
  La  La2  1  0.33333329  0.66666663  0.43600301  1
  Er  Er3  1  0.66666664  0.33333332  0.93600303  1
  In  In4  1  0.82892999  0.17106899  0.25000001  1
  In  In5  1  0.17106998  0.34213998  0.75000002  1
  In  In6  1  0.65786095  0.82893096  0.75000002  1
  In  In7  1  0.34213899  0.17106899  0.25000001  1
  Sn  Sn8  1  0.00000000  0.00000000  0.00000000  1
  Sn  Sn9  1  0.00000000  0.00000000  0.50000001  1
  Sn  Sn10  1  0.17106995  0.82893096  0.75000002  1
  Cu  Cu11  1  0.82892995  0.65785997  0.25000001  1
