# generated using pymatgen
data_YLuIn2Sn3Au
_symmetry_space_group_name_H-M   'P 1'
_cell_length_a   4.36765909
_cell_length_b   4.36765909
_cell_length_c   9.91848660
_cell_angle_alpha   90.00000000
_cell_angle_beta   90.00000000
_cell_angle_gamma   90.00000000
_symmetry_Int_Tables_number   1
_chemical_formula_structural   YLuIn2Sn3Au
_chemical_formula_sum   'Y1 Lu1 In2 Sn3 Au1'
_cell_volume   189.20947337
_cell_formula_units_Z   1
loop_
 _symmetry_equiv_pos_site_id
 _symmetry_equiv_pos_as_xyz
  1  'x, y, z'
loop_
 _atom_site_type_symbol
 _atom_site_label
 _atom_site_symmetry_multiplicity
 _atom_site_fract_x
 _atom_site_fract_y
 _atom_site_fract_z
 _atom_site_occupancy
  Y  Y0  1  0.00000000  0.49999999  0.75031203  1
  Lu  Lu1  1  0.49999999  0.00000000  0.24968801  1
  In  In2  1  0.00000000  0.00000000  0.50000002  1
  In  In3  1  0.49999999  0.49999999  0.50000002  1
  Sn  Sn4  1  0.00000000  0.00000000  0.00000000  1
  Sn  Sn5  1  0.49999999  0.49999999  0.00000000  1
  Sn  Sn6  1  0.00000000  0.49999999  0.31512001  1
  Au  Au7  1  0.49999999  0.00000000  0.68488003  1
