# generated using pymatgen
data_TiCu5(Se2S)2
_symmetry_space_group_name_H-M   'P 1'
_cell_length_a   7.49919128
_cell_length_b   7.49919128
_cell_length_c   7.49919128
_cell_angle_alpha   60.00000000
_cell_angle_beta   60.00000000
_cell_angle_gamma   60.00000000
_symmetry_Int_Tables_number   1
_chemical_formula_structural   TiCu5(Se2S)2
_chemical_formula_sum   'Ti1 Cu5 Se4 S2'
_cell_volume   298.21418429
_cell_formula_units_Z   1
loop_
 _symmetry_equiv_pos_site_id
 _symmetry_equiv_pos_as_xyz
  1  'x, y, z'
loop_
 _atom_site_type_symbol
 _atom_site_label
 _atom_site_symmetry_multiplicity
 _atom_site_fract_x
 _atom_site_fract_y
 _atom_site_fract_z
 _atom_site_occupancy
  Cu  Cu0  1  0.61434200  0.61434200  0.61434200  1
  Cu  Cu1  1  0.61434200  0.61434200  0.15697400  1
  Ti  Ti2  1  0.59302600  0.13565800  0.13565800  1
  Cu  Cu3  1  0.13565800  0.13565800  0.59302600  1
  Cu  Cu4  1  0.13565800  0.13565800  0.13565800  1
  Cu  Cu5  1  0.13565800  0.59302600  0.13565800  1
  Se  Se6  1  0.15697400  0.61434200  0.61434200  1
  Se  Se7  1  0.61434200  0.15697400  0.61434200  1
  S  S8  1  0.37500000  0.37500000  0.87500000  1
  Se  Se9  1  0.37500000  0.37500000  0.37500000  1
  S  S10  1  0.37500000  0.87500000  0.37500000  1
  Se  Se11  1  0.87500000  0.37500000  0.37500000  1
