# generated using pymatgen
data_LiYEr4ReNi(CN)2
_symmetry_space_group_name_H-M   'P 1'
_cell_length_a   3.86119199
_cell_length_b   6.36503315
_cell_length_c   7.30165291
_cell_angle_alpha   90.00000000
_cell_angle_beta   90.00000000
_cell_angle_gamma   90.00000000
_symmetry_Int_Tables_number   1
_chemical_formula_structural   LiYEr4ReNi(CN)2
_chemical_formula_sum   'Li1 Y1 Er4 Re1 Ni1 C2 N2'
_cell_volume   179.44991240
_cell_formula_units_Z   1
loop_
 _symmetry_equiv_pos_site_id
 _symmetry_equiv_pos_as_xyz
  1  'x, y, z'
loop_
 _atom_site_type_symbol
 _atom_site_label
 _atom_site_symmetry_multiplicity
 _atom_site_fract_x
 _atom_site_fract_y
 _atom_site_fract_z
 _atom_site_occupancy
  Er  Er0  1  0.25000000  0.76080398  0.38925500  1
  Li  Li1  1  0.75000000  0.23919599  0.61074501  1
  Er  Er2  1  0.25000000  0.26080399  0.11074500  1
  Y  Y3  1  0.75000000  0.73919598  0.88925501  1
  Er  Er4  1  0.25000000  0.52635099  0.67822101  1
  Er  Er5  1  0.75000000  0.47364899  0.32177900  1
  Ni  Ni6  1  0.25000000  0.02635100  0.82177901  1
  Re  Re7  1  0.75000000  0.97364898  0.17822100  1
  C  C8  1  0.75000000  0.35514799  0.92757801  1
  N  N9  1  0.25000000  0.64485198  0.07242200  1
  N  N10  1  0.75000000  0.85514798  0.57242201  1
  C  C11  1  0.25000000  0.14485200  0.42757801  1
