# generated using pymatgen
data_MnAlGaFeSi4
_symmetry_space_group_name_H-M   'P 1'
_cell_length_a   4.23585796
_cell_length_b   4.23585844
_cell_length_c   7.57071781
_cell_angle_alpha   90.00000000
_cell_angle_beta   90.00000000
_cell_angle_gamma   120.00000000
_symmetry_Int_Tables_number   1
_chemical_formula_structural   MnAlGaFeSi4
_chemical_formula_sum   'Mn1 Al1 Ga1 Fe1 Si4'
_cell_volume   117.63878144
_cell_formula_units_Z   1
loop_
 _symmetry_equiv_pos_site_id
 _symmetry_equiv_pos_as_xyz
  1  'x, y, z'
loop_
 _atom_site_type_symbol
 _atom_site_label
 _atom_site_symmetry_multiplicity
 _atom_site_fract_x
 _atom_site_fract_y
 _atom_site_fract_z
 _atom_site_occupancy
  Mn  Mn0  1  0.00000000  0.00000000  0.75000002  1
  Fe  Fe1  1  0.00000000  0.00000000  0.25000001  1
  Al  Al2  1  0.66666669  0.33333333  0.41588101  1
  Ga  Ga3  1  0.33333337  0.66666666  0.91588102  1
  Si  Si4  1  0.33333337  0.66666666  0.58411901  1
  Si  Si5  1  0.66666669  0.33333333  0.08411900  1
  Si  Si6  1  0.66666669  0.33333333  0.75000002  1
  Si  Si7  1  0.33333337  0.66666666  0.25000001  1
