# generated using pymatgen
data_ErAl3Si2
_symmetry_space_group_name_H-M   'P 1'
_cell_length_a   5.37157679
_cell_length_b   5.37157679
_cell_length_c   8.29665184
_cell_angle_alpha   90.00000000
_cell_angle_beta   90.00000000
_cell_angle_gamma   113.92134094
_symmetry_Int_Tables_number   1
_chemical_formula_structural   ErAl3Si2
_chemical_formula_sum   'Er2 Al6 Si4'
_cell_volume   218.82733502
_cell_formula_units_Z   2
loop_
 _symmetry_equiv_pos_site_id
 _symmetry_equiv_pos_as_xyz
  1  'x, y, z'
loop_
 _atom_site_type_symbol
 _atom_site_label
 _atom_site_symmetry_multiplicity
 _atom_site_fract_x
 _atom_site_fract_y
 _atom_site_fract_z
 _atom_site_occupancy
  Er  Er0  1  0.66195399  0.33804599  0.41440601  1
  Al  Al1  1  0.33804599  0.66195399  0.91440602  1
  Er  Er2  1  0.33804599  0.66195399  0.58559401  1
  Al  Al3  1  0.66195399  0.33804599  0.08559400  1
  Al  Al4  1  0.82533498  0.17466500  0.75000001  1
  Al  Al5  1  0.34148099  0.16639300  0.75000001  1
  Al  Al6  1  0.65851899  0.83360698  0.25000000  1
  Al  Al7  1  0.00000000  0.00000000  0.00000000  1
  Si  Si8  1  0.83360698  0.65851899  0.75000001  1
  Si  Si9  1  0.16639300  0.34148099  0.25000000  1
  Si  Si10  1  0.17466500  0.82533498  0.25000000  1
  Si  Si11  1  0.00000000  0.00000000  0.50000001  1
