# generated using pymatgen
data_Li6MnCuO8
_symmetry_space_group_name_H-M   'P 1'
_cell_length_a   5.14486313
_cell_length_b   5.14759684
_cell_length_c   6.00266504
_cell_angle_alpha   90.00000000
_cell_angle_beta   90.00000000
_cell_angle_gamma   108.99584961
_symmetry_Int_Tables_number   1
_chemical_formula_structural   Li6MnCuO8
_chemical_formula_sum   'Li6 Mn1 Cu1 O8'
_cell_volume   150.31535852
_cell_formula_units_Z   1
loop_
 _symmetry_equiv_pos_site_id
 _symmetry_equiv_pos_as_xyz
  1  'x, y, z'
loop_
 _atom_site_type_symbol
 _atom_site_label
 _atom_site_symmetry_multiplicity
 _atom_site_fract_x
 _atom_site_fract_y
 _atom_site_fract_z
 _atom_site_occupancy
  Li  Li0  1  0.00000001  0.75000003  0.87010999  1
  Li  Li1  1  0.00000001  0.75000003  0.37790800  1
  Li  Li2  1  0.00000000  0.25000001  0.62209200  1
  Li  Li3  1  0.00000000  0.25000001  0.12989000  1
  Li  Li4  1  0.50000000  0.75000003  0.12424100  1
  Li  Li5  1  0.49999999  0.25000001  0.87575899  1
  Mn  Mn6  1  0.50000000  0.75000003  0.62305000  1
  Cu  Cu7  1  0.49999999  0.25000001  0.37695000  1
  O  O8  1  0.27187000  0.50689202  0.86897699  1
  O  O9  1  0.27646400  0.51021202  0.37524000  1
  O  O10  1  0.72353599  0.48978802  0.62476000  1
  O  O11  1  0.27646399  0.01021200  0.62476000  1
  O  O12  1  0.72812999  0.49310802  0.13102300  1
  O  O13  1  0.72813000  0.99310804  0.86897699  1
  O  O14  1  0.27186999  0.00689200  0.13102300  1
  O  O15  1  0.72353600  0.98978804  0.37524000  1
