# generated using pymatgen
data_BaNa2EuCuAgHgBi2O7
_symmetry_space_group_name_H-M   'P 1'
_cell_length_a   7.59747601
_cell_length_b   7.64890957
_cell_length_c   7.59747601
_cell_angle_alpha   60.22219086
_cell_angle_beta   90.00000000
_cell_angle_gamma   119.77780914
_symmetry_Int_Tables_number   1
_chemical_formula_structural   BaNa2EuCuAgHgBi2O7
_chemical_formula_sum   'Ba1 Na2 Eu1 Cu1 Ag1 Hg1 Bi2 O7'
_cell_volume   314.27829658
_cell_formula_units_Z   1
loop_
 _symmetry_equiv_pos_site_id
 _symmetry_equiv_pos_as_xyz
  1  'x, y, z'
loop_
 _atom_site_type_symbol
 _atom_site_label
 _atom_site_symmetry_multiplicity
 _atom_site_fract_x
 _atom_site_fract_y
 _atom_site_fract_z
 _atom_site_occupancy
  Eu  Eu0  1  0.36569400  0.04270000  0.13430600  1
  Ba  Ba1  1  0.67700600  0.04270000  0.82299400  1
  Na  Na2  1  0.17700600  0.04270000  0.63430600  1
  Na  Na3  1  0.86569400  0.04270000  0.32299400  1
  Ag  Ag4  1  0.74831199  0.49662399  0.25168801  1
  Bi  Bi5  1  0.24831199  0.49662399  0.75168801  1
  Cu  Cu6  1  0.68777698  0.65996299  0.81222301  1
  Bi  Bi7  1  0.97218598  0.65996299  0.52781401  1
  O  O8  1  0.47218599  0.65996199  0.31222401  1
  O  O9  1  0.18777699  0.65996399  0.02781301  1
  O  O10  1  0.35115599  0.41008899  0.14884401  1
  Hg  Hg11  1  0.05893299  0.41008899  0.44106701  1
  O  O12  1  0.55893299  0.41008999  0.64884301  1
  O  O13  1  0.85115599  0.41008799  0.94106801  1
  O  O14  1  0.99844698  0.99689399  0.00155302  1
  O  O15  1  0.49844698  0.99689399  0.50155302  1
