# generated using pymatgen
data_KNa2CoNF5
_symmetry_space_group_name_H-M   'P 1'
_cell_length_a   5.61536980
_cell_length_b   5.61536980
_cell_length_c   5.69244766
_cell_angle_alpha   119.55309296
_cell_angle_beta   119.55309296
_cell_angle_gamma   90.00000000
_symmetry_Int_Tables_number   1
_chemical_formula_structural   KNa2CoNF5
_chemical_formula_sum   'K1 Na2 Co1 N1 F5'
_cell_volume   128.61874285
_cell_formula_units_Z   1
loop_
 _symmetry_equiv_pos_site_id
 _symmetry_equiv_pos_as_xyz
  1  'x, y, z'
loop_
 _atom_site_type_symbol
 _atom_site_label
 _atom_site_symmetry_multiplicity
 _atom_site_fract_x
 _atom_site_fract_y
 _atom_site_fract_z
 _atom_site_occupancy
  Na  Na0  1  0.50386002  0.00386000  0.00772001  1
  K  K1  1  0.00386001  0.50386003  0.00772001  1
  Na  Na2  1  0.75741705  0.75741704  0.51483401  1
  Co  Co3  1  0.25819202  0.25819201  0.51638499  1
  N  N4  1  0.50304403  0.50304403  0.00608902  1
  F  F5  1  0.00736601  0.51398703  0.52135300  1
  F  F6  1  0.00736600  0.00736600  0.52135298  1
  F  F7  1  0.51398702  0.00736600  0.52135299  1
  F  F8  1  0.01487700  0.01487700  0.02975300  1
  F  F9  1  0.51398703  0.51398703  0.52135300  1
