# generated using pymatgen
data_ErScAl2Si7Ni
_symmetry_space_group_name_H-M   'P 1'
_cell_length_a   3.98259711
_cell_length_b   5.02319813
_cell_length_c   8.71486473
_cell_angle_alpha   90.00000000
_cell_angle_beta   90.00000000
_cell_angle_gamma   90.00000000
_symmetry_Int_Tables_number   1
_chemical_formula_structural   ErScAl2Si7Ni
_chemical_formula_sum   'Er1 Sc1 Al2 Si7 Ni1'
_cell_volume   174.34413144
_cell_formula_units_Z   1
loop_
 _symmetry_equiv_pos_site_id
 _symmetry_equiv_pos_as_xyz
  1  'x, y, z'
loop_
 _atom_site_type_symbol
 _atom_site_label
 _atom_site_symmetry_multiplicity
 _atom_site_fract_x
 _atom_site_fract_y
 _atom_site_fract_z
 _atom_site_occupancy
  Er  Er0  1  -0.00000000  0.49997198  0.49999999  1
  Sc  Sc1  1  -0.00000000  0.99998796  0.00000002  1
  Si  Si2  1  -0.00000000  0.99997396  0.33283200  1
  Al  Al3  1  0.00000000  0.49994198  0.83365697  1
  Al  Al4  1  0.00000000  0.49994198  0.16634300  1
  Si  Si5  1  -0.00000000  0.99997396  0.66716799  1
  Si  Si6  1  0.49999999  0.99998996  0.49999999  1
  Si  Si7  1  0.49999999  0.50001998  0.00000001  1
  Ni  Ni8  1  0.49999999  0.24953699  0.24955999  1
  Si  Si9  1  0.49999999  0.75046297  0.75044498  1
  Si  Si10  1  0.49999999  0.75046297  0.24955500  1
  Si  Si11  1  0.49999999  0.24953699  0.75043997  1
