# generated using pymatgen
data_YMnNbFe11ReIr2Rh
_symmetry_space_group_name_H-M   'P 1'
_cell_length_a   3.31661296
_cell_length_b   7.51289701
_cell_length_c   10.25295067
_cell_angle_alpha   100.42007446
_cell_angle_beta   90.00000000
_cell_angle_gamma   90.00000000
_symmetry_Int_Tables_number   1
_chemical_formula_structural   YMnNbFe11ReIr2Rh
_chemical_formula_sum   'Y1 Mn1 Nb1 Fe11 Re1 Ir2 Rh1'
_cell_volume   251.26330357
_cell_formula_units_Z   1
loop_
 _symmetry_equiv_pos_site_id
 _symmetry_equiv_pos_as_xyz
  1  'x, y, z'
loop_
 _atom_site_type_symbol
 _atom_site_label
 _atom_site_symmetry_multiplicity
 _atom_site_fract_x
 _atom_site_fract_y
 _atom_site_fract_z
 _atom_site_occupancy
  Mn  Mn0  1  0.75000001  0.19275600  0.78112103  1
  Y  Y1  1  0.25000000  0.80724400  0.21887901  1
  Fe  Fe2  1  0.75000001  0.47041400  0.09164801  1
  Nb  Nb3  1  0.25000000  0.52958600  0.90835203  1
  Fe  Fe4  1  0.75000001  0.07418900  0.09468600  1
  Re  Re5  1  0.25000000  0.92581100  0.90531403  1
  Fe  Fe6  1  0.75000001  0.37744700  0.50036702  1
  Fe  Fe7  1  0.25000000  0.62255300  0.49963302  1
  Fe  Fe8  1  0.75000001  0.87058400  0.48669102  1
  Fe  Fe9  1  0.25000000  0.12941600  0.51330902  1
  Fe  Fe10  1  0.75000001  0.68459900  0.73110403  1
  Fe  Fe11  1  0.25000000  0.31540100  0.26889601  1
  Fe  Fe12  1  0.75000001  0.74905800  0.98987304  1
  Ir  Ir13  1  0.25000000  0.25094200  0.01012700  1
  Fe  Fe14  1  0.75000001  0.56812300  0.32778201  1
  Rh  Rh15  1  0.25000000  0.43187700  0.67221802  1
  Fe  Fe16  1  0.75000001  0.09794200  0.33638001  1
  Ir  Ir17  1  0.25000000  0.90205800  0.66362003  1
