# generated using pymatgen
data_LiYCuNi3P4
_symmetry_space_group_name_H-M   'P 1'
_cell_length_a   3.89434791
_cell_length_b   5.93332243
_cell_length_c   7.14245081
_cell_angle_alpha   90.00000000
_cell_angle_beta   90.00000000
_cell_angle_gamma   109.15810394
_symmetry_Int_Tables_number   1
_chemical_formula_structural   LiYCuNi3P4
_chemical_formula_sum   'Li1 Y1 Cu1 Ni3 P4'
_cell_volume   155.89619835
_cell_formula_units_Z   1
loop_
 _symmetry_equiv_pos_site_id
 _symmetry_equiv_pos_as_xyz
  1  'x, y, z'
loop_
 _atom_site_type_symbol
 _atom_site_label
 _atom_site_symmetry_multiplicity
 _atom_site_fract_x
 _atom_site_fract_y
 _atom_site_fract_z
 _atom_site_occupancy
  Y  Y0  1  0.44808104  0.89616203  0.75000002  1
  Li  Li1  1  0.55191902  0.10383800  0.25000001  1
  Cu  Cu2  1  0.72793403  0.45586801  0.75000002  1
  Ni  Ni3  1  0.27206603  0.54413202  0.25000001  1
  Ni  Ni4  1  0.16413502  0.32827001  0.94348703  1
  Ni  Ni5  1  0.83586504  0.67173002  0.05651300  1
  P  P6  1  0.83586504  0.67173002  0.44348701  1
  P  P7  1  0.16413502  0.32827001  0.55651301  1
  P  P8  1  0.00000000  0.00000000  0.00000000  1
  P  P9  1  0.00000000  0.00000000  0.50000001  1
