# generated using pymatgen
data_HfMn8FeSi2NiGeP4
_symmetry_space_group_name_H-M   'P 1'
_cell_length_a   5.41865683
_cell_length_b   7.47283602
_cell_length_c   7.47283697
_cell_angle_alpha   119.99999237
_cell_angle_beta   90.00000000
_cell_angle_gamma   90.00000000
_symmetry_Int_Tables_number   1
_chemical_formula_structural   HfMn8FeSi2NiGeP4
_chemical_formula_sum   'Hf1 Mn8 Fe1 Si2 Ni1 Ge1 P4'
_cell_volume   262.05549589
_cell_formula_units_Z   1
loop_
 _symmetry_equiv_pos_site_id
 _symmetry_equiv_pos_as_xyz
  1  'x, y, z'
loop_
 _atom_site_type_symbol
 _atom_site_label
 _atom_site_symmetry_multiplicity
 _atom_site_fract_x
 _atom_site_fract_y
 _atom_site_fract_z
 _atom_site_occupancy
  Mn  Mn0  1  0.25000001  0.76494597  0.76494596  1
  Hf  Hf1  1  0.75000002  0.23505399  0.23505399  1
  Mn  Mn2  1  0.25000001  0.00000000  0.23505400  1
  Mn  Mn3  1  0.75000002  0.00000000  0.76494601  1
  Mn  Mn4  1  0.25000001  0.23505399  -0.00000001  1
  Mn  Mn5  1  0.75000002  0.76494597  -0.00000005  1
  Mn  Mn6  1  0.50000002  0.66666664  0.33333329  1
  Mn  Mn7  1  0.50000002  0.33333332  0.66666665  1
  Mn  Mn8  1  -0.00000000  0.33333332  0.66666665  1
  Fe  Fe9  1  1.00000003  0.66666664  0.33333329  1
  Ge  Ge10  1  0.25000001  0.40471799  0.40471798  1
  Si  Si11  1  0.75000002  0.59528198  0.59528197  1
  P  P12  1  0.25000001  0.00000000  0.59528200  1
  Si  Si13  1  0.75000002  0.00000000  0.40471800  1
  P  P14  1  0.25000001  0.59528198  -0.00000004  1
  Ni  Ni15  1  0.75000002  0.40471799  -0.00000003  1
  P  P16  1  0.50000002  0.00000000  -0.00000000  1
  P  P17  1  0.00000000  0.00000000  0.00000000  1
