# generated using pymatgen
data_KBaClO3
_symmetry_space_group_name_H-M   'P 1'
_cell_length_a   3.68913555
_cell_length_b   3.68913555
_cell_length_c   10.41842556
_cell_angle_alpha   79.80210114
_cell_angle_beta   79.80210114
_cell_angle_gamma   60.00000763
_symmetry_Int_Tables_number   1
_chemical_formula_structural   KBaClO3
_chemical_formula_sum   'K1 Ba1 Cl1 O3'
_cell_volume   120.20186544
_cell_formula_units_Z   1
loop_
 _symmetry_equiv_pos_site_id
 _symmetry_equiv_pos_as_xyz
  1  'x, y, z'
loop_
 _atom_site_type_symbol
 _atom_site_label
 _atom_site_symmetry_multiplicity
 _atom_site_fract_x
 _atom_site_fract_y
 _atom_site_fract_z
 _atom_site_occupancy
  Ba  Ba0  1  0.87592804  0.87592801  0.37221601  1
  K  K1  1  0.12407201  0.12407200  0.62778399  1
  O  O2  1  0.60768403  0.60768401  0.17694801  1
  Cl  Cl3  1  0.39231602  0.39231600  0.82305199  1
  O  O4  1  0.80486504  0.80486501  0.58540500  1
  O  O5  1  0.19513501  0.19513500  0.41459500  1
