# generated using pymatgen
data_KBaNa4Cu3HgSBr(ClO)3
_symmetry_space_group_name_H-M   'P 1'
_cell_length_a   7.54407787
_cell_length_b   7.54407787
_cell_length_c   10.91841602
_cell_angle_alpha   90.00000000
_cell_angle_beta   90.00000000
_cell_angle_gamma   90.00000000
_symmetry_Int_Tables_number   1
_chemical_formula_structural   KBaNa4Cu3HgSBr(ClO)3
_chemical_formula_sum   'K1 Ba1 Na4 Cu3 Hg1 S1 Br1 Cl3 O3'
_cell_volume   621.40102261
_cell_formula_units_Z   1
loop_
 _symmetry_equiv_pos_site_id
 _symmetry_equiv_pos_as_xyz
  1  'x, y, z'
loop_
 _atom_site_type_symbol
 _atom_site_label
 _atom_site_symmetry_multiplicity
 _atom_site_fract_x
 _atom_site_fract_y
 _atom_site_fract_z
 _atom_site_occupancy
  Ba  Ba0  1  0.00000000  0.00000000  0.50000000  1
  Na  Na1  1  0.50000001  0.50000001  -0.00000000  1
  K  K2  1  0.00000000  0.50000001  0.25000000  1
  Na  Na3  1  0.00000000  0.50000001  0.75000000  1
  Na  Na4  1  0.50000001  0.00000000  0.75000000  1
  Na  Na5  1  0.50000001  0.00000000  0.25000000  1
  Hg  Hg6  1  0.79649701  0.71304801  0.50000000  1
  Cu  Cu7  1  0.21304800  0.29649700  0.00000000  1
  Cu  Cu8  1  0.50000001  0.50000001  0.75727100  1
  Cl  Cl9  1  0.28695200  0.79649701  0.50000000  1
  O  O10  1  0.00000000  0.00000000  0.25727100  1
  Cu  Cu11  1  0.78695201  0.70350301  -0.00000000  1
  Cl  Cl12  1  0.70350301  0.21304800  0.00000000  1
  Cl  Cl13  1  0.29649700  0.78695201  0.00000000  1
  O  O14  1  0.00000000  0.00000000  0.74272900  1
  Br  Br15  1  0.20350300  0.28695200  0.50000000  1
  S  S16  1  0.50000001  0.50000001  0.24272900  1
  O  O17  1  0.71304801  0.20350300  0.50000000  1
