# generated using pymatgen
data_La8ErTl(Sn2Au)2
_symmetry_space_group_name_H-M   'P 1'
_cell_length_a   6.29831791
_cell_length_b   9.35593128
_cell_length_c   9.35593128
_cell_angle_alpha   83.49464417
_cell_angle_beta   70.33044434
_cell_angle_gamma   70.33044434
_symmetry_Int_Tables_number   1
_chemical_formula_structural   La8ErTl(Sn2Au)2
_chemical_formula_sum   'La8 Er1 Tl1 Sn4 Au2'
_cell_volume   488.85179189
_cell_formula_units_Z   1
loop_
 _symmetry_equiv_pos_site_id
 _symmetry_equiv_pos_as_xyz
  1  'x, y, z'
loop_
 _atom_site_type_symbol
 _atom_site_label
 _atom_site_symmetry_multiplicity
 _atom_site_fract_x
 _atom_site_fract_y
 _atom_site_fract_z
 _atom_site_occupancy
  Er  Er0  1  0.91543400  0.30275802  0.86637303  1
  La  La1  1  0.08456593  0.69724204  0.13362705  1
  La  La2  1  0.41543492  0.86637306  0.30275806  1
  La  La3  1  0.58456500  0.13362701  0.69724202  1
  La  La4  1  0.21819191  0.86637306  0.69724208  1
  La  La5  1  0.78180801  0.13362701  0.30275800  1
  La  La6  1  0.28180698  0.30275802  0.13362702  1
  Tl  Tl7  1  0.71819295  0.69724204  0.86637306  1
  La  La8  1  0.74999997  0.50000003  0.50000003  1
  La  La9  1  0.24999995  0.50000003  0.50000005  1
  Sn  Sn10  1  0.83934894  0.82130105  0.50000005  1
  Sn  Sn11  1  0.16065099  0.17869901  0.50000003  1
  Sn  Sn12  1  0.33934996  0.50000003  0.82130106  1
  Sn  Sn13  1  0.66064997  0.50000003  0.17869902  1
  Au  Au14  1  0.75000002  0.00000000  -0.00000003  1
  Au  Au15  1  0.25000001  0.00000000  -0.00000001  1
