# generated using pymatgen
data_PrYEr2In4Ga
_symmetry_space_group_name_H-M   'P 1'
_cell_length_a   3.87558103
_cell_length_b   7.87949991
_cell_length_c   7.87949991
_cell_angle_alpha   120.00000000
_cell_angle_beta   90.00000000
_cell_angle_gamma   90.00000000
_symmetry_Int_Tables_number   1
_chemical_formula_structural   PrYEr2In4Ga
_chemical_formula_sum   'Pr1 Y1 Er2 In4 Ga1'
_cell_volume   208.38418837
_cell_formula_units_Z   1
loop_
 _symmetry_equiv_pos_site_id
 _symmetry_equiv_pos_as_xyz
  1  'x, y, z'
loop_
 _atom_site_type_symbol
 _atom_site_label
 _atom_site_symmetry_multiplicity
 _atom_site_fract_x
 _atom_site_fract_y
 _atom_site_fract_z
 _atom_site_occupancy
  Er  Er0  1  0.50000000  0.60166500  0.60166499  1
  Y  Y1  1  0.50000000  0.00000000  0.39833500  1
  Pr  Pr2  1  0.50000000  0.39833500  -0.00000000  1
  Er  Er3  1  0.50000000  0.00000000  -0.00000000  1
  In  In4  1  -0.00000000  0.66666667  0.33333332  1
  In  In5  1  0.99999999  0.33333333  0.66666666  1
  In  In6  1  -0.00000000  0.26674500  0.26674499  1
  In  In7  1  0.00000000  0.00000000  0.73325499  1
  Ga  Ga8  1  -0.00000000  0.73325500  -0.00000001  1
