# generated using pymatgen
data_TaMn(NbPd2)2
_symmetry_space_group_name_H-M   'P 1'
_cell_length_a   4.75384378
_cell_length_b   5.83297205
_cell_length_c   5.83297205
_cell_angle_alpha   60.00000000
_cell_angle_beta   90.00000000
_cell_angle_gamma   90.00000000
_symmetry_Int_Tables_number   1
_chemical_formula_structural   TaMn(NbPd2)2
_chemical_formula_sum   'Ta1 Mn1 Nb2 Pd4'
_cell_volume   140.07328982
_cell_formula_units_Z   1
loop_
 _symmetry_equiv_pos_site_id
 _symmetry_equiv_pos_as_xyz
  1  'x, y, z'
loop_
 _atom_site_type_symbol
 _atom_site_label
 _atom_site_symmetry_multiplicity
 _atom_site_fract_x
 _atom_site_fract_y
 _atom_site_fract_z
 _atom_site_occupancy
  Ta  Ta0  1  0.25000001  0.33333333  0.33333333  1
  Mn  Mn1  1  0.75000003  0.66666666  0.66666666  1
  Nb  Nb2  1  0.75000003  0.66128000  0.16936000  1
  Nb  Nb3  1  0.75000003  0.16936000  0.16936000  1
  Pd  Pd4  1  0.75000003  0.16936000  0.66128000  1
  Pd  Pd5  1  0.25000001  0.33872000  0.83064000  1
  Pd  Pd6  1  0.25000001  0.83064000  0.83064000  1
  Pd  Pd7  1  0.25000001  0.83064000  0.33871999  1
