# generated using pymatgen
data_MnAl2Ga4SiGe4
_symmetry_space_group_name_H-M   'P 1'
_cell_length_a   3.64048600
_cell_length_b   6.45339203
_cell_length_c   7.53443003
_cell_angle_alpha   90.00000000
_cell_angle_beta   90.00000000
_cell_angle_gamma   90.00000000
_symmetry_Int_Tables_number   1
_chemical_formula_structural   MnAl2Ga4SiGe4
_chemical_formula_sum   'Mn1 Al2 Ga4 Si1 Ge4'
_cell_volume   177.01000636
_cell_formula_units_Z   1
loop_
 _symmetry_equiv_pos_site_id
 _symmetry_equiv_pos_as_xyz
  1  'x, y, z'
loop_
 _atom_site_type_symbol
 _atom_site_label
 _atom_site_symmetry_multiplicity
 _atom_site_fract_x
 _atom_site_fract_y
 _atom_site_fract_z
 _atom_site_occupancy
  Mn  Mn0  1  0.25000000  0.53075800  0.67556400  1
  Al  Al1  1  0.25000000  0.03075800  0.82443600  1
  Al  Al2  1  0.75000000  0.96924200  0.17556400  1
  Ga  Ga3  1  0.75000000  0.46924200  0.32443600  1
  Ga  Ga4  1  0.75000000  0.36485400  0.94049200  1
  Ga  Ga5  1  0.25000000  0.13514600  0.44049200  1
  Si  Si6  1  0.75000000  0.86485400  0.55950800  1
  Ga  Ga7  1  0.25000000  0.63514600  0.05950800  1
  Ge  Ge8  1  0.25000000  0.26841200  0.12683300  1
  Ge  Ge9  1  0.25000000  0.76841200  0.37316700  1
  Ge  Ge10  1  0.75000000  0.73158800  0.87316700  1
  Ge  Ge11  1  0.75000000  0.23158800  0.62683300  1
