# generated using pymatgen
data_La3Y2Th2NbS10
_symmetry_space_group_name_H-M   'P 1'
_cell_length_a   6.23461819
_cell_length_b   9.33240604
_cell_length_c   9.33240509
_cell_angle_alpha   120.00000000
_cell_angle_beta   90.00000000
_cell_angle_gamma   90.00000000
_symmetry_Int_Tables_number   1
_chemical_formula_structural   La3Y2Th2NbS10
_chemical_formula_sum   'La3 Y2 Th2 Nb1 S10'
_cell_volume   470.24880646
_cell_formula_units_Z   1
loop_
 _symmetry_equiv_pos_site_id
 _symmetry_equiv_pos_as_xyz
  1  'x, y, z'
loop_
 _atom_site_type_symbol
 _atom_site_label
 _atom_site_symmetry_multiplicity
 _atom_site_fract_x
 _atom_site_fract_y
 _atom_site_fract_z
 _atom_site_occupancy
  Y  Y0  1  0.74999998  0.38182699  0.38182700  1
  La  La1  1  0.24999999  0.61817298  0.61817300  1
  La  La2  1  0.74999998  0.00000000  0.61817302  1
  La  La3  1  0.24999999  0.00000000  0.38182701  1
  Y  Y4  1  0.74999998  0.61817298  1.00000001  1
  Th  Th5  1  0.24999999  0.38182699  1.00000002  1
  Th  Th6  1  0.00000000  0.00000000  0.00000000  1
  Nb  Nb7  1  0.49999999  0.00000000  -0.00000000  1
  S  S8  1  0.74999998  0.74220198  0.74220200  1
  S  S9  1  0.24999999  0.25779799  0.25779800  1
  S  S10  1  0.74999998  0.00000000  0.25779801  1
  S  S11  1  0.24999999  0.00000000  0.74220203  1
  S  S12  1  0.74999998  0.25779799  1.00000002  1
  S  S13  1  0.24999999  0.74220198  1.00000000  1
  S  S14  1  0.99999997  0.66666665  0.33333332  1
  S  S15  1  -0.00000000  0.33333332  0.66666668  1
  S  S16  1  0.49999999  0.33333332  0.66666668  1
  S  S17  1  0.49999999  0.66666665  0.33333332  1
