# generated using pymatgen
data_KHgBiTeSe3
_symmetry_space_group_name_H-M   'P 1'
_cell_length_a   7.14305639
_cell_length_b   7.14305639
_cell_length_c   7.14305639
_cell_angle_alpha   104.68379211
_cell_angle_beta   104.68379211
_cell_angle_gamma   119.54001617
_symmetry_Int_Tables_number   1
_chemical_formula_structural   KHgBiTeSe3
_chemical_formula_sum   'K1 Hg1 Bi1 Te1 Se3'
_cell_volume   273.96604636
_cell_formula_units_Z   1
loop_
 _symmetry_equiv_pos_site_id
 _symmetry_equiv_pos_as_xyz
  1  'x, y, z'
loop_
 _atom_site_type_symbol
 _atom_site_label
 _atom_site_symmetry_multiplicity
 _atom_site_fract_x
 _atom_site_fract_y
 _atom_site_fract_z
 _atom_site_occupancy
  Hg  Hg0  1  0.00000000  0.00000000  0.00000000  1
  K  K1  1  0.49999998  0.99999996  0.49999990  1
  Bi  Bi2  1  -0.00000000  0.49999998  0.49999996  1
  Se  Se3  1  0.07099599  0.57099598  0.14199196  1
  Se  Se4  1  0.92900396  0.07099700  0.49999993  1
  Te  Te5  1  0.57099598  0.42900298  0.49999993  1
  Se  Se6  1  0.42900398  0.92900396  0.85800790  1
