# generated using pymatgen
data_PrErMgAl2Ga3FeSi3(Ge2P)2
_symmetry_space_group_name_H-M   'P 1'
_cell_length_a   4.14963102
_cell_length_b   8.89245605
_cell_length_c   8.89245605
_cell_angle_alpha   120.00000000
_cell_angle_beta   90.00000000
_cell_angle_gamma   90.00000000
_symmetry_Int_Tables_number   1
_chemical_formula_structural   PrErMgAl2Ga3FeSi3(Ge2P)2
_chemical_formula_sum   'Pr1 Er1 Mg1 Al2 Ga3 Fe1 Si3 Ge4 P2'
_cell_volume   284.17349514
_cell_formula_units_Z   1
loop_
 _symmetry_equiv_pos_site_id
 _symmetry_equiv_pos_as_xyz
  1  'x, y, z'
loop_
 _atom_site_type_symbol
 _atom_site_label
 _atom_site_symmetry_multiplicity
 _atom_site_fract_x
 _atom_site_fract_y
 _atom_site_fract_z
 _atom_site_occupancy
  Er  Er0  1  0.50000000  0.66666667  0.33333335  1
  Pr  Pr1  1  0.50000000  0.33333333  0.66666668  1
  Mg  Mg2  1  0.00000000  0.00000000  0.00000000  1
  Al  Al3  1  -0.00000000  0.51594200  0.51594201  1
  Al  Al4  1  0.00000000  0.00000000  0.48405801  1
  Fe  Fe5  1  -0.00000000  0.48405800  0.00000001  1
  Ga  Ga6  1  0.50000000  0.27336600  0.27336601  1
  Ga  Ga7  1  0.50000000  0.00000000  0.72663401  1
  Ga  Ga8  1  0.50000000  0.72663400  0.00000001  1
  P  P9  1  -0.00000000  0.80516800  0.17491501  1
  P  P10  1  -0.00000000  0.36974700  0.19483201  1
  Ge  Ge11  1  -0.00000000  0.82508500  0.63025302  1
  Si  Si12  1  -0.00000000  0.17491500  0.80516801  1
  Si  Si13  1  -0.00000000  0.19483200  0.36974701  1
  Si  Si14  1  -0.00000000  0.63025300  0.82508502  1
  Ge  Ge15  1  0.50000000  0.70766100  0.70766102  1
  Ge  Ge16  1  0.50000000  0.00000000  0.29233900  1
  Ge  Ge17  1  0.50000000  0.29233900  0.00000000  1
