# generated using pymatgen
data_Na5YBi3PbO10
_symmetry_space_group_name_H-M   'P 1'
_cell_length_a   3.92791605
_cell_length_b   3.92791677
_cell_length_c   32.33541107
_cell_angle_alpha   90.00000000
_cell_angle_beta   90.00000000
_cell_angle_gamma   119.99999237
_symmetry_Int_Tables_number   1
_chemical_formula_structural   Na5YBi3PbO10
_chemical_formula_sum   'Na5 Y1 Bi3 Pb1 O10'
_cell_volume   432.04951796
_cell_formula_units_Z   1
loop_
 _symmetry_equiv_pos_site_id
 _symmetry_equiv_pos_as_xyz
  1  'x, y, z'
loop_
 _atom_site_type_symbol
 _atom_site_label
 _atom_site_symmetry_multiplicity
 _atom_site_fract_x
 _atom_site_fract_y
 _atom_site_fract_z
 _atom_site_occupancy
  Y  Y0  1  0.66666665  0.33333334  0.49847400  1
  Na  Na1  1  0.66666665  0.33333334  0.30031500  1
  Bi  Bi2  1  0.66666665  0.33333334  0.10195900  1
  Pb  Pb3  1  0.33333332  0.66666667  0.00492800  1
  Na  Na4  1  0.33333332  0.66666667  0.79956200  1
  Na  Na5  1  0.33333332  0.66666667  0.59505000  1
  Na  Na6  1  0.33333332  0.66666667  0.39993100  1
  Bi  Bi7  1  0.33333332  0.66666667  0.20065600  1
  Bi  Bi8  1  0.66666665  0.33333334  0.90363500  1
  Na  Na9  1  0.66666665  0.33333334  0.70005100  1
  O  O10  1  0.66666665  0.33333334  0.98168700  1
  O  O11  1  0.66666665  0.33333334  0.77771800  1
  O  O12  1  0.66666665  0.33333334  0.57176200  1
  O  O13  1  0.66666665  0.33333334  0.37475800  1
  O  O14  1  0.66666665  0.33333334  0.17578400  1
  O  O15  1  0.33333332  0.66666667  0.87140700  1
  O  O16  1  0.33333332  0.66666667  0.66742000  1
  O  O17  1  0.33333332  0.66666667  0.47391900  1
  O  O18  1  0.33333332  0.66666667  0.27502700  1
  O  O19  1  0.33333332  0.66666667  0.07795600  1
