# generated using pymatgen
data_Mn3Fe2Si3
_symmetry_space_group_name_H-M   'P 1'
_cell_length_a   3.35268307
_cell_length_b   5.76623392
_cell_length_c   6.42637014
_cell_angle_alpha   90.00000000
_cell_angle_beta   90.00000000
_cell_angle_gamma   90.00000000
_symmetry_Int_Tables_number   1
_chemical_formula_structural   Mn3Fe2Si3
_chemical_formula_sum   'Mn3 Fe2 Si3'
_cell_volume   124.23686789
_cell_formula_units_Z   1
loop_
 _symmetry_equiv_pos_site_id
 _symmetry_equiv_pos_as_xyz
  1  'x, y, z'
loop_
 _atom_site_type_symbol
 _atom_site_label
 _atom_site_symmetry_multiplicity
 _atom_site_fract_x
 _atom_site_fract_y
 _atom_site_fract_z
 _atom_site_occupancy
  Mn  Mn0  1  0.24999999  0.69644701  0.06817200  1
  Mn  Mn1  1  0.74999998  0.30355300  0.93182798  1
  Mn  Mn2  1  0.24999999  0.19644700  0.43182799  1
  Fe  Fe3  1  0.74999998  0.80355301  0.56817199  1
  Fe  Fe4  1  0.24999999  0.50166501  0.70373998  1
  Si  Si5  1  0.74999998  0.49833501  0.29625999  1
  Si  Si6  1  0.24999999  0.00166500  0.79625998  1
  Si  Si7  1  0.74999998  0.99833501  0.20374000  1
