# generated using pymatgen
data_Na3CuO6
_symmetry_space_group_name_H-M   'P 1'
_cell_length_a   5.64723587
_cell_length_b   5.90989494
_cell_length_c   8.17384148
_cell_angle_alpha   90.00000000
_cell_angle_beta   90.04871368
_cell_angle_gamma   90.00000000
_symmetry_Int_Tables_number   1
_chemical_formula_structural   Na3CuO6
_chemical_formula_sum   'Na6 Cu2 O12'
_cell_volume   272.79835176
_cell_formula_units_Z   2
loop_
 _symmetry_equiv_pos_site_id
 _symmetry_equiv_pos_as_xyz
  1  'x, y, z'
loop_
 _atom_site_type_symbol
 _atom_site_label
 _atom_site_symmetry_multiplicity
 _atom_site_fract_x
 _atom_site_fract_y
 _atom_site_fract_z
 _atom_site_occupancy
  Na  Na0  1  0.48519001  0.94597201  0.24365799  1
  Na  Na1  1  0.98519002  0.55402801  0.74365800  1
  Na  Na2  1  0.51481001  0.05402800  0.75634202  1
  Na  Na3  1  0.01481000  0.44597200  0.25634201  1
  Na  Na4  1  0.00000000  0.00000000  0.50000003  1
  Na  Na5  1  0.50000001  0.50000000  -0.00000002  1
  Cu  Cu6  1  0.50000001  0.50000000  0.50000001  1
  Cu  Cu7  1  0.00000000  0.00000000  0.00000000  1
  O  O8  1  0.20937200  0.67933801  0.44667502  1
  O  O9  1  0.70937202  0.82066201  0.94667503  1
  O  O10  1  0.79062802  0.32066200  0.55332500  1
  O  O11  1  0.29062801  0.17933800  0.05332499  1
  O  O12  1  0.61641001  0.55511801  0.26928799  1
  O  O13  1  0.11641000  0.94488201  0.76928804  1
  O  O14  1  0.38359001  0.44488200  0.73071203  1
  O  O15  1  0.88359002  0.05511800  0.23071198  1
  O  O16  1  0.17452600  0.71629801  0.07079700  1
  O  O17  1  0.67452602  0.78370201  0.57079701  1
  O  O18  1  0.82547402  0.28370200  0.92920302  1
  O  O19  1  0.32547401  0.21629800  0.42920301  1
