# generated using pymatgen
data_LaTlHgSbPbSe2Cl
_symmetry_space_group_name_H-M   'P 1'
_cell_length_a   6.57745552
_cell_length_b   6.98822641
_cell_length_c   6.98822641
_cell_angle_alpha   76.26041412
_cell_angle_beta   72.24896240
_cell_angle_gamma   72.24896240
_symmetry_Int_Tables_number   1
_chemical_formula_structural   LaTlHgSbPbSe2Cl
_chemical_formula_sum   'La1 Tl1 Hg1 Sb1 Pb1 Se2 Cl1'
_cell_volume   287.63067315
_cell_formula_units_Z   1
loop_
 _symmetry_equiv_pos_site_id
 _symmetry_equiv_pos_as_xyz
  1  'x, y, z'
loop_
 _atom_site_type_symbol
 _atom_site_label
 _atom_site_symmetry_multiplicity
 _atom_site_fract_x
 _atom_site_fract_y
 _atom_site_fract_z
 _atom_site_occupancy
  Hg  Hg0  1  0.17859899  0.66536399  0.66536401  1
  La  La1  1  0.82140102  0.33463600  0.33463599  1
  Tl  Tl2  1  0.29725100  0.58308399  0.14225901  1
  Pb  Pb3  1  0.70274901  0.85774099  0.41691601  1
  Sb  Sb4  1  0.27144301  0.01271300  0.01271300  1
  Cl  Cl5  1  0.72855701  0.98728699  0.98728700  1
  Se  Se6  1  0.29725101  0.14225900  0.58308399  1
  Se  Se7  1  0.70274902  0.41691600  0.85774099  1
