# generated using pymatgen
data_Li7CuO8
_symmetry_space_group_name_H-M   'P 1'
_cell_length_a   5.88631582
_cell_length_b   5.93665791
_cell_length_c   5.95449352
_cell_angle_alpha   60.59717941
_cell_angle_beta   60.37803650
_cell_angle_gamma   60.28011703
_symmetry_Int_Tables_number   1
_chemical_formula_structural   Li7CuO8
_chemical_formula_sum   'Li7 Cu1 O8'
_cell_volume   148.52460858
_cell_formula_units_Z   1
loop_
 _symmetry_equiv_pos_site_id
 _symmetry_equiv_pos_as_xyz
  1  'x, y, z'
loop_
 _atom_site_type_symbol
 _atom_site_label
 _atom_site_symmetry_multiplicity
 _atom_site_fract_x
 _atom_site_fract_y
 _atom_site_fract_z
 _atom_site_occupancy
  Li  Li0  1  0.50000004  0.49999999  0.99999999  1
  Li  Li1  1  0.00000000  0.00000000  0.00000000  1
  Li  Li2  1  0.00000001  0.49999999  0.00000000  1
  Li  Li3  1  0.50000002  0.00000000  0.99999999  1
  Li  Li4  1  0.00000001  0.49999999  0.50000000  1
  Li  Li5  1  0.50000002  0.00000000  0.49999999  1
  Cu  Cu6  1  0.00000000  0.00000000  0.50000000  1
  Li  Li7  1  0.50000004  0.49999999  0.49999999  1
  O  O8  1  0.74999105  0.74237898  0.75763898  1
  O  O9  1  0.75430305  0.75238998  0.24514598  1
  O  O10  1  0.75061004  0.23287899  0.26590098  1
  O  O11  1  0.75183904  0.24760999  0.75485398  1
  O  O12  1  0.24816103  0.75238998  0.24514600  1
  O  O13  1  0.24939003  0.76712098  0.73409900  1
  O  O14  1  0.24569702  0.24760999  0.75485400  1
  O  O15  1  0.25000902  0.25762099  0.24236099  1
