# generated using pymatgen
data_LaYErIn2SnAu3
_symmetry_space_group_name_H-M   'P 1'
_cell_length_a   4.16258907
_cell_length_b   7.46186209
_cell_length_c   7.46186209
_cell_angle_alpha   120.00000000
_cell_angle_beta   90.00000000
_cell_angle_gamma   90.00000000
_symmetry_Int_Tables_number   1
_chemical_formula_structural   LaYErIn2SnAu3
_chemical_formula_sum   'La1 Y1 Er1 In2 Sn1 Au3'
_cell_volume   200.71905682
_cell_formula_units_Z   1
loop_
 _symmetry_equiv_pos_site_id
 _symmetry_equiv_pos_as_xyz
  1  'x, y, z'
loop_
 _atom_site_type_symbol
 _atom_site_label
 _atom_site_symmetry_multiplicity
 _atom_site_fract_x
 _atom_site_fract_y
 _atom_site_fract_z
 _atom_site_occupancy
  Er  Er0  1  0.49999999  0.99999999  0.41205199  1
  Y  Y1  1  0.49999999  0.41205199  -0.00000000  1
  La  La2  1  0.49999999  0.58794799  0.58794799  1
  In  In3  1  0.99999998  0.99999999  0.74560598  1
  In  In4  1  -0.00000000  0.74560599  -0.00000000  1
  Sn  Sn5  1  -0.00000000  0.25439400  0.25439399  1
  Au  Au6  1  0.99999998  0.66666666  0.33333332  1
  Au  Au7  1  -0.00000000  0.33333333  0.66666665  1
  Au  Au8  1  0.49999999  0.00000000  -0.00000000  1
