# generated using pymatgen
data_ErSc(InAu2)2
_symmetry_space_group_name_H-M   'P 1'
_cell_length_a   4.62291384
_cell_length_b   6.29882193
_cell_length_c   6.29882288
_cell_angle_alpha   119.99999237
_cell_angle_beta   90.00000000
_cell_angle_gamma   90.00000000
_symmetry_Int_Tables_number   1
_chemical_formula_structural   ErSc(InAu2)2
_chemical_formula_sum   'Er1 Sc1 In2 Au4'
_cell_volume   158.84194309
_cell_formula_units_Z   1
loop_
 _symmetry_equiv_pos_site_id
 _symmetry_equiv_pos_as_xyz
  1  'x, y, z'
loop_
 _atom_site_type_symbol
 _atom_site_label
 _atom_site_symmetry_multiplicity
 _atom_site_fract_x
 _atom_site_fract_y
 _atom_site_fract_z
 _atom_site_occupancy
  Er  Er0  1  0.25000001  0.66666666  0.33333331  1
  Sc  Sc1  1  0.75000003  0.33333333  0.66666666  1
  In  In2  1  0.75000003  0.29245900  0.14622999  1
  In  In3  1  0.75000003  0.85377099  0.70754197  1
  Au  Au4  1  0.25000001  0.14622900  0.85377001  1
  Au  Au5  1  0.25000001  0.70754099  0.85376998  1
  Au  Au6  1  0.25000001  0.14622900  0.29245800  1
  Au  Au7  1  0.75000003  0.85377099  0.14622996  1
