# generated using pymatgen
data_Y2AlSi4NiGe2
_symmetry_space_group_name_H-M   'P 1'
_cell_length_a   4.14375782
_cell_length_b   4.14375782
_cell_length_c   10.21037579
_cell_angle_alpha   90.00000000
_cell_angle_beta   90.00000000
_cell_angle_gamma   90.00000000
_symmetry_Int_Tables_number   1
_chemical_formula_structural   Y2AlSi4NiGe2
_chemical_formula_sum   'Y2 Al1 Si4 Ni1 Ge2'
_cell_volume   175.31959430
_cell_formula_units_Z   1
loop_
 _symmetry_equiv_pos_site_id
 _symmetry_equiv_pos_as_xyz
  1  'x, y, z'
loop_
 _atom_site_type_symbol
 _atom_site_label
 _atom_site_symmetry_multiplicity
 _atom_site_fract_x
 _atom_site_fract_y
 _atom_site_fract_z
 _atom_site_occupancy
  Y  Y0  1  0.00000000  0.00000000  0.00164300  1
  Y  Y1  1  0.50000002  0.50000002  0.49835701  1
  Al  Al2  1  0.00000000  0.50000002  0.25000001  1
  Si  Si3  1  0.50000002  0.50000002  0.11513500  1
  Si  Si4  1  0.00000000  0.00000000  0.61710101  1
  Ni  Ni5  1  0.00000000  0.00000000  0.38486501  1
  Si  Si6  1  0.50000002  0.50000002  0.88289902  1
  Si  Si7  1  0.50000002  0.00000000  0.75000002  1
  Ge  Ge8  1  0.50000002  0.00000000  0.25000001  1
  Ge  Ge9  1  0.00000000  0.50000002  0.75000002  1
