# generated using pymatgen
data_EuGdB3C5
_symmetry_space_group_name_H-M   'P 1'
_cell_length_a   3.76110101
_cell_length_b   5.37376499
_cell_length_c   5.37376499
_cell_angle_alpha   90.00000000
_cell_angle_beta   90.00000000
_cell_angle_gamma   90.00000000
_symmetry_Int_Tables_number   1
_chemical_formula_structural   EuGdB3C5
_chemical_formula_sum   'Eu1 Gd1 B3 C5'
_cell_volume   108.61063088
_cell_formula_units_Z   1
loop_
 _symmetry_equiv_pos_site_id
 _symmetry_equiv_pos_as_xyz
  1  'x, y, z'
loop_
 _atom_site_type_symbol
 _atom_site_label
 _atom_site_symmetry_multiplicity
 _atom_site_fract_x
 _atom_site_fract_y
 _atom_site_fract_z
 _atom_site_occupancy
  Eu  Eu0  1  0.00000000  0.00000000  0.00000000  1
  Gd  Gd1  1  0.00000000  0.50000000  0.50000000  1
  B  B2  1  0.50000000  0.36321100  0.13678900  1
  B  B3  1  0.50000000  0.13678900  0.63678900  1
  C  C4  1  0.50000000  0.63678900  0.86321100  1
  B  B5  1  0.50000000  0.86321100  0.36321100  1
  C  C6  1  0.50000000  0.33821400  0.83821400  1
  C  C7  1  0.50000000  0.66178600  0.16178600  1
  C  C8  1  0.50000000  0.83821400  0.66178600  1
  C  C9  1  0.50000000  0.16178600  0.33821400  1
