# generated using pymatgen
data_Na5Li(CuO6)2
_symmetry_space_group_name_H-M   'P 1'
_cell_length_a   5.55785990
_cell_length_b   5.80643606
_cell_length_c   7.98550606
_cell_angle_alpha   90.00000000
_cell_angle_beta   90.00000000
_cell_angle_gamma   90.00000000
_symmetry_Int_Tables_number   1
_chemical_formula_structural   Na5Li(CuO6)2
_chemical_formula_sum   'Na5 Li1 Cu2 O12'
_cell_volume   257.70312589
_cell_formula_units_Z   1
loop_
 _symmetry_equiv_pos_site_id
 _symmetry_equiv_pos_as_xyz
  1  'x, y, z'
loop_
 _atom_site_type_symbol
 _atom_site_label
 _atom_site_symmetry_multiplicity
 _atom_site_fract_x
 _atom_site_fract_y
 _atom_site_fract_z
 _atom_site_occupancy
  Na  Na0  1  0.48051301  0.06350900  0.25000000  1
  Na  Na1  1  0.01948700  0.56350899  0.25000000  1
  Na  Na2  1  0.51948701  0.93649099  0.74999999  1
  Na  Na3  1  0.98051302  0.43649100  0.74999999  1
  Li  Li4  1  0.50000001  0.49999999  -0.00000000  1
  Na  Na5  1  0.00000000  0.00000000  0.50000000  1
  Cu  Cu6  1  0.50000001  0.49999999  0.50000000  1
  Cu  Cu7  1  0.00000000  0.00000000  0.00000000  1
  O  O8  1  0.62453301  0.45013600  0.25000000  1
  O  O9  1  0.87546702  0.95013599  0.25000000  1
  O  O10  1  0.37546701  0.54986399  0.74999999  1
  O  O11  1  0.12453300  0.04986400  0.74999999  1
  O  O12  1  0.18937400  0.30550500  0.06338000  1
  O  O13  1  0.31062601  0.80550499  0.43662000  1
  O  O14  1  0.81062601  0.69449499  0.56338000  1
  O  O15  1  0.68937401  0.19449500  0.93661999  1
  O  O16  1  0.81062601  0.69449499  0.93661999  1
  O  O17  1  0.68937401  0.19449500  0.56338000  1
  O  O18  1  0.18937400  0.30550500  0.43662000  1
  O  O19  1  0.31062601  0.80550499  0.06338000  1
