# generated using pymatgen
data_LiLaMg2Ag
_symmetry_space_group_name_H-M   'P 1'
_cell_length_a   4.58171797
_cell_length_b   4.58171797
_cell_length_c   7.26003647
_cell_angle_alpha   108.39363861
_cell_angle_beta   108.39363861
_cell_angle_gamma   90.00000000
_symmetry_Int_Tables_number   1
_chemical_formula_structural   LiLaMg2Ag
_chemical_formula_sum   'Li1 La1 Mg2 Ag1'
_cell_volume   136.38763299
_cell_formula_units_Z   1
loop_
 _symmetry_equiv_pos_site_id
 _symmetry_equiv_pos_as_xyz
  1  'x, y, z'
loop_
 _atom_site_type_symbol
 _atom_site_label
 _atom_site_symmetry_multiplicity
 _atom_site_fract_x
 _atom_site_fract_y
 _atom_site_fract_z
 _atom_site_occupancy
  Li  Li0  1  0.99868596  0.99868599  0.99737195  1
  La  La1  1  0.23123097  0.73123099  0.46246197  1
  Mg  Mg2  1  0.73123099  0.23123100  0.46246198  1
  Mg  Mg3  1  0.38539598  0.38539600  0.77079199  1
  Ag  Ag4  1  0.59522598  0.59522599  0.19045196  1
