# generated using pymatgen
data_K4RbTl4Ni
_symmetry_space_group_name_H-M   'P 1'
_cell_length_a   7.12068987
_cell_length_b   8.37728596
_cell_length_c   8.37728691
_cell_angle_alpha   60.00000000
_cell_angle_beta   90.00000000
_cell_angle_gamma   90.00000000
_symmetry_Int_Tables_number   1
_chemical_formula_structural   K4RbTl4Ni
_chemical_formula_sum   'K4 Rb1 Tl4 Ni1'
_cell_volume   432.77227733
_cell_formula_units_Z   1
loop_
 _symmetry_equiv_pos_site_id
 _symmetry_equiv_pos_as_xyz
  1  'x, y, z'
loop_
 _atom_site_type_symbol
 _atom_site_label
 _atom_site_symmetry_multiplicity
 _atom_site_fract_x
 _atom_site_fract_y
 _atom_site_fract_z
 _atom_site_occupancy
  K  K0  1  0.25000000  0.33333334  0.33333330  1
  Rb  Rb1  1  0.75000001  0.66666668  0.66666661  1
  K  K2  1  0.00000000  0.00000000  0.00000000  1
  Ni  Ni3  1  0.50000001  0.00000000  -0.00000000  1
  Tl  Tl4  1  0.75000001  0.16180200  0.67639596  1
  K  K5  1  0.25000000  0.83819802  0.83819892  1
  K  K6  1  0.25000000  0.32360301  0.83819894  1
  Tl  Tl7  1  0.75000001  0.67639702  0.16180097  1
  Tl  Tl8  1  0.75000001  0.16180200  0.16180099  1
  Tl  Tl9  1  0.25000000  0.83819802  0.32360395  1
