# generated using pymatgen
data_Er2Al2Si5
_symmetry_space_group_name_H-M   'P 1'
_cell_length_a   4.02189779
_cell_length_b   4.03780603
_cell_length_c   10.79551792
_cell_angle_alpha   90.00000000
_cell_angle_beta   100.73554993
_cell_angle_gamma   90.00000000
_symmetry_Int_Tables_number   1
_chemical_formula_structural   Er2Al2Si5
_chemical_formula_sum   'Er2 Al2 Si5'
_cell_volume   172.24688577
_cell_formula_units_Z   1
loop_
 _symmetry_equiv_pos_site_id
 _symmetry_equiv_pos_as_xyz
  1  'x, y, z'
loop_
 _atom_site_type_symbol
 _atom_site_label
 _atom_site_symmetry_multiplicity
 _atom_site_fract_x
 _atom_site_fract_y
 _atom_site_fract_z
 _atom_site_occupancy
  Er  Er0  1  0.77734503  0.50000000  0.55468997  1
  Er  Er1  1  0.11257200  0.50000000  0.22514399  1
  Al  Al2  1  0.55884102  0.00000000  0.11768099  1
  Al  Al3  1  0.49648102  0.50000000  0.99296197  1
  Si  Si4  1  0.37929902  0.50000000  0.75859897  1
  Si  Si5  1  0.99673004  0.00000000  0.99345996  1
  Si  Si6  1  0.87849904  0.00000000  0.75699697  1
  Si  Si7  1  0.66724903  0.00000000  0.33449798  1
  Si  Si8  1  0.23998501  0.00000000  0.47996898  1
