# generated using pymatgen
data_Na7IO12
_symmetry_space_group_name_H-M   'P 1'
_cell_length_a   6.01160479
_cell_length_b   6.02230310
_cell_length_c   8.49730492
_cell_angle_alpha   90.00000000
_cell_angle_beta   90.00000000
_cell_angle_gamma   90.00000000
_symmetry_Int_Tables_number   1
_chemical_formula_structural   Na7IO12
_chemical_formula_sum   'Na7 I1 O12'
_cell_volume   307.63393038
_cell_formula_units_Z   1
loop_
 _symmetry_equiv_pos_site_id
 _symmetry_equiv_pos_as_xyz
  1  'x, y, z'
loop_
 _atom_site_type_symbol
 _atom_site_label
 _atom_site_symmetry_multiplicity
 _atom_site_fract_x
 _atom_site_fract_y
 _atom_site_fract_z
 _atom_site_occupancy
  Na  Na0  1  0.50711402  0.51075699  0.25000000  1
  Na  Na1  1  0.99288604  0.01075700  0.25000000  1
  Na  Na2  1  0.49288602  0.48924299  0.75000001  1
  Na  Na3  1  0.00711400  0.98924298  0.75000001  1
  Na  Na4  1  0.00000000  0.49999999  0.00000000  1
  Na  Na5  1  0.50000002  0.00000000  0.50000000  1
  Na  Na6  1  0.00000000  0.49999999  0.50000000  1
  O  O7  1  0.50000002  0.00000000  -0.00000000  1
  O  O8  1  0.45471202  0.99443398  0.25000000  1
  O  O9  1  0.04528800  0.49443399  0.25000000  1
  I  I10  1  0.54528802  0.00556600  0.75000001  1
  O  O11  1  0.95471203  0.50556599  0.75000001  1
  O  O12  1  0.75249103  0.75212999  0.02509700  1
  O  O13  1  0.74750903  0.25213000  0.47490300  1
  O  O14  1  0.24750901  0.24787000  0.52509701  1
  O  O15  1  0.25249101  0.74786999  0.97490301  1
  O  O16  1  0.24750901  0.24787000  0.97490301  1
  O  O17  1  0.25249101  0.74786999  0.52509701  1
  O  O18  1  0.75249103  0.75212999  0.47490300  1
  O  O19  1  0.74750903  0.25213000  0.02509700  1
