# generated using pymatgen
data_ErFe11Co
_symmetry_space_group_name_H-M   'P 1'
_cell_length_a   4.95189619
_cell_length_b   6.48248291
_cell_length_c   6.48248291
_cell_angle_alpha   80.89907837
_cell_angle_beta   67.54582214
_cell_angle_gamma   67.54582214
_symmetry_Int_Tables_number   1
_chemical_formula_structural   ErFe11Co
_chemical_formula_sum   'Er1 Fe11 Co1'
_cell_volume   177.71636092
_cell_formula_units_Z   1
loop_
 _symmetry_equiv_pos_site_id
 _symmetry_equiv_pos_as_xyz
  1  'x, y, z'
loop_
 _atom_site_type_symbol
 _atom_site_label
 _atom_site_symmetry_multiplicity
 _atom_site_fract_x
 _atom_site_fract_y
 _atom_site_fract_z
 _atom_site_occupancy
  Er  Er0  1  0.00000000  0.00000000  0.00000000  1
  Fe  Fe1  1  0.34373094  0.65626902  0.65626900  1
  Fe  Fe2  1  0.65626896  0.34373101  0.34373098  1
  Fe  Fe3  1  0.99999993  0.66501102  0.33498897  1
  Co  Co4  1  0.99999996  0.33498901  0.66501097  1
  Fe  Fe5  1  0.31600598  0.18399401  0.18399399  1
  Fe  Fe6  1  0.68399392  0.81600602  0.81600599  1
  Fe  Fe7  1  0.49999999  0.00000000  0.49999998  1
  Fe  Fe8  1  0.99999998  0.00000000  0.49999996  1
  Fe  Fe9  1  0.49999995  0.50000001  0.99999999  1
  Fe  Fe10  1  -0.00000004  0.50000001  0.00000001  1
  Fe  Fe11  1  0.49999997  0.23875001  0.76124999  1
  Fe  Fe12  1  0.49999993  0.76125002  0.23874999  1
