# generated using pymatgen
data_LaErIn4SnPdAu2
_symmetry_space_group_name_H-M   'P 1'
_cell_length_a   4.24881792
_cell_length_b   7.44941378
_cell_length_c   7.44941378
_cell_angle_alpha   90.00000000
_cell_angle_beta   90.00000000
_cell_angle_gamma   90.00000000
_symmetry_Int_Tables_number   1
_chemical_formula_structural   LaErIn4SnPdAu2
_chemical_formula_sum   'La1 Er1 In4 Sn1 Pd1 Au2'
_cell_volume   235.78290582
_cell_formula_units_Z   1
loop_
 _symmetry_equiv_pos_site_id
 _symmetry_equiv_pos_as_xyz
  1  'x, y, z'
loop_
 _atom_site_type_symbol
 _atom_site_label
 _atom_site_symmetry_multiplicity
 _atom_site_fract_x
 _atom_site_fract_y
 _atom_site_fract_z
 _atom_site_occupancy
  Er  Er0  1  0.50000001  0.67449102  0.17449101  1
  La  La1  1  0.50000001  0.32550901  0.82550902  1
  In  In2  1  0.50000001  0.17449101  0.32550901  1
  In  In3  1  0.50000001  0.82550902  0.67449102  1
  In  In4  1  0.00000000  0.00000000  0.00000000  1
  In  In5  1  0.00000000  0.50000002  0.50000002  1
  Sn  Sn6  1  0.00000000  0.12354500  0.62354502  1
  Pd  Pd7  1  0.00000000  0.87645503  0.37645501  1
  Au  Au8  1  0.00000000  0.62354502  0.87645503  1
  Au  Au9  1  0.00000000  0.37645501  0.12354500  1
