# generated using pymatgen
data_ZrScPtRh
_symmetry_space_group_name_H-M   'P 1'
_cell_length_a   3.74072790
_cell_length_b   3.98339295
_cell_length_c   5.51661158
_cell_angle_alpha   90.00000000
_cell_angle_beta   109.81852722
_cell_angle_gamma   90.00000000
_symmetry_Int_Tables_number   1
_chemical_formula_structural   ZrScPtRh
_chemical_formula_sum   'Zr1 Sc1 Pt1 Rh1'
_cell_volume   77.33314690
_cell_formula_units_Z   1
loop_
 _symmetry_equiv_pos_site_id
 _symmetry_equiv_pos_as_xyz
  1  'x, y, z'
loop_
 _atom_site_type_symbol
 _atom_site_label
 _atom_site_symmetry_multiplicity
 _atom_site_fract_x
 _atom_site_fract_y
 _atom_site_fract_z
 _atom_site_occupancy
  Zr  Zr0  1  0.14524500  0.75000001  0.29048999  1
  Sc  Sc1  1  0.85475501  0.25000000  0.70950996  1
  Pt  Pt2  1  0.42937201  0.75000001  0.85874397  1
  Rh  Rh3  1  0.57062801  0.25000000  0.14125598  1
