# generated using pymatgen
data_LiMgMn2FeCu4P9
_symmetry_space_group_name_H-M   'P 1'
_cell_length_a   3.98554897
_cell_length_b   7.67254591
_cell_length_c   7.67254591
_cell_angle_alpha   90.00000000
_cell_angle_beta   90.00000000
_cell_angle_gamma   90.00000000
_symmetry_Int_Tables_number   1
_chemical_formula_structural   LiMgMn2FeCu4P9
_chemical_formula_sum   'Li1 Mg1 Mn2 Fe1 Cu4 P9'
_cell_volume   234.62114047
_cell_formula_units_Z   1
loop_
 _symmetry_equiv_pos_site_id
 _symmetry_equiv_pos_as_xyz
  1  'x, y, z'
loop_
 _atom_site_type_symbol
 _atom_site_label
 _atom_site_symmetry_multiplicity
 _atom_site_fract_x
 _atom_site_fract_y
 _atom_site_fract_z
 _atom_site_occupancy
  Li  Li0  1  0.25000000  0.25000000  0.25000000  1
  Mg  Mg1  1  0.75000001  0.75000001  0.75000001  1
  Mn  Mn2  1  0.36185900  0.90851901  0.02908700  1
  Mn  Mn3  1  0.36185900  0.59148101  0.47091301  1
  Cu  Cu4  1  0.86185901  0.52908701  0.09148100  1
  Cu  Cu5  1  0.86185901  0.97091301  0.40851900  1
  Cu  Cu6  1  0.63814100  0.09148100  0.97091301  1
  Cu  Cu7  1  0.63814100  0.40851900  0.52908701  1
  Fe  Fe8  1  0.13814100  0.47091301  0.90851901  1
  P  P9  1  0.13814100  0.02908700  0.59148101  1
  P  P10  1  0.13596700  0.40998100  0.64109501  1
  P  P11  1  0.13596700  0.09001900  0.85890501  1
  P  P12  1  0.63596700  0.14109500  0.59001901  1
  P  P13  1  0.63596700  0.35890500  0.90998101  1
  P  P14  1  0.86403301  0.59001901  0.35890500  1
  P  P15  1  0.86403301  0.90998101  0.14109500  1
  P  P16  1  0.36403300  0.85890501  0.40998100  1
  P  P17  1  0.36403300  0.64109501  0.09001900  1
