# generated using pymatgen
data_MnFe2Si
_symmetry_space_group_name_H-M   'P 1'
_cell_length_a   3.61758590
_cell_length_b   6.00228024
_cell_length_c   6.79504585
_cell_angle_alpha   90.00000000
_cell_angle_beta   90.00000000
_cell_angle_gamma   90.00000000
_symmetry_Int_Tables_number   1
_chemical_formula_structural   MnFe2Si
_chemical_formula_sum   'Mn3 Fe6 Si3'
_cell_volume   147.54602427
_cell_formula_units_Z   3
loop_
 _symmetry_equiv_pos_site_id
 _symmetry_equiv_pos_as_xyz
  1  'x, y, z'
loop_
 _atom_site_type_symbol
 _atom_site_label
 _atom_site_symmetry_multiplicity
 _atom_site_fract_x
 _atom_site_fract_y
 _atom_site_fract_z
 _atom_site_occupancy
  Mn  Mn0  1  0.25000001  0.02045400  0.81722402  1
  Mn  Mn1  1  0.25000001  0.52045398  0.68277601  1
  Mn  Mn2  1  0.75000002  0.97954596  0.18277600  1
  Fe  Fe3  1  0.75000002  0.47954598  0.31722401  1
  Fe  Fe4  1  0.25000001  0.14899499  0.43750901  1
  Fe  Fe5  1  0.25000001  0.64899497  0.06249100  1
  Fe  Fe6  1  0.75000002  0.85100497  0.56249101  1
  Fe  Fe7  1  0.75000002  0.35100499  0.93750902  1
  Fe  Fe8  1  0.25000001  0.77593097  0.38060401  1
  Si  Si9  1  0.25000001  0.27593099  0.11939600  1
  Si  Si10  1  0.75000002  0.22406899  0.61939601  1
  Si  Si11  1  0.75000002  0.72406897  0.88060402  1
