# generated using pymatgen
data_YErAl3GaSi3
_symmetry_space_group_name_H-M   'P 1'
_cell_length_a   4.10248184
_cell_length_b   4.15566206
_cell_length_c   11.31864548
_cell_angle_alpha   90.00000000
_cell_angle_beta   100.44122314
_cell_angle_gamma   90.00000000
_symmetry_Int_Tables_number   1
_chemical_formula_structural   YErAl3GaSi3
_chemical_formula_sum   'Y1 Er1 Al3 Ga1 Si3'
_cell_volume   189.77098280
_cell_formula_units_Z   1
loop_
 _symmetry_equiv_pos_site_id
 _symmetry_equiv_pos_as_xyz
  1  'x, y, z'
loop_
 _atom_site_type_symbol
 _atom_site_label
 _atom_site_symmetry_multiplicity
 _atom_site_fract_x
 _atom_site_fract_y
 _atom_site_fract_z
 _atom_site_occupancy
  Y  Y0  1  0.77860904  0.49999999  0.55721702  1
  Er  Er1  1  0.11638201  0.49999999  0.23276400  1
  Al  Al2  1  0.49473302  0.49999999  0.98946601  1
  Al  Al3  1  0.38242302  0.49999999  0.76484601  1
  Al  Al4  1  0.99343405  0.00000000  0.98686702  1
  Si  Si5  1  0.88071804  0.00000000  0.76143602  1
  Ga  Ga6  1  0.66719903  0.00000000  0.33439901  1
  Si  Si7  1  0.23618201  0.00000000  0.47236301  1
  Si  Si8  1  0.55732103  0.00000000  0.11464101  1
