# generated using pymatgen
data_ErAl8Ga(SiGe)3
_symmetry_space_group_name_H-M   'P 1'
_cell_length_a   3.97443700
_cell_length_b   7.98070288
_cell_length_c   7.98070288
_cell_angle_alpha   90.00000000
_cell_angle_beta   90.00000000
_cell_angle_gamma   90.00000000
_symmetry_Int_Tables_number   1
_chemical_formula_structural   ErAl8Ga(SiGe)3
_chemical_formula_sum   'Er1 Al8 Ga1 Si3 Ge3'
_cell_volume   253.13832470
_cell_formula_units_Z   1
loop_
 _symmetry_equiv_pos_site_id
 _symmetry_equiv_pos_as_xyz
  1  'x, y, z'
loop_
 _atom_site_type_symbol
 _atom_site_label
 _atom_site_symmetry_multiplicity
 _atom_site_fract_x
 _atom_site_fract_y
 _atom_site_fract_z
 _atom_site_occupancy
  Ga  Ga0  1  0.50000000  0.00000000  0.24454500  1
  Er  Er1  1  0.50000000  0.00000000  0.75545501  1
  Al  Al2  1  0.50000000  0.24454500  0.00000000  1
  Al  Al3  1  0.50000000  0.75545501  -0.00000000  1
  Al  Al4  1  0.00000000  0.50000001  0.00000000  1
  Al  Al5  1  0.00000000  0.00000000  0.50000001  1
  Al  Al6  1  0.00000000  0.00000000  0.00000000  1
  Al  Al7  1  0.00000000  0.50000001  0.50000001  1
  Si  Si8  1  0.00000000  0.23966000  0.23966000  1
  Al  Al9  1  0.00000000  0.76034001  0.76034001  1
  Al  Al10  1  0.00000000  0.23966000  0.76034001  1
  Si  Si11  1  0.00000000  0.76034001  0.23966000  1
  Ge  Ge12  1  0.50000000  0.50000001  0.24113500  1
  Si  Si13  1  0.50000000  0.50000001  0.75886501  1
  Ge  Ge14  1  0.50000000  0.24113500  0.50000001  1
  Ge  Ge15  1  0.50000000  0.75886501  0.50000001  1
