# generated using pymatgen
data_CsRbLi
_symmetry_space_group_name_H-M   'P 1'
_cell_length_a   4.27629757
_cell_length_b   4.27629757
_cell_length_c   16.04817772
_cell_angle_alpha   82.34354401
_cell_angle_beta   82.34354401
_cell_angle_gamma   60.00000381
_symmetry_Int_Tables_number   1
_chemical_formula_structural   CsRbLi
_chemical_formula_sum   'Cs1 Rb1 Li1'
_cell_volume   251.12558485
_cell_formula_units_Z   1
loop_
 _symmetry_equiv_pos_site_id
 _symmetry_equiv_pos_as_xyz
  1  'x, y, z'
loop_
 _atom_site_type_symbol
 _atom_site_label
 _atom_site_symmetry_multiplicity
 _atom_site_fract_x
 _atom_site_fract_y
 _atom_site_fract_z
 _atom_site_occupancy
  Cs  Cs0  1  0.50000000  0.50000002  0.50000001  1
  Li  Li1  1  0.86404000  0.86404003  0.40788003  1
  Rb  Rb2  1  0.13596000  0.13596001  0.59212000  1
