# generated using pymatgen
data_Li8NiO7
_symmetry_space_group_name_H-M   'P 1'
_cell_length_a   2.93462706
_cell_length_b   5.05559921
_cell_length_c   9.77065086
_cell_angle_alpha   85.43552399
_cell_angle_beta   83.09233093
_cell_angle_gamma   88.32928467
_symmetry_Int_Tables_number   1
_chemical_formula_structural   Li8NiO7
_chemical_formula_sum   'Li8 Ni1 O7'
_cell_volume   143.42354867
_cell_formula_units_Z   1
loop_
 _symmetry_equiv_pos_site_id
 _symmetry_equiv_pos_as_xyz
  1  'x, y, z'
loop_
 _atom_site_type_symbol
 _atom_site_label
 _atom_site_symmetry_multiplicity
 _atom_site_fract_x
 _atom_site_fract_y
 _atom_site_fract_z
 _atom_site_occupancy
  Li  Li0  1  0.87674699  0.12420300  0.74827499  1
  Li  Li1  1  0.63453001  0.37496800  0.24514400  1
  Li  Li2  1  0.36547004  0.62503200  0.75485597  1
  Li  Li3  1  0.12325307  0.87579700  0.25172498  1
  Li  Li4  1  0.00000004  0.50000000  0.49999998  1
  Li  Li5  1  0.75049304  0.75056500  0.00139600  1
  Li  Li6  1  0.49999999  0.00000000  0.50000000  1
  Li  Li7  1  0.24950701  0.24943500  0.99860397  1
  O  O8  1  0.31569006  0.93456700  0.88405996  1
  Ni  Ni9  1  0.03564601  0.17657400  0.39344099  1
  O  O10  1  0.81318401  0.43757800  0.88297498  1
  O  O11  1  0.59137204  0.69667600  0.38596299  1
  O  O12  1  0.40862801  0.30332400  0.61403698  1
  O  O13  1  0.18681604  0.56242200  0.11702499  1
  O  O14  1  0.96435404  0.82342600  0.60655898  1
  O  O15  1  0.68430999  0.06543300  0.11594001  1
