# generated using pymatgen
data_ErIn6GaSn3PdAu8
_symmetry_space_group_name_H-M   'P 1'
_cell_length_a   3.86413193
_cell_length_b   10.35425377
_cell_length_c   10.35425377
_cell_angle_alpha   90.00000000
_cell_angle_beta   90.00000000
_cell_angle_gamma   90.00000000
_symmetry_Int_Tables_number   1
_chemical_formula_structural   ErIn6GaSn3PdAu8
_chemical_formula_sum   'Er1 In6 Ga1 Sn3 Pd1 Au8'
_cell_volume   414.27579080
_cell_formula_units_Z   1
loop_
 _symmetry_equiv_pos_site_id
 _symmetry_equiv_pos_as_xyz
  1  'x, y, z'
loop_
 _atom_site_type_symbol
 _atom_site_label
 _atom_site_symmetry_multiplicity
 _atom_site_fract_x
 _atom_site_fract_y
 _atom_site_fract_z
 _atom_site_occupancy
  Er  Er0  1  0.50000001  0.14032800  0.81165902  1
  In  In1  1  0.50000001  0.85967202  0.18834100  1
  In  In2  1  0.50000001  0.18834100  0.14032800  1
  In  In3  1  0.50000001  0.81165902  0.85967202  1
  In  In4  1  1.00000002  0.39662801  0.71997702  1
  Ga  Ga5  1  1.00000002  0.60337201  0.28002301  1
  In  In6  1  1.00000002  0.28002301  0.39662801  1
  In  In7  1  1.00000002  0.71997702  0.60337201  1
  Au  Au8  1  0.50000001  0.00000000  0.50000001  1
  Sn  Sn9  1  0.50000001  0.50000001  0.00000000  1
  Au  Au10  1  0.50000001  0.50000001  0.50000001  1
  Au  Au11  1  0.00000000  0.00000000  0.00000000  1
  Pd  Pd12  1  0.50000001  0.25410801  0.58274901  1
  Au  Au13  1  0.50000001  0.74589202  0.41725101  1
  Sn  Sn14  1  0.50000001  0.41725101  0.25410801  1
  Sn  Sn15  1  0.50000001  0.58274901  0.74589202  1
  Au  Au16  1  0.00000000  0.27807301  0.95577802  1
  Au  Au17  1  1.00000002  0.72192702  0.04422200  1
  Au  Au18  1  0.00000000  0.04422200  0.27807301  1
  Au  Au19  1  0.00000000  0.95577802  0.72192702  1
