# generated using pymatgen
data_LiYGa3SiGe4
_symmetry_space_group_name_H-M   'P 1'
_cell_length_a   4.18801117
_cell_length_b   4.18801117
_cell_length_c   9.91845608
_cell_angle_alpha   90.00000000
_cell_angle_beta   90.00000000
_cell_angle_gamma   90.00000000
_symmetry_Int_Tables_number   1
_chemical_formula_structural   LiYGa3SiGe4
_chemical_formula_sum   'Li1 Y1 Ga3 Si1 Ge4'
_cell_volume   173.96414102
_cell_formula_units_Z   1
loop_
 _symmetry_equiv_pos_site_id
 _symmetry_equiv_pos_as_xyz
  1  'x, y, z'
loop_
 _atom_site_type_symbol
 _atom_site_label
 _atom_site_symmetry_multiplicity
 _atom_site_fract_x
 _atom_site_fract_y
 _atom_site_fract_z
 _atom_site_occupancy
  Y  Y0  1  0.00000000  0.49999998  0.25366600  1
  Li  Li1  1  0.49999998  0.00000000  0.74633399  1
  Ga  Ga2  1  0.00000000  0.00000000  0.50000000  1
  Ga  Ga3  1  0.49999998  0.49999998  0.50000000  1
  Ga  Ga4  1  0.00000000  0.49999998  0.86456099  1
  Si  Si5  1  0.49999998  0.00000000  0.13543900  1
  Ge  Ge6  1  0.00000000  0.49999998  0.62309600  1
  Ge  Ge7  1  0.49999998  0.00000000  0.37690400  1
  Ge  Ge8  1  0.00000000  0.00000000  0.00000000  1
  Ge  Ge9  1  0.49999998  0.49999998  0.00000000  1
