# generated using pymatgen
data_Sr6PrEu2InSn2
_symmetry_space_group_name_H-M   'P 1'
_cell_length_a   8.23681355
_cell_length_b   8.23681355
_cell_length_c   10.08176136
_cell_angle_alpha   114.11068726
_cell_angle_beta   114.11068726
_cell_angle_gamma   90.00000000
_symmetry_Int_Tables_number   1
_chemical_formula_structural   Sr6PrEu2InSn2
_chemical_formula_sum   'Sr6 Pr1 Eu2 In1 Sn2'
_cell_volume   558.30935175
_cell_formula_units_Z   1
loop_
 _symmetry_equiv_pos_site_id
 _symmetry_equiv_pos_as_xyz
  1  'x, y, z'
loop_
 _atom_site_type_symbol
 _atom_site_label
 _atom_site_symmetry_multiplicity
 _atom_site_fract_x
 _atom_site_fract_y
 _atom_site_fract_z
 _atom_site_occupancy
  Eu  Eu0  1  0.75000002  0.25000001  0.49999995  1
  Sr  Sr1  1  0.50000000  0.50000002  -0.00000004  1
  Sr  Sr2  1  0.24999998  0.75000002  0.49999994  1
  Pr  Pr3  1  0.00000000  0.00000000  0.00000000  1
  Eu  Eu4  1  0.63734800  0.63734802  0.75790793  1
  Sr  Sr5  1  0.12055998  0.63734802  0.75790795  1
  Sr  Sr6  1  0.36265198  0.87944003  0.24209194  1
  Sr  Sr7  1  0.87944000  0.87944003  0.24209193  1
  In  In8  1  0.12056000  0.12056000  0.75790797  1
  Sr  Sr9  1  0.63734802  0.12056000  0.75790795  1
  Sn  Sn10  1  0.87944002  0.36265201  0.24209195  1
  Sn  Sn11  1  0.36265200  0.36265201  0.24209197  1
