# generated using pymatgen
data_La2ErTh4Sn5Au4
_symmetry_space_group_name_H-M   'P 1'
_cell_length_a   6.46458578
_cell_length_b   8.56038189
_cell_length_c   8.56038189
_cell_angle_alpha   120.00000000
_cell_angle_beta   90.00000000
_cell_angle_gamma   90.00000000
_symmetry_Int_Tables_number   1
_chemical_formula_structural   La2ErTh4Sn5Au4
_chemical_formula_sum   'La2 Er1 Th4 Sn5 Au4'
_cell_volume   410.25852418
_cell_formula_units_Z   1
loop_
 _symmetry_equiv_pos_site_id
 _symmetry_equiv_pos_as_xyz
  1  'x, y, z'
loop_
 _atom_site_type_symbol
 _atom_site_label
 _atom_site_symmetry_multiplicity
 _atom_site_fract_x
 _atom_site_fract_y
 _atom_site_fract_z
 _atom_site_occupancy
  Er  Er0  1  -0.00000000  0.66666667  0.33333332  1
  La  La1  1  0.50000002  0.33333333  0.66666665  1
  La  La2  1  -0.00000000  0.33333333  0.66666665  1
  Th  Th3  1  0.50000002  0.66666667  0.33333332  1
  Th  Th4  1  0.75000003  0.75775700  0.75775697  1
  Th  Th5  1  0.25000001  0.75775700  -0.00000001  1
  Sn  Sn6  1  0.25000001  0.00000000  0.75775699  1
  Th  Th7  1  0.75000003  0.00000000  0.24224300  1
  Sn  Sn8  1  0.75000003  0.24224300  -0.00000000  1
  Sn  Sn9  1  0.25000001  0.24224300  0.24224299  1
  Sn  Sn10  1  0.75000003  0.39378500  0.39378499  1
  Au  Au11  1  0.25000001  0.39378500  -0.00000001  1
  Sn  Sn12  1  0.25000001  0.00000000  0.39378499  1
  Au  Au13  1  0.75000003  0.00000000  0.60621499  1
  Au  Au14  1  0.75000003  0.60621500  0.99999997  1
  Au  Au15  1  0.25000001  0.60621500  0.60621498  1
