# generated using pymatgen
data_LiMg3Cu2GeP11
_symmetry_space_group_name_H-M   'P 1'
_cell_length_a   5.85575819
_cell_length_b   5.85828400
_cell_length_c   7.88925982
_cell_angle_alpha   68.20528412
_cell_angle_beta   90.00000000
_cell_angle_gamma   90.00000000
_symmetry_Int_Tables_number   1
_chemical_formula_structural   LiMg3Cu2GeP11
_chemical_formula_sum   'Li1 Mg3 Cu2 Ge1 P11'
_cell_volume   251.29341680
_cell_formula_units_Z   1
loop_
 _symmetry_equiv_pos_site_id
 _symmetry_equiv_pos_as_xyz
  1  'x, y, z'
loop_
 _atom_site_type_symbol
 _atom_site_label
 _atom_site_symmetry_multiplicity
 _atom_site_fract_x
 _atom_site_fract_y
 _atom_site_fract_z
 _atom_site_occupancy
  Li  Li0  1  0.99999997  0.35816900  0.28366201  1
  Mg  Mg1  1  0.49999998  0.85816899  0.28366202  1
  Mg  Mg2  1  0.00000000  0.64183099  0.71633802  1
  Mg  Mg3  1  0.49999998  0.14183100  0.71633800  1
  Cu  Cu4  1  0.00000000  0.00000000  0.00000000  1
  Cu  Cu5  1  0.49999998  0.49999999  0.00000001  1
  P  P6  1  0.74999998  0.49972999  0.50000001  1
  P  P7  1  0.24999999  0.00027000  0.50000000  1
  P  P8  1  0.24999999  0.50026999  0.50000001  1
  P  P9  1  0.74999998  0.99972999  0.50000002  1
  P  P10  1  0.99999997  0.10898000  0.78204000  1
  Ge  Ge11  1  0.49999998  0.60897999  0.78204001  1
  P  P12  1  0.00000000  0.89101999  0.21796002  1
  P  P13  1  0.49999998  0.39102000  0.21796001  1
  P  P14  1  0.79294397  0.20815000  0.00000001  1
  P  P15  1  0.20705599  0.79184999  0.00000002  1
  P  P16  1  0.29294399  0.29185000  0.00000001  1
  P  P17  1  0.70705598  0.70814999  0.00000002  1
