# generated using pymatgen
data_Na4CuNiO10
_symmetry_space_group_name_H-M   'P 1'
_cell_length_a   4.92015409
_cell_length_b   4.92015362
_cell_length_c   10.13364410
_cell_angle_alpha   90.00000000
_cell_angle_beta   90.00000000
_cell_angle_gamma   120.00000000
_symmetry_Int_Tables_number   1
_chemical_formula_structural   Na4CuNiO10
_chemical_formula_sum   'Na4 Cu1 Ni1 O10'
_cell_volume   212.44848904
_cell_formula_units_Z   1
loop_
 _symmetry_equiv_pos_site_id
 _symmetry_equiv_pos_as_xyz
  1  'x, y, z'
loop_
 _atom_site_type_symbol
 _atom_site_label
 _atom_site_symmetry_multiplicity
 _atom_site_fract_x
 _atom_site_fract_y
 _atom_site_fract_z
 _atom_site_occupancy
  Na  Na0  1  0.00000000  0.00000000  0.49999999  1
  Na  Na1  1  0.00000000  0.00000000  0.00000000  1
  Na  Na2  1  0.33333330  0.66666666  0.25000000  1
  Na  Na3  1  0.66666664  0.33333333  0.74999999  1
  Ni  Ni4  1  0.66666664  0.33333333  0.25000000  1
  Cu  Cu5  1  0.33333330  0.66666666  0.74999999  1
  O  O6  1  0.10313097  0.72384000  0.74999999  1
  O  O7  1  0.72383996  0.62070900  0.25000000  1
  O  O8  1  0.27615998  0.37929100  0.74999999  1
  O  O9  1  0.89686897  0.27616000  0.25000000  1
  O  O10  1  0.62070895  0.89686899  0.74999999  1
  O  O11  1  0.37929099  0.10313100  0.25000000  1
  O  O12  1  0.66666664  0.33333333  0.54791499  1
  O  O13  1  0.33333330  0.66666666  0.04791500  1
  O  O14  1  0.66666664  0.33333333  0.95208499  1
  O  O15  1  0.33333330  0.66666666  0.45208500  1
