# generated using pymatgen
data_KLiCoNiH2N
_symmetry_space_group_name_H-M   'P 1'
_cell_length_a   5.99706984
_cell_length_b   6.11692333
_cell_length_c   5.99706984
_cell_angle_alpha   119.35393524
_cell_angle_beta   90.00000000
_cell_angle_gamma   119.35393524
_symmetry_Int_Tables_number   1
_chemical_formula_structural   KLiCoNiH2N
_chemical_formula_sum   'K1 Li1 Co1 Ni1 H2 N1'
_cell_volume   158.54879549
_cell_formula_units_Z   1
loop_
 _symmetry_equiv_pos_site_id
 _symmetry_equiv_pos_as_xyz
  1  'x, y, z'
loop_
 _atom_site_type_symbol
 _atom_site_label
 _atom_site_symmetry_multiplicity
 _atom_site_fract_x
 _atom_site_fract_y
 _atom_site_fract_z
 _atom_site_occupancy
  K  K0  1  0.00000000  0.00000000  0.00000000  1
  Li  Li1  1  0.25000002  0.50000000  0.75000003  1
  Ni  Ni2  1  0.50000001  0.00000000  0.50000001  1
  H  H3  1  0.37300402  0.23582900  0.65725002  1
  Co  Co4  1  0.86282603  0.23583000  0.57858002  1
  N  N5  1  0.42142103  0.76417001  0.62699603  1
  H  H6  1  0.34275003  0.76417101  0.13717502  1
