# generated using pymatgen
data_KNa3CuNi2PO12
_symmetry_space_group_name_H-M   'P 1'
_cell_length_a   4.79441595
_cell_length_b   5.54183102
_cell_length_c   9.55395126
_cell_angle_alpha   89.98811340
_cell_angle_beta   90.60360718
_cell_angle_gamma   89.55942535
_symmetry_Int_Tables_number   1
_chemical_formula_structural   KNa3CuNi2PO12
_chemical_formula_sum   'K1 Na3 Cu1 Ni2 P1 O12'
_cell_volume   253.82538401
_cell_formula_units_Z   1
loop_
 _symmetry_equiv_pos_site_id
 _symmetry_equiv_pos_as_xyz
  1  'x, y, z'
loop_
 _atom_site_type_symbol
 _atom_site_label
 _atom_site_symmetry_multiplicity
 _atom_site_fract_x
 _atom_site_fract_y
 _atom_site_fract_z
 _atom_site_occupancy
  Na  Na0  1  0.25151199  0.50093801  0.16563001  1
  K  K1  1  0.24749596  0.99898903  0.66719202  1
  Na  Na2  1  0.75419303  0.00112100  0.33744098  1
  Na  Na3  1  0.74492701  0.49891801  0.83191799  1
  Cu  Cu4  1  0.99977299  0.99963003  0.99523100  1
  Ni  Ni5  1  0.49996700  0.49999901  0.50428200  1
  P  P6  1  0.49979897  0.99970503  0.99533101  1
  Ni  Ni7  1  0.00092698  0.50016201  0.50452301  1
  O  O8  1  0.74232400  0.50117501  0.35273599  1
  O  O9  1  0.74935298  0.99955703  0.84513900  1
  O  O10  1  0.24969601  0.00111700  0.14643799  1
  O  O11  1  0.26059199  0.49907401  0.65550400  1
  O  O12  1  0.75017699  0.77450802  0.07243100  1
  O  O13  1  0.74959202  0.22941801  0.07405298  1
  O  O14  1  0.75897302  0.26915501  0.57994298  1
  O  O15  1  0.75041200  0.72786202  0.58036100  1
  O  O16  1  0.24093898  0.73458102  0.43019801  1
  O  O17  1  0.24985200  0.26896501  0.42996700  1
  O  O18  1  0.24936700  0.22353801  0.91677700  1
  O  O19  1  0.25012897  0.77158802  0.91490401  1
