# generated using pymatgen
data_Li3Cu2PO8
_symmetry_space_group_name_H-M   'P 1'
_cell_length_a   5.63479805
_cell_length_b   6.22217798
_cell_length_c   5.63479805
_cell_angle_alpha   63.07656097
_cell_angle_beta   90.00000000
_cell_angle_gamma   116.92343903
_symmetry_Int_Tables_number   1
_chemical_formula_structural   Li3Cu2PO8
_chemical_formula_sum   'Li3 Cu2 P1 O8'
_cell_volume   151.74171546
_cell_formula_units_Z   1
loop_
 _symmetry_equiv_pos_site_id
 _symmetry_equiv_pos_as_xyz
  1  'x, y, z'
loop_
 _atom_site_type_symbol
 _atom_site_label
 _atom_site_symmetry_multiplicity
 _atom_site_fract_x
 _atom_site_fract_y
 _atom_site_fract_z
 _atom_site_occupancy
  Li  Li0  1  0.75000001  0.50000002  0.74999998  1
  Li  Li1  1  0.00000000  0.00000000  0.00000000  1
  Li  Li2  1  0.37500002  0.75000004  0.87499997  1
  Cu  Cu3  1  0.37500000  0.25000001  0.37499999  1
  Cu  Cu4  1  0.87500000  0.25000001  0.37499999  1
  P  P5  1  0.37500002  0.75000004  0.37499997  1
  O  O6  1  0.14932703  0.89332304  0.70504496  1
  O  O7  1  0.74399602  0.89332404  0.40163197  1
  O  O8  1  0.34836801  0.39332402  0.60067198  1
  O  O9  1  0.70504400  0.10667701  0.74399599  1
  O  O10  1  0.04495601  0.39332302  0.00600399  1
  O  O11  1  0.40163200  0.10667601  0.14932800  1
  O  O12  1  0.00600402  0.60667603  0.34836798  1
  O  O13  1  0.60067301  0.60667703  0.04495498  1
