# generated using pymatgen
data_BaSrCa5YSi8
_symmetry_space_group_name_H-M   'P 1'
_cell_length_a   6.96263599
_cell_length_b   8.25757790
_cell_length_c   8.25757790
_cell_angle_alpha   90.00000000
_cell_angle_beta   90.00000000
_cell_angle_gamma   90.00000000
_symmetry_Int_Tables_number   1
_chemical_formula_structural   BaSrCa5YSi8
_chemical_formula_sum   'Ba1 Sr1 Ca5 Y1 Si8'
_cell_volume   474.76538735
_cell_formula_units_Z   1
loop_
 _symmetry_equiv_pos_site_id
 _symmetry_equiv_pos_as_xyz
  1  'x, y, z'
loop_
 _atom_site_type_symbol
 _atom_site_label
 _atom_site_symmetry_multiplicity
 _atom_site_fract_x
 _atom_site_fract_y
 _atom_site_fract_z
 _atom_site_occupancy
  Ba  Ba0  1  0.50000000  0.50000001  0.50000001  1
  Sr  Sr1  1  0.00000000  0.50000001  0.50000001  1
  Ca  Ca2  1  0.50000000  0.00000000  0.00000000  1
  Ca  Ca3  1  0.50000000  0.50000001  0.00000000  1
  Ca  Ca4  1  0.00000000  0.00000000  0.50000001  1
  Y  Y5  1  0.50000000  0.00000000  0.50000001  1
  Ca  Ca6  1  0.00000000  0.50000001  0.00000000  1
  Ca  Ca7  1  0.00000000  0.00000000  0.00000000  1
  Si  Si8  1  0.24950000  0.17140000  0.67220701  1
  Si  Si9  1  0.75050000  0.67220701  0.17140000  1
  Si  Si10  1  0.75050000  0.32779300  0.82860001  1
  Si  Si11  1  0.24950000  0.82860001  0.32779300  1
  Si  Si12  1  0.24950000  0.67220701  0.82860001  1
  Si  Si13  1  0.75050000  0.17140000  0.32779300  1
  Si  Si14  1  0.75050000  0.82860001  0.67220701  1
  Si  Si15  1  0.24950000  0.32779300  0.17140000  1
