# generated using pymatgen
data_MgCu2AgTe2Se
_symmetry_space_group_name_H-M   'P 1'
_cell_length_a   5.98897600
_cell_length_b   5.98897600
_cell_length_c   7.59383488
_cell_angle_alpha   113.22428894
_cell_angle_beta   113.22428894
_cell_angle_gamma   90.00000000
_symmetry_Int_Tables_number   1
_chemical_formula_structural   MgCu2AgTe2Se
_chemical_formula_sum   'Mg1 Cu2 Ag1 Te2 Se1'
_cell_volume   226.08803536
_cell_formula_units_Z   1
loop_
 _symmetry_equiv_pos_site_id
 _symmetry_equiv_pos_as_xyz
  1  'x, y, z'
loop_
 _atom_site_type_symbol
 _atom_site_label
 _atom_site_symmetry_multiplicity
 _atom_site_fract_x
 _atom_site_fract_y
 _atom_site_fract_z
 _atom_site_occupancy
  Cu  Cu0  1  0.00000000  0.00000000  0.00000000  1
  Mg  Mg1  1  0.25000005  0.75000003  0.50000006  1
  Ag  Ag2  1  0.75000003  0.25000001  0.50000005  1
  Cu  Cu3  1  0.38883103  0.38883101  0.24380604  1
  Te  Te4  1  0.85497507  0.85497503  0.24380610  1
  Se  Se5  1  0.14502504  0.61116902  0.75619404  1
  Te  Te6  1  0.61116902  0.14502501  0.75619403  1
