# generated using pymatgen
data_YUNb2CuSb4SeS4
_symmetry_space_group_name_H-M   'P 1'
_cell_length_a   7.73241234
_cell_length_b   7.73241234
_cell_length_c   9.01705742
_cell_angle_alpha   89.95299530
_cell_angle_beta   89.95299530
_cell_angle_gamma   109.28922272
_symmetry_Int_Tables_number   1
_chemical_formula_structural   YUNb2CuSb4SeS4
_chemical_formula_sum   'Y1 U1 Nb2 Cu1 Sb4 Se1 S4'
_cell_volume   508.86598178
_cell_formula_units_Z   1
loop_
 _symmetry_equiv_pos_site_id
 _symmetry_equiv_pos_as_xyz
  1  'x, y, z'
loop_
 _atom_site_type_symbol
 _atom_site_label
 _atom_site_symmetry_multiplicity
 _atom_site_fract_x
 _atom_site_fract_y
 _atom_site_fract_z
 _atom_site_occupancy
  Cu  Cu0  1  0.50954400  0.49045600  -0.00000001  1
  U  U1  1  0.99002301  0.00997700  0.49999997  1
  Nb  Nb2  1  0.49981600  0.50018400  0.49999997  1
  Y  Y3  1  0.51025800  0.01039400  0.24314099  1
  Sb  Sb4  1  0.98960600  0.48974200  0.75685896  1
  Nb  Nb5  1  0.99944401  0.00055600  -0.00000001  1
  S  S6  1  0.89484900  0.64256600  0.01613899  1
  Sb  Sb7  1  0.38502400  0.11057200  0.52210698  1
  S  S8  1  0.35743400  0.10515100  0.98386096  1
  Sb  Sb9  1  0.88942800  0.61497600  0.47789297  1
  Sb  Sb10  1  0.85339001  0.10435600  0.76819996  1
  S  S11  1  0.34116800  0.61562800  0.24770998  1
  Se  Se12  1  0.89564401  0.14661000  0.23179999  1
  S  S13  1  0.38437200  0.65883200  0.75228996  1
