# generated using pymatgen
data_Li2FeCo2Ni5
_symmetry_space_group_name_H-M   'P 1'
_cell_length_a   3.05426788
_cell_length_b   5.32235193
_cell_length_c   7.44256306
_cell_angle_alpha   90.00000000
_cell_angle_beta   90.00000000
_cell_angle_gamma   106.67415619
_symmetry_Int_Tables_number   1
_chemical_formula_structural   Li2FeCo2Ni5
_chemical_formula_sum   'Li2 Fe1 Co2 Ni5'
_cell_volume   115.89828016
_cell_formula_units_Z   1
loop_
 _symmetry_equiv_pos_site_id
 _symmetry_equiv_pos_as_xyz
  1  'x, y, z'
loop_
 _atom_site_type_symbol
 _atom_site_label
 _atom_site_symmetry_multiplicity
 _atom_site_fract_x
 _atom_site_fract_y
 _atom_site_fract_z
 _atom_site_occupancy
  Li  Li0  1  0.25565006  0.51130003  0.74999999  1
  Li  Li1  1  0.74435008  0.48870002  0.25000000  1
  Co  Co2  1  0.00000000  0.00000000  0.50000000  1
  Co  Co3  1  0.00000000  0.00000000  0.00000000  1
  Ni  Ni4  1  0.92416912  0.84833804  0.74999999  1
  Fe  Fe5  1  0.07583102  0.15166201  0.25000000  1
  Ni  Ni6  1  0.62716905  0.25433801  0.55772700  1
  Ni  Ni7  1  0.37283109  0.74566204  0.44227300  1
  Ni  Ni8  1  0.62716905  0.25433801  0.94227299  1
  Ni  Ni9  1  0.37283109  0.74566204  0.05772700  1
