# generated using pymatgen
data_La5YSn3Sb7Au2
_symmetry_space_group_name_H-M   'P 1'
_cell_length_a   7.32127094
_cell_length_b   9.66084576
_cell_length_c   9.66084576
_cell_angle_alpha   120.00000000
_cell_angle_beta   90.00000000
_cell_angle_gamma   90.00000000
_symmetry_Int_Tables_number   1
_chemical_formula_structural   La5YSn3Sb7Au2
_chemical_formula_sum   'La5 Y1 Sn3 Sb7 Au2'
_cell_volume   591.76245528
_cell_formula_units_Z   1
loop_
 _symmetry_equiv_pos_site_id
 _symmetry_equiv_pos_as_xyz
  1  'x, y, z'
loop_
 _atom_site_type_symbol
 _atom_site_label
 _atom_site_symmetry_multiplicity
 _atom_site_fract_x
 _atom_site_fract_y
 _atom_site_fract_z
 _atom_site_occupancy
  Y  Y0  1  0.75000001  0.23616801  -0.00000000  1
  La  La1  1  0.75000001  0.76383202  0.76383201  1
  La  La2  1  0.75000001  0.00000000  0.23616800  1
  La  La3  1  0.25000000  0.76383202  1.00000002  1
  La  La4  1  0.25000000  0.23616801  0.23616800  1
  La  La5  1  0.25000000  0.00000000  0.76383202  1
  Sb  Sb6  1  0.50000000  0.33333334  0.66666668  1
  Sb  Sb7  1  0.50000000  0.66666668  0.33333334  1
  Sb  Sb8  1  -0.00000000  0.66666668  0.33333334  1
  Sb  Sb9  1  -0.00000000  0.33333334  0.66666668  1
  Au  Au10  1  0.50000000  0.00000000  -0.00000000  1
  Au  Au11  1  0.00000000  0.00000000  0.00000000  1
  Sb  Sb12  1  0.75000001  0.59808301  1.00000002  1
  Sb  Sb13  1  0.75000001  0.40191701  0.40191701  1
  Sb  Sb14  1  0.75000001  1.00000002  0.59808301  1
  Sn  Sn15  1  0.25000000  0.40191701  -0.00000000  1
  Sn  Sn16  1  0.25000000  0.59808301  0.59808301  1
  Sn  Sn17  1  0.25000000  0.00000000  0.40191701  1
