# generated using pymatgen
data_Li3NiO5
_symmetry_space_group_name_H-M   'P 1'
_cell_length_a   4.54381180
_cell_length_b   5.44152594
_cell_length_c   7.56431961
_cell_angle_alpha   86.30812836
_cell_angle_beta   88.76586151
_cell_angle_gamma   88.69518280
_symmetry_Int_Tables_number   1
_chemical_formula_structural   Li3NiO5
_chemical_formula_sum   'Li6 Ni2 O10'
_cell_volume   186.55554795
_cell_formula_units_Z   2
loop_
 _symmetry_equiv_pos_site_id
 _symmetry_equiv_pos_as_xyz
  1  'x, y, z'
loop_
 _atom_site_type_symbol
 _atom_site_label
 _atom_site_symmetry_multiplicity
 _atom_site_fract_x
 _atom_site_fract_y
 _atom_site_fract_z
 _atom_site_occupancy
  Li  Li0  1  0.48282401  0.32145300  0.65916901  1
  Li  Li1  1  0.51717601  0.67854700  0.34083102  1
  Li  Li2  1  0.50000002  0.00000000  -0.00000001  1
  Li  Li3  1  0.98742704  0.15587600  0.33109199  1
  Li  Li4  1  -0.00000001  0.50000000  0.00000002  1
  Li  Li5  1  0.01257298  0.84412401  0.66890804  1
  Ni  Ni6  1  0.80589603  0.20238100  0.10392900  1
  Ni  Ni7  1  0.80754202  0.87110501  0.43912503  1
  O  O8  1  0.69423803  0.03694600  0.76733100  1
  O  O9  1  0.69811402  0.37248800  0.43591701  1
  O  O10  1  0.68975002  0.70251000  0.10459002  1
  O  O11  1  0.30576199  0.96305401  0.23266904  1
  O  O12  1  0.31025001  0.29749000  0.89541001  1
  O  O13  1  0.30188600  0.62751200  0.56408303  1
  O  O14  1  0.19410399  0.79761901  0.89607104  1
  O  O15  1  0.19245801  0.12889500  0.56087501  1
  O  O16  1  0.79258202  0.53820300  0.75361702  1
  O  O17  1  0.20741800  0.46179700  0.24638302  1
