# generated using pymatgen
data_LiErMn4Fe7Si5
_symmetry_space_group_name_H-M   'P 1'
_cell_length_a   5.18472815
_cell_length_b   6.87986517
_cell_length_c   7.31115484
_cell_angle_alpha   90.00000000
_cell_angle_beta   110.76749420
_cell_angle_gamma   90.00000000
_symmetry_Int_Tables_number   1
_chemical_formula_structural   LiErMn4Fe7Si5
_chemical_formula_sum   'Li1 Er1 Mn4 Fe7 Si5'
_cell_volume   243.84623013
_cell_formula_units_Z   1
loop_
 _symmetry_equiv_pos_site_id
 _symmetry_equiv_pos_as_xyz
  1  'x, y, z'
loop_
 _atom_site_type_symbol
 _atom_site_label
 _atom_site_symmetry_multiplicity
 _atom_site_fract_x
 _atom_site_fract_y
 _atom_site_fract_z
 _atom_site_occupancy
  Er  Er0  1  0.60389998  0.09764700  0.20780000  1
  Mn  Mn1  1  0.39609999  0.90235298  0.79219999  1
  Li  Li2  1  0.89609998  0.59764699  0.79219999  1
  Mn  Mn3  1  0.10390000  0.40235299  0.20780000  1
  Mn  Mn4  1  0.68123298  0.47721799  0.36246599  1
  Mn  Mn5  1  0.31876699  0.52278199  0.63753399  1
  Fe  Fe6  1  0.81876698  0.97721798  0.63753399  1
  Fe  Fe7  1  0.18123299  0.02278200  0.36246599  1
  Si  Si8  1  0.18855399  0.24999999  0.87710799  1
  Si  Si9  1  0.31144599  0.74999998  0.12289200  1
  Si  Si10  1  0.68855398  0.24999999  0.87710799  1
  Si  Si11  1  0.81144598  0.74999998  0.12289200  1
  Fe  Fe12  1  0.52083799  0.24999999  0.54167599  1
  Fe  Fe13  1  0.97916197  0.74999998  0.45832399  1
  Fe  Fe14  1  0.49999999  0.49999999  0.99999998  1
  Fe  Fe15  1  0.00000000  0.00000000  0.00000000  1
  Fe  Fe16  1  0.47916199  0.74999998  0.45832399  1
  Si  Si17  1  0.02083800  0.24999999  0.54167599  1
