# generated using pymatgen
data_DyYInGa5
_symmetry_space_group_name_H-M   'P 1'
_cell_length_a   4.96987677
_cell_length_b   6.19743776
_cell_length_c   6.19743824
_cell_angle_alpha   60.00000000
_cell_angle_beta   90.00000000
_cell_angle_gamma   90.00000000
_symmetry_Int_Tables_number   1
_chemical_formula_structural   DyYInGa5
_chemical_formula_sum   'Y1 Dy1 In1 Ga5'
_cell_volume   165.31057382
_cell_formula_units_Z   1
loop_
 _symmetry_equiv_pos_site_id
 _symmetry_equiv_pos_as_xyz
  1  'x, y, z'
loop_
 _atom_site_type_symbol
 _atom_site_label
 _atom_site_symmetry_multiplicity
 _atom_site_fract_x
 _atom_site_fract_y
 _atom_site_fract_z
 _atom_site_occupancy
  Y  Y0  1  0.25000001  0.33333335  0.33333332  1
  Dy  Dy1  1  0.75000004  0.66666670  0.66666665  1
  Ga  Ga2  1  0.75000004  0.67789903  0.16105098  1
  In  In3  1  0.75000004  0.16105001  0.16105100  1
  Ga  Ga4  1  0.75000004  0.16105001  0.67789999  1
  Ga  Ga5  1  0.25000001  0.32210102  0.83894899  1
  Ga  Ga6  1  0.25000001  0.83895004  0.83894898  1
  Ga  Ga7  1  0.25000001  0.83895004  0.32209998  1
