# generated using pymatgen
data_Mn2Fe2CuP4
_symmetry_space_group_name_H-M   'P 1'
_cell_length_a   3.62367606
_cell_length_b   6.21935797
_cell_length_c   6.21935797
_cell_angle_alpha   120.00000000
_cell_angle_beta   90.00000000
_cell_angle_gamma   90.00000000
_symmetry_Int_Tables_number   1
_chemical_formula_structural   Mn2Fe2CuP4
_chemical_formula_sum   'Mn2 Fe2 Cu1 P4'
_cell_volume   121.38670061
_cell_formula_units_Z   1
loop_
 _symmetry_equiv_pos_site_id
 _symmetry_equiv_pos_as_xyz
  1  'x, y, z'
loop_
 _atom_site_type_symbol
 _atom_site_label
 _atom_site_symmetry_multiplicity
 _atom_site_fract_x
 _atom_site_fract_y
 _atom_site_fract_z
 _atom_site_occupancy
  Mn  Mn0  1  0.49999999  0.59509100  -0.00000000  1
  Mn  Mn1  1  0.49999999  0.40490900  0.40490900  1
  Fe  Fe2  1  0.49999999  0.00000000  0.59509100  1
  Fe  Fe3  1  -0.00000000  0.25512300  1.00000000  1
  Cu  Cu4  1  0.99999998  0.00000000  0.25512300  1
  P  P5  1  -0.00000000  0.74487700  0.74487700  1
  P  P6  1  -0.00000000  0.33333333  0.66666667  1
  P  P7  1  0.99999998  0.66666667  0.33333333  1
  P  P8  1  0.49999999  0.00000000  -0.00000000  1
