# generated using pymatgen
data_PrYAl3Si5
_symmetry_space_group_name_H-M   'P 1'
_cell_length_a   4.09768581
_cell_length_b   4.09768677
_cell_length_c   14.11822510
_cell_angle_alpha   90.00000000
_cell_angle_beta   90.00000000
_cell_angle_gamma   119.99999237
_symmetry_Int_Tables_number   1
_chemical_formula_structural   PrYAl3Si5
_chemical_formula_sum   'Pr1 Y1 Al3 Si5'
_cell_volume   205.29963655
_cell_formula_units_Z   1
loop_
 _symmetry_equiv_pos_site_id
 _symmetry_equiv_pos_as_xyz
  1  'x, y, z'
loop_
 _atom_site_type_symbol
 _atom_site_label
 _atom_site_symmetry_multiplicity
 _atom_site_fract_x
 _atom_site_fract_y
 _atom_site_fract_z
 _atom_site_occupancy
  Y  Y0  1  0.33333332  0.66666665  0.61758300  1
  Pr  Pr1  1  0.66666669  0.33333332  0.11758300  1
  Al  Al2  1  0.66666669  0.33333332  0.38241700  1
  Al  Al3  1  0.33333332  0.66666665  0.88241699  1
  Al  Al4  1  0.00000000  0.00000000  0.25000000  1
  Si  Si5  1  0.00000000  0.00000000  0.74999999  1
  Si  Si6  1  0.66666669  0.33333332  0.74999999  1
  Si  Si7  1  0.00000000  0.00000000  0.00000000  1
  Si  Si8  1  0.00000000  0.00000000  0.50000000  1
  Si  Si9  1  0.33333332  0.66666665  0.25000000  1
