# generated using pymatgen
data_LiCuO4
_symmetry_space_group_name_H-M   'P 1'
_cell_length_a   3.13097000
_cell_length_b   4.62488556
_cell_length_c   4.63386917
_cell_angle_alpha   91.24183655
_cell_angle_beta   90.00000000
_cell_angle_gamma   90.00000000
_symmetry_Int_Tables_number   1
_chemical_formula_structural   LiCuO4
_chemical_formula_sum   'Li1 Cu1 O4'
_cell_volume   67.08441680
_cell_formula_units_Z   1
loop_
 _symmetry_equiv_pos_site_id
 _symmetry_equiv_pos_as_xyz
  1  'x, y, z'
loop_
 _atom_site_type_symbol
 _atom_site_label
 _atom_site_symmetry_multiplicity
 _atom_site_fract_x
 _atom_site_fract_y
 _atom_site_fract_z
 _atom_site_occupancy
  Li  Li0  1  0.00000000  0.49999999  0.00000003  1
  Cu  Cu1  1  0.50000000  0.00000000  0.49999998  1
  O  O2  1  0.50000000  0.70051799  0.19948304  1
  O  O3  1  0.50000000  0.29948199  0.80051699  1
  O  O4  1  0.00000000  0.19655600  0.30472300  1
  O  O5  1  0.00000000  0.80344399  0.69527703  1
