# generated using pymatgen
data_ScTi2P3
_symmetry_space_group_name_H-M   'P 1'
_cell_length_a   4.96053219
_cell_length_b   4.96053219
_cell_length_c   4.96053219
_cell_angle_alpha   60.00000000
_cell_angle_beta   60.00000000
_cell_angle_gamma   60.00000000
_symmetry_Int_Tables_number   1
_chemical_formula_structural   ScTi2P3
_chemical_formula_sum   'Sc1 Ti2 P3'
_cell_volume   86.31172938
_cell_formula_units_Z   1
loop_
 _symmetry_equiv_pos_site_id
 _symmetry_equiv_pos_as_xyz
  1  'x, y, z'
loop_
 _atom_site_type_symbol
 _atom_site_label
 _atom_site_symmetry_multiplicity
 _atom_site_fract_x
 _atom_site_fract_y
 _atom_site_fract_z
 _atom_site_occupancy
  Ti  Ti0  1  0.75000001  0.75000001  0.75000001  1
  Sc  Sc1  1  0.00000000  0.00000000  0.00000000  1
  Ti  Ti2  1  0.37423101  0.87730901  0.37423001  1
  P  P3  1  0.37423101  0.37423001  0.37423001  1
  P  P4  1  0.37423101  0.37423001  0.87730901  1
  P  P5  1  0.87731001  0.37423001  0.37423001  1
