# generated using pymatgen
data_YLuIn2Pd2Au
_symmetry_space_group_name_H-M   'P 1'
_cell_length_a   4.70935822
_cell_length_b   4.70935822
_cell_length_c   7.59267902
_cell_angle_alpha   90.00000000
_cell_angle_beta   90.00000000
_cell_angle_gamma   90.00000000
_symmetry_Int_Tables_number   1
_chemical_formula_structural   YLuIn2Pd2Au
_chemical_formula_sum   'Y1 Lu1 In2 Pd2 Au1'
_cell_volume   168.39085147
_cell_formula_units_Z   1
loop_
 _symmetry_equiv_pos_site_id
 _symmetry_equiv_pos_as_xyz
  1  'x, y, z'
loop_
 _atom_site_type_symbol
 _atom_site_label
 _atom_site_symmetry_multiplicity
 _atom_site_fract_x
 _atom_site_fract_y
 _atom_site_fract_z
 _atom_site_occupancy
  Y  Y0  1  0.00000000  0.00000000  0.00000000  1
  Lu  Lu1  1  0.49999998  0.49999998  0.00000000  1
  In  In2  1  0.49999998  0.00000000  0.69681200  1
  In  In3  1  0.00000000  0.49999998  0.30318800  1
  Pd  Pd4  1  0.49999998  0.00000000  0.30318800  1
  Au  Au5  1  0.00000000  0.49999998  0.69681200  1
  Pd  Pd6  1  0.00000000  0.00000000  0.50000000  1
