# generated using pymatgen
data_La9Y(Sn2Au)2
_symmetry_space_group_name_H-M   'P 1'
_cell_length_a   6.91950893
_cell_length_b   9.46693420
_cell_length_c   9.46693420
_cell_angle_alpha   120.00000000
_cell_angle_beta   90.00000000
_cell_angle_gamma   90.00000000
_symmetry_Int_Tables_number   1
_chemical_formula_structural   La9Y(Sn2Au)2
_chemical_formula_sum   'La9 Y1 Sn4 Au2'
_cell_volume   537.06224582
_cell_formula_units_Z   1
loop_
 _symmetry_equiv_pos_site_id
 _symmetry_equiv_pos_as_xyz
  1  'x, y, z'
loop_
 _atom_site_type_symbol
 _atom_site_label
 _atom_site_symmetry_multiplicity
 _atom_site_fract_x
 _atom_site_fract_y
 _atom_site_fract_z
 _atom_site_occupancy
  Y  Y0  1  0.50000000  0.33333333  0.66666671  1
  La  La1  1  0.50000000  0.66666667  0.33333337  1
  La  La2  1  -0.00000000  0.66666667  0.33333337  1
  La  La3  1  -0.00000000  0.33333333  0.66666671  1
  La  La4  1  0.75000001  0.26443700  0.00000001  1
  La  La5  1  0.75000001  0.73556300  0.73556306  1
  La  La6  1  0.75000001  1.00000000  0.26443705  1
  La  La7  1  0.25000000  0.73556300  0.00000003  1
  La  La8  1  0.25000000  0.26443700  0.26443702  1
  La  La9  1  0.25000000  1.00000000  0.73556307  1
  Sn  Sn10  1  0.75000001  0.60953900  0.00000002  1
  Sn  Sn11  1  0.75000001  0.39046100  0.39046103  1
  Au  Au12  1  0.75000001  1.00000000  0.60953906  1
  Sn  Sn13  1  0.25000000  0.39046100  0.00000002  1
  Au  Au14  1  0.25000000  0.60953900  0.60953905  1
  Sn  Sn15  1  0.25000000  1.00000000  0.39046106  1
