# generated using pymatgen
data_Y2Fe7CoSiC
_symmetry_space_group_name_H-M   'P 1'
_cell_length_a   5.00117493
_cell_length_b   5.00117540
_cell_length_c   7.00789118
_cell_angle_alpha   90.00000000
_cell_angle_beta   90.00000000
_cell_angle_gamma   120.00000763
_symmetry_Int_Tables_number   1
_chemical_formula_structural   Y2Fe7CoSiC
_chemical_formula_sum   'Y2 Fe7 Co1 Si1 C1'
_cell_volume   151.79661230
_cell_formula_units_Z   1
loop_
 _symmetry_equiv_pos_site_id
 _symmetry_equiv_pos_as_xyz
  1  'x, y, z'
loop_
 _atom_site_type_symbol
 _atom_site_label
 _atom_site_symmetry_multiplicity
 _atom_site_fract_x
 _atom_site_fract_y
 _atom_site_fract_z
 _atom_site_occupancy
  Y  Y0  1  0.00000000  0.00000000  0.00000000  1
  Y  Y1  1  0.00000000  0.00000000  0.49999999  1
  Fe  Fe2  1  0.33333339  0.66666671  -0.00000000  1
  Co  Co3  1  0.66666671  0.33333336  -0.00000000  1
  Fe  Fe4  1  0.50000002  0.00000000  0.28576799  1
  Fe  Fe5  1  0.50000005  0.50000003  0.28576799  1
  Fe  Fe6  1  0.00000003  0.50000003  0.28576799  1
  Fe  Fe7  1  0.50000002  0.00000000  0.71423198  1
  Fe  Fe8  1  0.50000005  0.50000003  0.71423198  1
  Fe  Fe9  1  0.00000003  0.50000003  0.71423198  1
  Si  Si10  1  0.33333339  0.66666671  0.49999999  1
  C  C11  1  0.66666671  0.33333336  0.49999999  1
