# generated using pymatgen
data_Cs2K2BrCl3
_symmetry_space_group_name_H-M   'P 1'
_cell_length_a   6.64569616
_cell_length_b   8.08948994
_cell_length_c   8.08948994
_cell_angle_alpha   60.00000000
_cell_angle_beta   90.00000000
_cell_angle_gamma   90.00000000
_symmetry_Int_Tables_number   1
_chemical_formula_structural   Cs2K2BrCl3
_chemical_formula_sum   'Cs2 K2 Br1 Cl3'
_cell_volume   376.62868301
_cell_formula_units_Z   1
loop_
 _symmetry_equiv_pos_site_id
 _symmetry_equiv_pos_as_xyz
  1  'x, y, z'
loop_
 _atom_site_type_symbol
 _atom_site_label
 _atom_site_symmetry_multiplicity
 _atom_site_fract_x
 _atom_site_fract_y
 _atom_site_fract_z
 _atom_site_occupancy
  K  K0  1  0.24999999  0.33333334  0.33333334  1
  K  K1  1  0.74999998  0.66666668  0.66666668  1
  Cs  Cs2  1  0.74999998  0.67231601  0.16384200  1
  Cs  Cs3  1  0.74999998  0.16384200  0.16384200  1
  Br  Br4  1  0.74999998  0.16384200  0.67231602  1
  Cl  Cl5  1  0.24999999  0.32768400  0.83615802  1
  Cl  Cl6  1  0.24999999  0.83615801  0.83615801  1
  Cl  Cl7  1  0.24999999  0.83615801  0.32768400  1
