# generated using pymatgen
data_KNaCu3PPdSe5
_symmetry_space_group_name_H-M   'P 1'
_cell_length_a   3.91884589
_cell_length_b   7.58407640
_cell_length_c   8.53182220
_cell_angle_alpha   111.37899017
_cell_angle_beta   90.00000000
_cell_angle_gamma   104.97277832
_symmetry_Int_Tables_number   1
_chemical_formula_structural   KNaCu3PPdSe5
_chemical_formula_sum   'K1 Na1 Cu3 P1 Pd1 Se5'
_cell_volume   226.85401230
_cell_formula_units_Z   1
loop_
 _symmetry_equiv_pos_site_id
 _symmetry_equiv_pos_as_xyz
  1  'x, y, z'
loop_
 _atom_site_type_symbol
 _atom_site_label
 _atom_site_symmetry_multiplicity
 _atom_site_fract_x
 _atom_site_fract_y
 _atom_site_fract_z
 _atom_site_occupancy
  K  K0  1  0.13589598  0.27179199  0.04322399  1
  Na  Na1  1  0.86410396  0.72820798  0.95677599  1
  Cu  Cu2  1  0.59218200  0.18436400  0.63416901  1
  Cu  Cu3  1  0.69018499  0.38036999  0.42097499  1
  Cu  Cu4  1  0.93569495  0.87138998  0.58940898  1
  Pd  Pd5  1  0.06430499  0.12861000  0.41059100  1
  P  P6  1  0.30981496  0.61962999  0.57902499  1
  Se  Se7  1  0.40781794  0.81563598  0.36583097  1
  Se  Se8  1  0.18962697  0.37925399  0.68040500  1
  Se  Se9  1  0.81037297  0.62074599  0.31959498  1
  Se  Se10  1  0.47523593  0.95047198  0.75222298  1
  Se  Se11  1  0.52476401  0.04952800  0.24777700  1
