# generated using pymatgen
data_MnGa3GePd7
_symmetry_space_group_name_H-M   'P 1'
_cell_length_a   4.11645079
_cell_length_b   5.47093296
_cell_length_c   7.98032379
_cell_angle_alpha   90.00000000
_cell_angle_beta   90.00000000
_cell_angle_gamma   90.00000000
_symmetry_Int_Tables_number   1
_chemical_formula_structural   MnGa3GePd7
_chemical_formula_sum   'Mn1 Ga3 Ge1 Pd7'
_cell_volume   179.72348584
_cell_formula_units_Z   1
loop_
 _symmetry_equiv_pos_site_id
 _symmetry_equiv_pos_as_xyz
  1  'x, y, z'
loop_
 _atom_site_type_symbol
 _atom_site_label
 _atom_site_symmetry_multiplicity
 _atom_site_fract_x
 _atom_site_fract_y
 _atom_site_fract_z
 _atom_site_occupancy
  Mn  Mn0  1  0.75000004  0.80902301  0.89644702  1
  Ga  Ga1  1  0.25000001  0.19097700  0.10355300  1
  Ga  Ga2  1  0.75000004  0.30902300  0.60355302  1
  Ga  Ga3  1  0.25000001  0.69097700  0.39644701  1
  Ge  Ge4  1  0.75000004  0.45652100  0.29044301  1
  Pd  Pd5  1  0.25000001  0.54347900  0.70955702  1
  Pd  Pd6  1  0.75000004  0.95652101  0.20955701  1
  Pd  Pd7  1  0.25000001  0.04347900  0.79044302  1
  Pd  Pd8  1  0.75000004  0.33907400  0.93124902  1
  Pd  Pd9  1  0.25000001  0.66092600  0.06875100  1
  Pd  Pd10  1  0.75000004  0.83907401  0.56875101  1
  Pd  Pd11  1  0.25000001  0.16092600  0.43124901  1
