# generated using pymatgen
data_Na3Li(CuO6)2
_symmetry_space_group_name_H-M   'P 1'
_cell_length_a   4.99580812
_cell_length_b   6.89135027
_cell_length_c   7.43392897
_cell_angle_alpha   90.00000000
_cell_angle_beta   90.00000000
_cell_angle_gamma   94.02095032
_symmetry_Int_Tables_number   1
_chemical_formula_structural   Na3Li(CuO6)2
_chemical_formula_sum   'Na3 Li1 Cu2 O12'
_cell_volume   255.30430480
_cell_formula_units_Z   1
loop_
 _symmetry_equiv_pos_site_id
 _symmetry_equiv_pos_as_xyz
  1  'x, y, z'
loop_
 _atom_site_type_symbol
 _atom_site_label
 _atom_site_symmetry_multiplicity
 _atom_site_fract_x
 _atom_site_fract_y
 _atom_site_fract_z
 _atom_site_occupancy
  Li  Li0  1  0.46634598  0.78234199  0.25000000  1
  Cu  Cu1  1  0.53365398  0.21765800  0.75000000  1
  Na  Na2  1  0.98554697  0.68361899  0.75000000  1
  Na  Na3  1  0.01445300  0.31638100  0.25000000  1
  Na  Na4  1  0.35467298  0.94936199  0.75000000  1
  Cu  Cu5  1  0.32661799  0.21130700  0.53052300  1
  O  O6  1  0.67338198  0.78869299  0.03052300  1
  O  O7  1  0.19905199  0.64119800  0.42143100  1
  O  O8  1  0.59517198  0.51208900  0.25000000  1
  O  O9  1  0.40482799  0.48791100  0.75000000  1
  O  O10  1  0.64532698  0.05063800  0.25000000  1
  O  O11  1  0.19905199  0.64119800  0.07856900  1
  O  O12  1  0.80094798  0.35880200  0.57856900  1
  O  O13  1  0.82899398  0.04921300  0.75000000  1
  O  O14  1  0.80094798  0.35880200  0.92143100  1
  O  O15  1  0.67338198  0.78869299  0.46947700  1
  O  O16  1  0.17100599  0.95078699  0.25000000  1
  O  O17  1  0.32661799  0.21130700  0.96947700  1
