# generated using pymatgen
data_Mn2SiNi5
_symmetry_space_group_name_H-M   'P 1'
_cell_length_a   3.71590805
_cell_length_b   5.06349516
_cell_length_c   5.06349516
_cell_angle_alpha   95.60546875
_cell_angle_beta   90.00000000
_cell_angle_gamma   90.00000000
_symmetry_Int_Tables_number   1
_chemical_formula_structural   Mn2SiNi5
_chemical_formula_sum   'Mn2 Si1 Ni5'
_cell_volume   94.81652073
_cell_formula_units_Z   1
loop_
 _symmetry_equiv_pos_site_id
 _symmetry_equiv_pos_as_xyz
  1  'x, y, z'
loop_
 _atom_site_type_symbol
 _atom_site_label
 _atom_site_symmetry_multiplicity
 _atom_site_fract_x
 _atom_site_fract_y
 _atom_site_fract_z
 _atom_site_occupancy
  Mn  Mn0  1  0.00000000  0.00000000  0.00000000  1
  Mn  Mn1  1  0.49999999  0.28017901  0.71982102  1
  Ni  Ni2  1  0.49999999  0.71982102  0.28017899  1
  Ni  Ni3  1  -0.00000000  0.50000002  0.50000000  1
  Ni  Ni4  1  0.00000000  0.00000000  0.50000002  1
  Ni  Ni5  1  0.99999999  0.50000002  -0.00000002  1
  Ni  Ni6  1  0.49999999  0.77235603  0.77235600  1
  Si  Si7  1  0.49999999  0.22764401  0.22764400  1
