# generated using pymatgen
data_YErGa4SiGe3
_symmetry_space_group_name_H-M   'P 1'
_cell_length_a   4.27976894
_cell_length_b   4.27976894
_cell_length_c   10.20893955
_cell_angle_alpha   90.00000000
_cell_angle_beta   90.00000000
_cell_angle_gamma   90.00000000
_symmetry_Int_Tables_number   1
_chemical_formula_structural   YErGa4SiGe3
_chemical_formula_sum   'Y1 Er1 Ga4 Si1 Ge3'
_cell_volume   186.99124718
_cell_formula_units_Z   1
loop_
 _symmetry_equiv_pos_site_id
 _symmetry_equiv_pos_as_xyz
  1  'x, y, z'
loop_
 _atom_site_type_symbol
 _atom_site_label
 _atom_site_symmetry_multiplicity
 _atom_site_fract_x
 _atom_site_fract_y
 _atom_site_fract_z
 _atom_site_occupancy
  Y  Y0  1  0.00000000  0.50000001  0.25742401  1
  Er  Er1  1  0.50000001  0.00000000  0.74257603  1
  Ga  Ga2  1  0.00000000  0.00000000  0.50000002  1
  Ga  Ga3  1  0.50000001  0.50000001  0.50000002  1
  Ga  Ga4  1  0.00000000  0.50000001  0.86855204  1
  Si  Si5  1  0.50000001  0.00000000  0.13144801  1
  Ga  Ga6  1  0.00000000  0.00000000  0.00000000  1
  Ge  Ge7  1  0.50000001  0.50000001  0.00000000  1
  Ge  Ge8  1  0.00000000  0.50000001  0.62710603  1
  Ge  Ge9  1  0.50000001  0.00000000  0.37289402  1
