# generated using pymatgen
data_VCu3GeTe3Se5
_symmetry_space_group_name_H-M   'P 1'
_cell_length_a   5.98590422
_cell_length_b   7.95611000
_cell_length_c   7.95611048
_cell_angle_alpha   60.00000381
_cell_angle_beta   90.00000000
_cell_angle_gamma   90.00000000
_symmetry_Int_Tables_number   1
_chemical_formula_structural   VCu3GeTe3Se5
_chemical_formula_sum   'V1 Cu3 Ge1 Te3 Se5'
_cell_volume   328.14213216
_cell_formula_units_Z   1
loop_
 _symmetry_equiv_pos_site_id
 _symmetry_equiv_pos_as_xyz
  1  'x, y, z'
loop_
 _atom_site_type_symbol
 _atom_site_label
 _atom_site_symmetry_multiplicity
 _atom_site_fract_x
 _atom_site_fract_y
 _atom_site_fract_z
 _atom_site_occupancy
  V  V0  1  0.00000000  0.49999999  0.00000002  1
  Cu  Cu1  1  0.00000000  0.00000000  0.50000000  1
  Cu  Cu2  1  0.00000000  0.49999999  0.50000002  1
  Te  Te3  1  0.49999998  0.00000000  0.00000000  1
  Ge  Ge4  1  0.00000000  0.00000000  0.00000000  1
  Cu  Cu5  1  0.75621997  0.66666666  0.66666669  1
  Te  Te6  1  0.24377999  0.33333333  0.33333335  1
  Se  Se7  1  0.75102297  0.66532099  0.16733902  1
  Se  Se8  1  0.24897699  0.33467899  0.83266102  1
  Se  Se9  1  0.75102297  0.16734000  0.16733901  1
  Te  Te10  1  0.24897699  0.83265999  0.33468003  1
  Se  Se11  1  0.24897699  0.83265999  0.83266103  1
  Se  Se12  1  0.75102297  0.16734000  0.66532001  1
