# generated using pymatgen
data_KTlHO5
_symmetry_space_group_name_H-M   'P 1'
_cell_length_a   3.93954015
_cell_length_b   3.93954062
_cell_length_c   10.09327126
_cell_angle_alpha   90.00000000
_cell_angle_beta   90.00000000
_cell_angle_gamma   120.00220490
_symmetry_Int_Tables_number   1
_chemical_formula_structural   KTlHO5
_chemical_formula_sum   'K1 Tl1 H1 O5'
_cell_volume   135.65757243
_cell_formula_units_Z   1
loop_
 _symmetry_equiv_pos_site_id
 _symmetry_equiv_pos_as_xyz
  1  'x, y, z'
loop_
 _atom_site_type_symbol
 _atom_site_label
 _atom_site_symmetry_multiplicity
 _atom_site_fract_x
 _atom_site_fract_y
 _atom_site_fract_z
 _atom_site_occupancy
  K  K0  1  0.00000000  0.00000000  0.00000000  1
  Tl  Tl1  1  0.00000000  0.00000000  0.49999999  1
  H  H2  1  0.33333331  0.66666666  0.74999998  1
  O  O3  1  0.66666666  0.33333333  0.24999999  1
  O  O4  1  0.33333331  0.66666666  0.87285298  1
  O  O5  1  0.66666666  0.33333333  0.12714700  1
  O  O6  1  0.66666666  0.33333333  0.37285299  1
  O  O7  1  0.33333331  0.66666666  0.62714698  1
