# generated using pymatgen
data_LiCu3
_symmetry_space_group_name_H-M   'P 1'
_cell_length_a   3.97573209
_cell_length_b   3.97573209
_cell_length_c   6.87880802
_cell_angle_alpha   73.20285034
_cell_angle_beta   73.20285034
_cell_angle_gamma   59.99999619
_symmetry_Int_Tables_number   1
_chemical_formula_structural   LiCu3
_chemical_formula_sum   'Li1 Cu3'
_cell_volume   88.76537884
_cell_formula_units_Z   1
loop_
 _symmetry_equiv_pos_site_id
 _symmetry_equiv_pos_as_xyz
  1  'x, y, z'
loop_
 _atom_site_type_symbol
 _atom_site_label
 _atom_site_symmetry_multiplicity
 _atom_site_fract_x
 _atom_site_fract_y
 _atom_site_fract_z
 _atom_site_occupancy
  Li  Li0  1  0.99759202  0.99759203  0.00722393  1
  Cu  Cu1  1  0.50245201  0.50245202  0.49264396  1
  Cu  Cu2  1  0.12502200  0.12502200  0.62493399  1
  Cu  Cu3  1  0.62493401  0.62493402  0.12519795  1
