# generated using pymatgen
data_YZr2Nb4TlS12
_symmetry_space_group_name_H-M   'P 1'
_cell_length_a   8.59213924
_cell_length_b   8.59213924
_cell_length_c   8.59213924
_cell_angle_alpha   109.47122192
_cell_angle_beta   109.47122192
_cell_angle_gamma   109.47122192
_symmetry_Int_Tables_number   1
_chemical_formula_structural   YZr2Nb4TlS12
_chemical_formula_sum   'Y1 Zr2 Nb4 Tl1 S12'
_cell_volume   488.29469756
_cell_formula_units_Z   1
loop_
 _symmetry_equiv_pos_site_id
 _symmetry_equiv_pos_as_xyz
  1  'x, y, z'
loop_
 _atom_site_type_symbol
 _atom_site_label
 _atom_site_symmetry_multiplicity
 _atom_site_fract_x
 _atom_site_fract_y
 _atom_site_fract_z
 _atom_site_occupancy
  Y  Y0  1  0.65729106  0.65729104  0.00000005  1
  Nb  Nb1  1  0.65729102  0.00000000  0.65729103  1
  Zr  Zr2  1  0.34270901  0.00000000  0.34270901  1
  Zr  Zr3  1  0.00000002  0.34270902  0.34270903  1
  Nb  Nb4  1  0.00000004  0.65729104  0.65729105  1
  Nb  Nb5  1  0.34270903  0.34270902  0.00000003  1
  Nb  Nb6  1  0.00000000  0.00000000  0.67025801  1
  Tl  Tl7  1  0.00000004  0.67025804  0.00000004  1
  S  S8  1  0.32974203  0.32974202  0.32974203  1
  S  S9  1  0.67025808  1.00000006  0.00000007  1
  S  S10  1  0.67209206  0.67209204  0.67209207  1
  S  S11  1  0.50000003  0.25000001  0.75000004  1
  S  S12  1  0.00000002  0.32790802  0.00000002  1
  S  S13  1  0.75000004  0.25000001  0.50000004  1
  S  S14  1  0.50000006  0.75000004  0.25000006  1
  S  S15  1  0.25000005  0.75000004  0.50000006  1
  S  S16  1  0.00000000  0.00000000  0.32790801  1
  S  S17  1  0.32790807  1.00000006  0.00000006  1
  S  S18  1  0.25000004  0.50000003  0.75000005  1
  S  S19  1  0.75000005  0.50000003  0.25000005  1
