# generated using pymatgen
data_La2YInSn2Au3
_symmetry_space_group_name_H-M   'P 1'
_cell_length_a   4.51026201
_cell_length_b   7.53144598
_cell_length_c   7.53144646
_cell_angle_alpha   120.00000000
_cell_angle_beta   90.00000000
_cell_angle_gamma   90.00000000
_symmetry_Int_Tables_number   1
_chemical_formula_structural   La2YInSn2Au3
_chemical_formula_sum   'La2 Y1 In1 Sn2 Au3'
_cell_volume   221.55888043
_cell_formula_units_Z   1
loop_
 _symmetry_equiv_pos_site_id
 _symmetry_equiv_pos_as_xyz
  1  'x, y, z'
loop_
 _atom_site_type_symbol
 _atom_site_label
 _atom_site_symmetry_multiplicity
 _atom_site_fract_x
 _atom_site_fract_y
 _atom_site_fract_z
 _atom_site_occupancy
  Y  Y0  1  0.50000000  0.57979701  0.00000002  1
  La  La1  1  0.50000000  0.42020301  0.42020301  1
  La  La2  1  0.50000000  0.00000000  0.57979699  1
  In  In3  1  -0.00000000  0.24645100  0.00000001  1
  Sn  Sn4  1  -0.00000000  0.75354901  0.75354902  1
  Sn  Sn5  1  1.00000000  0.00000000  0.24645100  1
  Au  Au6  1  -0.00000000  0.33333334  0.66666667  1
  Au  Au7  1  -0.00000000  0.66666668  0.33333335  1
  Au  Au8  1  0.50000000  0.00000000  -0.00000000  1
