# generated using pymatgen
data_LaEuAl2Si2NiRh
_symmetry_space_group_name_H-M   'P 1'
_cell_length_a   3.70588803
_cell_length_b   3.70588779
_cell_length_c   13.87653160
_cell_angle_alpha   90.00000000
_cell_angle_beta   90.00000000
_cell_angle_gamma   120.00000000
_symmetry_Int_Tables_number   1
_chemical_formula_structural   LaEuAl2Si2NiRh
_chemical_formula_sum   'La1 Eu1 Al2 Si2 Ni1 Rh1'
_cell_volume   165.04262414
_cell_formula_units_Z   1
loop_
 _symmetry_equiv_pos_site_id
 _symmetry_equiv_pos_as_xyz
  1  'x, y, z'
loop_
 _atom_site_type_symbol
 _atom_site_label
 _atom_site_symmetry_multiplicity
 _atom_site_fract_x
 _atom_site_fract_y
 _atom_site_fract_z
 _atom_site_occupancy
  Eu  Eu0  1  0.33333331  0.66666667  0.75000002  1
  La  La1  1  0.66666665  0.33333334  0.25000001  1
  Al  Al2  1  0.00000000  0.00000000  0.50000001  1
  Al  Al3  1  0.00000000  0.00000000  0.00000000  1
  Si  Si4  1  0.66666665  0.33333334  0.91489103  1
  Ni  Ni5  1  0.33333331  0.66666667  0.08510900  1
  Si  Si6  1  0.66666665  0.33333334  0.58510902  1
  Rh  Rh7  1  0.33333331  0.66666667  0.41489101  1
