# generated using pymatgen
data_La2YIn3SnAu2
_symmetry_space_group_name_H-M   'P 1'
_cell_length_a   4.09141493
_cell_length_b   7.78208017
_cell_length_c   7.78208113
_cell_angle_alpha   120.00000000
_cell_angle_beta   90.00000000
_cell_angle_gamma   90.00000000
_symmetry_Int_Tables_number   1
_chemical_formula_structural   La2YIn3SnAu2
_chemical_formula_sum   'La2 Y1 In3 Sn1 Au2'
_cell_volume   214.58314780
_cell_formula_units_Z   1
loop_
 _symmetry_equiv_pos_site_id
 _symmetry_equiv_pos_as_xyz
  1  'x, y, z'
loop_
 _atom_site_type_symbol
 _atom_site_label
 _atom_site_symmetry_multiplicity
 _atom_site_fract_x
 _atom_site_fract_y
 _atom_site_fract_z
 _atom_site_occupancy
  Y  Y0  1  0.50000001  0.59055501  1.00000001  1
  La  La1  1  0.50000001  0.00000000  0.59055498  1
  La  La2  1  0.50000001  0.40944501  0.40944502  1
  In  In3  1  -0.00000000  0.25017400  0.99999999  1
  In  In4  1  -0.00000000  0.74982601  0.74982603  1
  In  In5  1  0.00000000  0.00000000  0.25017399  1
  Au  Au6  1  1.00000002  0.33333334  0.66666667  1
  Sn  Sn7  1  0.50000001  0.00000000  -0.00000000  1
  Au  Au8  1  1.00000002  0.66666668  0.33333337  1
