# generated using pymatgen
data_Li4CuO6
_symmetry_space_group_name_H-M   'P 1'
_cell_length_a   5.24298525
_cell_length_b   5.80145359
_cell_length_c   5.80145359
_cell_angle_alpha   70.08523560
_cell_angle_beta   83.94959259
_cell_angle_gamma   96.05040741
_symmetry_Int_Tables_number   1
_chemical_formula_structural   Li4CuO6
_chemical_formula_sum   'Li4 Cu1 O6'
_cell_volume   163.09067779
_cell_formula_units_Z   1
loop_
 _symmetry_equiv_pos_site_id
 _symmetry_equiv_pos_as_xyz
  1  'x, y, z'
loop_
 _atom_site_type_symbol
 _atom_site_label
 _atom_site_symmetry_multiplicity
 _atom_site_fract_x
 _atom_site_fract_y
 _atom_site_fract_z
 _atom_site_occupancy
  Li  Li0  1  0.49999999  0.68753399  0.68753397  1
  Li  Li1  1  0.49999999  0.31246600  0.31246599  1
  Li  Li2  1  0.89926598  0.24532800  0.75467198  1
  Li  Li3  1  0.10073400  0.75467199  0.24532797  1
  O  O4  1  0.70610699  0.39062200  0.93437997  1
  O  O5  1  0.70610699  0.06562000  0.60937799  1
  O  O6  1  0.22259000  0.42251500  0.57748498  1
  Cu  Cu7  1  0.77740999  0.57748499  0.42251498  1
  O  O8  1  0.00000000  0.00000000  0.00000000  1
  O  O9  1  0.29389299  0.93437999  0.39062197  1
  O  O10  1  0.29389299  0.60937799  0.06561998  1
