# generated using pymatgen
data_Tl2Hg
_symmetry_space_group_name_H-M   'P 1'
_cell_length_a   3.98420000
_cell_length_b   3.98419952
_cell_length_c   6.99556589
_cell_angle_alpha   90.00000000
_cell_angle_beta   90.00000000
_cell_angle_gamma   120.00000000
_symmetry_Int_Tables_number   1
_chemical_formula_structural   Tl2Hg
_chemical_formula_sum   'Tl2 Hg1'
_cell_volume   96.16913145
_cell_formula_units_Z   1
loop_
 _symmetry_equiv_pos_site_id
 _symmetry_equiv_pos_as_xyz
  1  'x, y, z'
loop_
 _atom_site_type_symbol
 _atom_site_label
 _atom_site_symmetry_multiplicity
 _atom_site_fract_x
 _atom_site_fract_y
 _atom_site_fract_z
 _atom_site_occupancy
  Hg  Hg0  1  0.00000000  0.00000000  0.00000000  1
  Tl  Tl1  1  0.33333329  0.66666667  0.25671800  1
  Tl  Tl2  1  0.66666665  0.33333333  0.74328201  1
