# generated using pymatgen
data_LiCo2NiGe
_symmetry_space_group_name_H-M   'P 1'
_cell_length_a   3.94195008
_cell_length_b   3.94195008
_cell_length_c   5.49732447
_cell_angle_alpha   111.01016235
_cell_angle_beta   111.01016235
_cell_angle_gamma   90.00000000
_symmetry_Int_Tables_number   1
_chemical_formula_structural   LiCo2NiGe
_chemical_formula_sum   'Li1 Co2 Ni1 Ge1'
_cell_volume   73.62765331
_cell_formula_units_Z   1
loop_
 _symmetry_equiv_pos_site_id
 _symmetry_equiv_pos_as_xyz
  1  'x, y, z'
loop_
 _atom_site_type_symbol
 _atom_site_label
 _atom_site_symmetry_multiplicity
 _atom_site_fract_x
 _atom_site_fract_y
 _atom_site_fract_z
 _atom_site_occupancy
  Li  Li0  1  0.00000000  0.00000000  0.00000000  1
  Co  Co1  1  0.25000000  0.74999999  0.49999999  1
  Ni  Ni2  1  0.74999999  0.25000000  0.49999999  1
  Co  Co3  1  0.37464400  0.37464399  0.74928798  1
  Ge  Ge4  1  0.62535600  0.62535599  0.25071200  1
