# generated using pymatgen
data_YEr4Al3Si5
_symmetry_space_group_name_H-M   'P 1'
_cell_length_a   5.56046820
_cell_length_b   7.04040861
_cell_length_c   7.04040861
_cell_angle_alpha   81.37944794
_cell_angle_beta   66.74047089
_cell_angle_gamma   66.74047089
_symmetry_Int_Tables_number   1
_chemical_formula_structural   YEr4Al3Si5
_chemical_formula_sum   'Y1 Er4 Al3 Si5'
_cell_volume   232.63095730
_cell_formula_units_Z   1
loop_
 _symmetry_equiv_pos_site_id
 _symmetry_equiv_pos_as_xyz
  1  'x, y, z'
loop_
 _atom_site_type_symbol
 _atom_site_label
 _atom_site_symmetry_multiplicity
 _atom_site_fract_x
 _atom_site_fract_y
 _atom_site_fract_z
 _atom_site_occupancy
  Y  Y0  1  0.00000000  0.00000000  0.00000000  1
  Er  Er1  1  0.33773002  0.66227000  0.66226998  1
  Er  Er2  1  0.66226999  0.33773000  0.33773000  1
  Er  Er3  1  0.00000002  0.34144900  0.65855099  1
  Er  Er4  1  0.00000003  0.65855100  0.34144897  1
  Al  Al5  1  0.50000002  0.81833100  0.18166897  1
  Al  Al6  1  0.49999999  0.18166900  0.81833101  1
  Al  Al7  1  0.00000002  0.50000000  -0.00000002  1
  Si  Si8  1  0.50000000  0.50000000  -0.00000001  1
  Si  Si9  1  0.00000000  0.00000000  0.50000001  1
  Si  Si10  1  0.49999998  0.00000000  0.50000002  1
  Si  Si11  1  0.26190500  0.23809500  0.23809500  1
  Si  Si12  1  0.73809500  0.76190500  0.76190499  1
