# generated using pymatgen
data_CsKCuSbI6
_symmetry_space_group_name_H-M   'P 1'
_cell_length_a   8.64568615
_cell_length_b   8.64568615
_cell_length_c   8.64568615
_cell_angle_alpha   60.00000000
_cell_angle_beta   60.00000000
_cell_angle_gamma   60.00000000
_symmetry_Int_Tables_number   1
_chemical_formula_structural   CsKCuSbI6
_chemical_formula_sum   'Cs1 K1 Cu1 Sb1 I6'
_cell_volume   456.96548655
_cell_formula_units_Z   1
loop_
 _symmetry_equiv_pos_site_id
 _symmetry_equiv_pos_as_xyz
  1  'x, y, z'
loop_
 _atom_site_type_symbol
 _atom_site_label
 _atom_site_symmetry_multiplicity
 _atom_site_fract_x
 _atom_site_fract_y
 _atom_site_fract_z
 _atom_site_occupancy
  K  K0  1  0.24999999  0.24999999  0.24999999  1
  Cs  Cs1  1  0.74999996  0.74999996  0.74999996  1
  Cu  Cu2  1  0.49999998  0.49999998  0.49999998  1
  Sb  Sb3  1  0.00000000  0.00000000  0.00000000  1
  I  I4  1  0.25629199  0.74370796  0.25629199  1
  I  I5  1  0.25629199  0.25629199  0.74370796  1
  I  I6  1  0.74370796  0.25629199  0.74370796  1
  I  I7  1  0.25629199  0.74370796  0.74370796  1
  I  I8  1  0.74370796  0.25629199  0.25629199  1
  I  I9  1  0.74370796  0.74370796  0.25629199  1
