# generated using pymatgen
data_Y2ErAlGa(SiGe)3
_symmetry_space_group_name_H-M   'P 1'
_cell_length_a   4.41468191
_cell_length_b   4.53787613
_cell_length_c   13.19680119
_cell_angle_alpha   99.90010834
_cell_angle_beta   99.62873840
_cell_angle_gamma   90.00000000
_symmetry_Int_Tables_number   1
_chemical_formula_structural   Y2ErAlGa(SiGe)3
_chemical_formula_sum   'Y2 Er1 Al1 Ga1 Si3 Ge3'
_cell_volume   256.65682779
_cell_formula_units_Z   1
loop_
 _symmetry_equiv_pos_site_id
 _symmetry_equiv_pos_as_xyz
  1  'x, y, z'
loop_
 _atom_site_type_symbol
 _atom_site_label
 _atom_site_symmetry_multiplicity
 _atom_site_fract_x
 _atom_site_fract_y
 _atom_site_fract_z
 _atom_site_occupancy
  Y  Y0  1  0.00000000  0.00000000  0.00000000  1
  Y  Y1  1  0.35175900  0.85175898  0.70351800  1
  Er  Er2  1  0.64824101  0.14824100  0.29648198  1
  Al  Al3  1  0.24840300  0.24840300  0.49680599  1
  Ga  Ga4  1  0.75159701  0.75159699  0.50319399  1
  Si  Si5  1  0.45176200  0.45176199  0.90352398  1
  Si  Si6  1  0.54823800  0.54823799  0.09647600  1
  Si  Si7  1  0.09455600  0.59455599  0.18911201  1
  Ge  Ge8  1  0.90544401  0.40544399  0.81088798  1
  Ge  Ge9  1  0.19250500  0.69250499  0.38501000  1
  Ge  Ge10  1  0.80749501  0.30749499  0.61498998  1
