# generated using pymatgen
data_AlTl2CuTeSe2S
_symmetry_space_group_name_H-M   'P 1'
_cell_length_a   6.99301958
_cell_length_b   6.99301958
_cell_length_c   7.06619978
_cell_angle_alpha   99.76538849
_cell_angle_beta   99.76538849
_cell_angle_gamma   119.85276794
_symmetry_Int_Tables_number   1
_chemical_formula_structural   AlTl2CuTeSe2S
_chemical_formula_sum   'Al1 Tl2 Cu1 Te1 Se2 S1'
_cell_volume   282.01138170
_cell_formula_units_Z   1
loop_
 _symmetry_equiv_pos_site_id
 _symmetry_equiv_pos_as_xyz
  1  'x, y, z'
loop_
 _atom_site_type_symbol
 _atom_site_label
 _atom_site_symmetry_multiplicity
 _atom_site_fract_x
 _atom_site_fract_y
 _atom_site_fract_z
 _atom_site_occupancy
  Cu  Cu0  1  0.83348698  0.16651300  0.00000000  1
  Al  Al1  1  0.16651300  0.83348698  0.00000000  1
  Tl  Tl2  1  0.05026200  0.42347299  0.77588500  1
  Tl  Tl3  1  0.57652699  0.94973798  0.22411500  1
  S  S4  1  0.19858200  0.19858200  0.22910300  1
  Se  Se5  1  0.80141798  0.80141798  0.77089700  1
  Te  Te6  1  0.42347299  0.05026200  0.77588500  1
  Se  Se7  1  0.94973798  0.57652699  0.22411500  1
