# generated using pymatgen
data_YIn2Au3
_symmetry_space_group_name_H-M   'P 1'
_cell_length_a   4.50268793
_cell_length_b   4.50268793
_cell_length_c   7.67961788
_cell_angle_alpha   90.00000000
_cell_angle_beta   90.00000000
_cell_angle_gamma   120.00000000
_symmetry_Int_Tables_number   1
_chemical_formula_structural   YIn2Au3
_chemical_formula_sum   'Y1 In2 Au3'
_cell_volume   134.83850831
_cell_formula_units_Z   1
loop_
 _symmetry_equiv_pos_site_id
 _symmetry_equiv_pos_as_xyz
  1  'x, y, z'
loop_
 _atom_site_type_symbol
 _atom_site_label
 _atom_site_symmetry_multiplicity
 _atom_site_fract_x
 _atom_site_fract_y
 _atom_site_fract_z
 _atom_site_occupancy
  Y  Y0  1  0.00000000  0.00000000  0.49730501  1
  In  In1  1  0.00000000  0.00000000  0.99730502  1
  In  In2  1  0.66666667  0.33333332  0.72252101  1
  Au  Au3  1  0.33333332  0.66666664  0.22252100  1
  Au  Au4  1  0.66666667  0.33333332  0.28017500  1
  Au  Au5  1  0.33333332  0.66666664  0.78017501  1
