# generated using pymatgen
data_LiCaCuNi7
_symmetry_space_group_name_H-M   'P 1'
_cell_length_a   5.62884951
_cell_length_b   5.62884951
_cell_length_c   5.98849487
_cell_angle_alpha   109.25297546
_cell_angle_beta   109.25297546
_cell_angle_gamma   107.36059570
_symmetry_Int_Tables_number   1
_chemical_formula_structural   LiCaCuNi7
_chemical_formula_sum   'Li1 Ca1 Cu1 Ni7'
_cell_volume   150.43629645
_cell_formula_units_Z   1
loop_
 _symmetry_equiv_pos_site_id
 _symmetry_equiv_pos_as_xyz
  1  'x, y, z'
loop_
 _atom_site_type_symbol
 _atom_site_label
 _atom_site_symmetry_multiplicity
 _atom_site_fract_x
 _atom_site_fract_y
 _atom_site_fract_z
 _atom_site_occupancy
  Li  Li0  1  0.00000000  0.00000000  0.00000000  1
  Ca  Ca1  1  0.25000003  0.75000004  0.50000000  1
  Cu  Cu2  1  0.68782403  0.31217602  0.99999998  1
  Ni  Ni3  1  0.31217603  0.68782403  0.99999998  1
  Ni  Ni4  1  0.93782404  0.06217600  0.49999999  1
  Ni  Ni5  1  0.56217603  0.43782402  0.49999999  1
  Ni  Ni6  1  0.61259803  0.11259801  0.22519600  1
  Ni  Ni7  1  0.63740204  0.63740203  0.27480400  1
  Ni  Ni8  1  0.36259802  0.36259802  0.72519598  1
  Ni  Ni9  1  0.88740204  0.38740202  0.77480398  1
