# generated using pymatgen
data_Y2ErMg3AlGa
_symmetry_space_group_name_H-M   'P 1'
_cell_length_a   4.65556002
_cell_length_b   6.95524597
_cell_length_c   6.95524549
_cell_angle_alpha   120.00000000
_cell_angle_beta   90.00000000
_cell_angle_gamma   90.00000000
_symmetry_Int_Tables_number   1
_chemical_formula_structural   Y2ErMg3AlGa
_chemical_formula_sum   'Y2 Er1 Mg3 Al1 Ga1'
_cell_volume   195.04172009
_cell_formula_units_Z   1
loop_
 _symmetry_equiv_pos_site_id
 _symmetry_equiv_pos_as_xyz
  1  'x, y, z'
loop_
 _atom_site_type_symbol
 _atom_site_label
 _atom_site_symmetry_multiplicity
 _atom_site_fract_x
 _atom_site_fract_y
 _atom_site_fract_z
 _atom_site_occupancy
  Y  Y0  1  0.25000000  0.66666665  0.33333329  1
  Y  Y1  1  0.75000000  0.33333332  0.66666663  1
  Er  Er2  1  0.75000000  0.86797498  0.13202495  1
  Mg  Mg3  1  0.75000000  0.26404999  0.13202498  1
  Al  Al4  1  0.75000000  0.86797498  0.73594993  1
  Mg  Mg5  1  0.25000000  0.13202500  0.86797498  1
  Mg  Mg6  1  0.25000000  0.73594998  0.86797494  1
  Ga  Ga7  1  0.25000000  0.13202500  0.26404999  1
