# generated using pymatgen
data_Mn2VFe3
_symmetry_space_group_name_H-M   'P 1'
_cell_length_a   4.72056341
_cell_length_b   4.72056341
_cell_length_c   7.59211111
_cell_angle_alpha   90.00000000
_cell_angle_beta   90.00000000
_cell_angle_gamma   119.33275604
_symmetry_Int_Tables_number   1
_chemical_formula_structural   Mn2VFe3
_chemical_formula_sum   'Mn4 V2 Fe6'
_cell_volume   147.48973193
_cell_formula_units_Z   2
loop_
 _symmetry_equiv_pos_site_id
 _symmetry_equiv_pos_as_xyz
  1  'x, y, z'
loop_
 _atom_site_type_symbol
 _atom_site_label
 _atom_site_symmetry_multiplicity
 _atom_site_fract_x
 _atom_site_fract_y
 _atom_site_fract_z
 _atom_site_occupancy
  Mn  Mn0  1  0.33618601  0.17068700  0.99999999  1
  Mn  Mn1  1  0.82931303  0.66381401  -0.00000000  1
  Mn  Mn2  1  0.81878800  0.18121200  0.99999999  1
  Mn  Mn3  1  0.66104005  0.83087001  0.49999999  1
  Fe  Fe4  1  0.16913002  0.33896001  0.49999999  1
  Fe  Fe5  1  0.16940106  0.83059901  0.49999999  1
  V  V6  1  0.00634307  0.99365702  0.75906799  1
  V  V7  1  0.00634307  0.99365702  0.24093200  1
  Fe  Fe8  1  0.66573401  0.33426601  0.31660500  1
  Fe  Fe9  1  0.33607104  0.66392901  0.19108400  1
  Fe  Fe10  1  0.33607104  0.66392901  0.80891599  1
  Fe  Fe11  1  0.66573401  0.33426601  0.68339499  1
