# generated using pymatgen
data_TbErLuTh3CuSn6GeAu4
_symmetry_space_group_name_H-M   'P 1'
_cell_length_a   6.04576302
_cell_length_b   8.92212963
_cell_length_c   8.92212963
_cell_angle_alpha   120.00000000
_cell_angle_beta   90.00000000
_cell_angle_gamma   90.00000000
_symmetry_Int_Tables_number   1
_chemical_formula_structural   TbErLuTh3CuSn6GeAu4
_chemical_formula_sum   'Tb1 Er1 Lu1 Th3 Cu1 Sn6 Ge1 Au4'
_cell_volume   416.79145735
_cell_formula_units_Z   1
loop_
 _symmetry_equiv_pos_site_id
 _symmetry_equiv_pos_as_xyz
  1  'x, y, z'
loop_
 _atom_site_type_symbol
 _atom_site_label
 _atom_site_symmetry_multiplicity
 _atom_site_fract_x
 _atom_site_fract_y
 _atom_site_fract_z
 _atom_site_occupancy
  Er  Er0  1  -0.00000000  0.33333334  0.66666667  1
  Tb  Tb1  1  1.00000000  0.66666669  0.33333333  1
  Lu  Lu2  1  0.50000000  0.66666669  0.33333333  1
  Cu  Cu3  1  0.50000000  0.33333334  0.66666667  1
  Th  Th4  1  0.25000000  0.27910901  -0.00000000  1
  Th  Th5  1  0.25000000  0.72089102  0.72089100  1
  Th  Th6  1  0.25000000  0.00000000  0.27910901  1
  Sn  Sn7  1  0.75000000  0.72089102  -0.00000001  1
  Sn  Sn8  1  0.75000000  0.27910901  0.27910900  1
  Sn  Sn9  1  0.75000000  0.00000000  0.72089101  1
  Sn  Sn10  1  0.00000000  0.00000000  0.00000000  1
  Ge  Ge11  1  0.50000000  0.00000000  -0.00000000  1
  Au  Au12  1  0.25000000  0.62007502  1.00000001  1
  Au  Au13  1  0.25000000  0.37992501  0.37992500  1
  Sn  Sn14  1  0.25000000  0.00000000  0.62007501  1
  Au  Au15  1  0.75000000  0.37992501  -0.00000001  1
  Sn  Sn16  1  0.75000000  0.62007502  0.62007500  1
  Au  Au17  1  0.75000000  0.00000000  0.37992501  1
