# generated using pymatgen
data_LiCuPO9
_symmetry_space_group_name_H-M   'P 1'
_cell_length_a   5.96653605
_cell_length_b   5.96653605
_cell_length_c   5.96653605
_cell_angle_alpha   105.83937073
_cell_angle_beta   105.83937073
_cell_angle_gamma   117.00814819
_symmetry_Int_Tables_number   1
_chemical_formula_structural   LiCuPO9
_chemical_formula_sum   'Li1 Cu1 P1 O9'
_cell_volume   161.36187806
_cell_formula_units_Z   1
loop_
 _symmetry_equiv_pos_site_id
 _symmetry_equiv_pos_as_xyz
  1  'x, y, z'
loop_
 _atom_site_type_symbol
 _atom_site_label
 _atom_site_symmetry_multiplicity
 _atom_site_fract_x
 _atom_site_fract_y
 _atom_site_fract_z
 _atom_site_occupancy
  Li  Li0  1  0.75000002  0.25000001  0.49999997  1
  Cu  Cu1  1  0.00000000  0.00000000  0.00000000  1
  P  P2  1  0.50000001  0.50000001  -0.00000005  1
  O  O3  1  0.25000001  0.75000002  0.49999997  1
  O  O4  1  0.51548701  0.34529301  0.17019396  1
  O  O5  1  0.09529300  0.42509901  0.32980599  1
  O  O6  1  0.09529300  0.76548702  0.67019398  1
  O  O7  1  0.17509900  0.34529301  0.82980600  1
  O  O8  1  0.23451301  0.90470702  0.32980595  1
  O  O9  1  0.65470701  0.82490102  0.17019393  1
  O  O10  1  0.65470701  0.48451301  0.82980597  1
  O  O11  1  0.57490101  0.90470702  0.67019395  1
