# generated using pymatgen
data_La2DyErThInSn3Pd4Au
_symmetry_space_group_name_H-M   'P 1'
_cell_length_a   7.58828449
_cell_length_b   7.58828449
_cell_length_c   7.58828449
_cell_angle_alpha   109.47122192
_cell_angle_beta   109.47122192
_cell_angle_gamma   109.47122192
_symmetry_Int_Tables_number   1
_chemical_formula_structural   La2DyErThInSn3Pd4Au
_chemical_formula_sum   'La2 Dy1 Er1 Th1 In1 Sn3 Pd4 Au1'
_cell_volume   336.36353072
_cell_formula_units_Z   1
loop_
 _symmetry_equiv_pos_site_id
 _symmetry_equiv_pos_as_xyz
  1  'x, y, z'
loop_
 _atom_site_type_symbol
 _atom_site_label
 _atom_site_symmetry_multiplicity
 _atom_site_fract_x
 _atom_site_fract_y
 _atom_site_fract_z
 _atom_site_occupancy
  Er  Er0  1  0.12500001  0.25000000  0.37500001  1
  Dy  Dy1  1  0.75000003  0.62500001  0.87500003  1
  Th  Th2  1  0.37500004  0.75000001  0.12500005  1
  La  La3  1  0.87500000  0.12500000  0.75000001  1
  La  La4  1  0.62500002  0.37500001  0.25000003  1
  In  In5  1  0.25000005  0.87500002  0.62500004  1
  Sn  Sn6  1  0.00000003  0.50000001  0.14795302  1
  Sn  Sn7  1  0.64795305  1.00000002  0.00000007  1
  Pd  Pd8  1  1.00000002  0.50000001  0.64795304  1
  Pd  Pd9  1  0.35204702  0.35204701  0.85204701  1
  Pd  Pd10  1  0.85204704  0.85204702  0.35204706  1
  Sn  Sn11  1  0.50000000  0.14795300  0.50000001  1
  Au  Au12  1  0.14795300  0.00000000  0.00000000  1
  Pd  Pd13  1  0.50000003  0.64795301  0.50000004  1
