# generated using pymatgen
data_YAg
_symmetry_space_group_name_H-M   'P 1'
_cell_length_a   4.05050087
_cell_length_b   4.28116989
_cell_length_c   5.79958677
_cell_angle_alpha   111.65966797
_cell_angle_beta   90.00000000
_cell_angle_gamma   90.00000000
_symmetry_Int_Tables_number   1
_chemical_formula_structural   YAg
_chemical_formula_sum   'Y2 Ag2'
_cell_volume   93.46897079
_cell_formula_units_Z   2
loop_
 _symmetry_equiv_pos_site_id
 _symmetry_equiv_pos_as_xyz
  1  'x, y, z'
loop_
 _atom_site_type_symbol
 _atom_site_label
 _atom_site_symmetry_multiplicity
 _atom_site_fract_x
 _atom_site_fract_y
 _atom_site_fract_z
 _atom_site_occupancy
  Y  Y0  1  0.75000002  0.13986200  0.27972399  1
  Y  Y1  1  0.25000001  0.86013800  0.72027596  1
  Ag  Ag2  1  0.75000002  0.42310200  0.84620398  1
  Ag  Ag3  1  0.25000001  0.57689800  0.15379597  1
