# generated using pymatgen
data_LiMnCuNiP2O
_symmetry_space_group_name_H-M   'P 1'
_cell_length_a   3.83412433
_cell_length_b   3.83412457
_cell_length_c   6.97429276
_cell_angle_alpha   105.95459747
_cell_angle_beta   105.95458984
_cell_angle_gamma   90.00000000
_symmetry_Int_Tables_number   1
_chemical_formula_structural   LiMnCuNiP2O
_chemical_formula_sum   'Li1 Mn1 Cu1 Ni1 P2 O1'
_cell_volume   94.46208121
_cell_formula_units_Z   1
loop_
 _symmetry_equiv_pos_site_id
 _symmetry_equiv_pos_as_xyz
  1  'x, y, z'
loop_
 _atom_site_type_symbol
 _atom_site_label
 _atom_site_symmetry_multiplicity
 _atom_site_fract_x
 _atom_site_fract_y
 _atom_site_fract_z
 _atom_site_occupancy
  Li  Li0  1  0.64760703  0.64760498  0.29521299  1
  Mn  Mn1  1  0.35239302  0.35239399  0.70478698  1
  Ni  Ni2  1  0.00000000  0.00000000  0.00000000  1
  P  P3  1  0.84178604  0.84178397  0.68356998  1
  P  P4  1  0.15821601  0.15821499  0.31642999  1
  Cu  Cu5  1  0.50000004  0.99999897  0.00000099  1
  O  O6  1  0.00000101  0.50000098  0.00000100  1
