# generated using pymatgen
data_GaCu5(TeSe3)2
_symmetry_space_group_name_H-M   'P 1'
_cell_length_a   7.89334249
_cell_length_b   7.89334249
_cell_length_c   7.89334249
_cell_angle_alpha   60.00000000
_cell_angle_beta   60.00000000
_cell_angle_gamma   60.00000000
_symmetry_Int_Tables_number   1
_chemical_formula_structural   GaCu5(TeSe3)2
_chemical_formula_sum   'Ga1 Cu5 Te2 Se6'
_cell_volume   347.75056509
_cell_formula_units_Z   1
loop_
 _symmetry_equiv_pos_site_id
 _symmetry_equiv_pos_as_xyz
  1  'x, y, z'
loop_
 _atom_site_type_symbol
 _atom_site_label
 _atom_site_symmetry_multiplicity
 _atom_site_fract_x
 _atom_site_fract_y
 _atom_site_fract_z
 _atom_site_occupancy
  Cu  Cu0  1  0.25000000  0.25000000  0.25000000  1
  Cu  Cu1  1  0.87500000  0.87500000  0.37500000  1
  Cu  Cu2  1  0.87500000  0.37500000  0.87500000  1
  Cu  Cu3  1  0.37500000  0.87500000  0.87500000  1
  Ga  Ga4  1  0.50000000  0.50000000  0.50000000  1
  Cu  Cu5  1  0.87500000  0.87500000  0.87500000  1
  Te  Te6  1  0.63458300  0.63458400  0.09624900  1
  Te  Te7  1  0.63458300  0.63458400  0.63458400  1
  Se  Se8  1  0.09624800  0.63458400  0.63458400  1
  Se  Se9  1  0.11541700  0.65375100  0.11541600  1
  Se  Se10  1  0.63458300  0.09624900  0.63458400  1
  Se  Se11  1  0.11541700  0.11541600  0.11541600  1
  Se  Se12  1  0.65375200  0.11541600  0.11541600  1
  Se  Se13  1  0.11541700  0.11541600  0.65375100  1
