# generated using pymatgen
data_YCd3SnSbPd5Au3
_symmetry_space_group_name_H-M   'P 1'
_cell_length_a   4.43890381
_cell_length_b   8.14192581
_cell_length_c   8.14192581
_cell_angle_alpha   65.65937042
_cell_angle_beta   74.18122864
_cell_angle_gamma   74.18122864
_symmetry_Int_Tables_number   1
_chemical_formula_structural   YCd3SnSbPd5Au3
_chemical_formula_sum   'Y1 Cd3 Sn1 Sb1 Pd5 Au3'
_cell_volume   253.60310021
_cell_formula_units_Z   1
loop_
 _symmetry_equiv_pos_site_id
 _symmetry_equiv_pos_as_xyz
  1  'x, y, z'
loop_
 _atom_site_type_symbol
 _atom_site_label
 _atom_site_symmetry_multiplicity
 _atom_site_fract_x
 _atom_site_fract_y
 _atom_site_fract_z
 _atom_site_occupancy
  Y  Y0  1  0.00000000  0.00000000  0.00000000  1
  Cd  Cd1  1  0.29378000  0.70621996  0.70621998  1
  Cd  Cd2  1  0.70622003  0.29377998  0.29377999  1
  Cd  Cd3  1  -0.00000001  0.49999997  0.49999999  1
  Pd  Pd4  1  0.50000001  0.68204796  0.31795200  1
  Sn  Sn5  1  0.50000002  0.31795198  0.68204797  1
  Au  Au6  1  0.34051801  0.01841900  0.30054498  1
  Sb  Sb7  1  0.65948202  0.98158094  0.69945499  1
  Pd  Pd8  1  0.34051901  0.30054498  0.01841801  1
  Au  Au9  1  0.65948102  0.69945496  0.98158197  1
  Au  Au10  1  0.13794200  0.14208899  0.58202697  1
  Pd  Pd11  1  0.86205803  0.85791095  0.41797300  1
  Pd  Pd12  1  0.13794200  0.58202697  0.14208901  1
  Pd  Pd13  1  0.86205803  0.41797298  0.85791097  1
