# generated using pymatgen
data_YErMnAl3Fe5SiP6
_symmetry_space_group_name_H-M   'P 1'
_cell_length_a   5.37184811
_cell_length_b   7.77997208
_cell_length_c   7.77997160
_cell_angle_alpha   120.00000000
_cell_angle_beta   90.00000000
_cell_angle_gamma   90.00000000
_symmetry_Int_Tables_number   1
_chemical_formula_structural   YErMnAl3Fe5SiP6
_chemical_formula_sum   'Y1 Er1 Mn1 Al3 Fe5 Si1 P6'
_cell_volume   281.58557667
_cell_formula_units_Z   1
loop_
 _symmetry_equiv_pos_site_id
 _symmetry_equiv_pos_as_xyz
  1  'x, y, z'
loop_
 _atom_site_type_symbol
 _atom_site_label
 _atom_site_symmetry_multiplicity
 _atom_site_fract_x
 _atom_site_fract_y
 _atom_site_fract_z
 _atom_site_occupancy
  Er  Er0  1  0.49999999  0.33333333  0.66666666  1
  Y  Y1  1  0.49999999  0.66666665  0.33333332  1
  Mn  Mn2  1  -0.00000000  0.66666665  0.33333332  1
  Al  Al3  1  0.99999998  0.33333333  0.66666666  1
  Al  Al4  1  0.74999999  0.24357599  1.00000000  1
  Fe  Fe5  1  0.74999999  0.75642398  0.75642398  1
  Fe  Fe6  1  0.74999999  0.00000000  0.24357600  1
  Al  Al7  1  0.25000000  0.75642398  0.99999999  1
  Fe  Fe8  1  0.25000000  0.24357599  0.24357599  1
  Fe  Fe9  1  0.25000000  0.99999998  0.75642398  1
  P  P10  1  0.74999999  0.59937599  0.99999999  1
  P  P11  1  0.74999999  0.40062399  0.40062399  1
  P  P12  1  0.74999999  0.00000000  0.59937600  1
  P  P13  1  0.25000000  0.40062399  1.00000000  1
  Si  Si14  1  0.25000000  0.59937599  0.59937599  1
  P  P15  1  0.25000000  0.00000000  0.40062400  1
  Fe  Fe16  1  0.49999999  0.00000000  -0.00000000  1
  P  P17  1  0.00000000  0.00000000  0.00000000  1
