# generated using pymatgen
data_LaYCdCuAu2
_symmetry_space_group_name_H-M   'P 1'
_cell_length_a   4.52092791
_cell_length_b   4.52092743
_cell_length_c   7.21970320
_cell_angle_alpha   90.00000000
_cell_angle_beta   90.00000000
_cell_angle_gamma   120.00000000
_symmetry_Int_Tables_number   1
_chemical_formula_structural   LaYCdCuAu2
_chemical_formula_sum   'La1 Y1 Cd1 Cu1 Au2'
_cell_volume   127.79241957
_cell_formula_units_Z   1
loop_
 _symmetry_equiv_pos_site_id
 _symmetry_equiv_pos_as_xyz
  1  'x, y, z'
loop_
 _atom_site_type_symbol
 _atom_site_label
 _atom_site_symmetry_multiplicity
 _atom_site_fract_x
 _atom_site_fract_y
 _atom_site_fract_z
 _atom_site_occupancy
  Y  Y0  1  0.00000000  0.00000000  0.00445000  1
  La  La1  1  0.00000000  0.00000000  0.50444999  1
  Cd  Cd2  1  0.33333330  0.66666667  0.68719498  1
  Cu  Cu3  1  0.66666666  0.33333333  0.18719499  1
  Au  Au4  1  0.33333330  0.66666667  0.27435399  1
  Au  Au5  1  0.66666666  0.33333333  0.77435398  1
