# generated using pymatgen
data_Mn2Fe7Si4
_symmetry_space_group_name_H-M   'P 1'
_cell_length_a   5.03504801
_cell_length_b   5.03504848
_cell_length_c   8.08287525
_cell_angle_alpha   90.00000000
_cell_angle_beta   90.00000000
_cell_angle_gamma   120.00000000
_symmetry_Int_Tables_number   1
_chemical_formula_structural   Mn2Fe7Si4
_chemical_formula_sum   'Mn2 Fe7 Si4'
_cell_volume   177.46134981
_cell_formula_units_Z   1
loop_
 _symmetry_equiv_pos_site_id
 _symmetry_equiv_pos_as_xyz
  1  'x, y, z'
loop_
 _atom_site_type_symbol
 _atom_site_label
 _atom_site_symmetry_multiplicity
 _atom_site_fract_x
 _atom_site_fract_y
 _atom_site_fract_z
 _atom_site_occupancy
  Mn  Mn0  1  0.00000000  0.00000000  0.00000000  1
  Mn  Mn1  1  0.00000003  0.50000001  0.24925099  1
  Fe  Fe2  1  0.50000003  0.50000001  0.75074898  1
  Fe  Fe3  1  0.50000000  0.00000000  0.75074898  1
  Fe  Fe4  1  0.00000003  0.50000001  0.75074898  1
  Fe  Fe5  1  0.50000003  0.50000001  0.24925099  1
  Fe  Fe6  1  0.50000000  0.00000000  0.24925099  1
  Si  Si7  1  0.00000000  0.00000000  0.33744799  1
  Fe  Fe8  1  0.66666669  0.33333334  0.49999998  1
  Fe  Fe9  1  0.33333337  0.66666668  0.49999998  1
  Si  Si10  1  0.66666669  0.33333334  -0.00000000  1
  Si  Si11  1  0.33333337  0.66666668  -0.00000000  1
  Si  Si12  1  0.00000000  0.00000000  0.66255198  1
