# generated using pymatgen
data_K3RbBrCl7
_symmetry_space_group_name_H-M   'P 1'
_cell_length_a   7.44654989
_cell_length_b   7.44654989
_cell_length_c   8.47692108
_cell_angle_alpha   98.61058044
_cell_angle_beta   98.61058044
_cell_angle_gamma   109.73871613
_symmetry_Int_Tables_number   1
_chemical_formula_structural   K3RbBrCl7
_chemical_formula_sum   'Rb1 K3 Br1 Cl7'
_cell_volume   427.19816879
_cell_formula_units_Z   1
loop_
 _symmetry_equiv_pos_site_id
 _symmetry_equiv_pos_as_xyz
  1  'x, y, z'
loop_
 _atom_site_type_symbol
 _atom_site_label
 _atom_site_symmetry_multiplicity
 _atom_site_fract_x
 _atom_site_fract_y
 _atom_site_fract_z
 _atom_site_occupancy
  Rb  Rb0  1  0.93136201  0.06863800  0.74999997  1
  K  K1  1  0.06863798  0.93136200  0.24999995  1
  K  K2  1  0.88329501  0.12623800  0.43646196  1
  K  K3  1  0.87376201  0.11670500  0.06353795  1
  Cl  Cl4  1  0.27450299  0.72549700  0.24999995  1
  Cl  Cl5  1  0.72549700  0.27450300  0.74999997  1
  Cl  Cl6  1  0.76177999  0.63662400  0.16924893  1
  Br  Br7  1  0.36337600  0.23822000  0.33075098  1
  Cl  Cl8  1  0.23821999  0.36337600  0.83075099  1
  Cl  Cl9  1  0.63662399  0.76178000  0.66924894  1
  Cl  Cl10  1  0.12623798  0.88329500  0.93646197  1
  Cl  Cl11  1  0.11670498  0.87376200  0.56353796  1
