# generated using pymatgen
data_In6Sn2SbAu9
_symmetry_space_group_name_H-M   'P 1'
_cell_length_a   4.15851498
_cell_length_b   8.38195896
_cell_length_c   14.66204548
_cell_angle_alpha   89.62222290
_cell_angle_beta   90.00000000
_cell_angle_gamma   90.00000000
_symmetry_Int_Tables_number   1
_chemical_formula_structural   In6Sn2SbAu9
_chemical_formula_sum   'In6 Sn2 Sb1 Au9'
_cell_volume   511.05650676
_cell_formula_units_Z   1
loop_
 _symmetry_equiv_pos_site_id
 _symmetry_equiv_pos_as_xyz
  1  'x, y, z'
loop_
 _atom_site_type_symbol
 _atom_site_label
 _atom_site_symmetry_multiplicity
 _atom_site_fract_x
 _atom_site_fract_y
 _atom_site_fract_z
 _atom_site_occupancy
  In  In0  1  0.50000000  0.19073999  0.19510900  1
  In  In1  1  0.50000000  0.68948097  0.69376099  1
  In  In2  1  0.00000000  0.87883597  0.10977699  1
  In  In3  1  0.00000000  0.37634799  0.60938099  1
  In  In4  1  0.00000000  0.71870897  0.49458199  1
  In  In5  1  0.00000000  0.21983799  0.99476999  1
  Sn  Sn6  1  0.00000000  0.37147199  0.37632799  1
  Sn  Sn7  1  0.00000000  0.87640597  0.87812599  1
  Au  Au8  1  0.50000000  0.69059897  0.29685099  1
  Au  Au9  1  0.50000000  0.19084199  0.79509799  1
  Au  Au10  1  0.50000000  0.59818198  0.99587799  1
  Au  Au11  1  0.50000000  0.09635900  0.49702799  1
  Sb  Sb12  1  0.50000000  0.48064398  0.48903299  1
  Au  Au13  1  0.50000000  0.97625396  0.98869199  1
  Au  Au14  1  0.00000000  0.99056096  0.32987699  1
  Au  Au15  1  0.00000000  0.49316498  0.82957899  1
  Au  Au16  1  0.00000000  0.49066998  0.16225700  1
  Au  Au17  1  0.00000000  0.98846296  0.66224399  1
