# generated using pymatgen
data_AlIn4Sn2Pd3
_symmetry_space_group_name_H-M   'P 1'
_cell_length_a   3.76541209
_cell_length_b   7.28493690
_cell_length_c   7.28493690
_cell_angle_alpha   90.00000000
_cell_angle_beta   90.00000000
_cell_angle_gamma   90.00000000
_symmetry_Int_Tables_number   1
_chemical_formula_structural   AlIn4Sn2Pd3
_chemical_formula_sum   'Al1 In4 Sn2 Pd3'
_cell_volume   199.83157085
_cell_formula_units_Z   1
loop_
 _symmetry_equiv_pos_site_id
 _symmetry_equiv_pos_as_xyz
  1  'x, y, z'
loop_
 _atom_site_type_symbol
 _atom_site_label
 _atom_site_symmetry_multiplicity
 _atom_site_fract_x
 _atom_site_fract_y
 _atom_site_fract_z
 _atom_site_occupancy
  Al  Al0  1  0.49999999  0.67423101  0.17423100  1
  In  In1  1  0.49999999  0.32576900  0.82576901  1
  In  In2  1  0.49999999  0.17423100  0.32576900  1
  In  In3  1  0.49999999  0.82576901  0.67423101  1
  In  In4  1  0.00000000  0.00000000  0.00000000  1
  Sn  Sn5  1  0.00000000  0.50000001  0.50000001  1
  Sn  Sn6  1  0.00000000  0.11910100  0.61910101  1
  Pd  Pd7  1  0.00000000  0.88089901  0.38089900  1
  Pd  Pd8  1  0.00000000  0.61910101  0.88089901  1
  Pd  Pd9  1  0.00000000  0.38089900  0.11910100  1
