# generated using pymatgen
data_LiFe13
_symmetry_space_group_name_H-M   'P 1'
_cell_length_a   5.37312698
_cell_length_b   5.41132593
_cell_length_c   6.77702904
_cell_angle_alpha   66.46930695
_cell_angle_beta   90.00000000
_cell_angle_gamma   90.00000000
_symmetry_Int_Tables_number   1
_chemical_formula_structural   LiFe13
_chemical_formula_sum   'Li1 Fe13'
_cell_volume   180.66195145
_cell_formula_units_Z   1
loop_
 _symmetry_equiv_pos_site_id
 _symmetry_equiv_pos_as_xyz
  1  'x, y, z'
loop_
 _atom_site_type_symbol
 _atom_site_label
 _atom_site_symmetry_multiplicity
 _atom_site_fract_x
 _atom_site_fract_y
 _atom_site_fract_z
 _atom_site_occupancy
  Li  Li0  1  1.00000000  0.64499600  0.71000799  1
  Fe  Fe1  1  0.00000000  0.35710700  0.28578600  1
  Fe  Fe2  1  0.50000000  0.85512800  0.28974401  1
  Fe  Fe3  1  0.50000000  0.13512700  0.72974598  1
  Fe  Fe4  1  0.50000000  0.50214800  0.99570398  1
  Fe  Fe5  1  0.00000000  0.00020800  0.99958397  1
  Fe  Fe6  1  0.00000000  0.84688200  0.30623601  1
  Fe  Fe7  1  0.50000000  0.31589400  0.36821200  1
  Fe  Fe8  1  0.50000000  0.66267800  0.67464399  1
  Fe  Fe9  1  0.00000000  0.15779400  0.68441198  1
  Fe  Fe10  1  0.25625800  0.24613500  0.98897998  1
  Fe  Fe11  1  0.74374200  0.76488500  0.98897999  1
  Fe  Fe12  1  0.25625800  0.76488500  0.98897999  1
  Fe  Fe13  1  0.74374200  0.24613500  0.98897998  1
