# generated using pymatgen
data_Y2In2Ge5Pd
_symmetry_space_group_name_H-M   'P 1'
_cell_length_a   4.71502590
_cell_length_b   4.71502590
_cell_length_c   10.79668427
_cell_angle_alpha   90.00000000
_cell_angle_beta   90.00000000
_cell_angle_gamma   90.00000000
_symmetry_Int_Tables_number   1
_chemical_formula_structural   Y2In2Ge5Pd
_chemical_formula_sum   'Y2 In2 Ge5 Pd1'
_cell_volume   240.02615429
_cell_formula_units_Z   1
loop_
 _symmetry_equiv_pos_site_id
 _symmetry_equiv_pos_as_xyz
  1  'x, y, z'
loop_
 _atom_site_type_symbol
 _atom_site_label
 _atom_site_symmetry_multiplicity
 _atom_site_fract_x
 _atom_site_fract_y
 _atom_site_fract_z
 _atom_site_occupancy
  Y  Y0  1  0.50000001  0.00000000  0.75907098  1
  Y  Y1  1  0.00000000  0.50000001  0.24092899  1
  In  In2  1  0.00000000  0.00000000  0.49999999  1
  In  In3  1  0.50000001  0.50000001  0.49999999  1
  Ge  Ge4  1  0.50000001  0.00000000  0.12573000  1
  Ge  Ge5  1  0.00000000  0.50000001  0.87426998  1
  Ge  Ge6  1  0.00000000  0.00000000  0.00000000  1
  Ge  Ge7  1  0.50000001  0.50000001  -0.00000000  1
  Ge  Ge8  1  0.50000001  0.00000000  0.37151099  1
  Pd  Pd9  1  0.00000000  0.50000001  0.62848898  1
