# generated using pymatgen
data_Li4NiO6
_symmetry_space_group_name_H-M   'P 1'
_cell_length_a   5.74375200
_cell_length_b   5.74375200
_cell_length_c   5.74375200
_cell_angle_alpha   64.35260773
_cell_angle_beta   64.35260773
_cell_angle_gamma   64.35261536
_symmetry_Int_Tables_number   1
_chemical_formula_structural   Li4NiO6
_chemical_formula_sum   'Li4 Ni1 O6'
_cell_volume   146.79651167
_cell_formula_units_Z   1
loop_
 _symmetry_equiv_pos_site_id
 _symmetry_equiv_pos_as_xyz
  1  'x, y, z'
loop_
 _atom_site_type_symbol
 _atom_site_label
 _atom_site_symmetry_multiplicity
 _atom_site_fract_x
 _atom_site_fract_y
 _atom_site_fract_z
 _atom_site_occupancy
  Li  Li0  1  0.89664502  0.37678399  0.37678400  1
  Li  Li1  1  0.37678406  0.89664498  0.37678399  1
  Li  Li2  1  0.37678402  0.37678399  0.89664500  1
  Li  Li3  1  0.99849606  0.99849598  0.99849600  1
  O  O4  1  0.79016201  0.21534500  0.21534500  1
  Ni  Ni5  1  0.21534505  0.79016198  0.21534499  1
  O  O6  1  0.21534501  0.21534500  0.79016200  1
  O  O7  1  0.25289402  0.25289399  0.25289400  1
  O  O8  1  0.21243505  0.77099098  0.77099100  1
  O  O9  1  0.77099105  0.77099098  0.21243500  1
  O  O10  1  0.77099101  0.21243500  0.77099101  1
