# generated using pymatgen
data_Li2Mn3Cu3O4
_symmetry_space_group_name_H-M   'P 1'
_cell_length_a   6.10876179
_cell_length_b   6.10876179
_cell_length_c   6.10876179
_cell_angle_alpha   60.00000000
_cell_angle_beta   60.00000000
_cell_angle_gamma   60.00000000
_symmetry_Int_Tables_number   1
_chemical_formula_structural   Li2Mn3Cu3O4
_chemical_formula_sum   'Li2 Mn3 Cu3 O4'
_cell_volume   161.19240399
_cell_formula_units_Z   1
loop_
 _symmetry_equiv_pos_site_id
 _symmetry_equiv_pos_as_xyz
  1  'x, y, z'
loop_
 _atom_site_type_symbol
 _atom_site_label
 _atom_site_symmetry_multiplicity
 _atom_site_fract_x
 _atom_site_fract_y
 _atom_site_fract_z
 _atom_site_occupancy
  Cu  Cu0  1  0.13107500  0.13107600  0.13107600  1
  Li  Li1  1  0.13107500  0.60677302  0.13107600  1
  Li  Li2  1  0.13107500  0.13107600  0.60677302  1
  Mn  Mn3  1  0.14322800  0.61892402  0.61892402  1
  Mn  Mn4  1  0.61892502  0.14322700  0.61892402  1
  Mn  Mn5  1  0.61892502  0.61892402  0.61892402  1
  Cu  Cu6  1  0.61892502  0.61892402  0.14322700  1
  Cu  Cu7  1  0.60677202  0.13107600  0.13107600  1
  O  O8  1  0.37500001  0.87500002  0.37500001  1
  O  O9  1  0.37500001  0.37500001  0.37500001  1
  O  O10  1  0.37500001  0.37500001  0.87500002  1
  O  O11  1  0.87500002  0.37500001  0.37500001  1
