# generated using pymatgen
data_YCdIn2PdAu7
_symmetry_space_group_name_H-M   'P 1'
_cell_length_a   6.33409786
_cell_length_b   6.33409786
_cell_length_c   6.33409786
_cell_angle_alpha   90.00000000
_cell_angle_beta   90.00000000
_cell_angle_gamma   90.00000000
_symmetry_Int_Tables_number   1
_chemical_formula_structural   YCdIn2PdAu7
_chemical_formula_sum   'Y1 Cd1 In2 Pd1 Au7'
_cell_volume   254.12904646
_cell_formula_units_Z   1
loop_
 _symmetry_equiv_pos_site_id
 _symmetry_equiv_pos_as_xyz
  1  'x, y, z'
loop_
 _atom_site_type_symbol
 _atom_site_label
 _atom_site_symmetry_multiplicity
 _atom_site_fract_x
 _atom_site_fract_y
 _atom_site_fract_z
 _atom_site_occupancy
  Y  Y0  1  0.37658701  0.12341300  0.87658702  1
  Cd  Cd1  1  0.62341301  0.62341301  0.62341301  1
  In  In2  1  0.12341300  0.87658702  0.37658701  1
  In  In3  1  0.87658702  0.37658701  0.12341300  1
  Au  Au4  1  0.08368100  0.41631901  0.58368101  1
  Au  Au5  1  0.58368101  0.08368100  0.41631901  1
  Au  Au6  1  0.41631901  0.58368101  0.08368100  1
  Au  Au7  1  0.91631902  0.91631902  0.91631902  1
  Pd  Pd8  1  0.31208101  0.31208101  0.31208101  1
  Au  Au9  1  0.81208102  0.18791900  0.68791901  1
  Au  Au10  1  0.18791900  0.68791901  0.81208102  1
  Au  Au11  1  0.68791901  0.81208102  0.18791900  1
