# generated using pymatgen
data_HfTaGa3CuPd2
_symmetry_space_group_name_H-M   'P 1'
_cell_length_a   5.21525383
_cell_length_b   5.21525383
_cell_length_c   5.21525383
_cell_angle_alpha   90.00000000
_cell_angle_beta   90.00000000
_cell_angle_gamma   90.00000000
_symmetry_Int_Tables_number   1
_chemical_formula_structural   HfTaGa3CuPd2
_chemical_formula_sum   'Hf1 Ta1 Ga3 Cu1 Pd2'
_cell_volume   141.84902403
_cell_formula_units_Z   1
loop_
 _symmetry_equiv_pos_site_id
 _symmetry_equiv_pos_as_xyz
  1  'x, y, z'
loop_
 _atom_site_type_symbol
 _atom_site_label
 _atom_site_symmetry_multiplicity
 _atom_site_fract_x
 _atom_site_fract_y
 _atom_site_fract_z
 _atom_site_occupancy
  Ta  Ta0  1  0.25000001  0.00000000  0.50000002  1
  Hf  Hf1  1  0.75000002  0.00000000  0.50000002  1
  Ga  Ga2  1  0.00000000  0.50000002  0.25000001  1
  Ga  Ga3  1  0.00000000  0.50000002  0.75000002  1
  Ga  Ga4  1  0.50000002  0.75000002  0.00000000  1
  Cu  Cu5  1  0.50000002  0.25000001  -0.00000000  1
  Pd  Pd6  1  0.00000000  0.00000000  0.00000000  1
  Pd  Pd7  1  0.50000002  0.50000002  0.50000002  1
