# generated using pymatgen
data_YIn8GaAu
_symmetry_space_group_name_H-M   'P 1'
_cell_length_a   3.95465207
_cell_length_b   9.42943573
_cell_length_c   9.42943573
_cell_angle_alpha   60.18086624
_cell_angle_beta   77.89539337
_cell_angle_gamma   77.89539337
_symmetry_Int_Tables_number   1
_chemical_formula_structural   YIn8GaAu
_chemical_formula_sum   'Y1 In8 Ga1 Au1'
_cell_volume   295.97449520
_cell_formula_units_Z   1
loop_
 _symmetry_equiv_pos_site_id
 _symmetry_equiv_pos_as_xyz
  1  'x, y, z'
loop_
 _atom_site_type_symbol
 _atom_site_label
 _atom_site_symmetry_multiplicity
 _atom_site_fract_x
 _atom_site_fract_y
 _atom_site_fract_z
 _atom_site_occupancy
  Y  Y0  1  0.18370001  0.71361199  0.91898794  1
  In  In1  1  0.14779700  0.10980300  0.59460297  1
  Ga  Ga2  1  0.49999999  0.02345900  0.97654096  1
  In  In3  1  0.36872700  0.73755399  0.52499195  1
  In  In4  1  0.63127299  0.47500799  0.26244597  1
  In  In5  1  0.81629999  0.08101200  0.28638799  1
  In  In6  1  0.85220299  0.40539699  0.89019695  1
  In  In7  1  0.00000001  0.75998598  0.24001396  1
  In  In8  1  0.50000000  0.35903799  0.64096196  1
  In  In9  1  0.26098800  0.33351799  0.14450598  1
  Au  Au10  1  0.73901200  0.85549398  0.66648194  1
