# generated using pymatgen
data_CaEuIn4SnPdAu4
_symmetry_space_group_name_H-M   'P 1'
_cell_length_a   4.51102781
_cell_length_b   7.19254017
_cell_length_c   8.72361755
_cell_angle_alpha   90.00000000
_cell_angle_beta   104.98419952
_cell_angle_gamma   90.00000000
_symmetry_Int_Tables_number   1
_chemical_formula_structural   CaEuIn4SnPdAu4
_chemical_formula_sum   'Ca1 Eu1 In4 Sn1 Pd1 Au4'
_cell_volume   273.41999434
_cell_formula_units_Z   1
loop_
 _symmetry_equiv_pos_site_id
 _symmetry_equiv_pos_as_xyz
  1  'x, y, z'
loop_
 _atom_site_type_symbol
 _atom_site_label
 _atom_site_symmetry_multiplicity
 _atom_site_fract_x
 _atom_site_fract_y
 _atom_site_fract_z
 _atom_site_occupancy
  Eu  Eu0  1  0.88281405  0.74999998  0.76562803  1
  Ca  Ca1  1  0.11718601  0.24999999  0.23437201  1
  In  In2  1  0.50000003  0.99999998  1.00000002  1
  In  In3  1  0.50000003  0.49999999  1.00000002  1
  In  In4  1  0.07386700  0.74999998  0.14773400  1
  In  In5  1  0.92613305  0.24999999  0.85226604  1
  Sn  Sn6  1  0.68800404  0.95396498  0.37600803  1
  Au  Au7  1  0.31199602  0.04603500  0.62399201  1
  Au  Au8  1  0.68800404  0.54603499  0.37600803  1
  Au  Au9  1  0.31199602  0.45396499  0.62399201  1
  Au  Au10  1  0.22536501  0.74999998  0.45073001  1
  Pd  Pd11  1  0.77463505  0.24999999  0.54927003  1
