# generated using pymatgen
data_NaLiCu6SCl8O3
_symmetry_space_group_name_H-M   'P 1'
_cell_length_a   6.80400515
_cell_length_b   7.60750294
_cell_length_c   9.45953560
_cell_angle_alpha   90.00000000
_cell_angle_beta   91.80278778
_cell_angle_gamma   90.00000000
_symmetry_Int_Tables_number   1
_chemical_formula_structural   NaLiCu6SCl8O3
_chemical_formula_sum   'Na1 Li1 Cu6 S1 Cl8 O3'
_cell_volume   489.39729259
_cell_formula_units_Z   1
loop_
 _symmetry_equiv_pos_site_id
 _symmetry_equiv_pos_as_xyz
  1  'x, y, z'
loop_
 _atom_site_type_symbol
 _atom_site_label
 _atom_site_symmetry_multiplicity
 _atom_site_fract_x
 _atom_site_fract_y
 _atom_site_fract_z
 _atom_site_occupancy
  Cu  Cu0  1  0.56345999  0.60844201  0.93442697  1
  Li  Li1  1  0.06346000  0.89155801  0.43442698  1
  Na  Na2  1  0.43653999  0.39155800  0.06557300  1
  Cu  Cu3  1  0.93653998  0.10844200  0.56557299  1
  Cu  Cu4  1  0.46668499  0.12276300  0.74877997  1
  Cu  Cu5  1  0.03331500  0.62276301  0.75121997  1
  Cu  Cu6  1  0.53331499  0.87723701  0.25122000  1
  Cu  Cu7  1  0.96668498  0.37723700  0.24878000  1
  Cl  Cl8  1  0.68705099  0.19235000  0.46132399  1
  Cl  Cl9  1  0.64742499  0.20055900  0.06082701  1
  Cl  Cl10  1  0.14742500  0.29944100  0.56082698  1
  O  O11  1  0.81294898  0.69235001  0.03867601  1
  O  O12  1  0.60730699  0.50464800  0.74019798  1
  S  S13  1  0.10730700  0.99535201  0.24019799  1
  O  O14  1  0.35257499  0.79944101  0.93917296  1
  Cl  Cl15  1  0.31294899  0.80765001  0.53867598  1
  Cl  Cl16  1  0.39269299  0.49535200  0.25980199  1
  Cl  Cl17  1  0.85257498  0.70055901  0.43917299  1
  Cl  Cl18  1  0.89269298  0.00464800  0.75980198  1
  Cl  Cl19  1  0.18705100  0.30765000  0.96132396  1
