# generated using pymatgen
data_InSn
_symmetry_space_group_name_H-M   'P 1'
_cell_length_a   4.36099005
_cell_length_b   7.57007980
_cell_length_c   7.57007980
_cell_angle_alpha   109.40490723
_cell_angle_beta   90.00000000
_cell_angle_gamma   90.00000000
_symmetry_Int_Tables_number   1
_chemical_formula_structural   InSn
_chemical_formula_sum   'In4 Sn4'
_cell_volume   235.71495393
_cell_formula_units_Z   4
loop_
 _symmetry_equiv_pos_site_id
 _symmetry_equiv_pos_as_xyz
  1  'x, y, z'
loop_
 _atom_site_type_symbol
 _atom_site_label
 _atom_site_symmetry_multiplicity
 _atom_site_fract_x
 _atom_site_fract_y
 _atom_site_fract_z
 _atom_site_occupancy
  In  In0  1  -0.00000000  0.50000002  0.50000004  1
  In  In1  1  0.49999999  0.00000000  0.50000001  1
  In  In2  1  0.49999999  0.50000002  0.00000003  1
  In  In3  1  0.00000000  0.00000000  0.00000000  1
  Sn  Sn4  1  -0.00000000  0.74515003  0.25485005  1
  Sn  Sn5  1  -0.00000000  0.25485001  0.74515003  1
  Sn  Sn6  1  0.49999999  0.74068003  0.74068006  1
  Sn  Sn7  1  0.49999999  0.25932001  0.25932002  1
