# generated using pymatgen
data_Na3CuO6
_symmetry_space_group_name_H-M   'P 1'
_cell_length_a   5.56712484
_cell_length_b   5.84494305
_cell_length_c   7.79177237
_cell_angle_alpha   90.00000000
_cell_angle_beta   90.67089844
_cell_angle_gamma   90.00000000
_symmetry_Int_Tables_number   1
_chemical_formula_structural   Na3CuO6
_chemical_formula_sum   'Na6 Cu2 O12'
_cell_volume   253.52321104
_cell_formula_units_Z   2
loop_
 _symmetry_equiv_pos_site_id
 _symmetry_equiv_pos_as_xyz
  1  'x, y, z'
loop_
 _atom_site_type_symbol
 _atom_site_label
 _atom_site_symmetry_multiplicity
 _atom_site_fract_x
 _atom_site_fract_y
 _atom_site_fract_z
 _atom_site_occupancy
  Na  Na0  1  0.50042101  0.71999399  0.00291999  1
  Na  Na1  1  0.00042100  0.28000600  0.50291999  1
  Na  Na2  1  0.48985501  0.30641400  0.74761797  1
  Na  Na3  1  0.98985503  0.69358599  0.24761797  1
  Na  Na4  1  0.01442600  0.81850399  0.74725798  1
  Na  Na5  1  0.51442601  0.18149600  0.24725798  1
  Cu  Cu6  1  0.99983803  0.26000300  0.99935695  1
  Cu  Cu7  1  0.49983801  0.73999699  0.49935698  1
  O  O8  1  0.09625600  0.29101100  0.23981299  1
  O  O9  1  0.17350100  0.54180300  0.95009597  1
  O  O10  1  0.21092601  0.56486000  0.54652298  1
  O  O11  1  0.28633001  0.07748700  0.95424097  1
  O  O12  1  0.32317001  0.02325800  0.55275498  1
  O  O13  1  0.40527601  0.77722299  0.25941899  1
  O  O14  1  0.59625602  0.70898899  0.73981297  1
  O  O15  1  0.67350102  0.45819700  0.45009598  1
  O  O16  1  0.71092602  0.43514000  0.04652299  1
  O  O17  1  0.78633002  0.92251299  0.45424097  1
  O  O18  1  0.82317002  0.97674199  0.05275498  1
  O  O19  1  0.90527603  0.22277700  0.75941896  1
