# generated using pymatgen
data_NaLi2NiP2O13
_symmetry_space_group_name_H-M   'P 1'
_cell_length_a   5.00067616
_cell_length_b   7.11335230
_cell_length_c   7.53390169
_cell_angle_alpha   66.21488190
_cell_angle_beta   83.76622009
_cell_angle_gamma   72.01133728
_symmetry_Int_Tables_number   1
_chemical_formula_structural   NaLi2NiP2O13
_chemical_formula_sum   'Na1 Li2 Ni1 P2 O13'
_cell_volume   233.20390486
_cell_formula_units_Z   1
loop_
 _symmetry_equiv_pos_site_id
 _symmetry_equiv_pos_as_xyz
  1  'x, y, z'
loop_
 _atom_site_type_symbol
 _atom_site_label
 _atom_site_symmetry_multiplicity
 _atom_site_fract_x
 _atom_site_fract_y
 _atom_site_fract_z
 _atom_site_occupancy
  Li  Li0  1  0.03500000  0.25969000  0.55009699  1
  Na  Na1  1  0.96499997  0.74031000  0.44990299  1
  Li  Li2  1  0.00000000  0.00000000  0.00000000  1
  P  P3  1  0.43677299  0.19436700  0.21142299  1
  P  P4  1  0.56541698  0.60060800  0.21780900  1
  Ni  Ni5  1  0.56322698  0.80563300  0.78857699  1
  O  O6  1  0.43458298  0.39939200  0.78219098  1
  O  O7  1  0.27546099  0.75159100  0.21737701  1
  O  O8  1  0.21430099  0.14362000  0.35309499  1
  O  O9  1  0.29370799  0.29870600  0.99324097  1
  O  O10  1  0.70629198  0.70129400  0.00675901  1
  O  O11  1  0.29625799  0.98140700  0.78600400  1
  O  O12  1  0.78569897  0.85638000  0.64690499  1
  O  O13  1  0.77677197  0.54423100  0.36998099  1
  O  O14  1  0.72453898  0.24840900  0.78262297  1
  O  O15  1  0.53477498  0.38609000  0.21493300  1
  O  O16  1  0.46522498  0.61391000  0.78506699  1
  O  O17  1  0.22322799  0.45576900  0.63001899  1
  O  O18  1  0.70374198  0.01859300  0.21399598  1
