# generated using pymatgen
data_LiMn(Fe4Cu)2
_symmetry_space_group_name_H-M   'P 1'
_cell_length_a   4.42254400
_cell_length_b   4.42254400
_cell_length_c   11.21450996
_cell_angle_alpha   90.00000000
_cell_angle_beta   90.00000000
_cell_angle_gamma   90.00000000
_symmetry_Int_Tables_number   1
_chemical_formula_structural   LiMn(Fe4Cu)2
_chemical_formula_sum   'Li1 Mn1 Fe8 Cu2'
_cell_volume   219.34342796
_cell_formula_units_Z   1
loop_
 _symmetry_equiv_pos_site_id
 _symmetry_equiv_pos_as_xyz
  1  'x, y, z'
loop_
 _atom_site_type_symbol
 _atom_site_label
 _atom_site_symmetry_multiplicity
 _atom_site_fract_x
 _atom_site_fract_y
 _atom_site_fract_z
 _atom_site_occupancy
  Li  Li0  1  -0.00000000  0.50000000  0.63231700  1
  Mn  Mn1  1  0.50000000  0.00000000  0.36768300  1
  Fe  Fe2  1  -0.00000000  0.50000000  0.12868400  1
  Fe  Fe3  1  0.50000000  0.00000000  0.87131600  1
  Fe  Fe4  1  0.00000000  0.00000000  0.81295500  1
  Fe  Fe5  1  0.50000000  0.50000000  0.81295500  1
  Fe  Fe6  1  0.50000000  0.50000000  0.18704500  1
  Fe  Fe7  1  0.00000000  0.00000000  0.18704500  1
  Cu  Cu8  1  0.00000000  0.00000000  0.50000000  1
  Cu  Cu9  1  0.50000000  0.50000000  0.50000000  1
  Fe  Fe10  1  -0.00000000  0.50000000  0.31701000  1
  Fe  Fe11  1  0.50000000  0.00000000  0.68299000  1
