# generated using pymatgen
data_MnAl5Si6
_symmetry_space_group_name_H-M   'P 1'
_cell_length_a   3.67532897
_cell_length_b   6.49774218
_cell_length_c   7.57686996
_cell_angle_alpha   90.00000000
_cell_angle_beta   90.00000000
_cell_angle_gamma   90.00000000
_symmetry_Int_Tables_number   1
_chemical_formula_structural   MnAl5Si6
_chemical_formula_sum   'Mn1 Al5 Si6'
_cell_volume   180.94580821
_cell_formula_units_Z   1
loop_
 _symmetry_equiv_pos_site_id
 _symmetry_equiv_pos_as_xyz
  1  'x, y, z'
loop_
 _atom_site_type_symbol
 _atom_site_label
 _atom_site_symmetry_multiplicity
 _atom_site_fract_x
 _atom_site_fract_y
 _atom_site_fract_z
 _atom_site_occupancy
  Mn  Mn0  1  0.25000000  0.97251097  0.32097300  1
  Al  Al1  1  0.25000000  0.47251099  0.17902700  1
  Al  Al2  1  0.75000001  0.02748900  0.67902700  1
  Al  Al3  1  0.75000001  0.52748899  0.82097300  1
  Al  Al4  1  0.25000000  0.35796999  0.56437500  1
  Al  Al5  1  0.25000000  0.85796998  0.93562500  1
  Si  Si6  1  0.75000001  0.64202998  0.43562500  1
  Si  Si7  1  0.75000001  0.14203000  0.06437500  1
  Si  Si8  1  0.25000000  0.72621698  0.62382300  1
  Si  Si9  1  0.25000000  0.22621699  0.87617700  1
  Si  Si10  1  0.75000001  0.27378299  0.37617700  1
  Si  Si11  1  0.75000001  0.77378298  0.12382300  1
