# generated using pymatgen
data_Mn2Fe7BCN2
_symmetry_space_group_name_H-M   'P 1'
_cell_length_a   4.18220806
_cell_length_b   5.55176544
_cell_length_c   5.55176544
_cell_angle_alpha   81.84395599
_cell_angle_beta   67.87332153
_cell_angle_gamma   67.87332153
_symmetry_Int_Tables_number   1
_chemical_formula_structural   Mn2Fe7BCN2
_chemical_formula_sum   'Mn2 Fe7 B1 C1 N2'
_cell_volume   110.61682942
_cell_formula_units_Z   1
loop_
 _symmetry_equiv_pos_site_id
 _symmetry_equiv_pos_as_xyz
  1  'x, y, z'
loop_
 _atom_site_type_symbol
 _atom_site_label
 _atom_site_symmetry_multiplicity
 _atom_site_fract_x
 _atom_site_fract_y
 _atom_site_fract_z
 _atom_site_occupancy
  Mn  Mn0  1  0.50000003  0.50000000  -0.00000003  1
  Fe  Fe1  1  0.00000000  0.00000000  0.50000001  1
  Mn  Mn2  1  0.50000008  1.00000000  0.49999994  1
  Fe  Fe3  1  1.00000002  0.50000000  -0.00000001  1
  Fe  Fe4  1  0.34823705  0.65176300  0.65176297  1
  Fe  Fe5  1  1.00000003  0.65176300  0.34823698  1
  Fe  Fe6  1  0.00000003  0.34823700  0.65176298  1
  Fe  Fe7  1  0.65176301  0.34823700  0.34823700  1
  N  N8  1  0.27447601  0.22552400  0.22552399  1
  C  C9  1  0.50000001  0.22552400  0.77447601  1
  B  B10  1  0.50000006  0.77447600  0.22552395  1
  N  N11  1  0.72552406  0.77447600  0.77447597  1
  Fe  Fe12  1  0.00000000  0.00000000  0.00000000  1
