# generated using pymatgen
data_DyY2Ga3GePd2
_symmetry_space_group_name_H-M   'P 1'
_cell_length_a   3.26598191
_cell_length_b   7.86239481
_cell_length_c   7.86239529
_cell_angle_alpha   119.99536133
_cell_angle_beta   90.00000000
_cell_angle_gamma   90.00000000
_symmetry_Int_Tables_number   1
_chemical_formula_structural   DyY2Ga3GePd2
_chemical_formula_sum   'Y2 Dy1 Ga3 Ge1 Pd2'
_cell_volume   174.85353930
_cell_formula_units_Z   1
loop_
 _symmetry_equiv_pos_site_id
 _symmetry_equiv_pos_as_xyz
  1  'x, y, z'
loop_
 _atom_site_type_symbol
 _atom_site_label
 _atom_site_symmetry_multiplicity
 _atom_site_fract_x
 _atom_site_fract_y
 _atom_site_fract_z
 _atom_site_occupancy
  Y  Y0  1  0.50000001  0.39578200  0.39578197  1
  Dy  Dy1  1  0.50000001  0.60424400  0.00006797  1
  Y  Y2  1  0.50000001  0.00006800  0.60424399  1
  Ga  Ga3  1  -0.00000000  0.74980500  0.74980495  1
  Ga  Ga4  1  -0.00000000  0.25030500  0.99996097  1
  Ga  Ga5  1  1.00000003  0.99996100  0.25030494  1
  Pd  Pd6  1  -0.00000000  0.66682800  0.33345196  1
  Pd  Pd7  1  -0.00000000  0.33345200  0.66682797  1
  Ge  Ge8  1  0.50000001  0.99965500  0.99965493  1
