# generated using pymatgen
data_BaCaIn2Sn2Au
_symmetry_space_group_name_H-M   'P 1'
_cell_length_a   4.36820984
_cell_length_b   5.15846395
_cell_length_c   10.66508198
_cell_angle_alpha   103.99510193
_cell_angle_beta   101.81722260
_cell_angle_gamma   90.00000000
_symmetry_Int_Tables_number   1
_chemical_formula_structural   BaCaIn2Sn2Au
_chemical_formula_sum   'Ba1 Ca1 In2 Sn2 Au1'
_cell_volume   227.93275880
_cell_formula_units_Z   1
loop_
 _symmetry_equiv_pos_site_id
 _symmetry_equiv_pos_as_xyz
  1  'x, y, z'
loop_
 _atom_site_type_symbol
 _atom_site_label
 _atom_site_symmetry_multiplicity
 _atom_site_fract_x
 _atom_site_fract_y
 _atom_site_fract_z
 _atom_site_occupancy
  Ba  Ba0  1  0.18347101  0.18347100  0.36694199  1
  Ca  Ca1  1  0.50000002  0.00000000  0.00000000  1
  In  In2  1  0.81652904  0.81652901  0.63305799  1
  In  In3  1  0.06443301  0.56443301  0.12886600  1
  Sn  Sn4  1  0.93556704  0.43556701  0.87113399  1
  Sn  Sn5  1  0.63499403  0.63499401  0.26998800  1
  Au  Au6  1  0.36500602  0.36500600  0.73001199  1
