# generated using pymatgen
data_TiAlRuW
_symmetry_space_group_name_H-M   'P 1'
_cell_length_a   3.31702805
_cell_length_b   4.08845186
_cell_length_c   5.21851397
_cell_angle_alpha   90.00000000
_cell_angle_beta   108.53074646
_cell_angle_gamma   90.00000000
_symmetry_Int_Tables_number   1
_chemical_formula_structural   TiAlRuW
_chemical_formula_sum   'Ti1 Al1 Ru1 W1'
_cell_volume   67.10168374
_cell_formula_units_Z   1
loop_
 _symmetry_equiv_pos_site_id
 _symmetry_equiv_pos_as_xyz
  1  'x, y, z'
loop_
 _atom_site_type_symbol
 _atom_site_label
 _atom_site_symmetry_multiplicity
 _atom_site_fract_x
 _atom_site_fract_y
 _atom_site_fract_z
 _atom_site_occupancy
  Ti  Ti0  1  0.14110900  0.00000000  0.28221800  1
  Al  Al1  1  0.86163000  0.50000002  0.72326002  1
  Ru  Ru2  1  0.41444000  0.00000000  0.82888001  1
  W  W3  1  0.58282100  0.50000002  0.16564202  1
