# generated using pymatgen
data_LiCuO4
_symmetry_space_group_name_H-M   'P 1'
_cell_length_a   5.73234415
_cell_length_b   5.73234415
_cell_length_c   5.73234415
_cell_angle_alpha   106.96144867
_cell_angle_beta   106.96144867
_cell_angle_gamma   114.61656952
_symmetry_Int_Tables_number   1
_chemical_formula_structural   LiCuO4
_chemical_formula_sum   'Li2 Cu2 O8'
_cell_volume   144.11722188
_cell_formula_units_Z   2
loop_
 _symmetry_equiv_pos_site_id
 _symmetry_equiv_pos_as_xyz
  1  'x, y, z'
loop_
 _atom_site_type_symbol
 _atom_site_label
 _atom_site_symmetry_multiplicity
 _atom_site_fract_x
 _atom_site_fract_y
 _atom_site_fract_z
 _atom_site_occupancy
  Li  Li0  1  0.50000006  0.50000003  0.00000005  1
  Li  Li1  1  0.25000008  0.75000005  0.50000006  1
  Cu  Cu2  1  0.75000003  0.25000002  0.50000004  1
  Cu  Cu3  1  0.00000000  0.00000000  0.00000000  1
  O  O4  1  0.56373703  0.24994902  0.68621103  1
  O  O5  1  0.56373710  0.87752505  0.31378808  1
  O  O6  1  0.99994909  0.81373705  0.18621209  1
  O  O7  1  0.18626300  0.00005100  0.81378900  1
  O  O8  1  0.62752609  0.81373805  0.81378908  1
  O  O9  1  0.75005105  0.43626303  0.31378805  1
  O  O10  1  0.18626304  0.37247502  0.18621203  1
  O  O11  1  0.12247405  0.43626203  0.68621103  1
