# generated using pymatgen
data_Be4Tc
_symmetry_space_group_name_H-M   'P 1'
_cell_length_a   3.83932614
_cell_length_b   3.85392737
_cell_length_c   3.85392737
_cell_angle_alpha   89.77583313
_cell_angle_beta   90.00789642
_cell_angle_gamma   89.99210358
_symmetry_Int_Tables_number   1
_chemical_formula_structural   Be4Tc
_chemical_formula_sum   'Be4 Tc1'
_cell_volume   57.02413766
_cell_formula_units_Z   1
loop_
 _symmetry_equiv_pos_site_id
 _symmetry_equiv_pos_as_xyz
  1  'x, y, z'
loop_
 _atom_site_type_symbol
 _atom_site_label
 _atom_site_symmetry_multiplicity
 _atom_site_fract_x
 _atom_site_fract_y
 _atom_site_fract_z
 _atom_site_occupancy
  Be  Be0  1  0.00000002  0.49812301  0.49812301  1
  Be  Be1  1  0.49999999  0.00867900  0.00867898  1
  Be  Be2  1  0.48123101  0.49291501  0.99695200  1
  Be  Be3  1  0.51876903  0.99695201  0.49291500  1
  Tc  Tc4  1  0.00000004  0.98450801  0.98450803  1
