# generated using pymatgen
data_PrDyYAl2GaSi3
_symmetry_space_group_name_H-M   'P 1'
_cell_length_a   4.18875980
_cell_length_b   5.85940695
_cell_length_c   8.15062428
_cell_angle_alpha   106.50106812
_cell_angle_beta   90.00000000
_cell_angle_gamma   110.94299316
_symmetry_Int_Tables_number   1
_chemical_formula_structural   PrDyYAl2GaSi3
_chemical_formula_sum   'Pr1 Y1 Dy1 Al2 Ga1 Si3'
_cell_volume   177.98057920
_cell_formula_units_Z   1
loop_
 _symmetry_equiv_pos_site_id
 _symmetry_equiv_pos_as_xyz
  1  'x, y, z'
loop_
 _atom_site_type_symbol
 _atom_site_label
 _atom_site_symmetry_multiplicity
 _atom_site_fract_x
 _atom_site_fract_y
 _atom_site_fract_z
 _atom_site_occupancy
  Y  Y0  1  0.38096901  0.76193799  0.30773102  1
  Pr  Pr1  1  0.00000000  0.00000000  0.00000000  1
  Dy  Dy2  1  0.61903103  0.23806200  0.69226898  1
  Al  Al3  1  0.69503803  0.39007600  0.37259800  1
  Al  Al4  1  0.30496201  0.60992399  0.62740200  1
  Si  Si5  1  0.28870701  0.57741399  0.91737498  1
  Ga  Ga6  1  0.89539803  0.79079599  0.60141001  1
  Si  Si7  1  0.71129303  0.42258600  0.08262502  1
  Si  Si8  1  0.10460200  0.20920400  0.39858999  1
