# generated using pymatgen
data_ErSc2GaPd2Rh3
_symmetry_space_group_name_H-M   'P 1'
_cell_length_a   3.31377006
_cell_length_b   7.26666212
_cell_length_c   7.26666212
_cell_angle_alpha   120.00000000
_cell_angle_beta   90.00000000
_cell_angle_gamma   90.00000000
_symmetry_Int_Tables_number   1
_chemical_formula_structural   ErSc2GaPd2Rh3
_chemical_formula_sum   'Er1 Sc2 Ga1 Pd2 Rh3'
_cell_volume   151.53848298
_cell_formula_units_Z   1
loop_
 _symmetry_equiv_pos_site_id
 _symmetry_equiv_pos_as_xyz
  1  'x, y, z'
loop_
 _atom_site_type_symbol
 _atom_site_label
 _atom_site_symmetry_multiplicity
 _atom_site_fract_x
 _atom_site_fract_y
 _atom_site_fract_z
 _atom_site_occupancy
  Er  Er0  1  0.49999999  0.60433899  0.60433900  1
  Sc  Sc1  1  0.49999999  0.99999999  0.39566101  1
  Sc  Sc2  1  0.49999999  0.39566099  0.00000000  1
  Ga  Ga3  1  -0.00000000  0.27063000  0.27063000  1
  Pd  Pd4  1  0.00000000  0.00000000  0.72937000  1
  Pd  Pd5  1  -0.00000000  0.72936999  0.00000001  1
  Rh  Rh6  1  -0.00000000  0.66666666  0.33333334  1
  Rh  Rh7  1  -0.00000000  0.33333333  0.66666667  1
  Rh  Rh8  1  0.49999999  0.00000000  -0.00000000  1
