# generated using pymatgen
data_ErTh4InSn2Pd5Pt
_symmetry_space_group_name_H-M   'P 1'
_cell_length_a   7.56930113
_cell_length_b   7.56930113
_cell_length_c   7.56930113
_cell_angle_alpha   109.47122192
_cell_angle_beta   109.47122192
_cell_angle_gamma   109.47122192
_symmetry_Int_Tables_number   1
_chemical_formula_structural   ErTh4InSn2Pd5Pt
_chemical_formula_sum   'Er1 Th4 In1 Sn2 Pd5 Pt1'
_cell_volume   333.84543162
_cell_formula_units_Z   1
loop_
 _symmetry_equiv_pos_site_id
 _symmetry_equiv_pos_as_xyz
  1  'x, y, z'
loop_
 _atom_site_type_symbol
 _atom_site_label
 _atom_site_symmetry_multiplicity
 _atom_site_fract_x
 _atom_site_fract_y
 _atom_site_fract_z
 _atom_site_occupancy
  Er  Er0  1  0.25000002  0.37500001  0.12500003  1
  Th  Th1  1  0.37500004  0.62500002  0.75000004  1
  Th  Th2  1  0.12500006  0.87500003  0.25000005  1
  Th  Th3  1  0.87500005  0.75000002  0.62500006  1
  Th  Th4  1  0.62500001  0.25000001  0.87500002  1
  In  In5  1  0.75000001  0.12500000  0.37500002  1
  Sn  Sn6  1  0.34990000  0.00000000  0.00000001  1
  Pd  Pd7  1  0.65010004  0.65010002  0.15010005  1
  Pd  Pd8  1  0.50000005  0.84990002  0.50000005  1
  Sn  Sn9  1  0.00000003  0.50000001  0.34990002  1
  Pd  Pd10  1  0.50000002  0.34990001  0.50000003  1
  Pd  Pd11  1  0.00000003  0.50000001  0.84990002  1
  Pd  Pd12  1  0.84990000  0.00000000  0.00000002  1
  Pt  Pt13  1  0.15010001  0.15010000  0.65010001  1
