# generated using pymatgen
data_LiMgFeNi2
_symmetry_space_group_name_H-M   'P 1'
_cell_length_a   4.06995583
_cell_length_b   4.06995583
_cell_length_c   5.61402655
_cell_angle_alpha   111.25263977
_cell_angle_beta   111.25263977
_cell_angle_gamma   90.00000000
_symmetry_Int_Tables_number   1
_chemical_formula_structural   LiMgFeNi2
_chemical_formula_sum   'Li1 Mg1 Fe1 Ni2'
_cell_volume   79.84559443
_cell_formula_units_Z   1
loop_
 _symmetry_equiv_pos_site_id
 _symmetry_equiv_pos_as_xyz
  1  'x, y, z'
loop_
 _atom_site_type_symbol
 _atom_site_label
 _atom_site_symmetry_multiplicity
 _atom_site_fract_x
 _atom_site_fract_y
 _atom_site_fract_z
 _atom_site_occupancy
  Li  Li0  1  0.00000000  0.00000000  0.00000000  1
  Mg  Mg1  1  0.63095700  0.63095701  0.26191395  1
  Fe  Fe2  1  0.36904300  0.36904301  0.73808596  1
  Ni  Ni3  1  0.24999998  0.75000002  0.49999995  1
  Ni  Ni4  1  0.75000001  0.25000001  0.49999996  1
