# generated using pymatgen
data_LaYGaGe3
_symmetry_space_group_name_H-M   'P 1'
_cell_length_a   4.17086983
_cell_length_b   4.17086983
_cell_length_c   7.77393007
_cell_angle_alpha   105.56076050
_cell_angle_beta   105.56076050
_cell_angle_gamma   90.00000000
_symmetry_Int_Tables_number   1
_chemical_formula_structural   LaYGaGe3
_chemical_formula_sum   'La1 Y1 Ga1 Ge3'
_cell_volume   125.12650186
_cell_formula_units_Z   1
loop_
 _symmetry_equiv_pos_site_id
 _symmetry_equiv_pos_as_xyz
  1  'x, y, z'
loop_
 _atom_site_type_symbol
 _atom_site_label
 _atom_site_symmetry_multiplicity
 _atom_site_fract_x
 _atom_site_fract_y
 _atom_site_fract_z
 _atom_site_occupancy
  Y  Y0  1  0.75449906  0.25449902  0.50899804  1
  La  La1  1  0.00449900  0.00449900  0.00899800  1
  Ge  Ge2  1  0.33312505  0.83312505  0.66625005  1
  Ga  Ga3  1  0.58312506  0.58312504  0.16625005  1
  Ge  Ge4  1  0.16597604  0.66597604  0.33195204  1
  Ge  Ge5  1  0.41597604  0.41597603  0.83195204  1
