# generated using pymatgen
data_YbY(In2Au)2
_symmetry_space_group_name_H-M   'P 1'
_cell_length_a   5.18546200
_cell_length_b   6.70313215
_cell_length_c   6.70313168
_cell_angle_alpha   120.00000000
_cell_angle_beta   90.00000000
_cell_angle_gamma   90.00000000
_symmetry_Int_Tables_number   1
_chemical_formula_structural   YbY(In2Au)2
_chemical_formula_sum   'Yb1 Y1 In4 Au2'
_cell_volume   201.77791026
_cell_formula_units_Z   1
loop_
 _symmetry_equiv_pos_site_id
 _symmetry_equiv_pos_as_xyz
  1  'x, y, z'
loop_
 _atom_site_type_symbol
 _atom_site_label
 _atom_site_symmetry_multiplicity
 _atom_site_fract_x
 _atom_site_fract_y
 _atom_site_fract_z
 _atom_site_occupancy
  Y  Y0  1  0.75000000  0.33333332  0.66666663  1
  Yb  Yb1  1  0.25000000  0.66666663  0.33333329  1
  In  In2  1  0.75000000  0.83704596  0.16295395  1
  In  In3  1  0.75000000  0.32590798  0.16295398  1
  In  In4  1  0.75000000  0.83704596  0.67409194  1
  In  In5  1  0.25000000  0.16295399  0.32590798  1
  Au  Au6  1  0.25000000  0.67409197  0.83704594  1
  Au  Au7  1  0.25000000  0.16295399  0.83704597  1
