# generated using pymatgen
data_LaYInSn5SbAu4
_symmetry_space_group_name_H-M   'P 1'
_cell_length_a   6.01356983
_cell_length_b   7.68798733
_cell_length_c   7.81845903
_cell_angle_alpha   81.53941345
_cell_angle_beta   67.38262939
_cell_angle_gamma   67.50669861
_symmetry_Int_Tables_number   1
_chemical_formula_structural   LaYInSn5SbAu4
_chemical_formula_sum   'La1 Y1 In1 Sn5 Sb1 Au4'
_cell_volume   308.28211321
_cell_formula_units_Z   1
loop_
 _symmetry_equiv_pos_site_id
 _symmetry_equiv_pos_as_xyz
  1  'x, y, z'
loop_
 _atom_site_type_symbol
 _atom_site_label
 _atom_site_symmetry_multiplicity
 _atom_site_fract_x
 _atom_site_fract_y
 _atom_site_fract_z
 _atom_site_occupancy
  Y  Y0  1  0.00000000  0.00000000  0.00000000  1
  La  La1  1  0.50082405  0.78232199  0.21244794  1
  In  In2  1  0.49917603  0.21767800  0.78755195  1
  Sn  Sn3  1  0.28672802  0.21767800  0.21244797  1
  Sn  Sn4  1  0.71327206  0.78232199  0.78755192  1
  Au  Au5  1  0.99579706  0.35237100  0.65374493  1
  Au  Au6  1  0.00420302  0.64762899  0.34625496  1
  Au  Au7  1  0.35045804  0.64762899  0.65374494  1
  Au  Au8  1  0.64954204  0.35237100  0.34625495  1
  Sn  Sn9  1  0.00000002  0.50000000  -0.00000002  1
  Sn  Sn10  1  0.00000000  0.00000000  0.49999999  1
  Sb  Sb11  1  0.50000006  0.99999999  0.49999992  1
  Sn  Sn12  1  0.50000004  0.50000000  -0.00000004  1
