# generated using pymatgen
data_KBaNaTl2SeS6
_symmetry_space_group_name_H-M   'P 1'
_cell_length_a   4.21209288
_cell_length_b   8.33166695
_cell_length_c   8.41749382
_cell_angle_alpha   89.99732971
_cell_angle_beta   90.00000000
_cell_angle_gamma   90.00000000
_symmetry_Int_Tables_number   1
_chemical_formula_structural   KBaNaTl2SeS6
_chemical_formula_sum   'K1 Ba1 Na1 Tl2 Se1 S6'
_cell_volume   295.40146547
_cell_formula_units_Z   1
loop_
 _symmetry_equiv_pos_site_id
 _symmetry_equiv_pos_as_xyz
  1  'x, y, z'
loop_
 _atom_site_type_symbol
 _atom_site_label
 _atom_site_symmetry_multiplicity
 _atom_site_fract_x
 _atom_site_fract_y
 _atom_site_fract_z
 _atom_site_occupancy
  Na  Na0  1  0.75430802  0.26974200  0.37489500  1
  Ba  Ba1  1  0.25430801  0.73025800  0.12510498  1
  K  K2  1  0.24569201  0.73025800  0.62510499  1
  Tl  Tl3  1  0.74569202  0.26974200  0.87489501  1
  Tl  Tl4  1  0.74127302  0.99996201  0.62489998  1
  S  S5  1  0.24127301  0.00003800  0.87510002  1
  S  S6  1  0.25872701  0.00003800  0.37510001  1
  Se  Se7  1  0.75872702  0.99996201  0.12489997  1
  S  S8  1  0.74907102  0.63570400  0.87504200  1
  S  S9  1  0.24907101  0.36429600  0.62495800  1
  S  S10  1  0.25092901  0.36429600  0.12495799  1
  S  S11  1  0.75092902  0.63570400  0.37504199  1
