# generated using pymatgen
data_ErScIn2Sn2PdAu2
_symmetry_space_group_name_H-M   'P 1'
_cell_length_a   3.58263707
_cell_length_b   7.75053787
_cell_length_c   7.75053835
_cell_angle_alpha   120.00000000
_cell_angle_beta   90.00000000
_cell_angle_gamma   90.00000000
_symmetry_Int_Tables_number   1
_chemical_formula_structural   ErScIn2Sn2PdAu2
_chemical_formula_sum   'Er1 Sc1 In2 Sn2 Pd1 Au2'
_cell_volume   186.37907817
_cell_formula_units_Z   1
loop_
 _symmetry_equiv_pos_site_id
 _symmetry_equiv_pos_as_xyz
  1  'x, y, z'
loop_
 _atom_site_type_symbol
 _atom_site_label
 _atom_site_symmetry_multiplicity
 _atom_site_fract_x
 _atom_site_fract_y
 _atom_site_fract_z
 _atom_site_occupancy
  Er  Er0  1  0.49999999  0.76097602  0.76097599  1
  Sc  Sc1  1  0.49999999  0.00000000  0.23902399  1
  In  In2  1  0.49999999  0.23902401  0.00000000  1
  In  In3  1  -0.00000000  0.39742901  0.39742900  1
  Sn  Sn4  1  0.99999998  0.00000000  0.60257099  1
  Sn  Sn5  1  -0.00000000  0.60257101  0.00000001  1
  Pd  Pd6  1  0.00000000  0.00000000  0.00000000  1
  Au  Au7  1  0.49999999  0.66666668  0.33333334  1
  Au  Au8  1  0.49999999  0.33333334  0.66666666  1
