# generated using pymatgen
data_AlZnGePd2
_symmetry_space_group_name_H-M   'P 1'
_cell_length_a   3.93057895
_cell_length_b   3.93056822
_cell_length_c   10.56066418
_cell_angle_alpha   90.00000000
_cell_angle_beta   89.99948120
_cell_angle_gamma   119.99990845
_symmetry_Int_Tables_number   1
_chemical_formula_structural   AlZnGePd2
_chemical_formula_sum   'Al1 Zn1 Ge1 Pd2'
_cell_volume   141.29738575
_cell_formula_units_Z   1
loop_
 _symmetry_equiv_pos_site_id
 _symmetry_equiv_pos_as_xyz
  1  'x, y, z'
loop_
 _atom_site_type_symbol
 _atom_site_label
 _atom_site_symmetry_multiplicity
 _atom_site_fract_x
 _atom_site_fract_y
 _atom_site_fract_z
 _atom_site_occupancy
  Al  Al0  1  0.33333333  0.66666667  0.78452200  1
  Zn  Zn1  1  0.66666666  0.33333333  0.21547801  1
  Ge  Ge2  1  0.00000000  0.00000000  0.49999999  1
  Pd  Pd3  1  0.33333333  0.66666667  0.33925600  1
  Pd  Pd4  1  0.66666666  0.33333333  0.66074400  1
