# generated using pymatgen
data_Li2O2
_symmetry_space_group_name_H-M   'P 1'
_cell_length_a   2.91045594
_cell_length_b   5.90781546
_cell_length_c   10.53510189
_cell_angle_alpha   98.03600311
_cell_angle_beta   97.93972778
_cell_angle_gamma   90.00000000
_symmetry_Int_Tables_number   1
_chemical_formula_structural   Li2O2
_chemical_formula_sum   'Li10 O10'
_cell_volume   177.61251159
_cell_formula_units_Z   5
loop_
 _symmetry_equiv_pos_site_id
 _symmetry_equiv_pos_as_xyz
  1  'x, y, z'
loop_
 _atom_site_type_symbol
 _atom_site_label
 _atom_site_symmetry_multiplicity
 _atom_site_fract_x
 _atom_site_fract_y
 _atom_site_fract_z
 _atom_site_occupancy
  Li  Li0  1  0.09306198  0.79037099  0.18612398  1
  Li  Li1  1  0.29970199  0.40072700  0.59940401  1
  Li  Li2  1  0.49999998  0.99999999  1.00000000  1
  Li  Li3  1  0.70029799  0.59927299  0.40059599  1
  Li  Li4  1  0.90693801  0.20962900  0.81387602  1
  Li  Li5  1  0.49999999  0.49999999  1.00000002  1
  Li  Li6  1  0.90468399  0.69728499  0.80936800  1
  Li  Li7  1  0.09531599  0.30271500  0.19063200  1
  Li  Li8  1  0.29979298  0.89849899  0.59958599  1
  Li  Li9  1  0.70020701  0.10150100  0.40041401  1
  O  O10  1  0.19531199  0.33142400  0.39062400  1
  O  O11  1  0.39832998  0.92073399  0.79666000  1
  O  O12  1  0.60093299  0.52178999  0.20186598  1
  O  O13  1  0.79864001  0.13415700  0.59728001  1
  O  O14  1  0.99220599  0.74692799  0.98441200  1
  O  O15  1  0.00779399  0.25307200  0.01558799  1
  O  O16  1  0.20135998  0.86584299  0.40271998  1
  O  O17  1  0.39906699  0.47820999  0.79813401  1
  O  O18  1  0.60167001  0.07926600  0.20334000  1
  O  O19  1  0.80468799  0.66857599  0.60937599  1
