# generated using pymatgen
data_DyY3Er6Ga5Ge
_symmetry_space_group_name_H-M   'P 1'
_cell_length_a   6.57965708
_cell_length_b   8.65025616
_cell_length_c   8.65025616
_cell_angle_alpha   60.00000000
_cell_angle_beta   90.00000000
_cell_angle_gamma   90.00000000
_symmetry_Int_Tables_number   1
_chemical_formula_structural   DyY3Er6Ga5Ge
_chemical_formula_sum   'Dy1 Y3 Er6 Ga5 Ge1'
_cell_volume   426.37509347
_cell_formula_units_Z   1
loop_
 _symmetry_equiv_pos_site_id
 _symmetry_equiv_pos_as_xyz
  1  'x, y, z'
loop_
 _atom_site_type_symbol
 _atom_site_label
 _atom_site_symmetry_multiplicity
 _atom_site_fract_x
 _atom_site_fract_y
 _atom_site_fract_z
 _atom_site_occupancy
  Er  Er0  1  0.99999999  0.33333333  0.33333333  1
  Dy  Dy1  1  0.49999999  0.66666667  0.66666667  1
  Y  Y2  1  -0.00000000  0.66666667  0.66666667  1
  Er  Er3  1  0.49999999  0.33333333  0.33333333  1
  Y  Y4  1  0.74999999  0.00000000  0.74946903  1
  Er  Er5  1  0.25000000  0.74946900  -0.00000003  1
  Y  Y6  1  0.25000000  0.25053100  0.74946902  1
  Er  Er7  1  0.74999999  0.74946900  0.25053098  1
  Er  Er8  1  0.74999999  0.25053100  -0.00000001  1
  Er  Er9  1  0.25000000  0.00000000  0.25053101  1
  Ga  Ga10  1  0.74999999  0.00000000  0.39520301  1
  Ga  Ga11  1  0.25000000  0.39520300  -0.00000001  1
  Ge  Ge12  1  0.25000000  0.60479700  0.39520299  1
  Ga  Ga13  1  0.74999999  0.39520300  0.60479701  1
  Ga  Ga14  1  0.74999999  0.60479700  -0.00000002  1
  Ga  Ga15  1  0.25000000  0.00000000  0.60479702  1
