# generated using pymatgen
data_KNa2Li2TlClO7
_symmetry_space_group_name_H-M   'P 1'
_cell_length_a   4.97168589
_cell_length_b   6.49927330
_cell_length_c   6.49927330
_cell_angle_alpha   69.93331146
_cell_angle_beta   67.51260376
_cell_angle_gamma   67.51260376
_symmetry_Int_Tables_number   1
_chemical_formula_structural   KNa2Li2TlClO7
_chemical_formula_sum   'K1 Na2 Li2 Tl1 Cl1 O7'
_cell_volume   174.45480300
_cell_formula_units_Z   1
loop_
 _symmetry_equiv_pos_site_id
 _symmetry_equiv_pos_as_xyz
  1  'x, y, z'
loop_
 _atom_site_type_symbol
 _atom_site_label
 _atom_site_symmetry_multiplicity
 _atom_site_fract_x
 _atom_site_fract_y
 _atom_site_fract_z
 _atom_site_occupancy
  K  K0  1  0.14470596  0.51022602  0.20036204  1
  Na  Na1  1  0.85529399  0.48977401  0.79963803  1
  Na  Na2  1  0.35529494  0.79963802  0.48977307  1
  Li  Li3  1  0.64470501  0.20036201  0.51022700  1
  Li  Li4  1  0.24999991  1.00000003  1.00000011  1
  Tl  Tl5  1  0.75000004  0.00000000  -0.00000004  1
  Cl  Cl6  1  0.42179600  0.24504401  0.91136403  1
  O  O7  1  0.57820395  0.75495602  0.08863604  1
  O  O8  1  0.07820299  0.08863600  0.75495703  1
  O  O9  1  0.92179695  0.91136403  0.24504304  1
  O  O10  1  0.37009997  0.46960801  0.79019205  1
  O  O11  1  0.62989998  0.53039202  0.20980802  1
  O  O12  1  0.87009996  0.79019202  0.46960804  1
  O  O13  1  0.12989998  0.20980801  0.53039203  1
