# generated using pymatgen
data_YErAl3Si4Ge
_symmetry_space_group_name_H-M   'P 1'
_cell_length_a   4.33786917
_cell_length_b   4.34412813
_cell_length_c   10.14790535
_cell_angle_alpha   89.57971191
_cell_angle_beta   90.00000000
_cell_angle_gamma   90.00000000
_symmetry_Int_Tables_number   1
_chemical_formula_structural   YErAl3Si4Ge
_chemical_formula_sum   'Y1 Er1 Al3 Si4 Ge1'
_cell_volume   191.22461676
_cell_formula_units_Z   1
loop_
 _symmetry_equiv_pos_site_id
 _symmetry_equiv_pos_as_xyz
  1  'x, y, z'
loop_
 _atom_site_type_symbol
 _atom_site_label
 _atom_site_symmetry_multiplicity
 _atom_site_fract_x
 _atom_site_fract_y
 _atom_site_fract_z
 _atom_site_occupancy
  Y  Y0  1  0.49999998  0.75345798  0.25313698  1
  Er  Er1  1  0.00000000  0.25250399  0.75371697  1
  Al  Al2  1  -0.00000000  0.73674798  0.50003897  1
  Al  Al3  1  0.49999998  0.23962899  0.50163098  1
  Al  Al4  1  0.49999998  0.76637298  0.86474496  1
  Si  Si5  1  -0.00000000  0.26894399  0.13149699  1
  Si  Si6  1  0.49999998  0.73763698  0.62563097  1
  Si  Si7  1  -0.00000000  0.23887499  0.37313798  1
  Ge  Ge8  1  -0.00000000  0.77251898  0.99845895  1
  Si  Si9  1  0.49999998  0.26531199  0.99800496  1
