# generated using pymatgen
data_Cu3PdSeS2
_symmetry_space_group_name_H-M   'P 1'
_cell_length_a   3.39550400
_cell_length_b   6.19322014
_cell_length_c   6.69683599
_cell_angle_alpha   115.82635498
_cell_angle_beta   104.68563843
_cell_angle_gamma   90.00000000
_symmetry_Int_Tables_number   1
_chemical_formula_structural   Cu3PdSeS2
_chemical_formula_sum   'Cu3 Pd1 Se1 S2'
_cell_volume   121.63072590
_cell_formula_units_Z   1
loop_
 _symmetry_equiv_pos_site_id
 _symmetry_equiv_pos_as_xyz
  1  'x, y, z'
loop_
 _atom_site_type_symbol
 _atom_site_label
 _atom_site_symmetry_multiplicity
 _atom_site_fract_x
 _atom_site_fract_y
 _atom_site_fract_z
 _atom_site_occupancy
  Cu  Cu0  1  0.74525593  0.68740296  0.49051193  1
  Cu  Cu1  1  0.25474397  0.31259698  0.50948796  1
  Pd  Pd2  1  0.00000000  0.00000000  0.00000000  1
  Cu  Cu3  1  0.63938991  0.97786094  0.27877992  1
  Se  Se4  1  0.36060999  0.02213900  0.72121997  1
  S  S5  1  0.89515394  0.55345497  0.79030792  1
  S  S6  1  0.10484596  0.44654497  0.20969197  1
