# generated using pymatgen
data_Mn2FeNi5
_symmetry_space_group_name_H-M   'P 1'
_cell_length_a   3.41687107
_cell_length_b   5.42880011
_cell_length_c   5.90945721
_cell_angle_alpha   90.00000000
_cell_angle_beta   90.00000000
_cell_angle_gamma   90.00000000
_symmetry_Int_Tables_number   1
_chemical_formula_structural   Mn2FeNi5
_chemical_formula_sum   'Mn2 Fe1 Ni5'
_cell_volume   109.61753574
_cell_formula_units_Z   1
loop_
 _symmetry_equiv_pos_site_id
 _symmetry_equiv_pos_as_xyz
  1  'x, y, z'
loop_
 _atom_site_type_symbol
 _atom_site_label
 _atom_site_symmetry_multiplicity
 _atom_site_fract_x
 _atom_site_fract_y
 _atom_site_fract_z
 _atom_site_occupancy
  Mn  Mn0  1  0.49999999  0.32391199  0.69286298  1
  Mn  Mn1  1  0.49999999  0.82391198  0.30713699  1
  Ni  Ni2  1  0.00000000  0.67879399  0.84858897  1
  Fe  Fe3  1  0.00000000  0.17879400  0.15141099  1
  Ni  Ni4  1  0.49999999  0.49293199  0.05419500  1
  Ni  Ni5  1  0.49999999  0.99293198  0.94580497  1
  Ni  Ni6  1  0.00000000  0.50436199  0.43185598  1
  Ni  Ni7  1  0.00000000  0.00436200  0.56814398  1
