# generated using pymatgen
data_LiEuGaCu3
_symmetry_space_group_name_H-M   'P 1'
_cell_length_a   4.13277817
_cell_length_b   4.13277817
_cell_length_c   7.00211191
_cell_angle_alpha   90.00000000
_cell_angle_beta   90.00000000
_cell_angle_gamma   90.00000000
_symmetry_Int_Tables_number   1
_chemical_formula_structural   LiEuGaCu3
_chemical_formula_sum   'Li1 Eu1 Ga1 Cu3'
_cell_volume   119.59505883
_cell_formula_units_Z   1
loop_
 _symmetry_equiv_pos_site_id
 _symmetry_equiv_pos_as_xyz
  1  'x, y, z'
loop_
 _atom_site_type_symbol
 _atom_site_label
 _atom_site_symmetry_multiplicity
 _atom_site_fract_x
 _atom_site_fract_y
 _atom_site_fract_z
 _atom_site_occupancy
  Li  Li0  1  0.49999998  0.00000000  0.64310801  1
  Eu  Eu1  1  0.00000000  0.49999998  0.35689200  1
  Ga  Ga2  1  0.49999998  0.49999998  0.00000000  1
  Cu  Cu3  1  0.00000000  0.00000000  0.00000000  1
  Cu  Cu4  1  0.49999998  0.00000000  0.20401500  1
  Cu  Cu5  1  0.00000000  0.49999998  0.79598501  1
