# generated using pymatgen
data_La2ErIn3SnAu2
_symmetry_space_group_name_H-M   'P 1'
_cell_length_a   3.85509300
_cell_length_b   7.96080399
_cell_length_c   7.96080446
_cell_angle_alpha   120.00000000
_cell_angle_beta   90.00000000
_cell_angle_gamma   90.00000000
_symmetry_Int_Tables_number   1
_chemical_formula_structural   La2ErIn3SnAu2
_chemical_formula_sum   'La2 Er1 In3 Sn1 Au2'
_cell_volume   211.58232187
_cell_formula_units_Z   1
loop_
 _symmetry_equiv_pos_site_id
 _symmetry_equiv_pos_as_xyz
  1  'x, y, z'
loop_
 _atom_site_type_symbol
 _atom_site_label
 _atom_site_symmetry_multiplicity
 _atom_site_fract_x
 _atom_site_fract_y
 _atom_site_fract_z
 _atom_site_occupancy
  Er  Er0  1  0.50000000  0.00000000  0.59698000  1
  La  La1  1  0.50000000  0.40302001  0.40302001  1
  La  La2  1  0.50000000  0.59698001  1.00000002  1
  In  In3  1  -0.00000000  0.00000000  0.26566000  1
  In  In4  1  -0.00000000  0.73434001  0.73434002  1
  In  In5  1  -0.00000000  0.26566001  1.00000001  1
  Sn  Sn6  1  0.50000000  0.00000000  -0.00000000  1
  Au  Au7  1  -0.00000000  0.33333334  0.66666668  1
  Au  Au8  1  -0.00000000  0.66666668  0.33333336  1
