# generated using pymatgen
data_Na4Cu2PO3
_symmetry_space_group_name_H-M   'P 1'
_cell_length_a   7.16979218
_cell_length_b   8.12517166
_cell_length_c   10.43252754
_cell_angle_alpha   90.00000000
_cell_angle_beta   91.16260529
_cell_angle_gamma   90.00000000
_symmetry_Int_Tables_number   1
_chemical_formula_structural   Na4Cu2PO3
_chemical_formula_sum   'Na8 Cu4 P2 O6'
_cell_volume   607.63004344
_cell_formula_units_Z   2
loop_
 _symmetry_equiv_pos_site_id
 _symmetry_equiv_pos_as_xyz
  1  'x, y, z'
loop_
 _atom_site_type_symbol
 _atom_site_label
 _atom_site_symmetry_multiplicity
 _atom_site_fract_x
 _atom_site_fract_y
 _atom_site_fract_z
 _atom_site_occupancy
  Na  Na0  1  0.54041099  0.09741800  0.24820500  1
  Na  Na1  1  0.95958898  0.59741802  0.25179500  1
  Na  Na2  1  0.45958899  0.90258204  0.75179501  1
  Na  Na3  1  0.04041100  0.40258202  0.74820501  1
  Na  Na4  1  0.04776600  0.10798100  0.43954400  1
  Na  Na5  1  0.45223399  0.60798103  0.06045600  1
  Na  Na6  1  0.95223398  0.89201904  0.56045600  1
  Na  Na7  1  0.54776599  0.39201902  0.93954401  1
  O  O8  1  0.57207399  0.48622502  0.74270800  1
  P  P9  1  0.92792598  0.98622504  0.75729200  1
  Cu  Cu10  1  0.42792599  0.51377502  0.25729200  1
  P  P11  1  0.07207400  0.01377500  0.24270800  1
  Cu  Cu12  1  0.81042298  0.29999801  0.02866800  1
  O  O13  1  0.68957698  0.79999803  0.47133200  1
  O  O14  1  0.18957700  0.70000203  0.97133201  1
  Cu  Cu15  1  0.31042299  0.20000201  0.52866800  1
  Cu  Cu16  1  0.32511199  0.20609001  0.95867001  1
  O  O17  1  0.17488800  0.70609003  0.54133000  1
  O  O18  1  0.67488798  0.79391003  0.04133000  1
  O  O19  1  0.82511198  0.29391001  0.45867000  1
