# generated using pymatgen
data_NaLiMg2SbAsAu6
_symmetry_space_group_name_H-M   'P 1'
_cell_length_a   7.55555296
_cell_length_b   7.55555296
_cell_length_c   8.15482140
_cell_angle_alpha   62.40254211
_cell_angle_beta   62.40254211
_cell_angle_gamma   60.00000763
_symmetry_Int_Tables_number   1
_chemical_formula_structural   NaLiMg2SbAsAu6
_chemical_formula_sum   'Na1 Li1 Mg2 Sb1 As1 Au6'
_cell_volume   340.63041239
_cell_formula_units_Z   1
loop_
 _symmetry_equiv_pos_site_id
 _symmetry_equiv_pos_as_xyz
  1  'x, y, z'
loop_
 _atom_site_type_symbol
 _atom_site_label
 _atom_site_symmetry_multiplicity
 _atom_site_fract_x
 _atom_site_fract_y
 _atom_site_fract_z
 _atom_site_occupancy
  Li  Li0  1  0.80045202  0.80045202  0.59864398  1
  Na  Na1  1  0.19954800  0.19954800  0.40135600  1
  Mg  Mg2  1  0.00000000  0.00000000  0.00000000  1
  Mg  Mg3  1  0.50000001  0.50000001  -0.00000002  1
  Au  Au4  1  0.00000000  0.50000001  -0.00000001  1
  Au  Au5  1  0.50000001  0.00000000  -0.00000001  1
  Au  Au6  1  0.76963002  0.76963002  0.17785397  1
  Au  Au7  1  0.76963002  0.28288601  0.17785398  1
  Au  Au8  1  0.28288601  0.76963002  0.17785398  1
  As  As9  1  0.23037001  0.71711402  0.82214601  1
  Sb  Sb10  1  0.23037001  0.23037001  0.82214602  1
  Au  Au11  1  0.71711402  0.23037001  0.82214601  1
