# generated using pymatgen
data_NaLi3Cu
_symmetry_space_group_name_H-M   'P 1'
_cell_length_a   4.23104620
_cell_length_b   5.35382986
_cell_length_c   7.58832502
_cell_angle_alpha   110.65668488
_cell_angle_beta   106.18779755
_cell_angle_gamma   90.00000000
_symmetry_Int_Tables_number   1
_chemical_formula_structural   NaLi3Cu
_chemical_formula_sum   'Na1 Li3 Cu1'
_cell_volume   153.53743489
_cell_formula_units_Z   1
loop_
 _symmetry_equiv_pos_site_id
 _symmetry_equiv_pos_as_xyz
  1  'x, y, z'
loop_
 _atom_site_type_symbol
 _atom_site_label
 _atom_site_symmetry_multiplicity
 _atom_site_fract_x
 _atom_site_fract_y
 _atom_site_fract_z
 _atom_site_occupancy
  Li  Li0  1  0.66515897  0.16515900  0.33031801  1
  Li  Li1  1  0.33484099  0.83484102  0.66968200  1
  Na  Na2  1  0.00000000  0.00000000  0.00000000  1
  Li  Li3  1  0.29447399  0.29447401  0.58894800  1
  Cu  Cu4  1  0.70552598  0.70552601  0.41105200  1
