# generated using pymatgen
data_ZrUTl5CuS12
_symmetry_space_group_name_H-M   'P 1'
_cell_length_a   4.05800200
_cell_length_b   7.51306009
_cell_length_c   15.68326378
_cell_angle_alpha   90.00000000
_cell_angle_beta   90.00000000
_cell_angle_gamma   90.00000000
_symmetry_Int_Tables_number   1
_chemical_formula_structural   ZrUTl5CuS12
_chemical_formula_sum   'Zr1 U1 Tl5 Cu1 S12'
_cell_volume   478.15154756
_cell_formula_units_Z   1
loop_
 _symmetry_equiv_pos_site_id
 _symmetry_equiv_pos_as_xyz
  1  'x, y, z'
loop_
 _atom_site_type_symbol
 _atom_site_label
 _atom_site_symmetry_multiplicity
 _atom_site_fract_x
 _atom_site_fract_y
 _atom_site_fract_z
 _atom_site_occupancy
  Cu  Cu0  1  0.75000000  0.23530300  0.54401701  1
  Tl  Tl1  1  0.25000000  0.76469699  0.45598301  1
  Zr  Zr2  1  0.75000000  0.73530299  0.95598301  1
  U  U3  1  0.25000000  0.26469700  0.04401700  1
  Tl  Tl4  1  0.25000000  0.14488400  0.79563201  1
  Tl  Tl5  1  0.75000000  0.85511599  0.20436800  1
  Tl  Tl6  1  0.25000000  0.64488399  0.70436801  1
  Tl  Tl7  1  0.75000000  0.35511600  0.29563200  1
  S  S8  1  0.25000000  0.00963500  0.60911801  1
  S  S9  1  0.75000000  0.99036499  0.39088201  1
  S  S10  1  0.25000000  0.50963499  0.89088201  1
  S  S11  1  0.75000000  0.49036499  0.10911800  1
  S  S12  1  0.75000000  0.35444500  0.71888001  1
  S  S13  1  0.25000000  0.64555499  0.28112000  1
  S  S14  1  0.75000000  0.85444499  0.78112001  1
  S  S15  1  0.25000000  0.14555500  0.21888000  1
  S  S16  1  0.25000000  0.37403200  0.43255301  1
  S  S17  1  0.75000000  0.62596799  0.56744701  1
  S  S18  1  0.25000000  0.87403199  0.06744700  1
  S  S19  1  0.75000000  0.12596800  0.93255301  1
