# generated using pymatgen
data_SrLiCu2
_symmetry_space_group_name_H-M   'P 1'
_cell_length_a   4.20023060
_cell_length_b   4.20023060
_cell_length_c   7.06075764
_cell_angle_alpha   72.69640350
_cell_angle_beta   72.69640350
_cell_angle_gamma   59.99998856
_symmetry_Int_Tables_number   1
_chemical_formula_structural   SrLiCu2
_chemical_formula_sum   'Sr1 Li1 Cu2'
_cell_volume   101.31485596
_cell_formula_units_Z   1
loop_
 _symmetry_equiv_pos_site_id
 _symmetry_equiv_pos_as_xyz
  1  'x, y, z'
loop_
 _atom_site_type_symbol
 _atom_site_label
 _atom_site_symmetry_multiplicity
 _atom_site_fract_x
 _atom_site_fract_y
 _atom_site_fract_z
 _atom_site_occupancy
  Li  Li0  1  0.00000000  0.00000000  0.00000000  1
  Sr  Sr1  1  0.49999998  0.50000001  0.50000002  1
  Cu  Cu2  1  0.25416099  0.25416100  0.23751701  1
  Cu  Cu3  1  0.74583897  0.74583901  0.76248303  1
