# generated using pymatgen
data_CeYErIn4Ga(GePd2)2
_symmetry_space_group_name_H-M   'P 1'
_cell_length_a   4.62248182
_cell_length_b   7.18533993
_cell_length_c   10.01309299
_cell_angle_alpha   90.00000000
_cell_angle_beta   103.34546661
_cell_angle_gamma   90.00000000
_symmetry_Int_Tables_number   1
_chemical_formula_structural   CeYErIn4Ga(GePd2)2
_chemical_formula_sum   'Ce1 Y1 Er1 In4 Ga1 Ge2 Pd4'
_cell_volume   323.59502850
_cell_formula_units_Z   1
loop_
 _symmetry_equiv_pos_site_id
 _symmetry_equiv_pos_as_xyz
  1  'x, y, z'
loop_
 _atom_site_type_symbol
 _atom_site_label
 _atom_site_symmetry_multiplicity
 _atom_site_fract_x
 _atom_site_fract_y
 _atom_site_fract_z
 _atom_site_occupancy
  Er  Er0  1  0.44419002  0.75198601  0.88838004  1
  Ce  Ce1  1  0.55581003  0.25198600  0.11162002  1
  In  In2  1  0.65394203  0.73884401  0.30788403  1
  Y  Y3  1  0.34605802  0.23884400  0.69211603  1
  In  In4  1  0.80960504  0.94934901  0.61921004  1
  Ga  Ga5  1  0.19039501  0.44934900  0.38079002  1
  In  In6  1  0.19088101  0.05638500  0.38176202  1
  In  In7  1  0.80911904  0.55638501  0.61823804  1
  Ge  Ge8  1  0.27837201  0.75104001  0.55674403  1
  Ge  Ge9  1  0.72162804  0.25104000  0.44325603  1
  Pd  Pd10  1  0.94678005  0.41787400  0.89356005  1
  Pd  Pd11  1  0.05259000  0.58452201  0.10518000  1
  Pd  Pd12  1  0.94741005  0.08452200  0.89482005  1
  Pd  Pd13  1  0.05322000  0.91787401  0.10644000  1
