# generated using pymatgen
data_BaLa2CeIn2Sn2(PdAu)2
_symmetry_space_group_name_H-M   'P 1'
_cell_length_a   4.56130600
_cell_length_b   7.59582901
_cell_length_c   8.71319771
_cell_angle_alpha   90.00000000
_cell_angle_beta   90.00000000
_cell_angle_gamma   90.00000000
_symmetry_Int_Tables_number   1
_chemical_formula_structural   BaLa2CeIn2Sn2(PdAu)2
_chemical_formula_sum   'Ba1 La2 Ce1 In2 Sn2 Pd2 Au2'
_cell_volume   301.88529348
_cell_formula_units_Z   1
loop_
 _symmetry_equiv_pos_site_id
 _symmetry_equiv_pos_as_xyz
  1  'x, y, z'
loop_
 _atom_site_type_symbol
 _atom_site_label
 _atom_site_symmetry_multiplicity
 _atom_site_fract_x
 _atom_site_fract_y
 _atom_site_fract_z
 _atom_site_occupancy
  Ba  Ba0  1  0.25000000  0.02977100  0.31950801  1
  La  La1  1  0.25000000  0.52977100  0.18049201  1
  Ce  Ce2  1  0.75000000  0.97022900  0.68049202  1
  La  La3  1  0.75000000  0.47022900  0.81950803  1
  In  In4  1  0.25000000  0.14496700  0.93439003  1
  In  In5  1  0.25000000  0.64496700  0.56561002  1
  Sn  Sn6  1  0.75000000  0.85503300  0.06561000  1
  Sn  Sn7  1  0.75000000  0.35503300  0.43439001  1
  Pd  Pd8  1  0.25000000  0.26964900  0.62298102  1
  Pd  Pd9  1  0.25000000  0.76964900  0.87701903  1
  Au  Au10  1  0.75000000  0.73035100  0.37701901  1
  Au  Au11  1  0.75000000  0.23035100  0.12298100  1
