# generated using pymatgen
data_Li4Fe(CuO2)3
_symmetry_space_group_name_H-M   'P 1'
_cell_length_a   5.42292213
_cell_length_b   5.47258043
_cell_length_c   5.89679956
_cell_angle_alpha   63.57776260
_cell_angle_beta   64.33871460
_cell_angle_gamma   60.97611237
_symmetry_Int_Tables_number   1
_chemical_formula_structural   Li4Fe(CuO2)3
_chemical_formula_sum   'Li4 Fe1 Cu3 O6'
_cell_volume   131.66466548
_cell_formula_units_Z   1
loop_
 _symmetry_equiv_pos_site_id
 _symmetry_equiv_pos_as_xyz
  1  'x, y, z'
loop_
 _atom_site_type_symbol
 _atom_site_label
 _atom_site_symmetry_multiplicity
 _atom_site_fract_x
 _atom_site_fract_y
 _atom_site_fract_z
 _atom_site_occupancy
  Li  Li0  1  0.10461301  0.73980999  0.62059198  1
  Li  Li1  1  0.47608598  0.14393200  0.61853801  1
  Li  Li2  1  0.34824699  0.34576300  0.99294599  1
  Li  Li3  1  0.62348998  0.64101599  0.05133900  1
  Cu  Cu4  1  0.49824499  0.90144999  0.36704999  1
  Cu  Cu5  1  0.91225896  0.23992100  0.35521802  1
  Fe  Fe6  1  0.79230097  0.49963699  0.62534401  1
  Cu  Cu7  1  0.00476402  0.98638299  0.00640597  1
  O  O8  1  0.08703600  0.36281700  0.79175998  1
  O  O9  1  0.23480101  0.91744899  0.23510198  1
  O  O10  1  0.63382498  0.21798100  0.23175302  1
  O  O11  1  0.38054600  0.76586899  0.76623498  1
  O  O12  1  0.78334497  0.09453100  0.74747502  1
  O  O13  1  0.89134297  0.63243899  0.23294201  1
