# generated using pymatgen
data_TiZnCu3Se6S
_symmetry_space_group_name_H-M   'P 1'
_cell_length_a   3.83325791
_cell_length_b   8.54258728
_cell_length_c   9.90234852
_cell_angle_alpha   104.43334198
_cell_angle_beta   90.00000000
_cell_angle_gamma   102.96534729
_symmetry_Int_Tables_number   1
_chemical_formula_structural   TiZnCu3Se6S
_chemical_formula_sum   'Ti1 Zn1 Cu3 Se6 S1'
_cell_volume   305.48388146
_cell_formula_units_Z   1
loop_
 _symmetry_equiv_pos_site_id
 _symmetry_equiv_pos_as_xyz
  1  'x, y, z'
loop_
 _atom_site_type_symbol
 _atom_site_label
 _atom_site_symmetry_multiplicity
 _atom_site_fract_x
 _atom_site_fract_y
 _atom_site_fract_z
 _atom_site_occupancy
  Cu  Cu0  1  0.25981307  0.51962599  0.21004397  1
  Ti  Ti1  1  0.74018707  0.48037399  0.78995597  1
  S  S2  1  0.36929610  0.73859198  0.07971196  1
  Cu  Cu3  1  0.63070405  0.26140799  0.92028798  1
  Cu  Cu4  1  0.93255012  0.86509998  0.40864295  1
  Zn  Zn5  1  0.06745002  0.13490000  0.59135699  1
  Se  Se6  1  0.66110305  0.32220599  0.17980498  1
  Se  Se7  1  0.33889709  0.67779399  0.82019496  1
  Se  Se8  1  0.96329913  0.92659798  0.17261395  1
  Se  Se9  1  0.03670101  0.07340200  0.82738599  1
  Se  Se10  1  0.34645309  0.69290599  0.45388396  1
  Se  Se11  1  0.65354705  0.30709399  0.54611598  1
