# generated using pymatgen
data_K4CuCl5
_symmetry_space_group_name_H-M   'P 1'
_cell_length_a   4.29588509
_cell_length_b   9.53244591
_cell_length_c   15.15506077
_cell_angle_alpha   90.00000000
_cell_angle_beta   90.00000000
_cell_angle_gamma   96.13911438
_symmetry_Int_Tables_number   1
_chemical_formula_structural   K4CuCl5
_chemical_formula_sum   'K8 Cu2 Cl10'
_cell_volume   617.04510665
_cell_formula_units_Z   2
loop_
 _symmetry_equiv_pos_site_id
 _symmetry_equiv_pos_as_xyz
  1  'x, y, z'
loop_
 _atom_site_type_symbol
 _atom_site_label
 _atom_site_symmetry_multiplicity
 _atom_site_fract_x
 _atom_site_fract_y
 _atom_site_fract_z
 _atom_site_occupancy
  K  K0  1  0.76874798  0.34023500  0.04846600  1
  K  K1  1  0.23125200  0.15976500  0.54846601  1
  K  K2  1  0.23125199  0.65976500  0.95153401  1
  K  K3  1  0.76874798  0.84023501  0.45153401  1
  K  K4  1  0.24291399  0.46501900  0.33495601  1
  K  K5  1  0.75708598  0.03498100  0.83495601  1
  K  K6  1  0.75708598  0.53498100  0.66504401  1
  K  K7  1  0.24291399  0.96501901  0.16504400  1
  Cu  Cu8  1  0.74779798  0.72604200  0.30181000  1
  Cu  Cu9  1  0.25220199  0.77395801  0.80181001  1
  Cl  Cl10  1  0.25220199  0.27395800  0.69819001  1
  Cl  Cl11  1  0.74779798  0.22604200  0.19819000  1
  Cl  Cl12  1  0.80007398  0.97071901  0.59929801  1
  Cl  Cl13  1  0.19992600  0.52928100  0.09929800  1
  Cl  Cl14  1  0.19992600  0.02928100  0.40070201  1
  Cl  Cl15  1  0.80007398  0.47071900  0.90070201  1
  Cl  Cl16  1  0.30753599  0.67408200  0.50747801  1
  Cl  Cl17  1  0.69246399  0.82591801  0.00747800  1
  Cl  Cl18  1  0.69246399  0.32591800  0.49252201  1
  Cl  Cl19  1  0.30753599  0.17408200  0.99252202  1
