# generated using pymatgen
data_LaIn4Sn
_symmetry_space_group_name_H-M   'P 1'
_cell_length_a   5.42343092
_cell_length_b   5.79177189
_cell_length_c   6.09817076
_cell_angle_alpha   61.64860535
_cell_angle_beta   90.00000000
_cell_angle_gamma   90.00000000
_symmetry_Int_Tables_number   1
_chemical_formula_structural   LaIn4Sn
_chemical_formula_sum   'La1 In4 Sn1'
_cell_volume   168.57506978
_cell_formula_units_Z   1
loop_
 _symmetry_equiv_pos_site_id
 _symmetry_equiv_pos_as_xyz
  1  'x, y, z'
loop_
 _atom_site_type_symbol
 _atom_site_label
 _atom_site_symmetry_multiplicity
 _atom_site_fract_x
 _atom_site_fract_y
 _atom_site_fract_z
 _atom_site_occupancy
  In  In0  1  0.25000000  0.29627401  1.00000003  1
  La  La1  1  0.75000001  0.70372602  -0.00000001  1
  In  In2  1  0.25000000  0.64982602  0.36902300  1
  In  In3  1  0.25000000  0.01884900  0.63097702  1
  In  In4  1  0.75000001  0.98115103  0.36902300  1
  Sn  Sn5  1  0.75000001  0.35017401  0.63097702  1
