# generated using pymatgen
data_CeY2MgIn4
_symmetry_space_group_name_H-M   'P 1'
_cell_length_a   4.39163303
_cell_length_b   4.39483213
_cell_length_c   13.09417057
_cell_angle_alpha   99.66088104
_cell_angle_beta   90.00000000
_cell_angle_gamma   90.00000000
_symmetry_Int_Tables_number   1
_chemical_formula_structural   CeY2MgIn4
_chemical_formula_sum   'Ce1 Y2 Mg1 In4'
_cell_volume   249.13984722
_cell_formula_units_Z   1
loop_
 _symmetry_equiv_pos_site_id
 _symmetry_equiv_pos_as_xyz
  1  'x, y, z'
loop_
 _atom_site_type_symbol
 _atom_site_label
 _atom_site_symmetry_multiplicity
 _atom_site_fract_x
 _atom_site_fract_y
 _atom_site_fract_z
 _atom_site_occupancy
  Y  Y0  1  0.00000000  0.83085297  0.66170602  1
  Ce  Ce1  1  0.50000000  0.16658099  0.33316201  1
  Y  Y2  1  -0.00000000  0.42904599  0.85809202  1
  Mg  Mg3  1  0.50000000  0.57617998  0.15236000  1
  In  In4  1  0.00000000  0.70155898  0.40311801  1
  In  In5  1  0.50000000  0.29031999  0.58064002  1
  In  In6  1  -0.00000000  0.07623100  0.15246200  1
  In  In7  1  0.50000000  0.92922997  0.85846002  1
