# generated using pymatgen
data_Y2Er(AlSi)3
_symmetry_space_group_name_H-M   'P 1'
_cell_length_a   4.08334923
_cell_length_b   6.58934021
_cell_length_c   6.58934021
_cell_angle_alpha   120.00000000
_cell_angle_beta   90.00000000
_cell_angle_gamma   90.00000000
_symmetry_Int_Tables_number   1
_chemical_formula_structural   Y2Er(AlSi)3
_chemical_formula_sum   'Y2 Er1 Al3 Si3'
_cell_volume   153.54335219
_cell_formula_units_Z   1
loop_
 _symmetry_equiv_pos_site_id
 _symmetry_equiv_pos_as_xyz
  1  'x, y, z'
loop_
 _atom_site_type_symbol
 _atom_site_label
 _atom_site_symmetry_multiplicity
 _atom_site_fract_x
 _atom_site_fract_y
 _atom_site_fract_z
 _atom_site_occupancy
  Er  Er0  1  0.49999997  0.42824099  0.42824100  1
  Y  Y1  1  0.49999997  0.57175899  1.00000000  1
  Y  Y2  1  0.49999997  0.99999997  0.57175901  1
  Al  Al3  1  0.99999994  0.76188498  0.76188500  1
  Al  Al4  1  -0.00000000  0.23811499  0.00000000  1
  Al  Al5  1  -0.00000000  0.99999997  0.23811501  1
  Si  Si6  1  -0.00000000  0.66666665  0.33333334  1
  Si  Si7  1  0.99999994  0.33333332  0.66666666  1
  Si  Si8  1  0.49999997  0.00000000  -0.00000000  1
