# generated using pymatgen
data_CaCuNiGe2
_symmetry_space_group_name_H-M   'P 1'
_cell_length_a   4.97061586
_cell_length_b   4.97792006
_cell_length_c   4.97792006
_cell_angle_alpha   90.00000000
_cell_angle_beta   90.00000000
_cell_angle_gamma   90.00000000
_symmetry_Int_Tables_number   1
_chemical_formula_structural   CaCuNiGe2
_chemical_formula_sum   'Ca1 Cu1 Ni1 Ge2'
_cell_volume   123.17031066
_cell_formula_units_Z   1
loop_
 _symmetry_equiv_pos_site_id
 _symmetry_equiv_pos_as_xyz
  1  'x, y, z'
loop_
 _atom_site_type_symbol
 _atom_site_label
 _atom_site_symmetry_multiplicity
 _atom_site_fract_x
 _atom_site_fract_y
 _atom_site_fract_z
 _atom_site_occupancy
  Ca  Ca0  1  0.99675803  0.00000000  0.00000000  1
  Ni  Ni1  1  0.48507001  0.49999999  0.49999999  1
  Cu  Cu2  1  0.48536501  0.49999999  0.00000000  1
  Ge  Ge3  1  0.98504203  0.49999999  0.49999999  1
  Ge  Ge4  1  0.48536501  0.00000000  0.49999999  1
