# generated using pymatgen
data_Li4CuNiO8
_symmetry_space_group_name_H-M   'P 1'
_cell_length_a   5.91737318
_cell_length_b   5.91737318
_cell_length_c   5.91737318
_cell_angle_alpha   60.18455505
_cell_angle_beta   60.18455505
_cell_angle_gamma   60.18455124
_symmetry_Int_Tables_number   1
_chemical_formula_structural   Li4CuNiO8
_chemical_formula_sum   'Li4 Cu1 Ni1 O8'
_cell_volume   147.12388595
_cell_formula_units_Z   1
loop_
 _symmetry_equiv_pos_site_id
 _symmetry_equiv_pos_as_xyz
  1  'x, y, z'
loop_
 _atom_site_type_symbol
 _atom_site_label
 _atom_site_symmetry_multiplicity
 _atom_site_fract_x
 _atom_site_fract_y
 _atom_site_fract_z
 _atom_site_occupancy
  Li  Li0  1  0.87805005  0.87805002  0.87804994  1
  Li  Li1  1  0.12195001  0.12195000  0.12194999  1
  Li  Li2  1  0.50000001  0.00000000  0.49999998  1
  Li  Li3  1  0.50000003  0.50000001  -0.00000001  1
  Cu  Cu4  1  0.00000002  0.50000001  0.49999997  1
  Ni  Ni5  1  0.50000003  0.50000001  0.49999997  1
  O  O6  1  0.74007004  0.74007001  0.74006995  1
  O  O7  1  0.73999003  0.29194401  0.73998996  1
  O  O8  1  0.73999004  0.73999001  0.29194397  1
  O  O9  1  0.29194403  0.73999001  0.73998996  1
  O  O10  1  0.70805603  0.26001000  0.26000998  1
  O  O11  1  0.26001002  0.26001000  0.70805597  1
  O  O12  1  0.25993002  0.25993000  0.25992998  1
  O  O13  1  0.26001003  0.70805601  0.26000997  1
