# generated using pymatgen
data_Na3Li2CuPO6
_symmetry_space_group_name_H-M   'P 1'
_cell_length_a   3.86457896
_cell_length_b   3.92210603
_cell_length_c   11.80338955
_cell_angle_alpha   90.00000000
_cell_angle_beta   90.00000000
_cell_angle_gamma   90.00000000
_symmetry_Int_Tables_number   1
_chemical_formula_structural   Na3Li2CuPO6
_chemical_formula_sum   'Na3 Li2 Cu1 P1 O6'
_cell_volume   178.90737999
_cell_formula_units_Z   1
loop_
 _symmetry_equiv_pos_site_id
 _symmetry_equiv_pos_as_xyz
  1  'x, y, z'
loop_
 _atom_site_type_symbol
 _atom_site_label
 _atom_site_symmetry_multiplicity
 _atom_site_fract_x
 _atom_site_fract_y
 _atom_site_fract_z
 _atom_site_occupancy
  Na  Na0  1  0.50000000  0.50000000  0.18464101  1
  Na  Na1  1  0.50000000  0.50000000  0.81535903  1
  Na  Na2  1  0.50000000  0.50000000  0.50000002  1
  Li  Li3  1  0.00000000  0.00000000  0.00000000  1
  Cu  Cu4  1  0.00000000  0.00000000  0.35985601  1
  Li  Li5  1  0.00000000  0.00000000  0.64014402  1
  P  P6  1  0.50000000  0.00000000  0.38013001  1
  O  O7  1  0.50000000  0.00000000  0.61987002  1
  O  O8  1  0.00000000  0.00000000  0.15333001  1
  O  O9  1  0.00000000  0.00000000  0.84667003  1
  O  O10  1  0.00000000  0.50000000  0.37999301  1
  O  O11  1  0.00000000  0.50000000  0.62000702  1
  O  O12  1  0.00000000  0.50000000  0.00000000  1
