# generated using pymatgen
data_LiScAl3Ga
_symmetry_space_group_name_H-M   'P 1'
_cell_length_a   5.67058182
_cell_length_b   5.67058182
_cell_length_c   5.67058182
_cell_angle_alpha   60.00000000
_cell_angle_beta   60.00000000
_cell_angle_gamma   60.00000000
_symmetry_Int_Tables_number   1
_chemical_formula_structural   LiScAl3Ga
_chemical_formula_sum   'Li1 Sc1 Al3 Ga1'
_cell_volume   128.93412141
_cell_formula_units_Z   1
loop_
 _symmetry_equiv_pos_site_id
 _symmetry_equiv_pos_as_xyz
  1  'x, y, z'
loop_
 _atom_site_type_symbol
 _atom_site_label
 _atom_site_symmetry_multiplicity
 _atom_site_fract_x
 _atom_site_fract_y
 _atom_site_fract_z
 _atom_site_occupancy
  Sc  Sc0  1  0.00000000  0.00000000  0.00000000  1
  Li  Li1  1  0.75000003  0.75000003  0.75000003  1
  Al  Al2  1  0.37510001  0.87469803  0.37510101  1
  Al  Al3  1  0.37510001  0.37510101  0.37510101  1
  Ga  Ga4  1  0.37510001  0.37510101  0.87469803  1
  Al  Al5  1  0.87469703  0.37510101  0.37510101  1
