# generated using pymatgen
data_Cu5Se2S7
_symmetry_space_group_name_H-M   'P 1'
_cell_length_a   6.99597883
_cell_length_b   6.99597883
_cell_length_c   7.73699951
_cell_angle_alpha   63.12073898
_cell_angle_beta   63.12073898
_cell_angle_gamma   59.99999237
_symmetry_Int_Tables_number   1
_chemical_formula_structural   Cu5Se2S7
_chemical_formula_sum   'Cu5 Se2 S7'
_cell_volume   279.70784395
_cell_formula_units_Z   1
loop_
 _symmetry_equiv_pos_site_id
 _symmetry_equiv_pos_as_xyz
  1  'x, y, z'
loop_
 _atom_site_type_symbol
 _atom_site_label
 _atom_site_symmetry_multiplicity
 _atom_site_fract_x
 _atom_site_fract_y
 _atom_site_fract_z
 _atom_site_occupancy
  Cu  Cu0  1  0.83358801  0.83358800  0.49923595  1
  Cu  Cu1  1  0.16641200  0.16641200  0.50076399  1
  Cu  Cu2  1  0.37482601  0.72126000  0.87188597  1
  Cu  Cu3  1  0.72126000  0.03202800  0.87188598  1
  Cu  Cu4  1  0.03202800  0.37482600  0.87188599  1
  Se  Se5  1  0.96797201  0.62517400  0.12811396  1
  Se  Se6  1  0.27874001  0.96797200  0.12811396  1
  S  S7  1  0.62517400  0.27874000  0.12811398  1
  S  S8  1  0.91122500  0.25567600  0.25120197  1
  S  S9  1  0.58189701  0.91122500  0.25120196  1
  S  S10  1  0.25567601  0.58189700  0.25120198  1
  S  S11  1  0.74432401  0.41810300  0.74879797  1
  S  S12  1  0.41810300  0.08877500  0.74879799  1
  S  S13  1  0.08877501  0.74432400  0.74879798  1
