# generated using pymatgen
data_NaLi4CaEuYMg
_symmetry_space_group_name_H-M   'P 1'
_cell_length_a   4.16426420
_cell_length_b   4.16426468
_cell_length_c   16.96500206
_cell_angle_alpha   90.00000000
_cell_angle_beta   90.00000000
_cell_angle_gamma   119.99999237
_symmetry_Int_Tables_number   1
_chemical_formula_structural   NaLi4CaEuYMg
_chemical_formula_sum   'Na1 Li4 Ca1 Eu1 Y1 Mg1'
_cell_volume   254.77756504
_cell_formula_units_Z   1
loop_
 _symmetry_equiv_pos_site_id
 _symmetry_equiv_pos_as_xyz
  1  'x, y, z'
loop_
 _atom_site_type_symbol
 _atom_site_label
 _atom_site_symmetry_multiplicity
 _atom_site_fract_x
 _atom_site_fract_y
 _atom_site_fract_z
 _atom_site_occupancy
  Eu  Eu0  1  0.66666661  0.33333331  0.89459000  1
  Li  Li1  1  0.33333327  0.66666662  0.10541000  1
  Y  Y2  1  0.33333327  0.66666662  0.79170600  1
  Na  Na3  1  0.66666661  0.33333331  0.59114700  1
  Li  Li4  1  0.33333327  0.66666662  0.40885300  1
  Ca  Ca5  1  0.00000000  0.00000000  0.00000000  1
  Li  Li6  1  0.66666661  0.33333331  0.20829400  1
  Li  Li7  1  0.00000000  0.00000000  0.68214700  1
  Mg  Mg8  1  0.00000000  0.00000000  0.31785300  1
