# generated using pymatgen
data_Na3Li2TlN4
_symmetry_space_group_name_H-M   'P 1'
_cell_length_a   5.64972115
_cell_length_b   5.64972687
_cell_length_c   5.69895840
_cell_angle_alpha   119.71448517
_cell_angle_beta   119.71446991
_cell_angle_gamma   90.00014496
_symmetry_Int_Tables_number   1
_chemical_formula_structural   Na3Li2TlN4
_chemical_formula_sum   'Na3 Li2 Tl1 N4'
_cell_volume   129.72996970
_cell_formula_units_Z   1
loop_
 _symmetry_equiv_pos_site_id
 _symmetry_equiv_pos_as_xyz
  1  'x, y, z'
loop_
 _atom_site_type_symbol
 _atom_site_label
 _atom_site_symmetry_multiplicity
 _atom_site_fract_x
 _atom_site_fract_y
 _atom_site_fract_z
 _atom_site_occupancy
  Na  Na0  1  0.24999905  0.74999802  0.49999702  1
  Na  Na1  1  0.75000401  0.24999701  0.50000003  1
  Na  Na2  1  0.00000600  0.00000300  0.00001000  1
  Tl  Tl3  1  0.50000103  0.50000102  0.00000302  1
  Li  Li4  1  0.75759905  0.75760502  0.51520004  1
  Li  Li5  1  0.24240001  0.24240401  0.48480801  1
  N  N6  1  0.31200706  0.82760503  0.99999203  1
  N  N7  1  0.68799300  0.17238901  0.99999603  1
  N  N8  1  0.82760804  0.68799102  0.99999804  1
  N  N9  1  0.17238302  0.31200801  0.99999602  1
