# generated using pymatgen
data_Na3SrCu2O7
_symmetry_space_group_name_H-M   'P 1'
_cell_length_a   5.88724566
_cell_length_b   5.88724566
_cell_length_c   7.97903395
_cell_angle_alpha   68.35099030
_cell_angle_beta   68.35099030
_cell_angle_gamma   60.00000381
_symmetry_Int_Tables_number   1
_chemical_formula_structural   Na3SrCu2O7
_chemical_formula_sum   'Na3 Sr1 Cu2 O7'
_cell_volume   216.68199960
_cell_formula_units_Z   1
loop_
 _symmetry_equiv_pos_site_id
 _symmetry_equiv_pos_as_xyz
  1  'x, y, z'
loop_
 _atom_site_type_symbol
 _atom_site_label
 _atom_site_symmetry_multiplicity
 _atom_site_fract_x
 _atom_site_fract_y
 _atom_site_fract_z
 _atom_site_occupancy
  Na  Na0  1  0.29500100  0.29500100  0.11499699  1
  Na  Na1  1  0.70499900  0.70499900  0.88500298  1
  Sr  Sr2  1  0.50000000  0.50000000  0.49999998  1
  Cu  Cu3  1  0.90696900  0.90696900  0.27909296  1
  Na  Na4  1  0.09303100  0.09303100  0.72090700  1
  Cu  Cu5  1  0.78002100  0.78002100  0.20313297  1
  O  O6  1  0.76317500  0.21997900  0.79686699  1
  O  O7  1  0.83156600  0.83156600  0.50530197  1
  O  O8  1  0.16843400  0.16843400  0.49469800  1
  O  O9  1  0.21997900  0.21997900  0.79686700  1
  O  O10  1  0.23682500  0.78002100  0.20313298  1
  O  O11  1  0.21997900  0.76317500  0.79686698  1
  O  O12  1  0.78002100  0.23682500  0.20313298  1
