# generated using pymatgen
data_Ba2LiCaYCu2SnSbAs2Au5
_symmetry_space_group_name_H-M   'P 1'
_cell_length_a   4.02588606
_cell_length_b   4.02588606
_cell_length_c   20.62030983
_cell_angle_alpha   90.00000000
_cell_angle_beta   90.00000000
_cell_angle_gamma   89.79998016
_symmetry_Int_Tables_number   1
_chemical_formula_structural   Ba2LiCaYCu2SnSbAs2Au5
_chemical_formula_sum   'Ba2 Li1 Ca1 Y1 Cu2 Sn1 Sb1 As2 Au5'
_cell_volume   334.20696660
_cell_formula_units_Z   1
loop_
 _symmetry_equiv_pos_site_id
 _symmetry_equiv_pos_as_xyz
  1  'x, y, z'
loop_
 _atom_site_type_symbol
 _atom_site_label
 _atom_site_symmetry_multiplicity
 _atom_site_fract_x
 _atom_site_fract_y
 _atom_site_fract_z
 _atom_site_occupancy
  Ba  Ba0  1  0.26518201  0.76518200  0.38387398  1
  Ba  Ba1  1  0.73481800  0.23481800  0.61612598  1
  Y  Y2  1  0.76518201  0.26518200  0.11612600  1
  Ca  Ca3  1  0.23481801  0.73481800  0.88387396  1
  Li  Li4  1  0.76319001  0.26319000  0.34733799  1
  Cu  Cu5  1  0.23681001  0.73681000  0.65266197  1
  Cu  Cu6  1  0.26319001  0.76319000  0.15266199  1
  Sb  Sb7  1  0.73681000  0.23681000  0.84733797  1
  Au  Au8  1  0.76878901  0.73121100  0.49999998  1
  Sn  Sn9  1  0.73121101  0.76878900  0.99999996  1
  Au  Au10  1  0.23121101  0.26878900  0.49999998  1
  Au  Au11  1  0.26878900  0.23121100  -0.00000000  1
  Au  Au12  1  0.80318102  0.80318100  0.24999999  1
  As  As13  1  0.69681901  0.69681900  0.74999997  1
  As  As14  1  0.19681900  0.19681900  0.74999997  1
  Au  Au15  1  0.30318101  0.30318100  0.24999999  1
