# generated using pymatgen
data_Na4LiCu2O3F8
_symmetry_space_group_name_H-M   'P 1'
_cell_length_a   7.40845823
_cell_length_b   7.43074322
_cell_length_c   7.43074322
_cell_angle_alpha   60.10794830
_cell_angle_beta   60.09915924
_cell_angle_gamma   60.09915924
_symmetry_Int_Tables_number   1
_chemical_formula_structural   Na4LiCu2O3F8
_chemical_formula_sum   'Na4 Li1 Cu2 O3 F8'
_cell_volume   289.92172071
_cell_formula_units_Z   1
loop_
 _symmetry_equiv_pos_site_id
 _symmetry_equiv_pos_as_xyz
  1  'x, y, z'
loop_
 _atom_site_type_symbol
 _atom_site_label
 _atom_site_symmetry_multiplicity
 _atom_site_fract_x
 _atom_site_fract_y
 _atom_site_fract_z
 _atom_site_occupancy
  Na  Na0  1  0.00295900  0.49999999  0.50000001  1
  Na  Na1  1  0.00295900  0.00000000  0.00000000  1
  Na  Na2  1  0.40959798  0.40703299  0.90703301  1
  Na  Na3  1  0.72366397  0.59296699  0.09296703  1
  Cu  Cu4  1  0.00330300  0.99971798  0.49971802  1
  Cu  Cu5  1  0.50273898  0.00028200  0.50028201  1
  O  O6  1  0.30871899  0.94126198  0.44126203  1
  F  F7  1  0.93270596  0.31485199  0.81485202  1
  Li  Li8  1  0.31541199  0.93793498  0.80627303  1
  O  O9  1  0.93726196  0.30731399  0.43898002  1
  F  F10  1  0.31541299  0.30627299  0.43793401  1
  F  F11  1  0.93726196  0.93897998  0.80731404  1
  F  F12  1  0.69124297  0.05873800  0.55873801  1
  F  F13  1  0.06241000  0.68514799  0.18514802  1
  F  F14  1  0.68355597  0.06102000  0.19268601  1
  F  F15  1  0.05961900  0.69372698  0.56206602  1
  O  O16  1  0.68355597  0.69268598  0.56102003  1
  F  F17  1  0.05962000  0.06206500  0.19372700  1
