# generated using pymatgen
data_CeY2LuGaBi
_symmetry_space_group_name_H-M   'P 1'
_cell_length_a   3.10890007
_cell_length_b   3.10890055
_cell_length_c   16.27695274
_cell_angle_alpha   90.00000000
_cell_angle_beta   90.00000000
_cell_angle_gamma   119.99999237
_symmetry_Int_Tables_number   1
_chemical_formula_structural   CeY2LuGaBi
_chemical_formula_sum   'Ce1 Y2 Lu1 Ga1 Bi1'
_cell_volume   136.24399185
_cell_formula_units_Z   1
loop_
 _symmetry_equiv_pos_site_id
 _symmetry_equiv_pos_as_xyz
  1  'x, y, z'
loop_
 _atom_site_type_symbol
 _atom_site_label
 _atom_site_symmetry_multiplicity
 _atom_site_fract_x
 _atom_site_fract_y
 _atom_site_fract_z
 _atom_site_occupancy
  Y  Y0  1  0.00000000  0.00000000  0.00000000  1
  Y  Y1  1  0.33333330  0.66666665  0.16467400  1
  Lu  Lu2  1  0.00000000  0.00000000  0.33296601  1
  Ce  Ce3  1  0.33333330  0.66666665  0.50000001  1
  Ga  Ga4  1  0.00000000  0.00000000  0.66703401  1
  Bi  Bi5  1  0.33333330  0.66666665  0.83532601  1
