# generated using pymatgen
data_K2BHNO4F
_symmetry_space_group_name_H-M   'P 1'
_cell_length_a   4.86253119
_cell_length_b   6.07376385
_cell_length_c   7.34814692
_cell_angle_alpha   114.41138458
_cell_angle_beta   90.00000000
_cell_angle_gamma   90.00000000
_symmetry_Int_Tables_number   1
_chemical_formula_structural   K2BHNO4F
_chemical_formula_sum   'K2 B1 H1 N1 O4 F1'
_cell_volume   197.61801035
_cell_formula_units_Z   1
loop_
 _symmetry_equiv_pos_site_id
 _symmetry_equiv_pos_as_xyz
  1  'x, y, z'
loop_
 _atom_site_type_symbol
 _atom_site_label
 _atom_site_symmetry_multiplicity
 _atom_site_fract_x
 _atom_site_fract_y
 _atom_site_fract_z
 _atom_site_occupancy
  K  K0  1  0.74999997  0.65611600  0.31223198  1
  K  K1  1  0.24999999  0.34388400  0.68776800  1
  H  H2  1  0.74999997  0.92239700  0.84479397  1
  B  B3  1  0.24999999  0.07760300  0.15520600  1
  F  F4  1  0.24999999  0.92111600  0.26878696  1
  O  O5  1  0.24999999  0.34767100  0.26878699  1
  O  O6  1  0.74999997  0.07888400  0.73121301  1
  O  O7  1  0.74999997  0.65232900  0.73121298  1
  N  N8  1  0.49999998  0.00000000  -0.00000000  1
  O  O9  1  0.00000000  0.00000000  0.00000000  1
