# generated using pymatgen
data_Mn3Al2GaSi13Ge
_symmetry_space_group_name_H-M   'P 1'
_cell_length_a   4.05375242
_cell_length_b   4.05375242
_cell_length_c   16.67499161
_cell_angle_alpha   83.01832581
_cell_angle_beta   83.01832581
_cell_angle_gamma   59.99999619
_symmetry_Int_Tables_number   1
_chemical_formula_structural   Mn3Al2GaSi13Ge
_chemical_formula_sum   'Mn3 Al2 Ga1 Si13 Ge1'
_cell_volume   234.95799348
_cell_formula_units_Z   1
loop_
 _symmetry_equiv_pos_site_id
 _symmetry_equiv_pos_as_xyz
  1  'x, y, z'
loop_
 _atom_site_type_symbol
 _atom_site_label
 _atom_site_symmetry_multiplicity
 _atom_site_fract_x
 _atom_site_fract_y
 _atom_site_fract_z
 _atom_site_occupancy
  Mn  Mn0  1  0.60013899  0.60013897  0.19958299  1
  Al  Al1  1  0.20001100  0.20001099  0.39996698  1
  Ga  Ga2  1  0.79998898  0.79998897  0.60003297  1
  Al  Al3  1  0.39986099  0.39986098  0.80041696  1
  Si  Si4  1  0.75001898  0.75001897  0.74994296  1
  Si  Si5  1  0.54997499  0.54997498  0.35007498  1
  Si  Si6  1  0.14996600  0.14996599  0.55010197  1
  Si  Si7  1  0.34982199  0.34982198  0.95053395  1
  Mn  Mn8  1  0.95015498  0.95015496  0.14953499  1
  Si  Si9  1  0.04984500  0.04984500  0.85046496  1
  Si  Si10  1  0.85003398  0.85003396  0.44989798  1
  Ge  Ge11  1  0.45002499  0.45002498  0.64992497  1
  Mn  Mn12  1  0.65017798  0.65017797  0.04946600  1
  Si  Si13  1  0.24998099  0.24998099  0.25005699  1
  Si  Si14  1  0.00000000  0.00000000  0.00000000  1
  Si  Si15  1  0.09995000  0.09995000  0.70014996  1
  Si  Si16  1  0.90004998  0.90004996  0.29984998  1
  Si  Si17  1  0.49999999  0.49999998  0.49999997  1
  Si  Si18  1  0.69976198  0.69976197  0.90071395  1
  Si  Si19  1  0.30023799  0.30023799  0.09928599  1
