# generated using pymatgen
data_KNa3Cu3PO8
_symmetry_space_group_name_H-M   'P 1'
_cell_length_a   3.89268208
_cell_length_b   3.89268208
_cell_length_c   16.24844360
_cell_angle_alpha   90.00000000
_cell_angle_beta   90.00000000
_cell_angle_gamma   90.00000000
_symmetry_Int_Tables_number   1
_chemical_formula_structural   KNa3Cu3PO8
_chemical_formula_sum   'K1 Na3 Cu3 P1 O8'
_cell_volume   246.21223925
_cell_formula_units_Z   1
loop_
 _symmetry_equiv_pos_site_id
 _symmetry_equiv_pos_as_xyz
  1  'x, y, z'
loop_
 _atom_site_type_symbol
 _atom_site_label
 _atom_site_symmetry_multiplicity
 _atom_site_fract_x
 _atom_site_fract_y
 _atom_site_fract_z
 _atom_site_occupancy
  Na  Na0  1  0.49999999  0.49999999  0.81608302  1
  K  K1  1  0.49999999  0.49999999  0.18391700  1
  Na  Na2  1  0.49999999  0.49999999  0.59907101  1
  Na  Na3  1  0.49999999  0.49999999  0.40092901  1
  Cu  Cu4  1  0.00000000  0.00000000  0.69191802  1
  Cu  Cu5  1  0.00000000  0.00000000  0.30808201  1
  Cu  Cu6  1  0.00000000  0.00000000  0.50000001  1
  P  P7  1  0.00000000  0.00000000  0.00000000  1
  O  O8  1  0.49999999  0.00000000  0.50000001  1
  O  O9  1  0.00000000  0.49999999  0.50000001  1
  O  O10  1  0.00000000  0.00000000  0.87627102  1
  O  O11  1  0.00000000  0.00000000  0.12372900  1
  O  O12  1  0.49999999  0.00000000  0.30369501  1
  O  O13  1  0.49999999  0.00000000  0.69630502  1
  O  O14  1  0.00000000  0.49999999  0.30369501  1
  O  O15  1  0.00000000  0.49999999  0.69630502  1
