# generated using pymatgen
data_LiCoO4
_symmetry_space_group_name_H-M   'P 1'
_cell_length_a   4.77235794
_cell_length_b   4.77389717
_cell_length_c   6.62151003
_cell_angle_alpha   89.85134888
_cell_angle_beta   89.88568878
_cell_angle_gamma   113.49731445
_symmetry_Int_Tables_number   1
_chemical_formula_structural   LiCoO4
_chemical_formula_sum   'Li2 Co2 O8'
_cell_volume   138.34577997
_cell_formula_units_Z   2
loop_
 _symmetry_equiv_pos_site_id
 _symmetry_equiv_pos_as_xyz
  1  'x, y, z'
loop_
 _atom_site_type_symbol
 _atom_site_label
 _atom_site_symmetry_multiplicity
 _atom_site_fract_x
 _atom_site_fract_y
 _atom_site_fract_z
 _atom_site_occupancy
  Li  Li0  1  0.00000000  0.00000000  0.00000000  1
  Li  Li1  1  0.00000000  0.00000000  0.50000001  1
  Co  Co2  1  0.65121599  0.34884098  0.24985001  1
  Co  Co3  1  0.34878397  0.65115897  0.75015000  1
  O  O4  1  0.30577599  0.22490899  0.25042900  1
  O  O5  1  0.77517498  0.69418197  0.24931800  1
  O  O6  1  0.69422397  0.77509197  0.74957100  1
  O  O7  1  0.22482499  0.30581799  0.75068200  1
  O  O8  1  0.24877897  0.75139497  0.93653000  1
  O  O9  1  0.75122100  0.24860499  0.06347001  1
  O  O10  1  0.24845597  0.75122197  0.56371599  1
  O  O11  1  0.75154400  0.24877799  0.43628401  1
