# generated using pymatgen
data_Li2CuO6
_symmetry_space_group_name_H-M   'P 1'
_cell_length_a   5.68797350
_cell_length_b   5.68803883
_cell_length_c   7.49293661
_cell_angle_alpha   71.77616119
_cell_angle_beta   71.77584839
_cell_angle_gamma   72.00856018
_symmetry_Int_Tables_number   1
_chemical_formula_structural   Li2CuO6
_chemical_formula_sum   'Li4 Cu2 O12'
_cell_volume   212.64296965
_cell_formula_units_Z   2
loop_
 _symmetry_equiv_pos_site_id
 _symmetry_equiv_pos_as_xyz
  1  'x, y, z'
loop_
 _atom_site_type_symbol
 _atom_site_label
 _atom_site_symmetry_multiplicity
 _atom_site_fract_x
 _atom_site_fract_y
 _atom_site_fract_z
 _atom_site_occupancy
  Li  Li0  1  0.66666667  0.66666663  0.83314604  1
  Li  Li1  1  0.66666667  0.66666663  0.33318003  1
  Li  Li2  1  0.01153500  0.01153800  0.51732902  1
  Li  Li3  1  0.32177600  0.32176898  0.14935801  1
  Cu  Cu4  1  0.32482600  0.32482798  0.67106803  1
  Cu  Cu5  1  0.00848000  0.00846700  0.99564303  1
  O  O6  1  0.43300200  0.43305198  0.87290604  1
  O  O7  1  0.90032600  0.90028396  0.79377205  1
  O  O8  1  0.95760301  0.37566098  0.83339403  1
  O  O9  1  0.37569899  0.95763695  0.83342905  1
  O  O10  1  0.77146800  0.77148696  0.53262404  1
  O  O11  1  0.56190200  0.56188497  0.13408802  1
  O  O12  1  0.10020400  0.10024200  0.20865401  1
  O  O13  1  0.23313600  0.23309099  0.45803402  1
  O  O14  1  0.70874001  0.30869198  0.49221302  1
  O  O15  1  0.30866599  0.70874597  0.49219204  1
  O  O16  1  0.62461901  0.02470000  0.17447500  1
  O  O17  1  0.02471299  0.62461697  0.17449602  1
