# generated using pymatgen
data_TiCu3S8
_symmetry_space_group_name_H-M   'P 1'
_cell_length_a   6.90799618
_cell_length_b   6.90799618
_cell_length_c   6.90799618
_cell_angle_alpha   60.00000000
_cell_angle_beta   60.00000000
_cell_angle_gamma   60.00000000
_symmetry_Int_Tables_number   1
_chemical_formula_structural   TiCu3S8
_chemical_formula_sum   'Ti1 Cu3 S8'
_cell_volume   233.09946027
_cell_formula_units_Z   1
loop_
 _symmetry_equiv_pos_site_id
 _symmetry_equiv_pos_as_xyz
  1  'x, y, z'
loop_
 _atom_site_type_symbol
 _atom_site_label
 _atom_site_symmetry_multiplicity
 _atom_site_fract_x
 _atom_site_fract_y
 _atom_site_fract_z
 _atom_site_occupancy
  Cu  Cu0  1  0.87500001  0.37500000  0.37500000  1
  Ti  Ti1  1  0.37500000  0.37500000  0.87500001  1
  Cu  Cu2  1  0.37500000  0.37500000  0.37500000  1
  Cu  Cu3  1  0.37500000  0.87500001  0.37500000  1
  S  S4  1  0.13150400  0.13150500  0.13150500  1
  S  S5  1  0.61849601  0.14451400  0.61849501  1
  S  S6  1  0.61849601  0.61849501  0.14451400  1
  S  S7  1  0.14451500  0.61849501  0.61849501  1
  S  S8  1  0.13150400  0.13150500  0.60548601  1
  S  S9  1  0.60548501  0.13150500  0.13150500  1
  S  S10  1  0.13150400  0.60548601  0.13150500  1
  S  S11  1  0.61849601  0.61849501  0.61849501  1
