# generated using pymatgen
data_KNa3(CuO2)4
_symmetry_space_group_name_H-M   'P 1'
_cell_length_a   5.81573248
_cell_length_b   6.66306257
_cell_length_c   7.79216194
_cell_angle_alpha   90.00000000
_cell_angle_beta   90.00000000
_cell_angle_gamma   115.87541199
_symmetry_Int_Tables_number   1
_chemical_formula_structural   KNa3(CuO2)4
_chemical_formula_sum   'K1 Na3 Cu4 O8'
_cell_volume   271.67882785
_cell_formula_units_Z   1
loop_
 _symmetry_equiv_pos_site_id
 _symmetry_equiv_pos_as_xyz
  1  'x, y, z'
loop_
 _atom_site_type_symbol
 _atom_site_label
 _atom_site_symmetry_multiplicity
 _atom_site_fract_x
 _atom_site_fract_y
 _atom_site_fract_z
 _atom_site_occupancy
  Na  Na0  1  0.16774890  0.33549779  0.56933214  1
  Na  Na1  1  0.83225109  0.66450219  0.43066784  1
  K  K2  1  0.33225111  0.66450219  0.06933215  1
  Na  Na3  1  0.66774889  0.33549779  0.93066783  1
  Cu  Cu4  1  0.44445842  0.88891680  0.64182929  1
  Cu  Cu5  1  0.55554157  0.11108318  0.35817069  1
  Cu  Cu6  1  0.05554159  0.11108318  0.14182930  1
  Cu  Cu7  1  0.94445840  0.88891680  0.85817069  1
  O  O8  1  0.10208981  0.20417962  0.91171240  1
  O  O9  1  0.89791018  0.79582036  0.08828758  1
  O  O10  1  0.39791020  0.79582036  0.41171241  1
  O  O11  1  0.60208979  0.20417962  0.58828757  1
  O  O12  1  0.13282495  0.76564984  0.74999999  1
  O  O13  1  0.36717506  0.23435013  0.25000000  1
  O  O14  1  0.86717505  0.23435013  0.25000000  1
  O  O15  1  0.63282493  0.76564984  0.74999999  1
