# generated using pymatgen
data_Y2AlSi5
_symmetry_space_group_name_H-M   'P 1'
_cell_length_a   3.84254503
_cell_length_b   4.07495213
_cell_length_c   8.68459892
_cell_angle_alpha   76.43148804
_cell_angle_beta   90.00000000
_cell_angle_gamma   90.00000000
_symmetry_Int_Tables_number   1
_chemical_formula_structural   Y2AlSi5
_chemical_formula_sum   'Y2 Al1 Si5'
_cell_volume   132.18974193
_cell_formula_units_Z   1
loop_
 _symmetry_equiv_pos_site_id
 _symmetry_equiv_pos_as_xyz
  1  'x, y, z'
loop_
 _atom_site_type_symbol
 _atom_site_label
 _atom_site_symmetry_multiplicity
 _atom_site_fract_x
 _atom_site_fract_y
 _atom_site_fract_z
 _atom_site_occupancy
  Y  Y0  1  0.74999999  0.89005296  0.21989401  1
  Y  Y1  1  0.25000000  0.10994700  0.78010597  1
  Al  Al2  1  0.74999999  0.54040098  0.91919797  1
  Si  Si3  1  0.25000000  0.45959898  0.08080201  1
  Si  Si4  1  0.74999999  0.24835299  0.50329398  1
  Si  Si5  1  0.25000000  0.75164697  0.49670600  1
  Si  Si6  1  0.74999999  0.67556997  0.64885999  1
  Si  Si7  1  0.25000000  0.32442999  0.35113999  1
