# generated using pymatgen
data_Y2Zr2V2WO11
_symmetry_space_group_name_H-M   'P 1'
_cell_length_a   6.15980577
_cell_length_b   6.15980625
_cell_length_c   7.25583696
_cell_angle_alpha   90.00000000
_cell_angle_beta   90.00000000
_cell_angle_gamma   120.00000000
_symmetry_Int_Tables_number   1
_chemical_formula_structural   Y2Zr2V2WO11
_chemical_formula_sum   'Y2 Zr2 V2 W1 O11'
_cell_volume   238.42523438
_cell_formula_units_Z   1
loop_
 _symmetry_equiv_pos_site_id
 _symmetry_equiv_pos_as_xyz
  1  'x, y, z'
loop_
 _atom_site_type_symbol
 _atom_site_label
 _atom_site_symmetry_multiplicity
 _atom_site_fract_x
 _atom_site_fract_y
 _atom_site_fract_z
 _atom_site_occupancy
  Y  Y0  1  0.00000000  0.00000000  0.96842700  1
  Zr  Zr1  1  0.33333338  0.66666670  0.37322400  1
  Zr  Zr2  1  0.00000000  0.00000000  0.48648300  1
  Y  Y3  1  0.66666671  0.33333335  0.62088300  1
  V  V4  1  0.66666671  0.33333335  0.14142900  1
  V  V5  1  0.33333338  0.66666670  0.85791700  1
  O  O6  1  0.09611404  0.71700804  0.64821200  1
  W  W7  1  0.38964902  0.09018201  0.35517500  1
  O  O8  1  0.68557905  0.60210903  0.89122500  1
  O  O9  1  0.08157604  0.69612004  0.10506700  1
  O  O10  1  0.30388003  0.38545602  0.10506700  1
  O  O11  1  0.39789002  0.08346900  0.89122500  1
  O  O12  1  0.28299203  0.37910602  0.64821200  1
  O  O13  1  0.91653005  0.31442002  0.89122500  1
  O  O14  1  0.61454407  0.91842405  0.10506700  1
  O  O15  1  0.62089407  0.90388605  0.64821200  1
  O  O16  1  0.70053306  0.61035103  0.35517500  1
  O  O17  1  0.90981805  0.29946702  0.35517500  1
