# generated using pymatgen
data_Na2Sr2LiCu(NiO5)2
_symmetry_space_group_name_H-M   'P 1'
_cell_length_a   3.75151610
_cell_length_b   5.54652977
_cell_length_c   11.03750515
_cell_angle_alpha   90.00000000
_cell_angle_beta   90.00000000
_cell_angle_gamma   90.00000000
_symmetry_Int_Tables_number   1
_chemical_formula_structural   Na2Sr2LiCu(NiO5)2
_chemical_formula_sum   'Na2 Sr2 Li1 Cu1 Ni2 O10'
_cell_volume   229.66725652
_cell_formula_units_Z   1
loop_
 _symmetry_equiv_pos_site_id
 _symmetry_equiv_pos_as_xyz
  1  'x, y, z'
loop_
 _atom_site_type_symbol
 _atom_site_label
 _atom_site_symmetry_multiplicity
 _atom_site_fract_x
 _atom_site_fract_y
 _atom_site_fract_z
 _atom_site_occupancy
  Na  Na0  1  0.49999999  0.21304301  0.86503599  1
  Sr  Sr1  1  0.49999999  0.78695703  0.13496400  1
  Sr  Sr2  1  0.49999999  0.71304303  0.63496399  1
  Na  Na3  1  0.49999999  0.28695701  0.36503600  1
  Li  Li4  1  0.00000000  0.24220801  0.62255699  1
  Ni  Ni5  1  0.00000000  0.75779203  0.37744299  1
  Cu  Cu6  1  0.00000000  0.74220803  0.87744299  1
  Ni  Ni7  1  0.00000000  0.25779201  0.12255700  1
  O  O8  1  -0.00000000  0.50000002  0.49999999  1
  O  O9  1  0.00000000  0.00000000  0.00000000  1
  O  O10  1  0.00000000  0.98248604  0.73076799  1
  O  O11  1  0.00000000  0.01751400  0.26923200  1
  O  O12  1  0.00000000  0.48248602  0.76923199  1
  O  O13  1  0.00000000  0.51751402  0.23076800  1
  O  O14  1  0.49999999  0.20711201  0.59623799  1
  O  O15  1  0.49999999  0.79288803  0.40376199  1
  O  O16  1  0.49999999  0.29288801  0.09623800  1
  O  O17  1  0.49999999  0.70711203  0.90376199  1
