# generated using pymatgen
data_ErScAl2FeSi7
_symmetry_space_group_name_H-M   'P 1'
_cell_length_a   3.81829596
_cell_length_b   6.53686380
_cell_length_c   7.45881224
_cell_angle_alpha   90.00000000
_cell_angle_beta   90.00000000
_cell_angle_gamma   90.00000000
_symmetry_Int_Tables_number   1
_chemical_formula_structural   ErScAl2FeSi7
_chemical_formula_sum   'Er1 Sc1 Al2 Fe1 Si7'
_cell_volume   186.16957127
_cell_formula_units_Z   1
loop_
 _symmetry_equiv_pos_site_id
 _symmetry_equiv_pos_as_xyz
  1  'x, y, z'
loop_
 _atom_site_type_symbol
 _atom_site_label
 _atom_site_symmetry_multiplicity
 _atom_site_fract_x
 _atom_site_fract_y
 _atom_site_fract_z
 _atom_site_occupancy
  Er  Er0  1  0.25000000  0.02679800  0.82010997  1
  Sc  Sc1  1  0.25000000  0.52679802  0.67988998  1
  Al  Al2  1  0.75000001  0.97320203  0.17988999  1
  Al  Al3  1  0.75000001  0.47320201  0.32010999  1
  Fe  Fe4  1  0.25000000  0.76149302  0.37763999  1
  Si  Si5  1  0.25000000  0.26149301  0.12236000  1
  Si  Si6  1  0.75000001  0.23850701  0.62235998  1
  Si  Si7  1  0.75000001  0.73850702  0.87763997  1
  Si  Si8  1  0.25000000  0.14435800  0.43821999  1
  Si  Si9  1  0.25000000  0.64435802  0.06178000  1
  Si  Si10  1  0.75000001  0.85564203  0.56177998  1
  Si  Si11  1  0.75000001  0.35564201  0.93821997  1
