# generated using pymatgen
data_Y2In4GaSn2GePdAu4
_symmetry_space_group_name_H-M   'P 1'
_cell_length_a   4.58797789
_cell_length_b   4.58797789
_cell_length_c   19.16566277
_cell_angle_alpha   90.00000000
_cell_angle_beta   90.00000000
_cell_angle_gamma   90.00000000
_symmetry_Int_Tables_number   1
_chemical_formula_structural   Y2In4GaSn2GePdAu4
_chemical_formula_sum   'Y2 In4 Ga1 Sn2 Ge1 Pd1 Au4'
_cell_volume   403.42840579
_cell_formula_units_Z   1
loop_
 _symmetry_equiv_pos_site_id
 _symmetry_equiv_pos_as_xyz
  1  'x, y, z'
loop_
 _atom_site_type_symbol
 _atom_site_label
 _atom_site_symmetry_multiplicity
 _atom_site_fract_x
 _atom_site_fract_y
 _atom_site_fract_z
 _atom_site_occupancy
  Y  Y0  1  0.50000001  0.00000000  0.11053100  1
  Y  Y1  1  0.50000001  0.00000000  0.61257398  1
  In  In2  1  0.00000000  0.50000001  0.88946896  1
  In  In3  1  0.00000000  0.50000001  0.38742598  1
  In  In4  1  0.50000001  0.50000001  0.49999998  1
  In  In5  1  0.00000000  0.00000000  0.00000000  1
  Ga  Ga6  1  0.00000000  0.00000000  0.49999998  1
  Sn  Sn7  1  0.50000001  0.50000001  0.75096197  1
  Au  Au8  1  0.50000001  0.50000001  0.24903799  1
  Pd  Pd9  1  0.00000000  0.00000000  0.75038797  1
  Au  Au10  1  0.00000000  0.00000000  0.24961199  1
  Au  Au11  1  0.50000001  0.00000000  0.92903296  1
  Sn  Sn12  1  0.50000001  0.00000000  0.42473298  1
  Au  Au13  1  0.00000000  0.50000001  0.07096700  1
  Ge  Ge14  1  0.00000000  0.50000001  0.57526698  1
