# generated using pymatgen
data_YIn2
_symmetry_space_group_name_H-M   'P 1'
_cell_length_a   4.54702377
_cell_length_b   4.54702377
_cell_length_c   8.75930500
_cell_angle_alpha   105.04359436
_cell_angle_beta   105.04359436
_cell_angle_gamma   90.00000000
_symmetry_Int_Tables_number   1
_chemical_formula_structural   YIn2
_chemical_formula_sum   'Y2 In4'
_cell_volume   168.46058308
_cell_formula_units_Z   2
loop_
 _symmetry_equiv_pos_site_id
 _symmetry_equiv_pos_as_xyz
  1  'x, y, z'
loop_
 _atom_site_type_symbol
 _atom_site_label
 _atom_site_symmetry_multiplicity
 _atom_site_fract_x
 _atom_site_fract_y
 _atom_site_fract_z
 _atom_site_occupancy
  Y  Y0  1  0.66297502  0.66297503  0.32594996  1
  Y  Y1  1  0.33702501  0.33702501  0.67404996  1
  In  In2  1  -0.00000001  0.50000002  -0.00000001  1
  In  In3  1  0.50000002  0.00000000  -0.00000001  1
  In  In4  1  0.86757702  0.86757704  0.73515394  1
  In  In5  1  0.13242300  0.13242301  0.26484598  1
