# generated using pymatgen
data_Ti2AlGaSiGe
_symmetry_space_group_name_H-M   'P 1'
_cell_length_a   5.05663013
_cell_length_b   5.10807800
_cell_length_c   5.10807800
_cell_angle_alpha   60.79815674
_cell_angle_beta   60.33261871
_cell_angle_gamma   60.33261871
_symmetry_Int_Tables_number   1
_chemical_formula_structural   Ti2AlGaSiGe
_chemical_formula_sum   'Ti2 Al1 Ga1 Si1 Ge1'
_cell_volume   94.32010116
_cell_formula_units_Z   1
loop_
 _symmetry_equiv_pos_site_id
 _symmetry_equiv_pos_as_xyz
  1  'x, y, z'
loop_
 _atom_site_type_symbol
 _atom_site_label
 _atom_site_symmetry_multiplicity
 _atom_site_fract_x
 _atom_site_fract_y
 _atom_site_fract_z
 _atom_site_occupancy
  Ti  Ti0  1  0.87650098  0.37349899  0.87349897  1
  Ti  Ti1  1  0.12349900  0.62650098  0.12650100  1
  Al  Al2  1  0.49999999  0.49999999  0.49999998  1
  Ga  Ga3  1  0.49999999  0.99999997  0.99999997  1
  Si  Si4  1  -0.00000000  0.99999997  0.49999999  1
  Ge  Ge5  1  0.49999999  0.00000000  0.49999998  1
