# generated using pymatgen
data_ErZrAl8(FeSi4)2
_symmetry_space_group_name_H-M   'P 1'
_cell_length_a   3.01969290
_cell_length_b   9.48621941
_cell_length_c   9.48621941
_cell_angle_alpha   90.00000000
_cell_angle_beta   90.00000000
_cell_angle_gamma   90.00000000
_symmetry_Int_Tables_number   1
_chemical_formula_structural   ErZrAl8(FeSi4)2
_chemical_formula_sum   'Er1 Zr1 Al8 Fe2 Si8'
_cell_volume   271.73720741
_cell_formula_units_Z   1
loop_
 _symmetry_equiv_pos_site_id
 _symmetry_equiv_pos_as_xyz
  1  'x, y, z'
loop_
 _atom_site_type_symbol
 _atom_site_label
 _atom_site_symmetry_multiplicity
 _atom_site_fract_x
 _atom_site_fract_y
 _atom_site_fract_z
 _atom_site_occupancy
  Er  Er0  1  0.00000000  0.82380096  0.67619897  1
  Zr  Zr1  1  0.00000000  0.17619899  0.32380099  1
  Al  Al2  1  0.00000000  0.32380099  0.82380096  1
  Al  Al3  1  0.00000000  0.67619897  0.17619899  1
  Al  Al4  1  1.00000003  0.49999998  0.49999998  1
  Al  Al5  1  0.00000000  0.00000000  0.00000000  1
  Si  Si6  1  0.00000000  0.62177197  0.87822796  1
  Fe  Fe7  1  0.00000000  0.37822798  0.12177199  1
  Si  Si8  1  0.00000000  0.12177199  0.62177197  1
  Al  Al9  1  0.00000000  0.87822796  0.37822798  1
  Si  Si10  1  0.50000002  0.57103898  0.71897797  1
  Si  Si11  1  0.50000002  0.42896098  0.28102199  1
  Si  Si12  1  0.50000002  0.07103900  0.78102197  1
  Al  Al13  1  0.50000002  0.92896096  0.21897799  1
  Al  Al14  1  0.50000002  0.28102199  0.57103898  1
  Si  Si15  1  0.50000002  0.71897797  0.42896098  1
  Fe  Fe16  1  0.50000002  0.21897799  0.07103900  1
  Si  Si17  1  0.50000002  0.78102197  0.92896096  1
  Al  Al18  1  0.50000002  0.49999998  -0.00000000  1
  Si  Si19  1  0.50000002  0.99999996  0.49999998  1
