# generated using pymatgen
data_Mn2AlGaSi2
_symmetry_space_group_name_H-M   'P 1'
_cell_length_a   4.00454807
_cell_length_b   4.00454807
_cell_length_c   5.78046703
_cell_angle_alpha   90.00000000
_cell_angle_beta   90.00000000
_cell_angle_gamma   90.00000000
_symmetry_Int_Tables_number   1
_chemical_formula_structural   Mn2AlGaSi2
_chemical_formula_sum   'Mn2 Al1 Ga1 Si2'
_cell_volume   92.69791198
_cell_formula_units_Z   1
loop_
 _symmetry_equiv_pos_site_id
 _symmetry_equiv_pos_as_xyz
  1  'x, y, z'
loop_
 _atom_site_type_symbol
 _atom_site_label
 _atom_site_symmetry_multiplicity
 _atom_site_fract_x
 _atom_site_fract_y
 _atom_site_fract_z
 _atom_site_occupancy
  Mn  Mn0  1  0.00000000  0.00000000  0.50000000  1
  Mn  Mn1  1  0.49999999  0.49999999  -0.00000000  1
  Ga  Ga2  1  0.49999999  0.00000000  0.26573800  1
  Al  Al3  1  0.49999999  0.00000000  0.73426200  1
  Si  Si4  1  0.00000000  0.49999999  0.73426200  1
  Si  Si5  1  0.00000000  0.49999999  0.26573800  1
