# generated using pymatgen
data_Li3EuH3CO8
_symmetry_space_group_name_H-M   'P 1'
_cell_length_a   5.93170214
_cell_length_b   6.21355867
_cell_length_c   6.87066555
_cell_angle_alpha   112.98464203
_cell_angle_beta   90.00000000
_cell_angle_gamma   118.51045990
_symmetry_Int_Tables_number   1
_chemical_formula_structural   Li3EuH3CO8
_chemical_formula_sum   'Li3 Eu1 H3 C1 O8'
_cell_volume   199.34493733
_cell_formula_units_Z   1
loop_
 _symmetry_equiv_pos_site_id
 _symmetry_equiv_pos_as_xyz
  1  'x, y, z'
loop_
 _atom_site_type_symbol
 _atom_site_label
 _atom_site_symmetry_multiplicity
 _atom_site_fract_x
 _atom_site_fract_y
 _atom_site_fract_z
 _atom_site_occupancy
  Li  Li0  1  0.00000000  0.00000000  0.00000000  1
  Eu  Eu1  1  0.49999996  0.49999998  0.50000001  1
  Li  Li2  1  0.99999995  0.49999998  0.50000001  1
  Li  Li3  1  0.50546499  0.01093000  0.25185300  1
  H  H4  1  0.49453493  0.98906995  0.74814703  1
  H  H5  1  0.49999999  0.00000000  0.50000000  1
  H  H6  1  0.72094996  0.44189998  0.83157002  1
  C  C7  1  0.27904996  0.55809997  0.16843001  1
  O  O8  1  0.57158998  0.14317999  0.40454601  1
  O  O9  1  0.42840994  0.85681996  0.59545402  1
  O  O10  1  0.59136395  0.57165297  0.81786602  1
  O  O11  1  0.40863596  0.42834698  0.18213401  1
  O  O12  1  0.01971097  0.42834698  0.18213401  1
  O  O13  1  0.98028894  0.57165297  0.81786602  1
  O  O14  1  0.85190794  0.70381597  0.52910502  1
  O  O15  1  0.14809198  0.29618399  0.47089501  1
