# generated using pymatgen
data_YZrIn2Sn8GeAu4
_symmetry_space_group_name_H-M   'P 1'
_cell_length_a   5.92055225
_cell_length_b   8.72017574
_cell_length_c   8.72113132
_cell_angle_alpha   60.00363159
_cell_angle_beta   89.99377441
_cell_angle_gamma   89.98754883
_symmetry_Int_Tables_number   1
_chemical_formula_structural   YZrIn2Sn8GeAu4
_chemical_formula_sum   'Y1 Zr1 In2 Sn8 Ge1 Au4'
_cell_volume   389.94808808
_cell_formula_units_Z   1
loop_
 _symmetry_equiv_pos_site_id
 _symmetry_equiv_pos_as_xyz
  1  'x, y, z'
loop_
 _atom_site_type_symbol
 _atom_site_label
 _atom_site_symmetry_multiplicity
 _atom_site_fract_x
 _atom_site_fract_y
 _atom_site_fract_z
 _atom_site_occupancy
  In  In0  1  0.50000104  0.66666666  0.66666664  1
  Y  Y1  1  0.50000101  0.33333333  0.33333332  1
  Zr  Zr2  1  0.00000503  0.33333333  0.33333332  1
  In  In3  1  0.00000506  0.66666666  0.66666663  1
  Sn  Sn4  1  0.76485999  0.27185900  0.00000001  1
  Sn  Sn5  1  0.76485997  0.00003100  0.72809599  1
  Sn  Sn6  1  0.76486003  0.72812599  0.27190399  1
  Sn  Sn7  1  0.23514105  0.72814299  -0.00000001  1
  Sn  Sn8  1  0.23513907  0.99996699  0.27190898  1
  Sn  Sn9  1  0.23513901  0.27187600  0.72809097  1
  Au  Au10  1  0.74467502  0.61535199  0.99999997  1
  Sn  Sn11  1  0.74467805  0.99998099  0.38467198  1
  Au  Au12  1  0.74467800  0.38465300  0.61532798  1
  Au  Au13  1  0.25532502  0.38465100  0.99999996  1
  Au  Au14  1  0.25531999  0.00001900  0.61532898  1
  Sn  Sn15  1  0.25532004  0.61534799  0.38467098  1
  Ge  Ge16  1  0.49999206  0.99999899  0.99999996  1
