# generated using pymatgen
data_ScZnInGaPd4
_symmetry_space_group_name_H-M   'P 1'
_cell_length_a   4.04048491
_cell_length_b   5.38616610
_cell_length_c   7.29228210
_cell_angle_alpha   90.00000000
_cell_angle_beta   90.00000000
_cell_angle_gamma   90.00000000
_symmetry_Int_Tables_number   1
_chemical_formula_structural   ScZnInGaPd4
_chemical_formula_sum   'Sc1 Zn1 In1 Ga1 Pd4'
_cell_volume   158.69991407
_cell_formula_units_Z   1
loop_
 _symmetry_equiv_pos_site_id
 _symmetry_equiv_pos_as_xyz
  1  'x, y, z'
loop_
 _atom_site_type_symbol
 _atom_site_label
 _atom_site_symmetry_multiplicity
 _atom_site_fract_x
 _atom_site_fract_y
 _atom_site_fract_z
 _atom_site_occupancy
  Ga  Ga0  1  0.25000001  0.37855099  0.67986599  1
  Sc  Sc1  1  0.25000001  0.12144900  0.17986600  1
  In  In2  1  0.75000002  0.62144899  0.32013400  1
  Zn  Zn3  1  0.75000002  0.87855098  0.82013399  1
  Pd  Pd4  1  0.25000001  0.90031698  0.52860299  1
  Pd  Pd5  1  0.25000001  0.59968299  0.02860300  1
  Pd  Pd6  1  0.75000002  0.09968300  0.47139699  1
  Pd  Pd7  1  0.75000002  0.40031699  0.97139699  1
