# generated using pymatgen
data_KBa3Na2Cu2AgSeIO5
_symmetry_space_group_name_H-M   'P 1'
_cell_length_a   3.97831798
_cell_length_b   4.01292086
_cell_length_c   21.01820183
_cell_angle_alpha   90.00000000
_cell_angle_beta   90.00000000
_cell_angle_gamma   90.00000000
_symmetry_Int_Tables_number   1
_chemical_formula_structural   KBa3Na2Cu2AgSeIO5
_chemical_formula_sum   'K1 Ba3 Na2 Cu2 Ag1 Se1 I1 O5'
_cell_volume   335.54876504
_cell_formula_units_Z   1
loop_
 _symmetry_equiv_pos_site_id
 _symmetry_equiv_pos_as_xyz
  1  'x, y, z'
loop_
 _atom_site_type_symbol
 _atom_site_label
 _atom_site_symmetry_multiplicity
 _atom_site_fract_x
 _atom_site_fract_y
 _atom_site_fract_z
 _atom_site_occupancy
  Ba  Ba0  1  0.25000000  0.23227601  0.11442600  1
  Ba  Ba1  1  0.75000000  0.73227603  0.38557398  1
  K  K2  1  0.25000000  0.26772401  0.61442598  1
  Ba  Ba3  1  0.75000000  0.76772403  0.88557397  1
  Na  Na4  1  0.75000000  0.22975301  0.25000699  1
  Na  Na5  1  0.25000000  0.72975303  0.24999299  1
  Cu  Cu6  1  0.75000000  0.27024701  0.75000697  1
  Ag  Ag7  1  0.25000000  0.77024703  0.74999297  1
  O  O8  1  0.25000000  0.71939603  0.00123400  1
  O  O9  1  0.75000000  0.73143403  0.15617999  1
  Cu  Cu10  1  0.25000000  0.23143401  0.34381999  1
  O  O11  1  0.75000000  0.21939601  0.49876598  1
  I  I12  1  0.25000000  0.78060403  0.50123398  1
  O  O13  1  0.75000000  0.76856603  0.65617997  1
  Se  Se14  1  0.25000000  0.26856601  0.84381997  1
  O  O15  1  0.75000000  0.28060401  0.99876596  1
