# generated using pymatgen
data_MnCoCu4(PO6)2
_symmetry_space_group_name_H-M   'P 1'
_cell_length_a   6.38408995
_cell_length_b   6.38408995
_cell_length_c   6.38408995
_cell_angle_alpha   109.47122192
_cell_angle_beta   109.47122192
_cell_angle_gamma   109.47122192
_symmetry_Int_Tables_number   1
_chemical_formula_structural   MnCoCu4(PO6)2
_chemical_formula_sum   'Mn1 Co1 Cu4 P2 O12'
_cell_volume   200.29729318
_cell_formula_units_Z   1
loop_
 _symmetry_equiv_pos_site_id
 _symmetry_equiv_pos_as_xyz
  1  'x, y, z'
loop_
 _atom_site_type_symbol
 _atom_site_label
 _atom_site_symmetry_multiplicity
 _atom_site_fract_x
 _atom_site_fract_y
 _atom_site_fract_z
 _atom_site_occupancy
  Mn  Mn0  1  0.00000000  0.00000000  0.00000000  1
  Co  Co1  1  0.50000003  0.50000001  0.50000003  1
  Cu  Cu2  1  0.00000000  0.00000000  0.49999999  1
  Cu  Cu3  1  0.00000003  0.50000001  0.00000003  1
  Cu  Cu4  1  0.50000006  1.00000003  0.00000007  1
  Cu  Cu5  1  0.50000003  0.50000001  0.00000004  1
  P  P6  1  0.50000006  1.00000003  0.50000006  1
  P  P7  1  0.00000003  0.50000001  0.50000002  1
  O  O8  1  0.29673501  0.17223200  0.46896701  1
  O  O9  1  0.70326505  0.82776802  0.53103306  1
  O  O10  1  0.29673505  0.82776802  0.12450305  1
  O  O11  1  0.70326501  0.17223200  0.87549701  1
  O  O12  1  0.82776803  0.53103301  0.70326504  1
  O  O13  1  0.17223203  0.46896701  0.29673503  1
  O  O14  1  0.17223205  0.87549702  0.70326504  1
  O  O15  1  0.82776800  0.12450300  0.29673502  1
  O  O16  1  0.12450302  0.29673501  0.82776801  1
  O  O17  1  0.87549704  0.70326502  0.17223206  1
  O  O18  1  0.46896702  0.29673501  0.17223203  1
  O  O19  1  0.53103304  0.70326502  0.82776804  1
