# generated using pymatgen
data_LiMg2
_symmetry_space_group_name_H-M   'P 1'
_cell_length_a   5.46885204
_cell_length_b   5.46885204
_cell_length_c   6.02747440
_cell_angle_alpha   63.02123260
_cell_angle_beta   63.02123260
_cell_angle_gamma   60.00000000
_symmetry_Int_Tables_number   1
_chemical_formula_structural   LiMg2
_chemical_formula_sum   'Li2 Mg4'
_cell_volume   132.98539231
_cell_formula_units_Z   2
loop_
 _symmetry_equiv_pos_site_id
 _symmetry_equiv_pos_as_xyz
  1  'x, y, z'
loop_
 _atom_site_type_symbol
 _atom_site_label
 _atom_site_symmetry_multiplicity
 _atom_site_fract_x
 _atom_site_fract_y
 _atom_site_fract_z
 _atom_site_occupancy
  Li  Li0  1  0.83532002  0.16468000  0.50000000  1
  Mg  Mg1  1  0.16468002  0.50000000  0.50000000  1
  Mg  Mg2  1  0.50000004  0.83532000  0.49999999  1
  Li  Li3  1  0.33297802  0.33297800  0.00106599  1
  Mg  Mg4  1  0.66702204  0.66702200  0.99893400  1
  Mg  Mg5  1  0.00000000  0.00000000  0.00000000  1
