# generated using pymatgen
data_KNa2LiPO9
_symmetry_space_group_name_H-M   'P 1'
_cell_length_a   5.85037422
_cell_length_b   5.85037374
_cell_length_c   7.78545284
_cell_angle_alpha   90.00000000
_cell_angle_beta   90.00000000
_cell_angle_gamma   120.00000000
_symmetry_Int_Tables_number   1
_chemical_formula_structural   KNa2LiPO9
_chemical_formula_sum   'K1 Na2 Li1 P1 O9'
_cell_volume   230.77128503
_cell_formula_units_Z   1
loop_
 _symmetry_equiv_pos_site_id
 _symmetry_equiv_pos_as_xyz
  1  'x, y, z'
loop_
 _atom_site_type_symbol
 _atom_site_label
 _atom_site_symmetry_multiplicity
 _atom_site_fract_x
 _atom_site_fract_y
 _atom_site_fract_z
 _atom_site_occupancy
  Na  Na0  1  0.66666662  0.33333331  0.29865801  1
  K  K1  1  0.33333329  0.66666663  0.70134201  1
  Na  Na2  1  0.00000000  0.00000000  0.00000000  1
  Li  Li3  1  0.00000000  0.00000000  0.50000001  1
  P  P4  1  0.66666662  0.33333331  0.73891901  1
  O  O5  1  0.33333329  0.66666663  0.26108101  1
  O  O6  1  0.66666662  0.33333331  0.93771502  1
  O  O7  1  0.33333329  0.66666663  0.06228500  1
  O  O8  1  0.81183294  0.62366596  0.67178601  1
  O  O9  1  0.18816697  0.37633398  0.32821401  1
  O  O10  1  0.81183296  0.18816599  0.67178601  1
  O  O11  1  0.18816695  0.81183395  0.32821401  1
  O  O12  1  0.37633298  0.18816599  0.67178601  1
  O  O13  1  0.62366694  0.81183395  0.32821401  1
