# generated using pymatgen
data_TbPrEr2Lu2InGa3
_symmetry_space_group_name_H-M   'P 1'
_cell_length_a   4.24506283
_cell_length_b   8.10338211
_cell_length_c   8.10338211
_cell_angle_alpha   90.00000000
_cell_angle_beta   90.00000000
_cell_angle_gamma   90.00000000
_symmetry_Int_Tables_number   1
_chemical_formula_structural   TbPrEr2Lu2InGa3
_chemical_formula_sum   'Tb1 Pr1 Er2 Lu2 In1 Ga3'
_cell_volume   278.75120851
_cell_formula_units_Z   1
loop_
 _symmetry_equiv_pos_site_id
 _symmetry_equiv_pos_as_xyz
  1  'x, y, z'
loop_
 _atom_site_type_symbol
 _atom_site_label
 _atom_site_symmetry_multiplicity
 _atom_site_fract_x
 _atom_site_fract_y
 _atom_site_fract_z
 _atom_site_occupancy
  Er  Er0  1  0.00000000  0.00000000  0.00000000  1
  Pr  Pr1  1  0.00000000  0.49999999  0.49999999  1
  Er  Er2  1  0.50000002  0.67591499  0.17591500  1
  Tb  Tb3  1  0.50000002  0.17591500  0.32408500  1
  Lu  Lu4  1  0.50000002  0.82408499  0.67591499  1
  Lu  Lu5  1  0.50000002  0.32408500  0.82408499  1
  Ga  Ga6  1  0.00000000  0.88212499  0.38212499  1
  Ga  Ga7  1  -0.00000000  0.38212499  0.11787500  1
  In  In8  1  0.00000000  0.61787499  0.88212499  1
  Ga  Ga9  1  0.00000000  0.11787500  0.61787499  1
