# generated using pymatgen
data_V3FeMo4
_symmetry_space_group_name_H-M   'P 1'
_cell_length_a   4.28556585
_cell_length_b   5.32348585
_cell_length_c   5.32348680
_cell_angle_alpha   60.00000381
_cell_angle_beta   90.00000000
_cell_angle_gamma   90.00000000
_symmetry_Int_Tables_number   1
_chemical_formula_structural   V3FeMo4
_chemical_formula_sum   'V3 Fe1 Mo4'
_cell_volume   105.17950133
_cell_formula_units_Z   1
loop_
 _symmetry_equiv_pos_site_id
 _symmetry_equiv_pos_as_xyz
  1  'x, y, z'
loop_
 _atom_site_type_symbol
 _atom_site_label
 _atom_site_symmetry_multiplicity
 _atom_site_fract_x
 _atom_site_fract_y
 _atom_site_fract_z
 _atom_site_occupancy
  V  V0  1  0.25000001  0.82960503  0.34078998  1
  V  V1  1  0.25000001  0.82960503  0.82960498  1
  V  V2  1  0.25000001  0.34079001  0.82960499  1
  Fe  Fe3  1  0.75000003  0.17039501  0.65920999  1
  Mo  Mo4  1  0.75000003  0.17039501  0.17039500  1
  Mo  Mo5  1  0.75000003  0.65921002  0.17039499  1
  Mo  Mo6  1  0.25000001  0.33333335  0.33333332  1
  Mo  Mo7  1  0.75000003  0.66666669  0.66666665  1
