# generated using pymatgen
data_Li3Y2
_symmetry_space_group_name_H-M   'P 1'
_cell_length_a   4.00021601
_cell_length_b   4.32324791
_cell_length_c   7.78974771
_cell_angle_alpha   106.11081696
_cell_angle_beta   104.87799072
_cell_angle_gamma   90.00000000
_symmetry_Int_Tables_number   1
_chemical_formula_structural   Li3Y2
_chemical_formula_sum   'Li3 Y2'
_cell_volume   124.71680729
_cell_formula_units_Z   1
loop_
 _symmetry_equiv_pos_site_id
 _symmetry_equiv_pos_as_xyz
  1  'x, y, z'
loop_
 _atom_site_type_symbol
 _atom_site_label
 _atom_site_symmetry_multiplicity
 _atom_site_fract_x
 _atom_site_fract_y
 _atom_site_fract_z
 _atom_site_occupancy
  Y  Y0  1  0.37422999  0.37423001  0.74845998  1
  Y  Y1  1  0.62448499  0.12448500  0.24896998  1
  Li  Li2  1  0.03986599  0.53986601  0.07973200  1
  Li  Li3  1  0.79490998  0.79491002  0.58981998  1
  Li  Li4  1  0.20250799  0.70250802  0.40501599  1
