# generated using pymatgen
data_ZrMnAl8GaSi3
_symmetry_space_group_name_H-M   'P 1'
_cell_length_a   5.04842520
_cell_length_b   5.04842520
_cell_length_c   9.01994419
_cell_angle_alpha   90.00000000
_cell_angle_beta   90.00000000
_cell_angle_gamma   98.27592468
_symmetry_Int_Tables_number   1
_chemical_formula_structural   ZrMnAl8GaSi3
_chemical_formula_sum   'Zr1 Mn1 Al8 Ga1 Si3'
_cell_volume   227.49371460
_cell_formula_units_Z   1
loop_
 _symmetry_equiv_pos_site_id
 _symmetry_equiv_pos_as_xyz
  1  'x, y, z'
loop_
 _atom_site_type_symbol
 _atom_site_label
 _atom_site_symmetry_multiplicity
 _atom_site_fract_x
 _atom_site_fract_y
 _atom_site_fract_z
 _atom_site_occupancy
  Mn  Mn0  1  0.32398398  0.67601600  -0.00000000  1
  Zr  Zr1  1  0.67601600  0.32398400  0.49999999  1
  Ga  Ga2  1  0.67601600  0.32398400  -0.00000000  1
  Al  Al3  1  0.32398398  0.67601600  0.49999999  1
  Al  Al4  1  0.13347400  0.13347400  0.39966199  1
  Al  Al5  1  0.86652598  0.86652600  0.89966198  1
  Al  Al6  1  0.13347400  0.13347400  0.10033800  1
  Al  Al7  1  0.86652598  0.86652600  0.60033799  1
  Al  Al8  1  0.38986700  0.02859200  0.74999998  1
  Al  Al9  1  0.61013298  0.97140800  0.24999999  1
  Al  Al10  1  0.02859199  0.38986700  0.74999998  1
  Si  Si11  1  0.97140799  0.61013300  0.24999999  1
  Si  Si12  1  0.54397799  0.54397800  0.74999998  1
  Si  Si13  1  0.45602199  0.45602200  0.24999999  1
