# generated using pymatgen
data_DyYEr2GaSi(NiRh)3
_symmetry_space_group_name_H-M   'P 1'
_cell_length_a   4.21855783
_cell_length_b   6.85301924
_cell_length_c   7.21893406
_cell_angle_alpha   90.00000000
_cell_angle_beta   90.00000000
_cell_angle_gamma   90.00000000
_symmetry_Int_Tables_number   1
_chemical_formula_structural   DyYEr2GaSi(NiRh)3
_chemical_formula_sum   'Dy1 Y1 Er2 Ga1 Si1 Ni3 Rh3'
_cell_volume   208.69835853
_cell_formula_units_Z   1
loop_
 _symmetry_equiv_pos_site_id
 _symmetry_equiv_pos_as_xyz
  1  'x, y, z'
loop_
 _atom_site_type_symbol
 _atom_site_label
 _atom_site_symmetry_multiplicity
 _atom_site_fract_x
 _atom_site_fract_y
 _atom_site_fract_z
 _atom_site_occupancy
  Er  Er0  1  0.25000001  0.99152097  0.80040899  1
  Dy  Dy1  1  0.25000001  0.49152098  0.69959099  1
  Er  Er2  1  0.75000003  0.00847900  0.19959100  1
  Y  Y3  1  0.75000003  0.50847898  0.30040900  1
  Ga  Ga4  1  0.25000001  0.15671499  0.43216200  1
  Ni  Ni5  1  0.25000001  0.65671498  0.06783800  1
  Ni  Ni6  1  0.75000003  0.84328497  0.56783800  1
  Ni  Ni7  1  0.75000003  0.34328499  0.93216199  1
  Rh  Rh8  1  0.25000001  0.79623997  0.40080900  1
  Si  Si9  1  0.25000001  0.29623999  0.09919100  1
  Rh  Rh10  1  0.75000003  0.20375999  0.59919100  1
  Rh  Rh11  1  0.75000003  0.70375998  0.90080899  1
