# generated using pymatgen
data_Pr2EuYGa2Si4(Ge2Rh3)2
_symmetry_space_group_name_H-M   'P 1'
_cell_length_a   6.08748007
_cell_length_b   8.48215389
_cell_length_c   8.48215389
_cell_angle_alpha   73.77982330
_cell_angle_beta   68.97100067
_cell_angle_gamma   68.97100067
_symmetry_Int_Tables_number   1
_chemical_formula_structural   Pr2EuYGa2Si4(Ge2Rh3)2
_chemical_formula_sum   'Pr2 Eu1 Y1 Ga2 Si4 Ge4 Rh6'
_cell_volume   375.83781060
_cell_formula_units_Z   1
loop_
 _symmetry_equiv_pos_site_id
 _symmetry_equiv_pos_as_xyz
  1  'x, y, z'
loop_
 _atom_site_type_symbol
 _atom_site_label
 _atom_site_symmetry_multiplicity
 _atom_site_fract_x
 _atom_site_fract_y
 _atom_site_fract_z
 _atom_site_occupancy
  Eu  Eu0  1  0.86646501  0.86460496  0.40246508  1
  Pr  Pr1  1  0.36646500  0.40246498  0.86460502  1
  Y  Y2  1  0.13353500  0.13539499  0.59753500  1
  Pr  Pr3  1  0.63353500  0.59753497  0.13539506  1
  Ga  Ga4  1  0.75000000  0.49999997  0.50000005  1
  Ga  Ga5  1  0.25000001  0.49999997  0.50000003  1
  Ge  Ge6  1  0.59886698  0.06121400  0.74105201  1
  Si  Si7  1  0.09886603  0.74105196  0.06121505  1
  Si  Si8  1  0.40113302  0.93878595  0.25894807  1
  Si  Si9  1  0.90113398  0.25894799  0.93878503  1
  Ge  Ge10  1  0.47241002  0.77758996  0.77759005  1
  Ge  Ge11  1  0.97241000  0.77758996  0.77759007  1
  Rh  Rh12  1  0.02759001  0.22240999  0.22241001  1
  Rh  Rh13  1  0.52758999  0.22240999  0.22241003  1
  Rh  Rh14  1  0.74999998  0.00000000  0.00000003  1
  Rh  Rh15  1  0.14027901  0.46617798  0.25326403  1
  Rh  Rh16  1  0.35972102  0.74673596  0.53382205  1
  Si  Si17  1  0.85972099  0.53382197  0.74673605  1
  Rh  Rh18  1  0.24999999  0.00000000  0.00000001  1
  Ge  Ge19  1  0.64027899  0.25326399  0.46617803  1
