# generated using pymatgen
data_ErHf3ZrGa3GePd10Rh
_symmetry_space_group_name_H-M   'P 1'
_cell_length_a   6.85395718
_cell_length_b   7.11124611
_cell_length_c   7.11124611
_cell_angle_alpha   90.00000000
_cell_angle_beta   90.00000000
_cell_angle_gamma   90.00000000
_symmetry_Int_Tables_number   1
_chemical_formula_structural   ErHf3ZrGa3GePd10Rh
_chemical_formula_sum   'Er1 Hf3 Zr1 Ga3 Ge1 Pd10 Rh1'
_cell_volume   346.60338907
_cell_formula_units_Z   1
loop_
 _symmetry_equiv_pos_site_id
 _symmetry_equiv_pos_as_xyz
  1  'x, y, z'
loop_
 _atom_site_type_symbol
 _atom_site_label
 _atom_site_symmetry_multiplicity
 _atom_site_fract_x
 _atom_site_fract_y
 _atom_site_fract_z
 _atom_site_occupancy
  Er  Er0  1  0.00000000  0.18331400  0.18331400  1
  Hf  Hf1  1  0.49999999  0.68331399  0.31668600  1
  Hf  Hf2  1  0.49999999  0.31668600  0.68331399  1
  Zr  Zr3  1  0.00000000  0.81668599  0.81668599  1
  Hf  Hf4  1  0.00000000  0.65494599  0.34505399  1
  Ga  Ga5  1  0.49999999  0.84505399  0.84505399  1
  Ga  Ga6  1  0.49999999  0.15494600  0.15494600  1
  Ga  Ga7  1  0.00000000  0.34505399  0.65494599  1
  Pd  Pd8  1  0.28476799  0.37463499  0.37463499  1
  Pd  Pd9  1  0.78476798  0.87463499  0.12536500  1
  Pd  Pd10  1  0.78476798  0.12536500  0.87463499  1
  Ge  Ge11  1  0.28476799  0.62536499  0.62536499  1
  Pd  Pd12  1  0.21523199  0.12536500  0.87463499  1
  Pd  Pd13  1  0.21523199  0.87463499  0.12536500  1
  Rh  Rh14  1  0.71523198  0.37463499  0.37463499  1
  Pd  Pd15  1  0.71523198  0.62536499  0.62536499  1
  Pd  Pd16  1  0.24999999  0.49999999  0.00000000  1
  Pd  Pd17  1  0.74999998  0.49999999  0.00000000  1
  Pd  Pd18  1  0.24999999  0.00000000  0.49999999  1
  Pd  Pd19  1  0.74999998  0.00000000  0.49999999  1
