# generated using pymatgen
data_Nb5CuS6
_symmetry_space_group_name_H-M   'P 1'
_cell_length_a   3.69632006
_cell_length_b   9.05702114
_cell_length_c   10.22790146
_cell_angle_alpha   111.84703064
_cell_angle_beta   90.00000000
_cell_angle_gamma   101.77437592
_symmetry_Int_Tables_number   1
_chemical_formula_structural   Nb5CuS6
_chemical_formula_sum   'Nb5 Cu1 S6'
_cell_volume   310.03914224
_cell_formula_units_Z   1
loop_
 _symmetry_equiv_pos_site_id
 _symmetry_equiv_pos_as_xyz
  1  'x, y, z'
loop_
 _atom_site_type_symbol
 _atom_site_label
 _atom_site_symmetry_multiplicity
 _atom_site_fract_x
 _atom_site_fract_y
 _atom_site_fract_z
 _atom_site_occupancy
  Cu  Cu0  1  0.86312398  0.72624800  0.59020502  1
  Nb  Nb1  1  0.13687599  0.27375200  0.40979501  1
  S  S2  1  0.76890598  0.53781200  0.70073002  1
  Nb  Nb3  1  0.23109399  0.46218800  0.29927001  1
  Nb  Nb4  1  0.43496398  0.86992800  0.90818203  1
  Nb  Nb5  1  0.56503599  0.13007200  0.09181800  1
  Nb  Nb6  1  0.85760498  0.71521000  0.94552503  1
  S  S7  1  0.14239499  0.28479000  0.05447500  1
  S  S8  1  0.82398598  0.64797200  0.33804001  1
  S  S9  1  0.17601399  0.35202800  0.66196002  1
  S  S10  1  0.45479098  0.90958200  0.68586502  1
  S  S11  1  0.54520899  0.09041800  0.31413501  1
