# generated using pymatgen
data_NaLi3CuO6
_symmetry_space_group_name_H-M   'P 1'
_cell_length_a   3.80500793
_cell_length_b   3.80500793
_cell_length_c   11.83613205
_cell_angle_alpha   99.24967194
_cell_angle_beta   99.24967194
_cell_angle_gamma   90.00000000
_symmetry_Int_Tables_number   1
_chemical_formula_structural   NaLi3CuO6
_chemical_formula_sum   'Na1 Li3 Cu1 O6'
_cell_volume   166.87837386
_cell_formula_units_Z   1
loop_
 _symmetry_equiv_pos_site_id
 _symmetry_equiv_pos_as_xyz
  1  'x, y, z'
loop_
 _atom_site_type_symbol
 _atom_site_label
 _atom_site_symmetry_multiplicity
 _atom_site_fract_x
 _atom_site_fract_y
 _atom_site_fract_z
 _atom_site_occupancy
  Na  Na0  1  0.83334599  0.83334601  0.66669194  1
  Li  Li1  1  0.16665400  0.16665400  0.33330798  1
  Li  Li2  1  0.42126999  0.42127000  0.84253995  1
  Li  Li3  1  0.57872999  0.57873000  0.15745997  1
  O  O4  1  0.29494500  0.29494500  0.58988997  1
  Cu  Cu5  1  0.70505499  0.70505500  0.41010996  1
  O  O6  1  0.90058300  0.40058300  0.80116595  1
  O  O7  1  0.40058298  0.90058301  0.80116595  1
  O  O8  1  0.09941699  0.59941700  0.19883398  1
  O  O9  1  0.59941700  0.09941700  0.19883398  1
  O  O10  1  0.49999999  0.50000000  -0.00000002  1
