# generated using pymatgen
data_MnFe12
_symmetry_space_group_name_H-M   'P 1'
_cell_length_a   4.66477203
_cell_length_b   6.42954636
_cell_length_c   6.42954636
_cell_angle_alpha   82.31663513
_cell_angle_beta   68.73017120
_cell_angle_gamma   68.73017120
_symmetry_Int_Tables_number   1
_chemical_formula_structural   MnFe12
_chemical_formula_sum   'Mn1 Fe12'
_cell_volume   167.46035853
_cell_formula_units_Z   1
loop_
 _symmetry_equiv_pos_site_id
 _symmetry_equiv_pos_as_xyz
  1  'x, y, z'
loop_
 _atom_site_type_symbol
 _atom_site_label
 _atom_site_symmetry_multiplicity
 _atom_site_fract_x
 _atom_site_fract_y
 _atom_site_fract_z
 _atom_site_occupancy
  Mn  Mn0  1  0.00000000  0.00000000  0.00000000  1
  Fe  Fe1  1  0.50000001  0.79005601  0.20994400  1
  Fe  Fe2  1  0.50000000  0.20994400  0.79005602  1
  Fe  Fe3  1  0.71999801  0.78000201  0.78000202  1
  Fe  Fe4  1  0.28000200  0.21999800  0.21999801  1
  Fe  Fe5  1  0.00000000  0.00000000  0.50000001  1
  Fe  Fe6  1  0.49999999  0.00000000  0.50000002  1
  Fe  Fe7  1  0.50000001  0.50000001  0.00000000  1
  Fe  Fe8  1  0.00000001  0.50000001  -0.00000000  1
  Fe  Fe9  1  1.00000000  0.36008401  0.63991602  1
  Fe  Fe10  1  0.00000002  0.63991601  0.36008400  1
  Fe  Fe11  1  0.64099600  0.35900401  0.35900401  1
  Fe  Fe12  1  0.35900401  0.64099601  0.64099601  1
