# generated using pymatgen
data_Cu3Ag(TeSe)2
_symmetry_space_group_name_H-M   'P 1'
_cell_length_a   6.40292597
_cell_length_b   6.45708799
_cell_length_c   7.71640873
_cell_angle_alpha   114.73361206
_cell_angle_beta   114.51239777
_cell_angle_gamma   90.00000000
_symmetry_Int_Tables_number   1
_chemical_formula_structural   Cu3Ag(TeSe)2
_chemical_formula_sum   'Cu3 Ag1 Te2 Se2'
_cell_volume   257.76445209
_cell_formula_units_Z   1
loop_
 _symmetry_equiv_pos_site_id
 _symmetry_equiv_pos_as_xyz
  1  'x, y, z'
loop_
 _atom_site_type_symbol
 _atom_site_label
 _atom_site_symmetry_multiplicity
 _atom_site_fract_x
 _atom_site_fract_y
 _atom_site_fract_z
 _atom_site_occupancy
  Cu  Cu0  1  0.24122499  0.74122401  0.48244900  1
  Cu  Cu1  1  0.50877499  0.50877600  0.01755099  1
  Cu  Cu2  1  0.74376299  0.24376200  0.48752497  1
  Ag  Ag3  1  0.00623700  0.00623800  0.01247500  1
  Se  Se4  1  0.12069699  0.62500001  0.74999999  1
  Te  Te5  1  0.62930299  0.12500000  0.74999997  1
  Te  Te6  1  0.37499999  0.38105700  0.24999999  1
  Se  Se7  1  0.87499999  0.86894301  0.24999998  1
