# generated using pymatgen
data_In3Sn3Au4
_symmetry_space_group_name_H-M   'P 1'
_cell_length_a   4.38139009
_cell_length_b   7.59144878
_cell_length_c   9.80162430
_cell_angle_alpha   75.03575897
_cell_angle_beta   77.08512115
_cell_angle_gamma   73.22739410
_symmetry_Int_Tables_number   1
_chemical_formula_structural   In3Sn3Au4
_chemical_formula_sum   'In3 Sn3 Au4'
_cell_volume   297.62025266
_cell_formula_units_Z   1
loop_
 _symmetry_equiv_pos_site_id
 _symmetry_equiv_pos_as_xyz
  1  'x, y, z'
loop_
 _atom_site_type_symbol
 _atom_site_label
 _atom_site_symmetry_multiplicity
 _atom_site_fract_x
 _atom_site_fract_y
 _atom_site_fract_z
 _atom_site_occupancy
  In  In0  1  0.00000000  0.00000000  0.00000000  1
  In  In1  1  0.60005398  0.20021400  0.59967801  1
  In  In2  1  0.19986898  0.39993999  0.20032200  1
  Sn  Sn3  1  0.80013096  0.60005999  0.79967801  1
  Sn  Sn4  1  0.39994597  0.79978598  0.40032201  1
  Au  Au5  1  0.20094797  0.89958298  0.69852101  1
  Au  Au6  1  0.79905198  0.10041700  0.30147901  1
  Au  Au7  1  0.39898698  0.30302599  0.89900001  1
  Sn  Sn8  1  -0.00000001  0.49999999  0.50000000  1
  Au  Au9  1  0.60101296  0.69697398  0.10100001  1
