# generated using pymatgen
data_SrCa4La4PrYSn2
_symmetry_space_group_name_H-M   'P 1'
_cell_length_a   5.97503805
_cell_length_b   10.46708012
_cell_length_c   10.46708012
_cell_angle_alpha   85.32723236
_cell_angle_beta   73.41601562
_cell_angle_gamma   73.41601562
_symmetry_Int_Tables_number   1
_chemical_formula_structural   SrCa4La4PrYSn2
_chemical_formula_sum   'Sr1 Ca4 La4 Pr1 Y1 Sn2'
_cell_volume   601.29494382
_cell_formula_units_Z   1
loop_
 _symmetry_equiv_pos_site_id
 _symmetry_equiv_pos_as_xyz
  1  'x, y, z'
loop_
 _atom_site_type_symbol
 _atom_site_label
 _atom_site_symmetry_multiplicity
 _atom_site_fract_x
 _atom_site_fract_y
 _atom_site_fract_z
 _atom_site_occupancy
  Y  Y0  1  0.50000000  0.00000000  0.00000000  1
  La  La1  1  0.81336899  0.29799799  0.07526502  1
  La  La2  1  0.18663098  0.70200198  0.92473502  1
  Sr  Sr3  1  0.11136700  0.07526500  0.70200099  1
  Ca  Ca4  1  0.88863297  0.92473498  0.29799904  1
  Pr  Pr5  1  0.87529498  0.51264899  0.73676201  1
  Ca  Ca6  1  0.12470499  0.48735099  0.26323802  1
  Ca  Ca7  1  0.38794398  0.73676198  0.48735003  1
  Ca  Ca8  1  0.61205599  0.26323799  0.51265000  1
  La  La9  1  0.59903898  0.66348298  0.13843903  1
  La  La10  1  0.40096099  0.33651699  0.86156100  1
  Sn  Sn11  1  0.26252299  0.13843800  0.33651700  1
  Sn  Sn12  1  0.73747698  0.86156198  0.66348303  1
