# generated using pymatgen
data_Nb2Cu4Se11
_symmetry_space_group_name_H-M   'P 1'
_cell_length_a   7.11856365
_cell_length_b   8.75814819
_cell_length_c   8.80187225
_cell_angle_alpha   109.94634247
_cell_angle_beta   96.94255829
_cell_angle_gamma   107.02306366
_symmetry_Int_Tables_number   1
_chemical_formula_structural   Nb2Cu4Se11
_chemical_formula_sum   'Nb2 Cu4 Se11'
_cell_volume   478.13132411
_cell_formula_units_Z   1
loop_
 _symmetry_equiv_pos_site_id
 _symmetry_equiv_pos_as_xyz
  1  'x, y, z'
loop_
 _atom_site_type_symbol
 _atom_site_label
 _atom_site_symmetry_multiplicity
 _atom_site_fract_x
 _atom_site_fract_y
 _atom_site_fract_z
 _atom_site_occupancy
  Cu  Cu0  1  0.87171997  0.14864000  0.19460801  1
  Nb  Nb1  1  0.12827992  0.85136000  0.80539196  1
  Nb  Nb2  1  0.52132793  0.69521100  0.89649198  1
  Cu  Cu3  1  0.47867196  0.30478900  0.10350799  1
  Cu  Cu4  1  0.63254199  0.04977400  0.75444503  1
  Cu  Cu5  1  0.36745791  0.95022600  0.24555495  1
  Se  Se6  1  0.49999999  0.00000000  0.00000001  1
  Se  Se7  1  0.74873098  0.08208100  0.45782402  1
  Se  Se8  1  0.25126891  0.91791900  0.54217595  1
  Se  Se9  1  0.94700091  0.82617200  0.07709696  1
  Se  Se10  1  0.05299898  0.17382800  0.92290301  1
  Se  Se11  1  0.29964197  0.26234600  0.35586100  1
  Se  Se12  1  0.70035792  0.73765400  0.64413898  1
  Se  Se13  1  0.59050596  0.37127000  0.83582301  1
  Se  Se14  1  0.40949394  0.62873000  0.16417697  1
  Se  Se15  1  0.86619494  0.46852900  0.28229299  1
  Se  Se16  1  0.13380495  0.53147100  0.71770698  1
