# generated using pymatgen
data_YNb5MoS10
_symmetry_space_group_name_H-M   'P 1'
_cell_length_a   7.98552132
_cell_length_b   7.98552132
_cell_length_c   7.98552132
_cell_angle_alpha   109.47122192
_cell_angle_beta   109.47122192
_cell_angle_gamma   109.47122192
_symmetry_Int_Tables_number   1
_chemical_formula_structural   YNb5MoS10
_chemical_formula_sum   'Y1 Nb5 Mo1 S10'
_cell_volume   392.00166214
_cell_formula_units_Z   1
loop_
 _symmetry_equiv_pos_site_id
 _symmetry_equiv_pos_as_xyz
  1  'x, y, z'
loop_
 _atom_site_type_symbol
 _atom_site_label
 _atom_site_symmetry_multiplicity
 _atom_site_fract_x
 _atom_site_fract_y
 _atom_site_fract_z
 _atom_site_occupancy
  Y  Y0  1  0.00000000  0.00000000  0.00000000  1
  Nb  Nb1  1  0.50000005  0.50000003  0.50000005  1
  Nb  Nb2  1  0.00000000  0.00000000  0.50000001  1
  Nb  Nb3  1  0.00000003  0.50000003  0.00000003  1
  Mo  Mo4  1  0.50000002  0.00000000  0.00000001  1
  Nb  Nb5  1  0.16283003  0.33621702  0.49904704  1
  Nb  Nb6  1  0.83717007  0.66378304  0.50095307  1
  S  S7  1  0.16283005  0.66378404  0.82661306  1
  S  S8  1  0.83717005  0.33621602  0.17338704  1
  S  S9  1  0.66378305  0.50095303  0.83717007  1
  S  S10  1  0.33621704  0.49904703  0.16283004  1
  S  S11  1  0.33621702  0.17338701  0.83717104  1
  S  S12  1  0.66378307  0.82661305  0.16282907  1
  S  S13  1  0.82661304  0.16283001  0.66378305  1
  S  S14  1  0.17338706  0.83717005  0.33621706  1
  S  S15  1  0.49904603  0.16282901  0.33621603  1
  S  S16  1  0.50095407  0.83717105  0.66378408  1
