# generated using pymatgen
data_ZnCu2TeSe3
_symmetry_space_group_name_H-M   'P 1'
_cell_length_a   5.88086796
_cell_length_b   5.88086796
_cell_length_c   7.10267353
_cell_angle_alpha   114.45571136
_cell_angle_beta   114.45571136
_cell_angle_gamma   90.00000000
_symmetry_Int_Tables_number   1
_chemical_formula_structural   ZnCu2TeSe3
_chemical_formula_sum   'Zn1 Cu2 Te1 Se3'
_cell_volume   199.14148765
_cell_formula_units_Z   1
loop_
 _symmetry_equiv_pos_site_id
 _symmetry_equiv_pos_as_xyz
  1  'x, y, z'
loop_
 _atom_site_type_symbol
 _atom_site_label
 _atom_site_symmetry_multiplicity
 _atom_site_fract_x
 _atom_site_fract_y
 _atom_site_fract_z
 _atom_site_occupancy
  Cu  Cu0  1  0.50000000  0.50000000  0.00000000  1
  Cu  Cu1  1  0.75000001  0.25000000  0.50000001  1
  Zn  Zn2  1  0.25000000  0.75000001  0.50000001  1
  Te  Te3  1  0.64982601  0.64982601  0.78054402  1
  Se  Se4  1  0.86928201  0.35017400  0.21945601  1
  Se  Se5  1  0.13071800  0.13071800  0.78054402  1
  Se  Se6  1  0.35017400  0.86928201  0.21945601  1
