# generated using pymatgen
data_PrYEr3Al2Ga6Si3Ge2
_symmetry_space_group_name_H-M   'P 1'
_cell_length_a   4.21762800
_cell_length_b   9.29621315
_cell_length_c   9.29621410
_cell_angle_alpha   119.97182465
_cell_angle_beta   90.00000000
_cell_angle_gamma   90.00000000
_symmetry_Int_Tables_number   1
_chemical_formula_structural   PrYEr3Al2Ga6Si3Ge2
_chemical_formula_sum   'Pr1 Y1 Er3 Al2 Ga6 Si3 Ge2'
_cell_volume   315.74343274
_cell_formula_units_Z   1
loop_
 _symmetry_equiv_pos_site_id
 _symmetry_equiv_pos_as_xyz
  1  'x, y, z'
loop_
 _atom_site_type_symbol
 _atom_site_label
 _atom_site_symmetry_multiplicity
 _atom_site_fract_x
 _atom_site_fract_y
 _atom_site_fract_z
 _atom_site_occupancy
  Er  Er0  1  0.50000000  0.66666670  0.33324670  1
  Pr  Pr1  1  0.50000000  0.33333335  0.66675333  1
  Er  Er2  1  -0.00000000  0.99993005  0.99993003  1
  Er  Er3  1  1.00000000  0.79319404  0.16750705  1
  Ga  Ga4  1  -0.00000000  0.83277504  0.62585703  1
  Si  Si5  1  -0.00000000  0.37402102  0.20685902  1
  Y  Y6  1  -0.00000000  0.16750701  0.79319398  1
  Al  Al7  1  -0.00000000  0.62585803  0.83277601  1
  Al  Al8  1  1.00000000  0.20685901  0.37402100  1
  Ga  Ga9  1  0.50000000  0.70367303  0.70367302  1
  Si  Si10  1  0.50000000  0.29633501  0.00003402  1
  Si  Si11  1  0.50000000  0.00003400  0.29633499  1
  Ga  Ga12  1  0.50000000  0.25281901  0.25281901  1
  Ga  Ga13  1  0.50000000  0.74705904  0.99994601  1
  Ga  Ga14  1  0.50000000  0.99994605  0.74705904  1
  Ge  Ge15  1  -0.00000000  0.52916003  0.52916001  1
  Ge  Ge16  1  1.00000000  0.47103202  0.99992199  1
  Ga  Ga17  1  1.00000000  0.99992205  0.47103205  1
