# generated using pymatgen
data_La2Y2ErIn3Ga2CuSn(PAu)3
_symmetry_space_group_name_H-M   'P 1'
_cell_length_a   6.28473377
_cell_length_b   8.39292049
_cell_length_c   8.39292049
_cell_angle_alpha   120.00000000
_cell_angle_beta   90.00000000
_cell_angle_gamma   90.00000000
_symmetry_Int_Tables_number   1
_chemical_formula_structural   La2Y2ErIn3Ga2CuSn(PAu)3
_chemical_formula_sum   'La2 Y2 Er1 In3 Ga2 Cu1 Sn1 P3 Au3'
_cell_volume   383.39260790
_cell_formula_units_Z   1
loop_
 _symmetry_equiv_pos_site_id
 _symmetry_equiv_pos_as_xyz
  1  'x, y, z'
loop_
 _atom_site_type_symbol
 _atom_site_label
 _atom_site_symmetry_multiplicity
 _atom_site_fract_x
 _atom_site_fract_y
 _atom_site_fract_z
 _atom_site_occupancy
  Er  Er0  1  -0.00000000  0.33333331  0.66666663  1
  La  La1  1  -0.00000000  0.66666663  0.33333331  1
  La  La2  1  0.50000002  0.66666663  0.33333331  1
  Y  Y3  1  0.50000002  0.33333331  0.66666663  1
  Ga  Ga4  1  0.25000001  0.22415899  -0.00000000  1
  Y  Y5  1  0.25000001  0.77584096  0.77584095  1
  In  In6  1  0.25000001  0.99999994  0.22415898  1
  In  In7  1  0.75000003  0.77584096  -0.00000001  1
  In  In8  1  0.75000003  0.22415899  0.22415899  1
  Ga  Ga9  1  0.75000003  0.99999994  0.77584095  1
  Cu  Cu10  1  0.25000001  0.59373497  -0.00000001  1
  Sn  Sn11  1  0.25000001  0.40626498  0.40626498  1
  Au  Au12  1  0.25000001  0.00000000  0.59373497  1
  Au  Au13  1  0.75000003  0.40626498  -0.00000000  1
  Au  Au14  1  0.75000003  0.59373497  0.59373496  1
  P  P15  1  0.75000003  0.99999994  0.40626497  1
  P  P16  1  0.00000000  0.00000000  0.00000000  1
  P  P17  1  0.50000002  0.00000000  -0.00000000  1
