# generated using pymatgen
data_LiGa2CuGe
_symmetry_space_group_name_H-M   'P 1'
_cell_length_a   4.00559998
_cell_length_b   4.00559998
_cell_length_c   6.20090818
_cell_angle_alpha   108.84353638
_cell_angle_beta   108.84353638
_cell_angle_gamma   90.00000000
_symmetry_Int_Tables_number   1
_chemical_formula_structural   LiGa2CuGe
_chemical_formula_sum   'Li1 Ga2 Cu1 Ge1'
_cell_volume   88.50705859
_cell_formula_units_Z   1
loop_
 _symmetry_equiv_pos_site_id
 _symmetry_equiv_pos_as_xyz
  1  'x, y, z'
loop_
 _atom_site_type_symbol
 _atom_site_label
 _atom_site_symmetry_multiplicity
 _atom_site_fract_x
 _atom_site_fract_y
 _atom_site_fract_z
 _atom_site_occupancy
  Li  Li0  1  0.00000000  0.00000000  0.00000000  1
  Ga  Ga1  1  0.24999999  0.75000000  0.49999999  1
  Ga  Ga2  1  0.74999999  0.25000000  0.50000000  1
  Cu  Cu3  1  0.37611999  0.37612000  0.75224001  1
  Ge  Ge4  1  0.62387999  0.62388000  0.24775998  1
