# generated using pymatgen
data_LiBP2
_symmetry_space_group_name_H-M   'P 1'
_cell_length_a   3.63556790
_cell_length_b   3.72725463
_cell_length_c   3.72725463
_cell_angle_alpha   104.96995544
_cell_angle_beta   90.00000000
_cell_angle_gamma   90.00000000
_symmetry_Int_Tables_number   1
_chemical_formula_structural   LiBP2
_chemical_formula_sum   'Li1 B1 P2'
_cell_volume   48.79273038
_cell_formula_units_Z   1
loop_
 _symmetry_equiv_pos_site_id
 _symmetry_equiv_pos_as_xyz
  1  'x, y, z'
loop_
 _atom_site_type_symbol
 _atom_site_label
 _atom_site_symmetry_multiplicity
 _atom_site_fract_x
 _atom_site_fract_y
 _atom_site_fract_z
 _atom_site_occupancy
  Li  Li0  1  1.00000003  0.99532999  0.00466993  1
  P  P1  1  0.50000001  0.38676300  0.61323698  1
  P  P2  1  0.50000001  0.85623499  0.45332895  1
  B  B3  1  0.50000001  0.54667100  0.14376496  1
