# generated using pymatgen
data_ScMn(AlGa)4
_symmetry_space_group_name_H-M   'P 1'
_cell_length_a   3.35550189
_cell_length_b   7.27432680
_cell_length_c   7.27432680
_cell_angle_alpha   90.00000000
_cell_angle_beta   90.00000000
_cell_angle_gamma   90.00000000
_symmetry_Int_Tables_number   1
_chemical_formula_structural   ScMn(AlGa)4
_chemical_formula_sum   'Sc1 Mn1 Al4 Ga4'
_cell_volume   177.55916897
_cell_formula_units_Z   1
loop_
 _symmetry_equiv_pos_site_id
 _symmetry_equiv_pos_as_xyz
  1  'x, y, z'
loop_
 _atom_site_type_symbol
 _atom_site_label
 _atom_site_symmetry_multiplicity
 _atom_site_fract_x
 _atom_site_fract_y
 _atom_site_fract_z
 _atom_site_occupancy
  Mn  Mn0  1  0.50000002  0.33485901  0.83485902  1
  Sc  Sc1  1  0.50000002  0.83485902  0.66514102  1
  Al  Al2  1  0.50000002  0.16514100  0.33485901  1
  Al  Al3  1  0.50000002  0.66514102  0.16514100  1
  Al  Al4  1  -0.00000000  0.36490901  0.13509100  1
  Al  Al5  1  -0.00000000  0.86490902  0.36490901  1
  Ga  Ga6  1  0.00000000  0.13509100  0.63509102  1
  Ga  Ga7  1  1.00000003  0.63509102  0.86490902  1
  Ga  Ga8  1  0.00000000  0.00000000  0.00000000  1
  Ga  Ga9  1  -0.00000000  0.50000001  0.50000001  1
