# generated using pymatgen
data_K2Na2Cu3TeSe8
_symmetry_space_group_name_H-M   'P 1'
_cell_length_a   5.77661419
_cell_length_b   7.47172737
_cell_length_c   12.52731037
_cell_angle_alpha   84.88663483
_cell_angle_beta   76.66990662
_cell_angle_gamma   67.25907898
_symmetry_Int_Tables_number   1
_chemical_formula_structural   K2Na2Cu3TeSe8
_chemical_formula_sum   'K2 Na2 Cu3 Te1 Se8'
_cell_volume   485.22741590
_cell_formula_units_Z   1
loop_
 _symmetry_equiv_pos_site_id
 _symmetry_equiv_pos_as_xyz
  1  'x, y, z'
loop_
 _atom_site_type_symbol
 _atom_site_label
 _atom_site_symmetry_multiplicity
 _atom_site_fract_x
 _atom_site_fract_y
 _atom_site_fract_z
 _atom_site_occupancy
  K  K0  1  0.82037998  0.00000000  0.35924000  1
  K  K1  1  0.17961998  1.00000000  0.64076006  1
  Na  Na2  1  0.92961997  0.50000000  0.14076001  1
  Na  Na3  1  0.57037998  0.50000000  0.85924004  1
  Cu  Cu4  1  0.00000000  0.00000000  0.00000000  1
  Cu  Cu5  1  0.74999997  0.50000000  0.50000003  1
  Cu  Cu6  1  0.24999998  0.50000000  0.50000004  1
  Te  Te7  1  0.49999999  0.00000000  -0.00000001  1
  Se  Se8  1  0.15466399  0.29521100  0.38614002  1
  Se  Se9  1  0.45919597  0.70478900  0.38614004  1
  Se  Se10  1  0.59533598  0.20478900  0.11386000  1
  Se  Se11  1  0.91398496  0.79521100  0.88614005  1
  Se  Se12  1  0.19987499  0.20478900  0.88614004  1
  Se  Se13  1  0.29080398  0.79521100  0.11386003  1
  Se  Se14  1  0.55012498  0.29521100  0.61386003  1
  Se  Se15  1  0.83601496  0.70478900  0.61386004  1
