# generated using pymatgen
data_YErAl2Ga3Si2
_symmetry_space_group_name_H-M   'P 1'
_cell_length_a   4.10697508
_cell_length_b   4.16590786
_cell_length_c   11.20419407
_cell_angle_alpha   90.00000000
_cell_angle_beta   100.56078339
_cell_angle_gamma   90.00000000
_symmetry_Int_Tables_number   1
_chemical_formula_structural   YErAl2Ga3Si2
_chemical_formula_sum   'Y1 Er1 Al2 Ga3 Si2'
_cell_volume   188.44856250
_cell_formula_units_Z   1
loop_
 _symmetry_equiv_pos_site_id
 _symmetry_equiv_pos_as_xyz
  1  'x, y, z'
loop_
 _atom_site_type_symbol
 _atom_site_label
 _atom_site_symmetry_multiplicity
 _atom_site_fract_x
 _atom_site_fract_y
 _atom_site_fract_z
 _atom_site_occupancy
  Y  Y0  1  0.77843699  0.50000002  0.55687503  1
  Er  Er1  1  0.11267900  0.50000002  0.22535801  1
  Al  Al2  1  0.55382099  0.00000000  0.10764201  1
  Al  Al3  1  0.49963399  0.50000002  0.99926804  1
  Ga  Ga4  1  0.38661599  0.50000002  0.77323203  1
  Ga  Ga5  1  0.99920799  0.00000000  0.99841605  1
  Si  Si6  1  0.88499999  0.00000000  0.77000004  1
  Ga  Ga7  1  0.66056699  0.00000000  0.32113302  1
  Si  Si8  1  0.23103800  0.00000000  0.46207502  1
