# generated using pymatgen
data_TaAlSb2Pd3Au
_symmetry_space_group_name_H-M   'P 1'
_cell_length_a   5.19348907
_cell_length_b   5.19348907
_cell_length_c   5.19348907
_cell_angle_alpha   90.00000000
_cell_angle_beta   90.00000000
_cell_angle_gamma   90.00000000
_symmetry_Int_Tables_number   1
_chemical_formula_structural   TaAlSb2Pd3Au
_chemical_formula_sum   'Ta1 Al1 Sb2 Pd3 Au1'
_cell_volume   140.08049478
_cell_formula_units_Z   1
loop_
 _symmetry_equiv_pos_site_id
 _symmetry_equiv_pos_as_xyz
  1  'x, y, z'
loop_
 _atom_site_type_symbol
 _atom_site_label
 _atom_site_symmetry_multiplicity
 _atom_site_fract_x
 _atom_site_fract_y
 _atom_site_fract_z
 _atom_site_occupancy
  Ta  Ta0  1  0.00000000  0.49999999  0.74988799  1
  Al  Al1  1  0.49999999  0.25011200  0.00000000  1
  Sb  Sb2  1  0.74988799  0.00000000  0.49999999  1
  Pd  Pd3  1  0.00000000  0.49999999  0.25011200  1
  Sb  Sb4  1  0.49999999  0.74988799  0.00000000  1
  Au  Au5  1  0.25011200  0.00000000  0.49999999  1
  Pd  Pd6  1  0.00000000  0.00000000  0.00000000  1
  Pd  Pd7  1  0.49999999  0.49999999  0.49999999  1
