# generated using pymatgen
data_NaSrCa2Y2(RuO6)2
_symmetry_space_group_name_H-M   'P 1'
_cell_length_a   5.55837107
_cell_length_b   5.79223394
_cell_length_c   7.90304708
_cell_angle_alpha   90.00000000
_cell_angle_beta   89.61631775
_cell_angle_gamma   90.00000000
_symmetry_Int_Tables_number   1
_chemical_formula_structural   NaSrCa2Y2(RuO6)2
_chemical_formula_sum   'Na1 Sr1 Ca2 Y2 Ru2 O12'
_cell_volume   254.43594307
_cell_formula_units_Z   1
loop_
 _symmetry_equiv_pos_site_id
 _symmetry_equiv_pos_as_xyz
  1  'x, y, z'
loop_
 _atom_site_type_symbol
 _atom_site_label
 _atom_site_symmetry_multiplicity
 _atom_site_fract_x
 _atom_site_fract_y
 _atom_site_fract_z
 _atom_site_occupancy
  Na  Na0  1  0.00000000  0.00000000  0.00000000  1
  Ca  Ca1  1  0.49999999  0.50000000  0.50000003  1
  Sr  Sr2  1  0.51270899  0.06120800  0.25179103  1
  Ca  Ca3  1  0.98729099  0.56120801  0.24820905  1
  Y  Y4  1  0.01270900  0.43879200  0.75179101  1
  Y  Y5  1  0.48729099  0.93879201  0.74820903  1
  Ru  Ru6  1  0.49999999  0.50000000  0.00000002  1
  Ru  Ru7  1  0.00000000  0.00000000  0.50000001  1
  O  O8  1  0.81315699  0.28533900  0.45177904  1
  O  O9  1  0.68684299  0.78533901  0.04822103  1
  O  O10  1  0.18684300  0.71466101  0.54822102  1
  O  O11  1  0.31315700  0.21466100  0.95177903  1
  O  O12  1  0.91232199  0.02376700  0.74473405  1
  O  O13  1  0.58767799  0.52376701  0.75526604  1
  O  O14  1  0.79293599  0.30806000  0.04485404  1
  O  O15  1  0.70706399  0.80806001  0.45514604  1
  O  O16  1  0.20706400  0.69194001  0.95514602  1
  O  O17  1  0.29293600  0.19194000  0.54485402  1
  O  O18  1  0.41232199  0.47623300  0.24473402  1
  O  O19  1  0.08767800  0.97623301  0.25526601  1
