# generated using pymatgen
data_LaY7In2Sn2AsRhAu
_symmetry_space_group_name_H-M   'P 1'
_cell_length_a   3.66438198
_cell_length_b   10.81750870
_cell_length_c   10.82107639
_cell_angle_alpha   119.98844910
_cell_angle_beta   90.00000000
_cell_angle_gamma   90.00000000
_symmetry_Int_Tables_number   1
_chemical_formula_structural   LaY7In2Sn2AsRhAu
_chemical_formula_sum   'La1 Y7 In2 Sn2 As1 Rh1 Au1'
_cell_volume   371.51779836
_cell_formula_units_Z   1
loop_
 _symmetry_equiv_pos_site_id
 _symmetry_equiv_pos_as_xyz
  1  'x, y, z'
loop_
 _atom_site_type_symbol
 _atom_site_label
 _atom_site_symmetry_multiplicity
 _atom_site_fract_x
 _atom_site_fract_y
 _atom_site_fract_z
 _atom_site_occupancy
  Y  Y0  1  0.25000000  0.48746101  0.38568101  1
  La  La1  1  0.25000000  0.89826202  0.51256002  1
  Y  Y2  1  0.25000000  0.61434301  0.10181800  1
  Y  Y3  1  0.75000000  0.50952801  0.61122302  1
  Y  Y4  1  0.75000000  0.10172800  0.49053702  1
  Y  Y5  1  0.75000000  0.38886801  0.89824403  1
  Y  Y6  1  0.25000000  0.99960702  0.99987903  1
  Y  Y7  1  0.25000000  0.33333334  0.66666669  1
  Au  Au8  1  0.75000000  0.66666668  0.33333334  1
  In  In9  1  0.25000000  0.33814001  0.06320700  1
  Sn  Sn10  1  0.25000000  0.72499902  0.66178102  1
  Sn  Sn11  1  0.25000000  0.93680002  0.27501101  1
  In  In12  1  0.75000000  0.66510101  0.93643403  1
  Rh  Rh13  1  0.75000000  0.27147301  0.33503201  1
  As  As14  1  0.75000000  0.06361500  0.72858703  1
