# generated using pymatgen
data_Al2Ga
_symmetry_space_group_name_H-M   'P 1'
_cell_length_a   3.11747789
_cell_length_b   4.89546585
_cell_length_c   7.88959503
_cell_angle_alpha   90.00000000
_cell_angle_beta   101.39483643
_cell_angle_gamma   90.00000000
_symmetry_Int_Tables_number   1
_chemical_formula_structural   Al2Ga
_chemical_formula_sum   'Al4 Ga2'
_cell_volume   118.03375999
_cell_formula_units_Z   2
loop_
 _symmetry_equiv_pos_site_id
 _symmetry_equiv_pos_as_xyz
  1  'x, y, z'
loop_
 _atom_site_type_symbol
 _atom_site_label
 _atom_site_symmetry_multiplicity
 _atom_site_fract_x
 _atom_site_fract_y
 _atom_site_fract_z
 _atom_site_occupancy
  Al  Al0  1  0.44509402  0.25000001  0.89018799  1
  Al  Al1  1  0.77515403  0.25000001  0.55030800  1
  Al  Al2  1  0.22484601  0.75000002  0.44969199  1
  Al  Al3  1  0.55490602  0.75000002  0.10981201  1
  Ga  Ga4  1  0.11181000  0.25000001  0.22362000  1
  Ga  Ga5  1  0.88819004  0.75000002  0.77638000  1
