# generated using pymatgen
data_K2YTlAgS5
_symmetry_space_group_name_H-M   'P 1'
_cell_length_a   5.69177628
_cell_length_b   5.69177628
_cell_length_c   7.33574820
_cell_angle_alpha   81.09753418
_cell_angle_beta   81.09753418
_cell_angle_gamma   61.95188904
_symmetry_Int_Tables_number   1
_chemical_formula_structural   K2YTlAgS5
_chemical_formula_sum   'K2 Y1 Tl1 Ag1 S5'
_cell_volume   206.29505432
_cell_formula_units_Z   1
loop_
 _symmetry_equiv_pos_site_id
 _symmetry_equiv_pos_as_xyz
  1  'x, y, z'
loop_
 _atom_site_type_symbol
 _atom_site_label
 _atom_site_symmetry_multiplicity
 _atom_site_fract_x
 _atom_site_fract_y
 _atom_site_fract_z
 _atom_site_occupancy
  Y  Y0  1  0.27593601  0.01659900  0.85977798  1
  K  K1  1  0.98340104  0.72406403  0.64022193  1
  K  K2  1  0.72406403  0.98340104  0.14022194  1
  Tl  Tl3  1  0.01659900  0.27593601  0.35977799  1
  Ag  Ag4  1  0.43451802  0.56548202  0.24999996  1
  S  S5  1  0.56548202  0.43451802  0.74999996  1
  S  S6  1  0.22547301  0.50983102  0.00989197  1
  S  S7  1  0.49016902  0.77452703  0.49010795  1
  S  S8  1  0.77452703  0.49016902  0.99010795  1
  S  S9  1  0.50983102  0.22547301  0.50989197  1
