# generated using pymatgen
data_Nb3Cu2SbS8
_symmetry_space_group_name_H-M   'P 1'
_cell_length_a   5.88274002
_cell_length_b   5.88274002
_cell_length_c   11.76904964
_cell_angle_alpha   90.00000000
_cell_angle_beta   90.00000000
_cell_angle_gamma   90.00000000
_symmetry_Int_Tables_number   1
_chemical_formula_structural   Nb3Cu2SbS8
_chemical_formula_sum   'Nb3 Cu2 Sb1 S8'
_cell_volume   407.28714828
_cell_formula_units_Z   1
loop_
 _symmetry_equiv_pos_site_id
 _symmetry_equiv_pos_as_xyz
  1  'x, y, z'
loop_
 _atom_site_type_symbol
 _atom_site_label
 _atom_site_symmetry_multiplicity
 _atom_site_fract_x
 _atom_site_fract_y
 _atom_site_fract_z
 _atom_site_occupancy
  Cu  Cu0  1  0.00000000  0.50000000  0.25907101  1
  Nb  Nb1  1  0.50000000  0.00000000  0.74092902  1
  Nb  Nb2  1  0.00000000  0.50000000  0.74092902  1
  Nb  Nb3  1  0.50000000  0.00000000  0.25907101  1
  Cu  Cu4  1  0.00000000  0.00000000  0.00000000  1
  Sb  Sb5  1  0.50000000  0.50000000  0.50000002  1
  S  S6  1  0.27299000  0.27299000  0.11434800  1
  S  S7  1  0.72701000  0.72701000  0.11434800  1
  S  S8  1  0.27299000  0.72701000  0.88565203  1
  S  S9  1  0.72701000  0.27299000  0.88565203  1
  S  S10  1  0.24565500  0.24565500  0.60754202  1
  S  S11  1  0.75434500  0.75434500  0.60754202  1
  S  S12  1  0.24565500  0.75434500  0.39245801  1
  S  S13  1  0.75434500  0.24565500  0.39245801  1
