# generated using pymatgen
data_DyYMg2AlGa
_symmetry_space_group_name_H-M   'P 1'
_cell_length_a   5.03087997
_cell_length_b   6.21842575
_cell_length_c   6.21842575
_cell_angle_alpha   72.28559875
_cell_angle_beta   66.13932800
_cell_angle_gamma   66.13932800
_symmetry_Int_Tables_number   1
_chemical_formula_structural   DyYMg2AlGa
_chemical_formula_sum   'Dy1 Y1 Mg2 Al1 Ga1'
_cell_volume   160.38872190
_cell_formula_units_Z   1
loop_
 _symmetry_equiv_pos_site_id
 _symmetry_equiv_pos_as_xyz
  1  'x, y, z'
loop_
 _atom_site_type_symbol
 _atom_site_label
 _atom_site_symmetry_multiplicity
 _atom_site_fract_x
 _atom_site_fract_y
 _atom_site_fract_z
 _atom_site_occupancy
  Dy  Dy0  1  0.52529204  0.72470798  0.22470796  1
  Y  Y1  1  0.47470801  0.27529199  0.77529197  1
  Mg  Mg2  1  0.16578402  0.30437099  0.36406097  1
  Al  Al3  1  0.83421603  0.69562898  0.63593895  1
  Ga  Ga4  1  0.83421500  0.13593900  0.19563000  1
  Mg  Mg5  1  0.16578505  0.86406098  0.80436992  1
