# generated using pymatgen
data_Na4Li2CuO5
_symmetry_space_group_name_H-M   'P 1'
_cell_length_a   5.80900240
_cell_length_b   5.81053638
_cell_length_c   5.81053638
_cell_angle_alpha   60.11657715
_cell_angle_beta   80.26601410
_cell_angle_gamma   99.73398590
_symmetry_Int_Tables_number   1
_chemical_formula_structural   Na4Li2CuO5
_chemical_formula_sum   'Na4 Li2 Cu1 O5'
_cell_volume   160.06803102
_cell_formula_units_Z   1
loop_
 _symmetry_equiv_pos_site_id
 _symmetry_equiv_pos_as_xyz
  1  'x, y, z'
loop_
 _atom_site_type_symbol
 _atom_site_label
 _atom_site_symmetry_multiplicity
 _atom_site_fract_x
 _atom_site_fract_y
 _atom_site_fract_z
 _atom_site_occupancy
  Li  Li0  1  -0.00000001  0.50000001  0.50000001  1
  Na  Na1  1  -0.00000002  0.83821201  0.83821202  1
  Na  Na2  1  -0.00000000  0.16178800  0.16178800  1
  Na  Na3  1  0.50000001  0.00000000  0.00000001  1
  Li  Li4  1  0.50000000  0.66614001  0.66614002  1
  Na  Na5  1  0.50000001  0.33386000  0.33386001  1
  Cu  Cu6  1  0.72668301  0.07617400  0.56699602  1
  O  O7  1  0.27331699  0.92382601  0.43300402  1
  O  O8  1  0.26920100  0.27776600  0.72223402  1
  O  O9  1  0.72668301  0.43300400  0.92382603  1
  O  O10  1  0.27331700  0.56699601  0.07617401  1
  O  O11  1  0.73079900  0.72223401  0.27776602  1
