# generated using pymatgen
data_Y7Ga2Si6SnGe4
_symmetry_space_group_name_H-M   'P 1'
_cell_length_a   8.20843983
_cell_length_b   8.20843983
_cell_length_c   8.20843983
_cell_angle_alpha   109.47122192
_cell_angle_beta   109.47122192
_cell_angle_gamma   109.47122192
_symmetry_Int_Tables_number   1
_chemical_formula_structural   Y7Ga2Si6SnGe4
_chemical_formula_sum   'Y7 Ga2 Si6 Sn1 Ge4'
_cell_volume   425.75518451
_cell_formula_units_Z   1
loop_
 _symmetry_equiv_pos_site_id
 _symmetry_equiv_pos_as_xyz
  1  'x, y, z'
loop_
 _atom_site_type_symbol
 _atom_site_label
 _atom_site_symmetry_multiplicity
 _atom_site_fract_x
 _atom_site_fract_y
 _atom_site_fract_z
 _atom_site_occupancy
  Y  Y0  1  0.50000003  0.25000001  0.75000003  1
  Y  Y1  1  0.50000006  0.75000004  0.25000006  1
  Y  Y2  1  0.75000003  0.25000001  0.50000004  1
  Y  Y3  1  0.25000005  0.75000004  0.50000005  1
  Ga  Ga4  1  0.75000005  0.50000003  0.25000005  1
  Y  Y5  1  0.25000004  0.50000003  0.75000004  1
  Y  Y6  1  0.67780206  0.67780203  0.67780206  1
  Y  Y7  1  0.00000000  0.00000000  0.67780201  1
  Ga  Ga8  1  1.00000006  0.67780203  0.00000006  1
  Ge  Ge9  1  0.67780201  0.00000000  0.00000002  1
  Ge  Ge10  1  1.00000004  0.32219802  1.00000005  1
  Ge  Ge11  1  0.32219801  0.00000000  0.00000001  1
  Ge  Ge12  1  0.00000000  0.00000000  0.32219800  1
  Sn  Sn13  1  0.32219803  0.32219802  0.32219803  1
  Si  Si14  1  0.65489605  0.65489603  0.00000005  1
  Si  Si15  1  0.65489601  0.00000000  0.65489602  1
  Si  Si16  1  0.34510401  0.00000000  0.34510401  1
  Si  Si17  1  0.00000002  0.34510402  0.34510402  1
  Si  Si18  1  0.00000004  0.65489603  0.65489604  1
  Si  Si19  1  0.34510403  0.34510402  0.00000003  1
