# generated using pymatgen
data_K8BrCl11
_symmetry_space_group_name_H-M   'P 1'
_cell_length_a   7.88129997
_cell_length_b   8.19368267
_cell_length_c   11.19117832
_cell_angle_alpha   90.00000000
_cell_angle_beta   90.00000000
_cell_angle_gamma   90.00000000
_symmetry_Int_Tables_number   1
_chemical_formula_structural   K8BrCl11
_chemical_formula_sum   'K8 Br1 Cl11'
_cell_volume   722.69127890
_cell_formula_units_Z   1
loop_
 _symmetry_equiv_pos_site_id
 _symmetry_equiv_pos_as_xyz
  1  'x, y, z'
loop_
 _atom_site_type_symbol
 _atom_site_label
 _atom_site_symmetry_multiplicity
 _atom_site_fract_x
 _atom_site_fract_y
 _atom_site_fract_z
 _atom_site_occupancy
  K  K0  1  0.01750200  0.44187302  0.24999999  1
  K  K1  1  0.98249800  0.55812702  0.74999998  1
  K  K2  1  0.51750200  0.05812700  0.74999998  1
  K  K3  1  0.48249800  0.94187304  0.24999999  1
  K  K4  1  0.00000000  0.00000000  0.00000000  1
  K  K5  1  0.50000000  0.50000002  0.00000000  1
  K  K6  1  0.00000000  0.00000000  0.49999999  1
  K  K7  1  0.50000000  0.50000002  0.49999999  1
  Cl  Cl8  1  0.29475300  0.20801801  0.04116000  1
  Cl  Cl9  1  0.70524700  0.79198203  0.95883997  1
  Cl  Cl10  1  0.79475300  0.29198201  0.95883997  1
  Cl  Cl11  1  0.70524700  0.79198203  0.54115998  1
  Cl  Cl12  1  0.20524700  0.70801803  0.04116000  1
  Cl  Cl13  1  0.29475300  0.20801801  0.45883999  1
  Cl  Cl14  1  0.20524700  0.70801803  0.45883999  1
  Cl  Cl15  1  0.79475300  0.29198201  0.54115998  1
  Cl  Cl16  1  0.58057600  0.52005402  0.24999999  1
  Cl  Cl17  1  0.41942400  0.47994602  0.74999998  1
  Br  Br18  1  0.08057600  0.97994604  0.74999998  1
  Cl  Cl19  1  0.91942400  0.02005400  0.24999999  1
