# generated using pymatgen
data_YCu4Ge
_symmetry_space_group_name_H-M   'P 1'
_cell_length_a   3.68419194
_cell_length_b   5.51576805
_cell_length_c   5.51576805
_cell_angle_alpha   120.00000000
_cell_angle_beta   90.00000000
_cell_angle_gamma   90.00000000
_symmetry_Int_Tables_number   1
_chemical_formula_structural   YCu4Ge
_chemical_formula_sum   'Y1 Cu4 Ge1'
_cell_volume   97.06996431
_cell_formula_units_Z   1
loop_
 _symmetry_equiv_pos_site_id
 _symmetry_equiv_pos_as_xyz
  1  'x, y, z'
loop_
 _atom_site_type_symbol
 _atom_site_label
 _atom_site_symmetry_multiplicity
 _atom_site_fract_x
 _atom_site_fract_y
 _atom_site_fract_z
 _atom_site_occupancy
  Y  Y0  1  0.00000000  0.00000000  0.00000000  1
  Cu  Cu1  1  -0.00000000  0.33333333  0.66666663  1
  Cu  Cu2  1  1.00000002  0.66666665  0.33333330  1
  Cu  Cu3  1  0.50000001  0.49999999  0.49999997  1
  Cu  Cu4  1  0.50000001  0.00000000  0.49999998  1
  Ge  Ge5  1  0.50000001  0.49999999  0.99999995  1
