# generated using pymatgen
data_SrLi2Mg3
_symmetry_space_group_name_H-M   'P 1'
_cell_length_a   5.61620617
_cell_length_b   5.61620617
_cell_length_c   7.01488781
_cell_angle_alpha   90.00000000
_cell_angle_beta   90.00000000
_cell_angle_gamma   120.00000000
_symmetry_Int_Tables_number   1
_chemical_formula_structural   SrLi2Mg3
_chemical_formula_sum   'Sr1 Li2 Mg3'
_cell_volume   191.61850426
_cell_formula_units_Z   1
loop_
 _symmetry_equiv_pos_site_id
 _symmetry_equiv_pos_as_xyz
  1  'x, y, z'
loop_
 _atom_site_type_symbol
 _atom_site_label
 _atom_site_symmetry_multiplicity
 _atom_site_fract_x
 _atom_site_fract_y
 _atom_site_fract_z
 _atom_site_occupancy
  Li  Li0  1  0.00000000  0.00000000  0.50000001  1
  Li  Li1  1  0.00000000  0.00000000  0.00000000  1
  Sr  Sr2  1  0.66666664  0.33333332  0.25000001  1
  Mg  Mg3  1  0.33333332  0.66666664  0.75000002  1
  Mg  Mg4  1  0.33333332  0.66666664  0.25000001  1
  Mg  Mg5  1  0.66666664  0.33333332  0.75000002  1
