# generated using pymatgen
data_Y2Be(NiC)2
_symmetry_space_group_name_H-M   'P 1'
_cell_length_a   4.16793013
_cell_length_b   4.16793013
_cell_length_c   6.96102333
_cell_angle_alpha   107.42014313
_cell_angle_beta   107.42014313
_cell_angle_gamma   90.00000000
_symmetry_Int_Tables_number   1
_chemical_formula_structural   Y2Be(NiC)2
_chemical_formula_sum   'Y2 Be1 Ni2 C2'
_cell_volume   109.55161679
_cell_formula_units_Z   1
loop_
 _symmetry_equiv_pos_site_id
 _symmetry_equiv_pos_as_xyz
  1  'x, y, z'
loop_
 _atom_site_type_symbol
 _atom_site_label
 _atom_site_symmetry_multiplicity
 _atom_site_fract_x
 _atom_site_fract_y
 _atom_site_fract_z
 _atom_site_occupancy
  Y  Y0  1  0.35291099  0.35291099  0.70582200  1
  Y  Y1  1  0.64708899  0.64708898  0.29417801  1
  Be  Be2  1  0.00000000  0.00000000  0.00000000  1
  Ni  Ni3  1  0.16875400  0.16875400  0.33750800  1
  C  C4  1  0.83124598  0.83124598  0.66249201  1
  Ni  Ni5  1  0.49999999  0.00000000  0.00000000  1
  C  C6  1  0.00000000  0.49999999  0.00000000  1
