# generated using pymatgen
data_Hf3Mn2Ga(Fe3Si2)2
_symmetry_space_group_name_H-M   'P 1'
_cell_length_a   4.92780209
_cell_length_b   7.29171705
_cell_length_c   7.29171705
_cell_angle_alpha   83.64203644
_cell_angle_beta   70.25077057
_cell_angle_gamma   70.25077057
_symmetry_Int_Tables_number   1
_chemical_formula_structural   Hf3Mn2Ga(Fe3Si2)2
_chemical_formula_sum   'Hf3 Mn2 Ga1 Fe6 Si4'
_cell_volume   232.08950154
_cell_formula_units_Z   1
loop_
 _symmetry_equiv_pos_site_id
 _symmetry_equiv_pos_as_xyz
  1  'x, y, z'
loop_
 _atom_site_type_symbol
 _atom_site_label
 _atom_site_symmetry_multiplicity
 _atom_site_fract_x
 _atom_site_fract_y
 _atom_site_fract_z
 _atom_site_occupancy
  Mn  Mn0  1  0.24999999  0.00000000  0.00000001  1
  Ga  Ga1  1  0.74999998  0.00000000  0.00000002  1
  Hf  Hf2  1  0.16620403  0.50194199  0.16564897  1
  Hf  Hf3  1  0.83379601  0.49805799  0.83435099  1
  Mn  Mn4  1  0.33379505  0.83435099  0.49805796  1
  Hf  Hf5  1  0.66620499  0.16564900  0.50194200  1
  Fe  Fe6  1  0.57791204  0.69767699  0.14649797  1
  Fe  Fe7  1  0.42208801  0.30232300  0.85350199  1
  Fe  Fe8  1  0.07791301  0.14649800  0.69767699  1
  Fe  Fe9  1  0.92208704  0.85350199  0.30232297  1
  Fe  Fe10  1  0.75000002  0.49999999  0.49999999  1
  Fe  Fe11  1  0.25000003  0.49999999  0.49999998  1
  Si  Si12  1  0.72535304  0.85061099  0.69868297  1
  Si  Si13  1  0.27464700  0.14938900  0.30131700  1
  Si  Si14  1  0.77464700  0.30131700  0.14938900  1
  Si  Si15  1  0.22535305  0.69868299  0.85061096  1
