# generated using pymatgen
data_CaYErAlGa2Si3NiGe2
_symmetry_space_group_name_H-M   'P 1'
_cell_length_a   4.21410513
_cell_length_b   6.54185581
_cell_length_c   8.06761265
_cell_angle_alpha   90.00000000
_cell_angle_beta   105.13975525
_cell_angle_gamma   90.00000000
_symmetry_Int_Tables_number   1
_chemical_formula_structural   CaYErAlGa2Si3NiGe2
_chemical_formula_sum   'Ca1 Y1 Er1 Al1 Ga2 Si3 Ni1 Ge2'
_cell_volume   214.68906210
_cell_formula_units_Z   1
loop_
 _symmetry_equiv_pos_site_id
 _symmetry_equiv_pos_as_xyz
  1  'x, y, z'
loop_
 _atom_site_type_symbol
 _atom_site_label
 _atom_site_symmetry_multiplicity
 _atom_site_fract_x
 _atom_site_fract_y
 _atom_site_fract_z
 _atom_site_occupancy
  Y  Y0  1  0.88333699  0.75000002  0.76667301  1
  Ca  Ca1  1  0.11666300  0.25000001  0.23332700  1
  Er  Er2  1  0.49999999  0.50000001  0.00000001  1
  Al  Al3  1  0.49999999  0.00000000  0.00000001  1
  Si  Si4  1  0.07340100  0.75000002  0.14680300  1
  Ga  Ga5  1  0.92659899  0.25000001  0.85319701  1
  Ga  Ga6  1  0.68720599  0.55240202  0.37441301  1
  Si  Si7  1  0.31279400  0.44759801  0.62558699  1
  Ge  Ge8  1  0.68720599  0.94759803  0.37441301  1
  Ge  Ge9  1  0.31279400  0.05240200  0.62558699  1
  Ni  Ni10  1  0.22343100  0.75000002  0.44686200  1
  Si  Si11  1  0.77656899  0.25000001  0.55313801  1
