# generated using pymatgen
data_PrEr2MgGa2SiGe5
_symmetry_space_group_name_H-M   'P 1'
_cell_length_a   4.29707384
_cell_length_b   6.82896709
_cell_length_c   7.60653305
_cell_angle_alpha   90.00000000
_cell_angle_beta   90.00000000
_cell_angle_gamma   90.00000000
_symmetry_Int_Tables_number   1
_chemical_formula_structural   PrEr2MgGa2SiGe5
_chemical_formula_sum   'Pr1 Er2 Mg1 Ga2 Si1 Ge5'
_cell_volume   223.21048616
_cell_formula_units_Z   1
loop_
 _symmetry_equiv_pos_site_id
 _symmetry_equiv_pos_as_xyz
  1  'x, y, z'
loop_
 _atom_site_type_symbol
 _atom_site_label
 _atom_site_symmetry_multiplicity
 _atom_site_fract_x
 _atom_site_fract_y
 _atom_site_fract_z
 _atom_site_occupancy
  Er  Er0  1  0.75000003  0.49458199  0.80820299  1
  Pr  Pr1  1  0.25000001  0.00541800  0.30820300  1
  Er  Er2  1  0.75000003  0.99458199  0.69179700  1
  Mg  Mg3  1  0.25000001  0.50541799  0.19179700  1
  Ga  Ga4  1  0.25000001  0.79016699  0.88802499  1
  Ga  Ga5  1  0.25000001  0.29016700  0.61197500  1
  Si  Si6  1  0.75000003  0.20983300  0.11197500  1
  Ge  Ge7  1  0.75000003  0.70983299  0.38802500  1
  Ge  Ge8  1  0.25000001  0.66163599  0.56398700  1
  Ge  Ge9  1  0.25000001  0.16163600  0.93601299  1
  Ge  Ge10  1  0.75000003  0.83836399  0.06398700  1
  Ge  Ge11  1  0.75000003  0.33836400  0.43601300  1
