# generated using pymatgen
data_LaYSbAu3
_symmetry_space_group_name_H-M   'P 1'
_cell_length_a   4.70233202
_cell_length_b   4.70233297
_cell_length_c   7.29512501
_cell_angle_alpha   90.00000000
_cell_angle_beta   90.00000000
_cell_angle_gamma   119.99999237
_symmetry_Int_Tables_number   1
_chemical_formula_structural   LaYSbAu3
_chemical_formula_sum   'La1 Y1 Sb1 Au3'
_cell_volume   139.69796253
_cell_formula_units_Z   1
loop_
 _symmetry_equiv_pos_site_id
 _symmetry_equiv_pos_as_xyz
  1  'x, y, z'
loop_
 _atom_site_type_symbol
 _atom_site_label
 _atom_site_symmetry_multiplicity
 _atom_site_fract_x
 _atom_site_fract_y
 _atom_site_fract_z
 _atom_site_occupancy
  Y  Y0  1  0.00000000  0.00000000  0.49856200  1
  La  La1  1  0.00000000  0.00000000  0.99856200  1
  Sb  Sb2  1  0.33333331  0.66666665  0.81726500  1
  Au  Au3  1  0.66666665  0.33333332  0.31726500  1
  Au  Au4  1  0.66666665  0.33333332  0.72017400  1
  Au  Au5  1  0.33333331  0.66666665  0.22017400  1
