# generated using pymatgen
data_Cu3Ge(TeSe)2
_symmetry_space_group_name_H-M   'P 1'
_cell_length_a   6.02942181
_cell_length_b   6.02942181
_cell_length_c   7.36762094
_cell_angle_alpha   114.15357208
_cell_angle_beta   114.15357208
_cell_angle_gamma   90.00000000
_symmetry_Int_Tables_number   1
_chemical_formula_structural   Cu3Ge(TeSe)2
_chemical_formula_sum   'Cu3 Ge1 Te2 Se2'
_cell_volume   218.44104440
_cell_formula_units_Z   1
loop_
 _symmetry_equiv_pos_site_id
 _symmetry_equiv_pos_as_xyz
  1  'x, y, z'
loop_
 _atom_site_type_symbol
 _atom_site_label
 _atom_site_symmetry_multiplicity
 _atom_site_fract_x
 _atom_site_fract_y
 _atom_site_fract_z
 _atom_site_occupancy
  Cu  Cu0  1  0.00000000  0.00000000  0.00000000  1
  Cu  Cu1  1  0.75000003  0.25000001  0.50000000  1
  Cu  Cu2  1  0.25000001  0.75000003  0.50000000  1
  Ge  Ge3  1  0.50000002  0.50000002  0.00000000  1
  Te  Te4  1  0.38802902  0.38802901  0.25973100  1
  Te  Te5  1  0.87170203  0.87170203  0.25973100  1
  Se  Se6  1  0.61197102  0.12829800  0.74026899  1
  Se  Se7  1  0.12829801  0.61197102  0.74026900  1
