# generated using pymatgen
data_LiBeHN
_symmetry_space_group_name_H-M   'P 1'
_cell_length_a   3.12858796
_cell_length_b   3.12858820
_cell_length_c   5.01695490
_cell_angle_alpha   90.00000000
_cell_angle_beta   90.00000000
_cell_angle_gamma   120.00000000
_symmetry_Int_Tables_number   1
_chemical_formula_structural   LiBeHN
_chemical_formula_sum   'Li1 Be1 H1 N1'
_cell_volume   42.52727948
_cell_formula_units_Z   1
loop_
 _symmetry_equiv_pos_site_id
 _symmetry_equiv_pos_as_xyz
  1  'x, y, z'
loop_
 _atom_site_type_symbol
 _atom_site_label
 _atom_site_symmetry_multiplicity
 _atom_site_fract_x
 _atom_site_fract_y
 _atom_site_fract_z
 _atom_site_occupancy
  Li  Li0  1  0.33333338  0.66666670  0.50071301  1
  Be  Be1  1  0.66666669  0.33333335  0.00071300  1
  N  N2  1  0.33333338  0.66666670  0.11928700  1
  H  H3  1  0.66666669  0.33333335  0.61928701  1
