# generated using pymatgen
data_NaLi2MgCu2
_symmetry_space_group_name_H-M   'P 1'
_cell_length_a   5.37792969
_cell_length_b   5.37792969
_cell_length_c   5.37792969
_cell_angle_alpha   61.21862411
_cell_angle_beta   61.21862411
_cell_angle_gamma   61.21862030
_symmetry_Int_Tables_number   1
_chemical_formula_structural   NaLi2MgCu2
_chemical_formula_sum   'Na1 Li2 Mg1 Cu2'
_cell_volume   112.99870998
_cell_formula_units_Z   1
loop_
 _symmetry_equiv_pos_site_id
 _symmetry_equiv_pos_as_xyz
  1  'x, y, z'
loop_
 _atom_site_type_symbol
 _atom_site_label
 _atom_site_symmetry_multiplicity
 _atom_site_fract_x
 _atom_site_fract_y
 _atom_site_fract_z
 _atom_site_occupancy
  Li  Li0  1  0.37348097  0.37348098  0.37348103  1
  Na  Na1  1  0.62651895  0.62651897  0.62651905  1
  Li  Li2  1  0.49999998  0.00000000  0.00000001  1
  Mg  Mg3  1  -0.00000001  0.49999998  0.00000001  1
  Cu  Cu4  1  0.00000000  0.00000000  0.50000002  1
  Cu  Cu5  1  0.00000000  0.00000000  0.00000000  1
