# generated using pymatgen
data_YInGaSn3Au2
_symmetry_space_group_name_H-M   'P 1'
_cell_length_a   4.23345089
_cell_length_b   7.56219816
_cell_length_c   7.56219816
_cell_angle_alpha   120.00000000
_cell_angle_beta   90.00000000
_cell_angle_gamma   90.00000000
_symmetry_Int_Tables_number   1
_chemical_formula_structural   YInGaSn3Au2
_chemical_formula_sum   'Y1 In1 Ga1 Sn3 Au2'
_cell_volume   209.66274375
_cell_formula_units_Z   1
loop_
 _symmetry_equiv_pos_site_id
 _symmetry_equiv_pos_as_xyz
  1  'x, y, z'
loop_
 _atom_site_type_symbol
 _atom_site_label
 _atom_site_symmetry_multiplicity
 _atom_site_fract_x
 _atom_site_fract_y
 _atom_site_fract_z
 _atom_site_occupancy
  Y  Y0  1  0.75000002  0.66666666  0.33333336  1
  Ga  Ga1  1  0.25000001  0.33333333  0.66666670  1
  In  In2  1  0.75000002  0.60971600  0.91340404  1
  Sn  Sn3  1  0.75000002  0.08659600  0.69631202  1
  Sn  Sn4  1  0.25000001  0.69631200  0.60971604  1
  Au  Au5  1  0.25000001  0.39028400  0.08659602  1
  Au  Au6  1  0.25000001  0.91340400  0.30368804  1
  Sn  Sn7  1  0.75000002  0.30368800  0.39028402  1
