# generated using pymatgen
data_NaH3Cl7O5F
_symmetry_space_group_name_H-M   'P 1'
_cell_length_a   7.04487944
_cell_length_b   7.04487944
_cell_length_c   7.04487944
_cell_angle_alpha   60.00000000
_cell_angle_beta   60.00000000
_cell_angle_gamma   60.00000000
_symmetry_Int_Tables_number   1
_chemical_formula_structural   NaH3Cl7O5F
_chemical_formula_sum   'Na1 H3 Cl7 O5 F1'
_cell_volume   247.23257809
_cell_formula_units_Z   1
loop_
 _symmetry_equiv_pos_site_id
 _symmetry_equiv_pos_as_xyz
  1  'x, y, z'
loop_
 _atom_site_type_symbol
 _atom_site_label
 _atom_site_symmetry_multiplicity
 _atom_site_fract_x
 _atom_site_fract_y
 _atom_site_fract_z
 _atom_site_occupancy
  Na  Na0  1  0.30983100  0.07050500  0.30983200  1
  Cl  Cl1  1  0.30983100  0.30983200  0.30983200  1
  H  H2  1  0.30983100  0.30983200  0.07050500  1
  H  H3  1  0.07050400  0.30983200  0.30983200  1
  H  H4  1  0.69016900  0.92949500  0.69016800  1
  Cl  Cl5  1  0.69016900  0.69016800  0.69016800  1
  Cl  Cl6  1  0.69016900  0.69016800  0.92949500  1
  Cl  Cl7  1  0.92949600  0.69016800  0.69016800  1
  Cl  Cl8  1  0.00000000  0.00000000  0.00000000  1
  O  O9  1  0.25000000  0.25000000  0.25000000  1
  F  F10  1  0.75000000  0.75000000  0.75000000  1
  O  O11  1  0.76367200  0.76367200  0.23632800  1
  Cl  Cl12  1  0.23632800  0.76367200  0.76367200  1
  Cl  Cl13  1  0.23632800  0.76367200  0.23632800  1
  O  O14  1  0.23632800  0.23632800  0.76367200  1
  O  O15  1  0.76367200  0.23632800  0.23632800  1
  O  O16  1  0.76367200  0.23632800  0.76367200  1
