# generated using pymatgen
data_Hf2MnGa4Pd3
_symmetry_space_group_name_H-M   'P 1'
_cell_length_a   4.02117395
_cell_length_b   5.66782999
_cell_length_c   10.60807037
_cell_angle_alpha   105.49456787
_cell_angle_beta   100.92557526
_cell_angle_gamma   90.00000000
_symmetry_Int_Tables_number   1
_chemical_formula_structural   Hf2MnGa4Pd3
_chemical_formula_sum   'Hf2 Mn1 Ga4 Pd3'
_cell_volume   228.43420263
_cell_formula_units_Z   1
loop_
 _symmetry_equiv_pos_site_id
 _symmetry_equiv_pos_as_xyz
  1  'x, y, z'
loop_
 _atom_site_type_symbol
 _atom_site_label
 _atom_site_symmetry_multiplicity
 _atom_site_fract_x
 _atom_site_fract_y
 _atom_site_fract_z
 _atom_site_occupancy
  Mn  Mn0  1  0.40025900  0.40025899  0.80051799  1
  Hf  Hf1  1  0.79993001  0.79992999  0.59985998  1
  Ga  Ga2  1  0.20007000  0.20007000  0.40013999  1
  Hf  Hf3  1  0.59974101  0.59974099  0.19948198  1
  Ga  Ga4  1  0.00000000  0.00000000  0.00000000  1
  Ga  Ga5  1  0.20002200  0.70002199  0.40004398  1
  Ga  Ga6  1  0.60064601  0.10064600  0.20129200  1
  Pd  Pd7  1  -0.00000000  0.49999999  -0.00000002  1
  Pd  Pd8  1  0.39935400  0.89935399  0.79870797  1
  Pd  Pd9  1  0.79997801  0.29997800  0.59995600  1
