# generated using pymatgen
data_LaYInSnAu2
_symmetry_space_group_name_H-M   'P 1'
_cell_length_a   4.87265396
_cell_length_b   6.47837400
_cell_length_c   6.47837400
_cell_angle_alpha   72.62939453
_cell_angle_beta   67.90949249
_cell_angle_gamma   67.90949249
_symmetry_Int_Tables_number   1
_chemical_formula_structural   LaYInSnAu2
_chemical_formula_sum   'La1 Y1 In1 Sn1 Au2'
_cell_volume   172.61430096
_cell_formula_units_Z   1
loop_
 _symmetry_equiv_pos_site_id
 _symmetry_equiv_pos_as_xyz
  1  'x, y, z'
loop_
 _atom_site_type_symbol
 _atom_site_label
 _atom_site_symmetry_multiplicity
 _atom_site_fract_x
 _atom_site_fract_y
 _atom_site_fract_z
 _atom_site_occupancy
  Y  Y0  1  0.44955899  0.80044102  0.30044103  1
  La  La1  1  0.55044100  0.19955900  0.69955902  1
  In  In2  1  0.16134299  0.38496001  0.29235502  1
  Sn  Sn3  1  0.83865700  0.61504001  0.70764503  1
  Au  Au4  1  0.16134198  0.79235602  0.88496004  1
  Au  Au5  1  0.83865801  0.20764401  0.11504000  1
