# generated using pymatgen
data_Mn5Fe6Si2Ge3
_symmetry_space_group_name_H-M   'P 1'
_cell_length_a   4.94085312
_cell_length_b   7.33744812
_cell_length_c   7.33744764
_cell_angle_alpha   120.00000000
_cell_angle_beta   90.00000000
_cell_angle_gamma   90.00000000
_symmetry_Int_Tables_number   1
_chemical_formula_structural   Mn5Fe6Si2Ge3
_chemical_formula_sum   'Mn5 Fe6 Si2 Ge3'
_cell_volume   230.36825574
_cell_formula_units_Z   1
loop_
 _symmetry_equiv_pos_site_id
 _symmetry_equiv_pos_as_xyz
  1  'x, y, z'
loop_
 _atom_site_type_symbol
 _atom_site_label
 _atom_site_symmetry_multiplicity
 _atom_site_fract_x
 _atom_site_fract_y
 _atom_site_fract_z
 _atom_site_occupancy
  Mn  Mn0  1  0.24999999  0.24482599  -0.00000001  1
  Mn  Mn1  1  0.24999999  0.75517398  0.75517398  1
  Mn  Mn2  1  0.24999999  0.00000000  0.24482600  1
  Fe  Fe3  1  0.74999998  0.75517398  -0.00000002  1
  Mn  Mn4  1  0.74999998  0.24482599  0.24482599  1
  Mn  Mn5  1  0.74999998  0.00000000  0.75517400  1
  Fe  Fe6  1  0.99999998  0.33333332  0.66666666  1
  Fe  Fe7  1  0.99999998  0.66666665  0.33333332  1
  Fe  Fe8  1  0.49999999  0.66666665  0.33333332  1
  Fe  Fe9  1  0.49999999  0.33333332  0.66666666  1
  Ge  Ge10  1  0.24999999  0.60040998  -0.00000002  1
  Ge  Ge11  1  0.24999999  0.39958999  0.39958999  1
  Si  Si12  1  0.24999999  0.00000000  0.60041000  1
  Ge  Ge13  1  0.74999998  0.39958999  -0.00000001  1
  Si  Si14  1  0.74999998  0.60040998  0.60040999  1
  Fe  Fe15  1  0.74999998  0.00000000  0.39959000  1
