# generated using pymatgen
data_YZrNb3CuSnSb11Mo2
_symmetry_space_group_name_H-M   'P 1'
_cell_length_a   6.63058615
_cell_length_b   10.38852024
_cell_length_c   10.38852024
_cell_angle_alpha   120.00000000
_cell_angle_beta   90.00000000
_cell_angle_gamma   90.00000000
_symmetry_Int_Tables_number   1
_chemical_formula_structural   YZrNb3CuSnSb11Mo2
_chemical_formula_sum   'Y1 Zr1 Nb3 Cu1 Sn1 Sb11 Mo2'
_cell_volume   619.71204052
_cell_formula_units_Z   1
loop_
 _symmetry_equiv_pos_site_id
 _symmetry_equiv_pos_as_xyz
  1  'x, y, z'
loop_
 _atom_site_type_symbol
 _atom_site_label
 _atom_site_symmetry_multiplicity
 _atom_site_fract_x
 _atom_site_fract_y
 _atom_site_fract_z
 _atom_site_occupancy
  Y  Y0  1  0.54197299  0.66666665  0.33333331  1
  Zr  Zr1  1  0.04197300  0.33333332  0.66666663  1
  Sb  Sb2  1  0.75092698  0.87433097  0.74866196  1
  Nb  Nb3  1  0.75092698  0.25133799  0.12566899  1
  Sb  Sb4  1  0.75092698  0.87433097  0.12566898  1
  Nb  Nb5  1  0.25092699  0.12566900  0.25133799  1
  Sb  Sb6  1  0.25092699  0.74866198  0.87433095  1
  Sb  Sb7  1  0.25092699  0.12566900  0.87433096  1
  Nb  Nb8  1  0.56101399  0.46161299  0.92322595  1
  Cu  Cu9  1  0.56101399  0.07677400  0.53838698  1
  Sn  Sn10  1  0.56101399  0.46161299  0.53838697  1
  Sb  Sb11  1  0.06101400  0.53838698  0.07677399  1
  Sb  Sb12  1  0.06101400  0.92322597  0.46161297  1
  Sb  Sb13  1  0.06101400  0.53838698  0.46161297  1
  Sb  Sb14  1  0.80976998  0.18785299  0.37570598  1
  Mo  Mo15  1  0.80976998  0.62429498  0.81214796  1
  Mo  Mo16  1  0.80976998  0.18785299  0.81214796  1
  Sb  Sb17  1  0.30976999  0.81214698  0.62429396  1
  Sb  Sb18  1  0.30976999  0.37570499  0.18785199  1
  Sb  Sb19  1  0.30976999  0.81214698  0.18785198  1
