# generated using pymatgen
data_Li3Cu2NiO8
_symmetry_space_group_name_H-M   'P 1'
_cell_length_a   6.03528214
_cell_length_b   6.03528214
_cell_length_c   6.03528214
_cell_angle_alpha   60.00000000
_cell_angle_beta   60.00000000
_cell_angle_gamma   60.00000000
_symmetry_Int_Tables_number   1
_chemical_formula_structural   Li3Cu2NiO8
_chemical_formula_sum   'Li3 Cu2 Ni1 O8'
_cell_volume   155.44534947
_cell_formula_units_Z   1
loop_
 _symmetry_equiv_pos_site_id
 _symmetry_equiv_pos_as_xyz
  1  'x, y, z'
loop_
 _atom_site_type_symbol
 _atom_site_label
 _atom_site_symmetry_multiplicity
 _atom_site_fract_x
 _atom_site_fract_y
 _atom_site_fract_z
 _atom_site_occupancy
  Li  Li0  1  0.50000001  0.50000001  0.50000001  1
  Li  Li1  1  0.12512600  0.12512700  0.62462001  1
  Cu  Cu2  1  0.12512600  0.12512700  0.12512700  1
  Li  Li3  1  0.12512600  0.62462001  0.12512700  1
  Cu  Cu4  1  0.62461901  0.12512700  0.12512700  1
  Ni  Ni5  1  0.75000001  0.75000001  0.75000001  1
  O  O6  1  0.88452002  0.88451902  0.34644201  1
  O  O7  1  0.88452002  0.88451902  0.88451902  1
  O  O8  1  0.88452002  0.34644201  0.88451902  1
  O  O9  1  0.34644301  0.88451902  0.88451902  1
  O  O10  1  0.36452001  0.36451901  0.90644202  1
  O  O11  1  0.36452001  0.36451901  0.36451901  1
  O  O12  1  0.36452001  0.90644202  0.36451901  1
  O  O13  1  0.90644302  0.36451901  0.36451901  1
