# generated using pymatgen
data_BaNa2LiCu2PO8
_symmetry_space_group_name_H-M   'P 1'
_cell_length_a   3.89956498
_cell_length_b   3.91479611
_cell_length_c   13.83769989
_cell_angle_alpha   98.13198853
_cell_angle_beta   90.00000000
_cell_angle_gamma   90.00000000
_symmetry_Int_Tables_number   1
_chemical_formula_structural   BaNa2LiCu2PO8
_chemical_formula_sum   'Ba1 Na2 Li1 Cu2 P1 O8'
_cell_volume   209.12223554
_cell_formula_units_Z   1
loop_
 _symmetry_equiv_pos_site_id
 _symmetry_equiv_pos_as_xyz
  1  'x, y, z'
loop_
 _atom_site_type_symbol
 _atom_site_label
 _atom_site_symmetry_multiplicity
 _atom_site_fract_x
 _atom_site_fract_y
 _atom_site_fract_z
 _atom_site_occupancy
  Na  Na0  1  0.50000000  0.36463699  0.72927397  1
  Ba  Ba1  1  0.50000000  0.63536298  0.27072598  1
  Na  Na2  1  0.50000000  0.49999998  -0.00000001  1
  Li  Li3  1  0.00000000  0.06159300  0.12318599  1
  Cu  Cu4  1  0.00000000  0.93840696  0.87681395  1
  Cu  Cu5  1  0.00000000  0.21258599  0.42517198  1
  P  P6  1  1.00000000  0.78741397  0.57482797  1
  O  O7  1  0.00000000  0.14524799  0.29049599  1
  O  O8  1  0.00000000  0.85475197  0.70950396  1
  O  O9  1  1.00000000  0.44741198  0.89482396  1
  O  O10  1  1.00000000  0.55258798  0.10517599  1
  O  O11  1  0.00000000  0.28188099  0.56376198  1
  O  O12  1  1.00000000  0.71811897  0.43623797  1
  O  O13  1  0.50000000  0.05262700  0.10525400  1
  O  O14  1  0.50000000  0.94737296  0.89474595  1
