# generated using pymatgen
data_NaLi2CuO6
_symmetry_space_group_name_H-M   'P 1'
_cell_length_a   5.27592087
_cell_length_b   5.48135185
_cell_length_c   7.43643618
_cell_angle_alpha   89.99435425
_cell_angle_beta   90.00009918
_cell_angle_gamma   89.99874115
_symmetry_Int_Tables_number   1
_chemical_formula_structural   NaLi2CuO6
_chemical_formula_sum   'Na2 Li4 Cu2 O12'
_cell_volume   215.05562500
_cell_formula_units_Z   2
loop_
 _symmetry_equiv_pos_site_id
 _symmetry_equiv_pos_as_xyz
  1  'x, y, z'
loop_
 _atom_site_type_symbol
 _atom_site_label
 _atom_site_symmetry_multiplicity
 _atom_site_fract_x
 _atom_site_fract_y
 _atom_site_fract_z
 _atom_site_occupancy
  Na  Na0  1  0.51272300  0.44142201  0.25025697  1
  Na  Na1  1  0.01250100  0.05862000  0.74978798  1
  Li  Li2  1  0.98130699  0.93295603  0.25015894  1
  Li  Li3  1  0.48137599  0.56710102  0.74988695  1
  Li  Li4  1  0.99916801  0.49518301  0.99967594  1
  Li  Li5  1  0.99915801  0.49508401  0.50029795  1
  Cu  Cu6  1  0.49908801  0.00480700  0.49966598  1
  Cu  Cu7  1  0.49910401  0.00484600  0.00035799  1
  O  O8  1  0.89753701  0.47668201  0.75001195  1
  O  O9  1  0.80467001  0.19826401  0.04895198  1
  O  O10  1  0.80466501  0.19822301  0.45107497  1
  O  O11  1  0.70789499  0.71206602  0.04662396  1
  O  O12  1  0.70797499  0.71199202  0.45351695  1
  O  O13  1  0.58509298  0.96801703  0.75004394  1
  O  O14  1  0.39742201  0.02333100  0.24996599  1
  O  O15  1  0.30463600  0.30163701  0.54887797  1
  O  O16  1  0.30465200  0.30168201  0.95105596  1
  O  O17  1  0.20793998  0.78800402  0.95325794  1
  O  O18  1  0.20792098  0.78797002  0.54657495  1
  O  O19  1  0.08517098  0.53211102  0.24995197  1
