# generated using pymatgen
data_BaNa3Li2O7
_symmetry_space_group_name_H-M   'P 1'
_cell_length_a   3.84050202
_cell_length_b   3.84050202
_cell_length_c   13.04874802
_cell_angle_alpha   90.00000000
_cell_angle_beta   90.00000000
_cell_angle_gamma   90.00000000
_symmetry_Int_Tables_number   1
_chemical_formula_structural   BaNa3Li2O7
_chemical_formula_sum   'Ba1 Na3 Li2 O7'
_cell_volume   192.46193203
_cell_formula_units_Z   1
loop_
 _symmetry_equiv_pos_site_id
 _symmetry_equiv_pos_as_xyz
  1  'x, y, z'
loop_
 _atom_site_type_symbol
 _atom_site_label
 _atom_site_symmetry_multiplicity
 _atom_site_fract_x
 _atom_site_fract_y
 _atom_site_fract_z
 _atom_site_occupancy
  Na  Na0  1  0.00000000  0.00000000  0.70809700  1
  Ba  Ba1  1  0.00000000  0.00000000  0.29190300  1
  Na  Na2  1  0.00000000  0.00000000  0.00000000  1
  Na  Na3  1  0.50000000  0.50000000  0.50000000  1
  Li  Li4  1  0.50000000  0.50000000  0.86837900  1
  Li  Li5  1  0.50000000  0.50000000  0.13162100  1
  O  O6  1  0.50000000  0.00000000  0.87997300  1
  O  O7  1  0.00000000  0.50000000  0.87997300  1
  O  O8  1  0.50000000  0.00000000  0.12002700  1
  O  O9  1  0.00000000  0.50000000  0.12002700  1
  O  O10  1  0.50000000  0.50000000  0.66006000  1
  O  O11  1  0.50000000  0.50000000  0.33994000  1
  O  O12  1  0.00000000  0.00000000  0.50000000  1
