# generated using pymatgen
data_Y2CuNiP2
_symmetry_space_group_name_H-M   'P 1'
_cell_length_a   3.84791207
_cell_length_b   3.97291803
_cell_length_c   7.50001049
_cell_angle_alpha   90.00000000
_cell_angle_beta   104.86408997
_cell_angle_gamma   90.00000000
_symmetry_Int_Tables_number   1
_chemical_formula_structural   Y2CuNiP2
_chemical_formula_sum   'Y2 Cu1 Ni1 P2'
_cell_volume   110.81922805
_cell_formula_units_Z   1
loop_
 _symmetry_equiv_pos_site_id
 _symmetry_equiv_pos_as_xyz
  1  'x, y, z'
loop_
 _atom_site_type_symbol
 _atom_site_label
 _atom_site_symmetry_multiplicity
 _atom_site_fract_x
 _atom_site_fract_y
 _atom_site_fract_z
 _atom_site_occupancy
  Y  Y0  1  0.08668800  0.74999999  0.17337600  1
  Y  Y1  1  0.91331197  0.25000000  0.82662399  1
  Ni  Ni2  1  0.74916198  0.74999999  0.49832399  1
  Cu  Cu3  1  0.25083799  0.25000000  0.50167600  1
  P  P4  1  0.33826299  0.74999999  0.67652600  1
  P  P5  1  0.66173698  0.25000000  0.32347399  1
