# generated using pymatgen
data_LaYLuInSn2Au3
_symmetry_space_group_name_H-M   'P 1'
_cell_length_a   3.65484810
_cell_length_b   7.98076391
_cell_length_c   7.98076439
_cell_angle_alpha   120.00000000
_cell_angle_beta   90.00000000
_cell_angle_gamma   90.00000000
_symmetry_Int_Tables_number   1
_chemical_formula_structural   LaYLuInSn2Au3
_chemical_formula_sum   'La1 Y1 Lu1 In1 Sn2 Au3'
_cell_volume   201.59925212
_cell_formula_units_Z   1
loop_
 _symmetry_equiv_pos_site_id
 _symmetry_equiv_pos_as_xyz
  1  'x, y, z'
loop_
 _atom_site_type_symbol
 _atom_site_label
 _atom_site_symmetry_multiplicity
 _atom_site_fract_x
 _atom_site_fract_y
 _atom_site_fract_z
 _atom_site_occupancy
  Y  Y0  1  0.49999999  0.76449603  1.00000006  1
  Lu  Lu1  1  0.49999999  0.23550401  0.23550402  1
  La  La2  1  0.49999999  0.00000000  0.76449602  1
  In  In3  1  -0.00000000  0.39066301  1.00000004  1
  Sn  Sn4  1  -0.00000000  0.60933702  0.60933704  1
  Sn  Sn5  1  0.00000000  0.00000000  0.39066301  1
  Au  Au6  1  0.00000000  0.00000000  0.00000000  1
  Au  Au7  1  0.49999999  0.33333334  0.66666670  1
  Au  Au8  1  0.49999999  0.66666669  0.33333337  1
