# generated using pymatgen
data_Mn2Fe3Ni6P
_symmetry_space_group_name_H-M   'P 1'
_cell_length_a   4.31985617
_cell_length_b   4.32111788
_cell_length_c   7.08279514
_cell_angle_alpha   89.98538208
_cell_angle_beta   90.00000000
_cell_angle_gamma   119.99034119
_symmetry_Int_Tables_number   1
_chemical_formula_structural   Mn2Fe3Ni6P
_chemical_formula_sum   'Mn2 Fe3 Ni6 P1'
_cell_volume   114.50987890
_cell_formula_units_Z   1
loop_
 _symmetry_equiv_pos_site_id
 _symmetry_equiv_pos_as_xyz
  1  'x, y, z'
loop_
 _atom_site_type_symbol
 _atom_site_label
 _atom_site_symmetry_multiplicity
 _atom_site_fract_x
 _atom_site_fract_y
 _atom_site_fract_z
 _atom_site_occupancy
  Mn  Mn0  1  0.00001600  0.00003200  0.50452000  1
  Mn  Mn1  1  0.99998598  0.99997200  0.99857500  1
  Fe  Fe2  1  0.82982297  0.17000300  0.24026400  1
  Fe  Fe3  1  0.82984298  0.65968600  0.23998301  1
  Fe  Fe4  1  0.34017999  0.17000300  0.24026400  1
  Ni  Ni5  1  0.16969901  0.83051700  0.75708600  1
  Ni  Ni6  1  0.16965000  0.33930000  0.75729000  1
  Ni  Ni7  1  0.66081799  0.83051700  0.75708600  1
  Ni  Ni8  1  0.33322200  0.66644400  0.43668500  1
  Ni  Ni9  1  0.66675798  0.33351600  0.57728900  1
  P  P10  1  0.66676198  0.33352400  0.93299400  1
  Ni  Ni11  1  0.33324300  0.66648600  0.05796301  1
