# generated using pymatgen
data_Y2Cu2Sb2AsS5
_symmetry_space_group_name_H-M   'P 1'
_cell_length_a   3.78984499
_cell_length_b   3.80088091
_cell_length_c   16.83063316
_cell_angle_alpha   90.00000000
_cell_angle_beta   90.00000000
_cell_angle_gamma   90.00000000
_symmetry_Int_Tables_number   1
_chemical_formula_structural   Y2Cu2Sb2AsS5
_chemical_formula_sum   'Y2 Cu2 Sb2 As1 S5'
_cell_volume   242.44105413
_cell_formula_units_Z   1
loop_
 _symmetry_equiv_pos_site_id
 _symmetry_equiv_pos_as_xyz
  1  'x, y, z'
loop_
 _atom_site_type_symbol
 _atom_site_label
 _atom_site_symmetry_multiplicity
 _atom_site_fract_x
 _atom_site_fract_y
 _atom_site_fract_z
 _atom_site_occupancy
  Y  Y0  1  0.25000000  0.22059901  0.85419404  1
  Y  Y1  1  0.25000000  0.27940101  0.35419402  1
  Cu  Cu2  1  0.75000000  0.77940102  0.14580601  1
  Cu  Cu3  1  0.75000000  0.72059902  0.64580603  1
  Sb  Sb4  1  0.75000000  0.22352201  0.50142602  1
  Sb  Sb5  1  0.75000000  0.27647801  0.00142600  1
  As  As6  1  0.25000000  0.77647802  0.49857402  1
  S  S7  1  0.25000000  0.72352202  0.99857405  1
  S  S8  1  0.25000000  0.22044501  0.68741103  1
  S  S9  1  0.25000000  0.27955501  0.18741101  1
  S  S10  1  0.75000000  0.77955502  0.31258902  1
  S  S11  1  0.75000000  0.72044502  0.81258904  1
