# generated using pymatgen
data_LiYErAl2Ga2Ge
_symmetry_space_group_name_H-M   'P 1'
_cell_length_a   4.38700008
_cell_length_b   4.38883686
_cell_length_c   12.90674305
_cell_angle_alpha   90.00000000
_cell_angle_beta   99.78490448
_cell_angle_gamma   90.00000000
_symmetry_Int_Tables_number   1
_chemical_formula_structural   LiYErAl2Ga2Ge
_chemical_formula_sum   'Li1 Y1 Er1 Al2 Ga2 Ge1'
_cell_volume   244.88914348
_cell_formula_units_Z   1
loop_
 _symmetry_equiv_pos_site_id
 _symmetry_equiv_pos_as_xyz
  1  'x, y, z'
loop_
 _atom_site_type_symbol
 _atom_site_label
 _atom_site_symmetry_multiplicity
 _atom_site_fract_x
 _atom_site_fract_y
 _atom_site_fract_z
 _atom_site_occupancy
  Y  Y0  1  0.16779100  0.50000002  0.33558200  1
  Er  Er1  1  0.83406298  0.00000000  0.66812600  1
  Li  Li2  1  0.42513499  1.00000003  0.85027001  1
  Al  Al3  1  0.57209698  0.50000002  0.14419399  1
  Ge  Ge4  1  0.70729198  0.00000000  0.41458399  1
  Ga  Ga5  1  0.29674999  0.50000002  0.59350000  1
  Ga  Ga6  1  0.07163300  0.00000000  0.14326600  1
  Al  Al7  1  0.92523997  0.50000002  0.85048000  1
