# generated using pymatgen
data_KRbBaNaSrCu2O5
_symmetry_space_group_name_H-M   'P 1'
_cell_length_a   3.94165897
_cell_length_b   3.95095897
_cell_length_c   17.08364677
_cell_angle_alpha   90.00000000
_cell_angle_beta   90.00000000
_cell_angle_gamma   90.00000000
_symmetry_Int_Tables_number   1
_chemical_formula_structural   KRbBaNaSrCu2O5
_chemical_formula_sum   'Rb1 K1 Ba1 Na1 Sr1 Cu2 O5'
_cell_volume   266.04931781
_cell_formula_units_Z   1
loop_
 _symmetry_equiv_pos_site_id
 _symmetry_equiv_pos_as_xyz
  1  'x, y, z'
loop_
 _atom_site_type_symbol
 _atom_site_label
 _atom_site_symmetry_multiplicity
 _atom_site_fract_x
 _atom_site_fract_y
 _atom_site_fract_z
 _atom_site_occupancy
  Ba  Ba0  1  0.78193901  0.25000000  0.85440301  1
  Sr  Sr1  1  0.71806100  0.25000000  0.35440300  1
  Rb  Rb2  1  0.21806100  0.75000001  0.14559700  1
  Na  Na3  1  0.28193900  0.75000001  0.64559701  1
  K  K4  1  0.77908001  0.75000001  0.50138501  1
  Cu  Cu5  1  0.72092000  0.75000001  0.00138500  1
  Cu  Cu6  1  0.22092000  0.25000000  0.49861501  1
  O  O7  1  0.27908000  0.25000000  0.99861501  1
  O  O8  1  0.78200701  0.25000000  0.68451201  1
  O  O9  1  0.71799300  0.25000000  0.18451200  1
  O  O10  1  0.21799300  0.75000001  0.31548800  1
  O  O11  1  0.28200700  0.75000001  0.81548801  1
