# generated using pymatgen
data_LiYEr2Ga3SiGe4
_symmetry_space_group_name_H-M   'P 1'
_cell_length_a   4.07901716
_cell_length_b   6.94807911
_cell_length_c   7.58667707
_cell_angle_alpha   90.00000000
_cell_angle_beta   90.00000000
_cell_angle_gamma   90.00000000
_symmetry_Int_Tables_number   1
_chemical_formula_structural   LiYEr2Ga3SiGe4
_chemical_formula_sum   'Li1 Y1 Er2 Ga3 Si1 Ge4'
_cell_volume   215.01654840
_cell_formula_units_Z   1
loop_
 _symmetry_equiv_pos_site_id
 _symmetry_equiv_pos_as_xyz
  1  'x, y, z'
loop_
 _atom_site_type_symbol
 _atom_site_label
 _atom_site_symmetry_multiplicity
 _atom_site_fract_x
 _atom_site_fract_y
 _atom_site_fract_z
 _atom_site_occupancy
  Er  Er0  1  0.24999999  0.51149199  0.18470800  1
  Er  Er1  1  0.74999997  0.48850799  0.81529199  1
  Li  Li2  1  0.24999999  0.01149200  0.31529200  1
  Y  Y3  1  0.74999997  0.98850798  0.68470799  1
  Ga  Ga4  1  0.74999997  0.86220199  0.05742300  1
  Ga  Ga5  1  0.24999999  0.13779800  0.94257699  1
  Ge  Ge6  1  0.74999997  0.36220199  0.44257700  1
  Ga  Ga7  1  0.24999999  0.63779799  0.55742299  1
  Si  Si8  1  0.24999999  0.78698399  0.88748699  1
  Ge  Ge9  1  0.74999997  0.21301600  0.11251300  1
  Ge  Ge10  1  0.24999999  0.28698400  0.61251299  1
  Ge  Ge11  1  0.74999997  0.71301599  0.38748700  1
