# generated using pymatgen
data_Na2Cu2TeO8
_symmetry_space_group_name_H-M   'P 1'
_cell_length_a   6.93850946
_cell_length_b   6.93850946
_cell_length_c   6.93850946
_cell_angle_alpha   60.00000000
_cell_angle_beta   60.00000000
_cell_angle_gamma   60.00000000
_symmetry_Int_Tables_number   1
_chemical_formula_structural   Na2Cu2TeO8
_chemical_formula_sum   'Na2 Cu2 Te1 O8'
_cell_volume   236.20199271
_cell_formula_units_Z   1
loop_
 _symmetry_equiv_pos_site_id
 _symmetry_equiv_pos_as_xyz
  1  'x, y, z'
loop_
 _atom_site_type_symbol
 _atom_site_label
 _atom_site_symmetry_multiplicity
 _atom_site_fract_x
 _atom_site_fract_y
 _atom_site_fract_z
 _atom_site_occupancy
  Na  Na0  1  0.00000000  0.00000000  0.00000000  1
  Na  Na1  1  0.80713398  0.39762199  0.39762199  1
  Te  Te2  1  0.39762299  0.39762199  0.80713298  1
  Cu  Cu3  1  0.39762299  0.80713298  0.39762199  1
  Cu  Cu4  1  0.39762299  0.39762199  0.39762199  1
  O  O5  1  0.59640099  0.13453300  0.13453300  1
  O  O6  1  0.13453400  0.13453300  0.59639999  1
  O  O7  1  0.13453400  0.59639999  0.13453300  1
  O  O8  1  0.63345999  0.63345899  0.63345899  1
  O  O9  1  0.63345999  0.09962200  0.63345899  1
  O  O10  1  0.63345999  0.63345899  0.09962200  1
  O  O11  1  0.09962300  0.63345899  0.63345899  1
  O  O12  1  0.13453400  0.13453300  0.13453300  1
