# generated using pymatgen
data_CdInHgBiTe5Se
_symmetry_space_group_name_H-M   'P 1'
_cell_length_a   8.22767925
_cell_length_b   8.22767925
_cell_length_c   8.22767925
_cell_angle_alpha   60.01287460
_cell_angle_beta   60.01287460
_cell_angle_gamma   60.01287460
_symmetry_Int_Tables_number   1
_chemical_formula_structural   CdInHgBiTe5Se
_chemical_formula_sum   'Cd1 In1 Hg1 Bi1 Te5 Se1'
_cell_volume   393.95244680
_cell_formula_units_Z   1
loop_
 _symmetry_equiv_pos_site_id
 _symmetry_equiv_pos_as_xyz
  1  'x, y, z'
loop_
 _atom_site_type_symbol
 _atom_site_label
 _atom_site_symmetry_multiplicity
 _atom_site_fract_x
 _atom_site_fract_y
 _atom_site_fract_z
 _atom_site_occupancy
  Hg  Hg0  1  0.27359800  0.27359799  0.27359801  1
  Cd  Cd1  1  0.77359800  0.77359798  0.77359801  1
  Bi  Bi2  1  0.00461300  0.00461300  0.00461300  1
  In  In3  1  0.50461300  0.50461298  0.50461301  1
  Te  Te4  1  0.82667999  0.24454399  0.67906601  1
  Se  Se5  1  0.67906600  0.82667998  0.24454403  1
  Te  Te6  1  0.24454401  0.67906598  0.82668000  1
  Te  Te7  1  0.32668000  0.17906599  0.74454399  1
  Te  Te8  1  0.17906601  0.74454398  0.32668001  1
  Te  Te9  1  0.74454399  0.32667999  0.17906602  1
