# generated using pymatgen
data_NaSr2LiO4
_symmetry_space_group_name_H-M   'P 1'
_cell_length_a   5.06895399
_cell_length_b   5.06895399
_cell_length_c   6.13369179
_cell_angle_alpha   114.40637970
_cell_angle_beta   114.40637970
_cell_angle_gamma   90.00000000
_symmetry_Int_Tables_number   1
_chemical_formula_structural   NaSr2LiO4
_chemical_formula_sum   'Na1 Sr2 Li1 O4'
_cell_volume   127.89211059
_cell_formula_units_Z   1
loop_
 _symmetry_equiv_pos_site_id
 _symmetry_equiv_pos_as_xyz
  1  'x, y, z'
loop_
 _atom_site_type_symbol
 _atom_site_label
 _atom_site_symmetry_multiplicity
 _atom_site_fract_x
 _atom_site_fract_y
 _atom_site_fract_z
 _atom_site_occupancy
  Li  Li0  1  0.00000000  0.00000000  0.00000000  1
  Sr  Sr1  1  0.50000003  0.50000001  0.00000005  1
  Na  Na2  1  0.25000004  0.75000002  0.50000006  1
  Sr  Sr3  1  0.75000003  0.25000001  0.50000005  1
  O  O4  1  0.69711202  0.09896200  0.79607404  1
  O  O5  1  0.09896203  0.69711202  0.79607405  1
  O  O6  1  0.30288802  0.30288801  0.20392603  1
  O  O7  1  0.90103806  0.90103803  0.20392609  1
