# generated using pymatgen
data_ErMnAl2Ga9NiGe
_symmetry_space_group_name_H-M   'P 1'
_cell_length_a   6.39771605
_cell_length_b   6.39771605
_cell_length_c   6.39771605
_cell_angle_alpha   90.00000000
_cell_angle_beta   90.00000000
_cell_angle_gamma   90.00000000
_symmetry_Int_Tables_number   1
_chemical_formula_structural   ErMnAl2Ga9NiGe
_chemical_formula_sum   'Er1 Mn1 Al2 Ga9 Ni1 Ge1'
_cell_volume   261.86344780
_cell_formula_units_Z   1
loop_
 _symmetry_equiv_pos_site_id
 _symmetry_equiv_pos_as_xyz
  1  'x, y, z'
loop_
 _atom_site_type_symbol
 _atom_site_label
 _atom_site_symmetry_multiplicity
 _atom_site_fract_x
 _atom_site_fract_y
 _atom_site_fract_z
 _atom_site_occupancy
  Er  Er0  1  0.50000000  0.00000000  -0.00000000  1
  Al  Al1  1  -0.00000000  0.50000000  -0.00000000  1
  Al  Al2  1  0.00000000  0.00000000  0.50000000  1
  Ga  Ga3  1  0.28642900  0.28642900  0.28642900  1
  Ga  Ga4  1  0.71357099  0.71357099  0.71357099  1
  Ga  Ga5  1  0.71357099  0.71357099  0.28642900  1
  Mn  Mn6  1  0.71357099  0.28642900  0.71357099  1
  Ga  Ga7  1  0.28642900  0.28642900  0.71357099  1
  Ga  Ga8  1  0.28642900  0.71357099  0.28642900  1
  Ga  Ga9  1  0.28642900  0.71357099  0.71357099  1
  Ga  Ga10  1  0.71357099  0.28642900  0.28642900  1
  Ga  Ga11  1  0.00000000  0.00000000  0.00000000  1
  Ni  Ni12  1  -0.00000000  0.50000000  0.50000000  1
  Ge  Ge13  1  0.50000000  0.00000000  0.50000000  1
  Ga  Ga14  1  0.50000000  0.50000000  -0.00000000  1
