# generated using pymatgen
data_KNa2LiNi2IO11
_symmetry_space_group_name_H-M   'P 1'
_cell_length_a   6.85449982
_cell_length_b   7.72389650
_cell_length_c   7.72389650
_cell_angle_alpha   78.64498138
_cell_angle_beta   63.65850449
_cell_angle_gamma   63.65850449
_symmetry_Int_Tables_number   1
_chemical_formula_structural   KNa2LiNi2IO11
_chemical_formula_sum   'K1 Na2 Li1 Ni2 I1 O11'
_cell_volume   328.41646071
_cell_formula_units_Z   1
loop_
 _symmetry_equiv_pos_site_id
 _symmetry_equiv_pos_as_xyz
  1  'x, y, z'
loop_
 _atom_site_type_symbol
 _atom_site_label
 _atom_site_symmetry_multiplicity
 _atom_site_fract_x
 _atom_site_fract_y
 _atom_site_fract_z
 _atom_site_occupancy
  Na  Na0  1  0.00000000  0.00000000  0.00000000  1
  K  K1  1  0.17547500  0.28927700  0.32354102  1
  Ni  Ni2  1  0.50098500  0.32354100  0.71072202  1
  Na  Na3  1  0.53524800  0.67645900  0.28927804  1
  Li  Li4  1  0.78829200  0.71072300  0.67645904  1
  Ni  Ni5  1  0.15875600  0.26966700  0.56423202  1
  O  O6  1  0.27701099  0.56423200  0.73033403  1
  O  O7  1  0.57157700  0.43576800  0.26966603  1
  O  O8  1  0.99265601  0.73033300  0.43576804  1
  O  O9  1  0.04294700  0.12568500  0.35704301  1
  I  I10  1  0.75000001  0.50000000  0.50000003  1
  O  O11  1  0.80459900  0.90930000  0.75456705  1
  O  O12  1  0.44083499  0.75456600  0.09070004  1
  O  O13  1  0.28610000  0.24543400  0.90930001  1
  O  O14  1  0.46846601  0.09070000  0.24543301  1
  O  O15  1  0.52567499  0.87431500  0.64295705  1
  O  O16  1  0.83136800  0.64295700  0.12568504  1
  O  O17  1  0.60001001  0.35704300  0.87431502  1
