# generated using pymatgen
data_BaNa5CdCuO10
_symmetry_space_group_name_H-M   'P 1'
_cell_length_a   8.00722218
_cell_length_b   8.28279114
_cell_length_c   8.00722218
_cell_angle_alpha   118.90540314
_cell_angle_beta   90.00000000
_cell_angle_gamma   118.90540314
_symmetry_Int_Tables_number   1
_chemical_formula_structural   BaNa5CdCuO10
_chemical_formula_sum   'Ba1 Na5 Cd1 Cu1 O10'
_cell_volume   387.60432271
_cell_formula_units_Z   1
loop_
 _symmetry_equiv_pos_site_id
 _symmetry_equiv_pos_as_xyz
  1  'x, y, z'
loop_
 _atom_site_type_symbol
 _atom_site_label
 _atom_site_symmetry_multiplicity
 _atom_site_fract_x
 _atom_site_fract_y
 _atom_site_fract_z
 _atom_site_occupancy
  Na  Na0  1  0.74999996  0.49999997  0.74999996  1
  Ba  Ba1  1  0.24999997  0.49999997  0.24999997  1
  Na  Na2  1  0.81351693  0.99999894  0.68648193  1
  Na  Na3  1  0.18648300  0.00000100  0.31351799  1
  Na  Na4  1  0.31351699  0.00000000  0.81351698  1
  Na  Na5  1  0.68648298  0.00000000  0.18648300  1
  Cu  Cu6  1  0.74999996  0.49999997  0.24999997  1
  Cd  Cd7  1  0.24999997  0.49999997  0.74999996  1
  O  O8  1  0.53859097  0.32616498  0.28757398  1
  O  O9  1  0.78757397  0.32616498  0.03859098  1
  O  O10  1  0.03859098  0.32616498  0.53859097  1
  O  O11  1  0.28757398  0.32616498  0.78757397  1
  O  O12  1  0.46140895  0.67383496  0.71242595  1
  O  O13  1  0.21242596  0.67383496  0.96140894  1
  O  O14  1  0.96140894  0.67383496  0.46140895  1
  O  O15  1  0.71242595  0.67383496  0.21242596  1
  O  O16  1  0.49999999  0.00000000  0.49999999  1
  O  O17  1  0.00000000  0.00000000  0.00000000  1
