# generated using pymatgen
data_EuTl3Te2Se5
_symmetry_space_group_name_H-M   'P 1'
_cell_length_a   4.36363888
_cell_length_b   4.36363888
_cell_length_c   17.57540321
_cell_angle_alpha   90.00000000
_cell_angle_beta   90.00000000
_cell_angle_gamma   90.00000000
_symmetry_Int_Tables_number   1
_chemical_formula_structural   EuTl3Te2Se5
_chemical_formula_sum   'Eu1 Tl3 Te2 Se5'
_cell_volume   334.65930303
_cell_formula_units_Z   1
loop_
 _symmetry_equiv_pos_site_id
 _symmetry_equiv_pos_as_xyz
  1  'x, y, z'
loop_
 _atom_site_type_symbol
 _atom_site_label
 _atom_site_symmetry_multiplicity
 _atom_site_fract_x
 _atom_site_fract_y
 _atom_site_fract_z
 _atom_site_occupancy
  Eu  Eu0  1  0.50000001  0.00000000  0.36203500  1
  Tl  Tl1  1  0.50000001  0.00000000  0.87194699  1
  Tl  Tl2  1  -0.00000000  0.50000001  0.12805300  1
  Tl  Tl3  1  -0.00000000  0.50000001  0.63796499  1
  Te  Te4  1  0.50000001  0.00000000  0.18007400  1
  Te  Te5  1  0.50000001  0.00000000  0.68997799  1
  Se  Se6  1  -0.00000000  0.50000001  0.31002200  1
  Se  Se7  1  -0.00000000  0.50000001  0.81992599  1
  Se  Se8  1  0.50000001  0.50000001  0.49999999  1
  Se  Se9  1  0.00000000  0.00000000  0.00000000  1
  Se  Se10  1  0.00000000  0.00000000  0.49999999  1
