# generated using pymatgen
data_NaLi3
_symmetry_space_group_name_H-M   'P 1'
_cell_length_a   4.65233994
_cell_length_b   4.65233994
_cell_length_c   8.03485870
_cell_angle_alpha   73.17139435
_cell_angle_beta   73.17139435
_cell_angle_gamma   60.00000000
_symmetry_Int_Tables_number   1
_chemical_formula_structural   NaLi3
_chemical_formula_sum   'Na1 Li3'
_cell_volume   141.94440011
_cell_formula_units_Z   1
loop_
 _symmetry_equiv_pos_site_id
 _symmetry_equiv_pos_as_xyz
  1  'x, y, z'
loop_
 _atom_site_type_symbol
 _atom_site_label
 _atom_site_symmetry_multiplicity
 _atom_site_fract_x
 _atom_site_fract_y
 _atom_site_fract_z
 _atom_site_occupancy
  Li  Li0  1  0.49948303  0.49948301  0.50155099  1
  Na  Na1  1  0.00032900  0.00032900  0.99901303  1
  Li  Li2  1  0.12674701  0.12674700  0.61975901  1
  Li  Li3  1  0.62344003  0.62344001  0.12967997  1
