# generated using pymatgen
data_ErHfMnFe10
_symmetry_space_group_name_H-M   'P 1'
_cell_length_a   5.08508778
_cell_length_b   6.67557859
_cell_length_c   6.67557859
_cell_angle_alpha   80.97793579
_cell_angle_beta   67.61226654
_cell_angle_gamma   67.61226654
_symmetry_Int_Tables_number   1
_chemical_formula_structural   ErHfMnFe10
_chemical_formula_sum   'Er1 Hf1 Mn1 Fe10'
_cell_volume   193.71754447
_cell_formula_units_Z   1
loop_
 _symmetry_equiv_pos_site_id
 _symmetry_equiv_pos_as_xyz
  1  'x, y, z'
loop_
 _atom_site_type_symbol
 _atom_site_label
 _atom_site_symmetry_multiplicity
 _atom_site_fract_x
 _atom_site_fract_y
 _atom_site_fract_z
 _atom_site_occupancy
  Er  Er0  1  -0.00000000  0.00302900  0.99697102  1
  Hf  Hf1  1  -0.00000000  0.65121501  0.34878504  1
  Mn  Mn2  1  -0.00000000  0.34531101  0.65468903  1
  Fe  Fe3  1  0.34922001  0.64370501  0.65785505  1
  Fe  Fe4  1  0.65078102  0.34214501  0.35629403  1
  Fe  Fe5  1  0.50000002  0.77678101  0.22321905  1
  Fe  Fe6  1  0.28699901  0.21914200  0.20686102  1
  Fe  Fe7  1  0.71300203  0.79313801  0.78085807  1
  Fe  Fe8  1  0.00283100  0.99991302  0.49728906  1
  Fe  Fe9  1  0.49996602  0.99991402  0.49728907  1
  Fe  Fe10  1  0.50003302  0.50271101  0.00008703  1
  Fe  Fe11  1  0.99716804  0.50271201  0.00008704  1
  Fe  Fe12  1  0.50000002  0.22028300  0.77971704  1
