# generated using pymatgen
data_LaYErInSn2PdAu2
_symmetry_space_group_name_H-M   'P 1'
_cell_length_a   4.02621412
_cell_length_b   7.34040594
_cell_length_c   7.34040594
_cell_angle_alpha   120.00000000
_cell_angle_beta   90.00000000
_cell_angle_gamma   90.00000000
_symmetry_Int_Tables_number   1
_chemical_formula_structural   LaYErInSn2PdAu2
_chemical_formula_sum   'La1 Y1 Er1 In1 Sn2 Pd1 Au2'
_cell_volume   187.87442122
_cell_formula_units_Z   1
loop_
 _symmetry_equiv_pos_site_id
 _symmetry_equiv_pos_as_xyz
  1  'x, y, z'
loop_
 _atom_site_type_symbol
 _atom_site_label
 _atom_site_symmetry_multiplicity
 _atom_site_fract_x
 _atom_site_fract_y
 _atom_site_fract_z
 _atom_site_occupancy
  Er  Er0  1  0.99999997  0.00000000  0.58446000  1
  Y  Y1  1  -0.00000000  0.58446000  1.00000000  1
  La  La2  1  -0.00000000  0.41554000  0.41554000  1
  In  In3  1  0.49999998  0.24791900  1.00000000  1
  Sn  Sn4  1  0.49999998  0.00000000  0.24791900  1
  Sn  Sn5  1  0.49999998  0.75208100  0.75208100  1
  Pd  Pd6  1  0.49999998  0.66666667  0.33333333  1
  Au  Au7  1  0.00000000  0.00000000  0.00000000  1
  Au  Au8  1  0.49999998  0.33333334  0.66666666  1
