# generated using pymatgen
data_Mn2Al3GaFeCu2SiGe8
_symmetry_space_group_name_H-M   'P 1'
_cell_length_a   5.01598215
_cell_length_b   5.01598215
_cell_length_c   12.66106129
_cell_angle_alpha   78.57489014
_cell_angle_beta   78.57489014
_cell_angle_gamma   60.00000000
_symmetry_Int_Tables_number   1
_chemical_formula_structural   Mn2Al3GaFeCu2SiGe8
_chemical_formula_sum   'Mn2 Al3 Ga1 Fe1 Cu2 Si1 Ge8'
_cell_volume   268.56167995
_cell_formula_units_Z   1
loop_
 _symmetry_equiv_pos_site_id
 _symmetry_equiv_pos_as_xyz
  1  'x, y, z'
loop_
 _atom_site_type_symbol
 _atom_site_label
 _atom_site_symmetry_multiplicity
 _atom_site_fract_x
 _atom_site_fract_y
 _atom_site_fract_z
 _atom_site_occupancy
  Mn  Mn0  1  0.05058300  0.05058300  0.84825100  1
  Al  Al1  1  0.94941694  0.94941701  0.15174901  1
  Mn  Mn2  1  0.14687599  0.14687600  0.55937200  1
  Al  Al3  1  0.85312395  0.85312401  0.44062801  1
  Ga  Ga4  1  0.49999997  0.50000000  0.50000000  1
  Al  Al5  1  0.27847498  0.27847500  0.16457500  1
  Cu  Cu6  1  0.72152496  0.72152501  0.83542501  1
  Cu  Cu7  1  0.38764998  0.38765000  0.83705000  1
  Fe  Fe8  1  0.61234996  0.61235000  0.16295001  1
  Ge  Ge9  1  0.49999998  0.00000000  0.00000001  1
  Ge  Ge10  1  -0.00000001  0.50000000  0.00000000  1
  Ge  Ge11  1  0.49999997  0.50000000  0.00000001  1
  Ge  Ge12  1  0.60794896  0.60794900  0.67448301  1
  Ge  Ge13  1  0.60794898  0.10961900  0.67448300  1
  Ge  Ge14  1  0.10961898  0.60794900  0.67448300  1
  Si  Si15  1  0.39205098  0.39205100  0.32551700  1
  Ge  Ge16  1  0.39205097  0.89038101  0.32551701  1
  Ge  Ge17  1  0.89038096  0.39205100  0.32551701  1
