# generated using pymatgen
data_Li4Ni2NO
_symmetry_space_group_name_H-M   'P 1'
_cell_length_a   3.53956604
_cell_length_b   3.53956604
_cell_length_c   12.66485023
_cell_angle_alpha   90.00000000
_cell_angle_beta   90.00000000
_cell_angle_gamma   120.00000000
_symmetry_Int_Tables_number   1
_chemical_formula_structural   Li4Ni2NO
_chemical_formula_sum   'Li4 Ni2 N1 O1'
_cell_volume   137.41392020
_cell_formula_units_Z   1
loop_
 _symmetry_equiv_pos_site_id
 _symmetry_equiv_pos_as_xyz
  1  'x, y, z'
loop_
 _atom_site_type_symbol
 _atom_site_label
 _atom_site_symmetry_multiplicity
 _atom_site_fract_x
 _atom_site_fract_y
 _atom_site_fract_z
 _atom_site_occupancy
  Li  Li0  1  0.00000000  0.00000000  0.00000000  1
  Li  Li1  1  0.00000000  0.00000000  0.49999999  1
  Li  Li2  1  0.33333332  0.66666664  0.25000000  1
  Li  Li3  1  0.66666666  0.33333332  0.74999999  1
  Ni  Ni4  1  0.33333332  0.66666664  0.41168299  1
  N  N5  1  0.66666666  0.33333332  0.91168298  1
  O  O6  1  0.33333332  0.66666664  0.08831700  1
  Ni  Ni7  1  0.66666666  0.33333332  0.58831699  1
