# generated using pymatgen
data_La5Er(Sn3Au)2
_symmetry_space_group_name_H-M   'P 1'
_cell_length_a   7.94968557
_cell_length_b   7.94968557
_cell_length_c   7.94968557
_cell_angle_alpha   109.47122192
_cell_angle_beta   109.47122192
_cell_angle_gamma   109.47122192
_symmetry_Int_Tables_number   1
_chemical_formula_structural   La5Er(Sn3Au)2
_chemical_formula_sum   'La5 Er1 Sn6 Au2'
_cell_volume   386.74788181
_cell_formula_units_Z   1
loop_
 _symmetry_equiv_pos_site_id
 _symmetry_equiv_pos_as_xyz
  1  'x, y, z'
loop_
 _atom_site_type_symbol
 _atom_site_label
 _atom_site_symmetry_multiplicity
 _atom_site_fract_x
 _atom_site_fract_y
 _atom_site_fract_z
 _atom_site_occupancy
  Er  Er0  1  0.35990704  0.75000001  0.10990705  1
  La  La1  1  0.14009301  0.25000000  0.39009301  1
  La  La2  1  0.75000003  0.60990701  0.85990703  1
  La  La3  1  0.25000005  0.89009301  0.64009304  1
  La  La4  1  0.60990701  0.35990701  0.25000003  1
  La  La5  1  0.89009300  0.14009300  0.75000001  1
  Sn  Sn6  1  0.00000003  0.50000001  0.17003402  1
  Sn  Sn7  1  0.67003399  0.00000000  0.00000002  1
  Sn  Sn8  1  0.50000004  0.67003401  0.50000004  1
  Sn  Sn9  1  0.82996604  0.82996601  0.32996606  1
  Sn  Sn10  1  0.15112900  0.00000000  0.00000000  1
  Sn  Sn11  1  0.00000003  0.50000001  0.65112901  1
  Au  Au12  1  0.50000000  0.15112900  0.50000001  1
  Au  Au13  1  0.34887102  0.34887101  0.84887101  1
