# generated using pymatgen
data_Sc(AlGa2)3
_symmetry_space_group_name_H-M   'P 1'
_cell_length_a   3.69826102
_cell_length_b   7.28031683
_cell_length_c   7.28031683
_cell_angle_alpha   90.00000000
_cell_angle_beta   90.00000000
_cell_angle_gamma   90.00000000
_symmetry_Int_Tables_number   1
_chemical_formula_structural   Sc(AlGa2)3
_chemical_formula_sum   'Sc1 Al3 Ga6'
_cell_volume   196.01897758
_cell_formula_units_Z   1
loop_
 _symmetry_equiv_pos_site_id
 _symmetry_equiv_pos_as_xyz
  1  'x, y, z'
loop_
 _atom_site_type_symbol
 _atom_site_label
 _atom_site_symmetry_multiplicity
 _atom_site_fract_x
 _atom_site_fract_y
 _atom_site_fract_z
 _atom_site_occupancy
  Al  Al0  1  0.50000000  0.67360302  0.17360300  1
  Sc  Sc1  1  0.50000000  0.32639701  0.82639702  1
  Ga  Ga2  1  0.50000000  0.17360300  0.32639701  1
  Al  Al3  1  0.50000000  0.82639702  0.67360302  1
  Ga  Ga4  1  -0.00000000  0.87652002  0.37652001  1
  Al  Al5  1  0.99999999  0.12348000  0.62348001  1
  Ga  Ga6  1  -0.00000000  0.37652001  0.12348000  1
  Ga  Ga7  1  -0.00000000  0.62348001  0.87652002  1
  Ga  Ga8  1  -0.00000000  0.50000001  0.50000001  1
  Ga  Ga9  1  0.00000000  0.00000000  0.00000000  1
