# generated using pymatgen
data_MgCu3AsP5
_symmetry_space_group_name_H-M   'P 1'
_cell_length_a   4.49000216
_cell_length_b   6.19194651
_cell_length_c   6.19194651
_cell_angle_alpha   89.84856415
_cell_angle_beta   90.00000000
_cell_angle_gamma   90.00000000
_symmetry_Int_Tables_number   1
_chemical_formula_structural   MgCu3AsP5
_chemical_formula_sum   'Mg1 Cu3 As1 P5'
_cell_volume   172.14698626
_cell_formula_units_Z   1
loop_
 _symmetry_equiv_pos_site_id
 _symmetry_equiv_pos_as_xyz
  1  'x, y, z'
loop_
 _atom_site_type_symbol
 _atom_site_label
 _atom_site_symmetry_multiplicity
 _atom_site_fract_x
 _atom_site_fract_y
 _atom_site_fract_z
 _atom_site_occupancy
  Cu  Cu0  1  0.50000001  0.00000000  0.00000000  1
  Mg  Mg1  1  0.00000000  0.00000000  0.50000001  1
  Cu  Cu2  1  0.00000000  0.50000001  -0.00000002  1
  Cu  Cu3  1  0.50000001  0.50000001  0.49999999  1
  P  P4  1  0.50000001  0.00000000  0.50000001  1
  P  P5  1  0.50000001  0.50000001  -0.00000002  1
  P  P6  1  0.00000000  0.32286292  0.67713709  1
  As  As7  1  0.00000000  0.67713711  0.32286289  1
  P  P8  1  -0.00000000  0.81444399  0.81444396  1
  P  P9  1  0.00000000  0.18555603  0.18555603  1
