# generated using pymatgen
data_Cu2As2Se
_symmetry_space_group_name_H-M   'P 1'
_cell_length_a   5.35523796
_cell_length_b   5.35523796
_cell_length_c   5.35523796
_cell_angle_alpha   109.47122192
_cell_angle_beta   109.47122192
_cell_angle_gamma   109.47122192
_symmetry_Int_Tables_number   1
_chemical_formula_structural   Cu2As2Se
_chemical_formula_sum   'Cu2 As2 Se1'
_cell_volume   118.22638466
_cell_formula_units_Z   1
loop_
 _symmetry_equiv_pos_site_id
 _symmetry_equiv_pos_as_xyz
  1  'x, y, z'
loop_
 _atom_site_type_symbol
 _atom_site_label
 _atom_site_symmetry_multiplicity
 _atom_site_fract_x
 _atom_site_fract_y
 _atom_site_fract_z
 _atom_site_occupancy
  Cu  Cu0  1  0.00000000  0.00000000  0.00000000  1
  Cu  Cu1  1  0.50000002  0.50000001  0.50000003  1
  As  As2  1  0.00000000  0.00000000  0.49999999  1
  As  As3  1  0.50000006  1.00000002  0.00000007  1
  Se  Se4  1  1.00000002  0.50000001  0.00000005  1
