# generated using pymatgen
data_NaSr2Li2ErCu2Ni(PO)2
_symmetry_space_group_name_H-M   'P 1'
_cell_length_a   5.43249989
_cell_length_b   5.43249989
_cell_length_c   8.36636734
_cell_angle_alpha   71.05484009
_cell_angle_beta   71.05484009
_cell_angle_gamma   60.00000000
_symmetry_Int_Tables_number   1
_chemical_formula_structural   NaSr2Li2ErCu2Ni(PO)2
_chemical_formula_sum   'Na1 Sr2 Li2 Er1 Cu2 Ni1 P2 O2'
_cell_volume   198.23461249
_cell_formula_units_Z   1
loop_
 _symmetry_equiv_pos_site_id
 _symmetry_equiv_pos_as_xyz
  1  'x, y, z'
loop_
 _atom_site_type_symbol
 _atom_site_label
 _atom_site_symmetry_multiplicity
 _atom_site_fract_x
 _atom_site_fract_y
 _atom_site_fract_z
 _atom_site_occupancy
  Er  Er0  1  0.00000000  0.00000000  0.00000000  1
  Na  Na1  1  0.25106400  0.25106400  0.24680800  1
  Sr  Sr2  1  0.74893601  0.74893601  0.75319201  1
  Sr  Sr3  1  0.41640600  0.41640600  0.75078200  1
  Li  Li4  1  0.58359401  0.58359401  0.24921801  1
  Li  Li5  1  0.11748400  0.11748400  0.64754699  1
  P  P6  1  0.88251601  0.88251601  0.35245302  1
  Ni  Ni7  1  0.83245701  0.50000000  0.50000001  1
  O  O8  1  0.50000001  0.16754300  0.50000000  1
  Cu  Cu9  1  0.16754300  0.83245701  0.50000002  1
  P  P10  1  0.50000000  0.83245701  0.50000002  1
  Cu  Cu11  1  0.83245701  0.16754300  0.50000000  1
  O  O12  1  0.16754300  0.50000000  0.50000001  1
