# generated using pymatgen
data_KH3O2
_symmetry_space_group_name_H-M   'P 1'
_cell_length_a   4.20615196
_cell_length_b   4.27345324
_cell_length_c   6.14304352
_cell_angle_alpha   90.00000000
_cell_angle_beta   75.00961304
_cell_angle_gamma   90.00000000
_symmetry_Int_Tables_number   1
_chemical_formula_structural   KH3O2
_chemical_formula_sum   'K1 H3 O2'
_cell_volume   106.66226521
_cell_formula_units_Z   1
loop_
 _symmetry_equiv_pos_site_id
 _symmetry_equiv_pos_as_xyz
  1  'x, y, z'
loop_
 _atom_site_type_symbol
 _atom_site_label
 _atom_site_symmetry_multiplicity
 _atom_site_fract_x
 _atom_site_fract_y
 _atom_site_fract_z
 _atom_site_occupancy
  K  K0  1  0.16986700  0.24999999  0.71204399  1
  H  H1  1  0.83013301  0.74999996  0.28795599  1
  H  H2  1  0.46292501  0.24999999  0.09222000  1
  H  H3  1  0.53707501  0.74999996  0.90777998  1
  O  O4  1  0.32225400  0.24999999  0.24520899  1
  O  O5  1  0.67774601  0.74999996  0.75479099  1
