# generated using pymatgen
data_TiAgS2
_symmetry_space_group_name_H-M   'P 1'
_cell_length_a   3.66940880
_cell_length_b   3.66940880
_cell_length_c   6.53784752
_cell_angle_alpha   73.70229340
_cell_angle_beta   73.70229340
_cell_angle_gamma   59.99998474
_symmetry_Int_Tables_number   1
_chemical_formula_structural   TiAgS2
_chemical_formula_sum   'Ti1 Ag1 S2'
_cell_volume   72.12209706
_cell_formula_units_Z   1
loop_
 _symmetry_equiv_pos_site_id
 _symmetry_equiv_pos_as_xyz
  1  'x, y, z'
loop_
 _atom_site_type_symbol
 _atom_site_label
 _atom_site_symmetry_multiplicity
 _atom_site_fract_x
 _atom_site_fract_y
 _atom_site_fract_z
 _atom_site_occupancy
  Ti  Ti0  1  0.26162699  0.26162700  0.21511902  1
  Ag  Ag1  1  0.73837298  0.73837300  0.78488105  1
  S  S2  1  0.00000000  0.00000000  0.00000000  1
  S  S3  1  0.49999999  0.50000000  0.50000003  1
