# generated using pymatgen
data_DyY2HfIn6SnSbAu6
_symmetry_space_group_name_H-M   'P 1'
_cell_length_a   5.85414314
_cell_length_b   8.67370224
_cell_length_c   8.67365932
_cell_angle_alpha   120.00016022
_cell_angle_beta   90.00393677
_cell_angle_gamma   89.99211884
_symmetry_Int_Tables_number   1
_chemical_formula_structural   DyY2HfIn6SnSbAu6
_chemical_formula_sum   'Dy1 Y2 Hf1 In6 Sn1 Sb1 Au6'
_cell_volume   381.41707677
_cell_formula_units_Z   1
loop_
 _symmetry_equiv_pos_site_id
 _symmetry_equiv_pos_as_xyz
  1  'x, y, z'
loop_
 _atom_site_type_symbol
 _atom_site_label
 _atom_site_symmetry_multiplicity
 _atom_site_fract_x
 _atom_site_fract_y
 _atom_site_fract_z
 _atom_site_occupancy
  Hf  Hf0  1  0.49999893  0.66666668  0.33333327  1
  Dy  Dy1  1  0.49999896  0.33333334  0.66666661  1
  Y  Y2  1  0.99999995  0.33333334  0.66666660  1
  Y  Y3  1  0.99999992  0.66666668  0.33333326  1
  In  In4  1  0.26117297  0.27348901  -0.00000002  1
  In  In5  1  0.26114099  0.00003400  0.27351798  1
  In  In6  1  0.26114093  0.72651602  0.72648193  1
  In  In7  1  0.73883592  0.72651302  0.99999991  1
  In  In8  1  0.73885490  0.99996502  0.72648390  1
  In  In9  1  0.73885496  0.27348101  0.27351596  1
  Sn  Sn10  1  0.50000199  0.00000100  -0.00000001  1
  Au  Au11  1  0.24739894  0.61504701  0.99999992  1
  Au  Au12  1  0.24740691  0.99999102  0.61501292  1
  Au  Au13  1  0.24740696  0.38497801  0.38498696  1
  Au  Au14  1  0.75260395  0.38495401  -0.00000004  1
  Au  Au15  1  0.75258898  0.00001000  0.38498897  1
  Au  Au16  1  0.75258893  0.61502101  0.61501093  1
  Sb  Sb17  1  0.00000400  0.00000300  -0.00000000  1
