# generated using pymatgen
data_Nb2Cr3CuS8
_symmetry_space_group_name_H-M   'P 1'
_cell_length_a   7.35677624
_cell_length_b   7.45660162
_cell_length_c   7.45660162
_cell_angle_alpha   61.06419373
_cell_angle_beta   60.44187927
_cell_angle_gamma   60.44187927
_symmetry_Int_Tables_number   1
_chemical_formula_structural   Nb2Cr3CuS8
_chemical_formula_sum   'Nb2 Cr3 Cu1 S8'
_cell_volume   293.45491360
_cell_formula_units_Z   1
loop_
 _symmetry_equiv_pos_site_id
 _symmetry_equiv_pos_as_xyz
  1  'x, y, z'
loop_
 _atom_site_type_symbol
 _atom_site_label
 _atom_site_symmetry_multiplicity
 _atom_site_fract_x
 _atom_site_fract_y
 _atom_site_fract_z
 _atom_site_occupancy
  Cu  Cu0  1  0.50000000  1.00000001  0.50000001  1
  Nb  Nb1  1  0.00000003  1.00000001  0.50000000  1
  Nb  Nb2  1  0.63481899  0.61518100  0.11518102  1
  Cr  Cr3  1  0.36518099  0.38481900  0.88481902  1
  Cr  Cr4  1  0.00000001  0.50000000  0.50000000  1
  Cr  Cr5  1  0.00000000  0.00000000  0.00000000  1
  S  S6  1  0.21998801  0.77000000  0.27000000  1
  S  S7  1  0.74001198  0.77000000  0.27000002  1
  S  S8  1  0.75503797  0.20838100  0.28154203  1
  S  S9  1  0.75503898  0.78154100  0.70838103  1
  S  S10  1  0.78001197  0.23000000  0.73000003  1
  S  S11  1  0.25998799  0.23000000  0.73000002  1
  S  S12  1  0.24496201  0.79161900  0.71845801  1
  S  S13  1  0.24496099  0.21845900  0.29161901  1
