# generated using pymatgen
data_Li6CuNiO8
_symmetry_space_group_name_H-M   'P 1'
_cell_length_a   5.71119308
_cell_length_b   5.71119308
_cell_length_c   5.77303648
_cell_angle_alpha   60.35374069
_cell_angle_beta   60.35374069
_cell_angle_gamma   60.00000763
_symmetry_Int_Tables_number   1
_chemical_formula_structural   Li6CuNiO8
_chemical_formula_sum   'Li6 Cu1 Ni1 O8'
_cell_volume   133.85805814
_cell_formula_units_Z   1
loop_
 _symmetry_equiv_pos_site_id
 _symmetry_equiv_pos_as_xyz
  1  'x, y, z'
loop_
 _atom_site_type_symbol
 _atom_site_label
 _atom_site_symmetry_multiplicity
 _atom_site_fract_x
 _atom_site_fract_y
 _atom_site_fract_z
 _atom_site_occupancy
  Li  Li0  1  0.50000001  0.50000002  0.50000001  1
  Li  Li1  1  -0.00000001  0.50000002  0.50000001  1
  Li  Li2  1  0.50000002  0.00000000  0.50000000  1
  Li  Li3  1  0.00000000  0.00000000  0.50000000  1
  Li  Li4  1  0.00000000  0.00000000  0.00000000  1
  Li  Li5  1  -0.00000001  0.50000002  0.00000001  1
  Ni  Ni6  1  0.50000001  0.50000002  0.00000002  1
  Cu  Cu7  1  0.50000002  0.00000000  0.00000001  1
  O  O8  1  0.26108100  0.26108101  0.21675701  1
  O  O9  1  0.75150502  0.27541901  0.22157101  1
  O  O10  1  0.27541900  0.75150503  0.22157102  1
  O  O11  1  0.75150501  0.75150503  0.22157102  1
  O  O12  1  0.24849500  0.24849501  0.77842900  1
  O  O13  1  0.72458102  0.24849501  0.77842901  1
  O  O14  1  0.24849500  0.72458103  0.77842901  1
  O  O15  1  0.73891901  0.73891903  0.78324302  1
