# generated using pymatgen
data_La3Y7CuP(Au2C)2
_symmetry_space_group_name_H-M   'P 1'
_cell_length_a   6.60051012
_cell_length_b   8.65838146
_cell_length_c   8.65838051
_cell_angle_alpha   120.00000000
_cell_angle_beta   90.00000000
_cell_angle_gamma   90.00000000
_symmetry_Int_Tables_number   1
_chemical_formula_structural   La3Y7CuP(Au2C)2
_chemical_formula_sum   'La3 Y7 Cu1 P1 Au4 C2'
_cell_volume   428.53028168
_cell_formula_units_Z   1
loop_
 _symmetry_equiv_pos_site_id
 _symmetry_equiv_pos_as_xyz
  1  'x, y, z'
loop_
 _atom_site_type_symbol
 _atom_site_label
 _atom_site_symmetry_multiplicity
 _atom_site_fract_x
 _atom_site_fract_y
 _atom_site_fract_z
 _atom_site_occupancy
  Y  Y0  1  -0.00000000  0.33333333  0.66666669  1
  La  La1  1  -0.00000000  0.66666665  0.33333334  1
  La  La2  1  0.49999999  0.66666665  0.33333334  1
  La  La3  1  0.49999999  0.33333333  0.66666669  1
  Y  Y4  1  0.25000000  0.22455800  1.00000004  1
  Y  Y5  1  0.25000000  0.77544198  0.77544202  1
  Y  Y6  1  0.25000000  0.00000000  0.22455801  1
  Y  Y7  1  0.74999999  0.77544198  -0.00000001  1
  Y  Y8  1  0.74999999  0.22455800  0.22455801  1
  Y  Y9  1  0.74999999  0.00000000  0.77544203  1
  Cu  Cu10  1  0.25000000  0.59236699  -0.00000001  1
  Au  Au11  1  0.25000000  0.40763299  0.40763301  1
  Au  Au12  1  0.25000000  0.00000000  0.59236702  1
  P  P13  1  0.74999999  0.40763299  -0.00000001  1
  Au  Au14  1  0.74999999  0.59236699  0.59236701  1
  Au  Au15  1  0.74999999  0.00000000  0.40763302  1
  C  C16  1  0.00000000  0.00000000  0.00000000  1
  C  C17  1  0.49999999  0.00000000  -0.00000000  1
