# generated using pymatgen
data_LaZrInSn
_symmetry_space_group_name_H-M   'P 1'
_cell_length_a   3.44988298
_cell_length_b   3.44988298
_cell_length_c   10.75469398
_cell_angle_alpha   90.00000000
_cell_angle_beta   90.00000000
_cell_angle_gamma   107.59096527
_symmetry_Int_Tables_number   1
_chemical_formula_structural   LaZrInSn
_chemical_formula_sum   'La1 Zr1 In1 Sn1'
_cell_volume   122.01361266
_cell_formula_units_Z   1
loop_
 _symmetry_equiv_pos_site_id
 _symmetry_equiv_pos_as_xyz
  1  'x, y, z'
loop_
 _atom_site_type_symbol
 _atom_site_label
 _atom_site_symmetry_multiplicity
 _atom_site_fract_x
 _atom_site_fract_y
 _atom_site_fract_z
 _atom_site_occupancy
  Zr  Zr0  1  0.50000002  0.50000001  0.23530200  1
  La  La1  1  0.00000000  0.00000000  0.50000000  1
  In  In2  1  0.50000002  0.50000001  0.76469800  1
  Sn  Sn3  1  0.00000000  0.00000000  0.00000000  1
