# generated using pymatgen
data_BaLaZnGaCuGe
_symmetry_space_group_name_H-M   'P 1'
_cell_length_a   6.02974844
_cell_length_b   6.02974844
_cell_length_c   6.02974844
_cell_angle_alpha   60.00000000
_cell_angle_beta   60.00000000
_cell_angle_gamma   60.00000000
_symmetry_Int_Tables_number   1
_chemical_formula_structural   BaLaZnGaCuGe
_chemical_formula_sum   'Ba1 La1 Zn1 Ga1 Cu1 Ge1'
_cell_volume   155.01816212
_cell_formula_units_Z   1
loop_
 _symmetry_equiv_pos_site_id
 _symmetry_equiv_pos_as_xyz
  1  'x, y, z'
loop_
 _atom_site_type_symbol
 _atom_site_label
 _atom_site_symmetry_multiplicity
 _atom_site_fract_x
 _atom_site_fract_y
 _atom_site_fract_z
 _atom_site_occupancy
  Ba  Ba0  1  0.75000000  0.75000000  0.75000000  1
  La  La1  1  0.00000000  0.00000000  0.00000000  1
  Zn  Zn2  1  0.37498300  0.37498400  0.87504900  1
  Ge  Ge3  1  0.37498300  0.37498400  0.37498400  1
  Cu  Cu4  1  0.37498300  0.87504900  0.37498400  1
  Ga  Ga5  1  0.87504800  0.37498400  0.37498400  1
