# generated using pymatgen
data_YErAl3Si5
_symmetry_space_group_name_H-M   'P 1'
_cell_length_a   4.02397203
_cell_length_b   4.02397203
_cell_length_c   10.82745075
_cell_angle_alpha   90.00000000
_cell_angle_beta   90.00000000
_cell_angle_gamma   90.00000000
_symmetry_Int_Tables_number   1
_chemical_formula_structural   YErAl3Si5
_chemical_formula_sum   'Y1 Er1 Al3 Si5'
_cell_volume   175.32188230
_cell_formula_units_Z   1
loop_
 _symmetry_equiv_pos_site_id
 _symmetry_equiv_pos_as_xyz
  1  'x, y, z'
loop_
 _atom_site_type_symbol
 _atom_site_label
 _atom_site_symmetry_multiplicity
 _atom_site_fract_x
 _atom_site_fract_y
 _atom_site_fract_z
 _atom_site_occupancy
  Y  Y0  1  0.50000000  0.00000000  0.75258002  1
  Er  Er1  1  0.00000000  0.50000000  0.24742001  1
  Al  Al2  1  0.00000000  0.00000000  0.50000001  1
  Al  Al3  1  0.00000000  0.00000000  0.00000000  1
  Al  Al4  1  0.50000000  0.50000000  0.50000001  1
  Si  Si5  1  0.50000000  0.50000000  0.00000000  1
  Si  Si6  1  0.00000000  0.50000000  0.87792702  1
  Si  Si7  1  0.50000000  0.00000000  0.37344501  1
  Si  Si8  1  0.50000000  0.00000000  0.12207300  1
  Si  Si9  1  0.00000000  0.50000000  0.62655501  1
