# generated using pymatgen
data_Mn3CuP2
_symmetry_space_group_name_H-M   'P 1'
_cell_length_a   3.57594299
_cell_length_b   5.26523256
_cell_length_c   6.07443523
_cell_angle_alpha   95.12156677
_cell_angle_beta   90.00000000
_cell_angle_gamma   90.00000000
_symmetry_Int_Tables_number   1
_chemical_formula_structural   Mn3CuP2
_chemical_formula_sum   'Mn3 Cu1 P2'
_cell_volume   113.91388794
_cell_formula_units_Z   1
loop_
 _symmetry_equiv_pos_site_id
 _symmetry_equiv_pos_as_xyz
  1  'x, y, z'
loop_
 _atom_site_type_symbol
 _atom_site_label
 _atom_site_symmetry_multiplicity
 _atom_site_fract_x
 _atom_site_fract_y
 _atom_site_fract_z
 _atom_site_occupancy
  Mn  Mn0  1  0.50000000  0.49999999  0.50000003  1
  Mn  Mn1  1  0.00000000  0.00000000  0.00000000  1
  Cu  Cu2  1  0.50000000  0.71957499  0.14803503  1
  Mn  Mn3  1  0.50000000  0.28042500  0.85196503  1
  P  P4  1  0.00000000  0.22988300  0.35902402  1
  P  P5  1  0.00000000  0.77011699  0.64097605  1
