# generated using pymatgen
data_BeAl(B2N)2
_symmetry_space_group_name_H-M   'P 1'
_cell_length_a   2.86448789
_cell_length_b   2.86448860
_cell_length_c   10.68461704
_cell_angle_alpha   90.00000000
_cell_angle_beta   90.00000000
_cell_angle_gamma   119.99999237
_symmetry_Int_Tables_number   1
_chemical_formula_structural   BeAl(B2N)2
_chemical_formula_sum   'Be1 Al1 B4 N2'
_cell_volume   75.92481010
_cell_formula_units_Z   1
loop_
 _symmetry_equiv_pos_site_id
 _symmetry_equiv_pos_as_xyz
  1  'x, y, z'
loop_
 _atom_site_type_symbol
 _atom_site_label
 _atom_site_symmetry_multiplicity
 _atom_site_fract_x
 _atom_site_fract_y
 _atom_site_fract_z
 _atom_site_occupancy
  Al  Al0  1  0.00000000  0.00000000  0.50000000  1
  Be  Be1  1  0.00000000  0.00000000  0.00000000  1
  B  B2  1  0.00000000  0.00000000  0.75000000  1
  B  B3  1  0.00000000  0.00000000  0.25000000  1
  N  N4  1  0.66666668  0.33333332  0.62141200  1
  B  B5  1  0.33333333  0.66666664  0.12141200  1
  B  B6  1  0.66666668  0.33333332  0.87858800  1
  N  N7  1  0.33333333  0.66666664  0.37858800  1
