# generated using pymatgen
data_Na2Sr5CaO4
_symmetry_space_group_name_H-M   'P 1'
_cell_length_a   4.92905521
_cell_length_b   5.15033722
_cell_length_c   8.32292938
_cell_angle_alpha   90.00000000
_cell_angle_beta   90.00000000
_cell_angle_gamma   90.00000000
_symmetry_Int_Tables_number   1
_chemical_formula_structural   Na2Sr5CaO4
_chemical_formula_sum   'Na2 Sr5 Ca1 O4'
_cell_volume   211.28835325
_cell_formula_units_Z   1
loop_
 _symmetry_equiv_pos_site_id
 _symmetry_equiv_pos_as_xyz
  1  'x, y, z'
loop_
 _atom_site_type_symbol
 _atom_site_label
 _atom_site_symmetry_multiplicity
 _atom_site_fract_x
 _atom_site_fract_y
 _atom_site_fract_z
 _atom_site_occupancy
  Sr  Sr0  1  0.24999999  0.01399700  0.63853597  1
  Sr  Sr1  1  0.74999997  0.51399698  0.86146396  1
  Sr  Sr2  1  0.24999999  0.48600298  0.13853599  1
  Sr  Sr3  1  0.74999997  0.98600296  0.36146398  1
  Sr  Sr4  1  0.49999998  0.49999998  0.49999998  1
  Ca  Ca5  1  0.00000000  0.49999998  0.49999998  1
  Na  Na6  1  0.49999998  0.00000000  0.00000000  1
  Na  Na7  1  0.00000000  0.00000000  0.00000000  1
  O  O8  1  0.74999997  0.21786799  0.62761597  1
  O  O9  1  0.24999999  0.71786797  0.87238396  1
  O  O10  1  0.74999997  0.28213199  0.12761599  1
  O  O11  1  0.24999999  0.78213197  0.37238398  1
