# generated using pymatgen
data_La2YErIn5Sn3GePPtAu3
_symmetry_space_group_name_H-M   'P 1'
_cell_length_a   5.82988501
_cell_length_b   8.58799362
_cell_length_c   8.58799362
_cell_angle_alpha   120.00000000
_cell_angle_beta   90.00000000
_cell_angle_gamma   90.00000000
_symmetry_Int_Tables_number   1
_chemical_formula_structural   La2YErIn5Sn3GePPtAu3
_chemical_formula_sum   'La2 Y1 Er1 In5 Sn3 Ge1 P1 Pt1 Au3'
_cell_volume   372.36945278
_cell_formula_units_Z   1
loop_
 _symmetry_equiv_pos_site_id
 _symmetry_equiv_pos_as_xyz
  1  'x, y, z'
loop_
 _atom_site_type_symbol
 _atom_site_label
 _atom_site_symmetry_multiplicity
 _atom_site_fract_x
 _atom_site_fract_y
 _atom_site_fract_z
 _atom_site_occupancy
  Er  Er0  1  -0.00000000  0.66666667  0.33333327  1
  La  La1  1  0.50000000  0.33333334  0.66666661  1
  La  La2  1  -0.00000000  0.33333334  0.66666661  1
  Y  Y3  1  0.50000000  0.66666667  0.33333327  1
  In  In4  1  0.75000000  0.73739501  0.73739491  1
  In  In5  1  0.25000000  0.73739501  0.99999990  1
  In  In6  1  0.25000000  1.00000001  0.73739490  1
  In  In7  1  0.75000000  1.00000001  0.26260492  1
  In  In8  1  0.75000000  0.26260500  0.99999993  1
  Sn  Sn9  1  0.25000000  0.26260500  0.26260497  1
  Pt  Pt10  1  0.00000000  0.00000000  0.00000000  1
  Ge  Ge11  1  0.50000000  0.00000000  -0.00000000  1
  Sn  Sn12  1  0.75000000  0.38739600  0.38739595  1
  Au  Au13  1  0.25000000  0.38739600  -0.00000003  1
  Sn  Sn14  1  0.25000000  1.00000001  0.38739591  1
  Au  Au15  1  0.75000000  1.00000001  0.61260390  1
  P  P16  1  0.75000000  0.61260401  -0.00000004  1
  Au  Au17  1  0.25000000  0.61260401  0.61260393  1
