# generated using pymatgen
data_Er4HfScAlGa3Si2(GeRu3)2
_symmetry_space_group_name_H-M   'P 1'
_cell_length_a   7.68749428
_cell_length_b   7.68749428
_cell_length_c   7.68749428
_cell_angle_alpha   109.47122192
_cell_angle_beta   109.47122192
_cell_angle_gamma   109.47122192
_symmetry_Int_Tables_number   1
_chemical_formula_structural   Er4HfScAlGa3Si2(GeRu3)2
_chemical_formula_sum   'Er4 Hf1 Sc1 Al1 Ga3 Si2 Ge2 Ru6'
_cell_volume   349.72969174
_cell_formula_units_Z   1
loop_
 _symmetry_equiv_pos_site_id
 _symmetry_equiv_pos_as_xyz
  1  'x, y, z'
loop_
 _atom_site_type_symbol
 _atom_site_label
 _atom_site_symmetry_multiplicity
 _atom_site_fract_x
 _atom_site_fract_y
 _atom_site_fract_z
 _atom_site_occupancy
  Er  Er0  1  0.50000006  0.75000005  0.25000006  1
  Er  Er1  1  0.75000004  0.25000002  0.50000004  1
  Er  Er2  1  0.25000004  0.50000003  0.75000005  1
  Er  Er3  1  0.25000006  0.75000005  0.50000006  1
  Sc  Sc4  1  0.50000003  0.25000002  0.75000004  1
  Ga  Ga5  1  0.75000006  0.50000003  0.25000005  1
  Al  Al6  1  0.67149206  0.67149204  0.67149207  1
  Hf  Hf7  1  1.00000005  0.32850802  0.00000004  1
  Si  Si8  1  0.00000000  0.00000000  0.32850801  1
  Ga  Ga9  1  0.32850801  0.00000000  1.00000003  1
  Ge  Ge10  1  0.32850803  0.32850802  0.32850803  1
  Ga  Ga11  1  0.00000004  0.67149204  0.00000004  1
  Ru  Ru12  1  0.00000000  0.00000000  0.67149202  1
  Ge  Ge13  1  0.67149202  0.00000000  1.00000004  1
  Ru  Ru14  1  1.00000008  0.65936404  0.65936408  1
  Ru  Ru15  1  0.65936406  0.65936404  1.00000008  1
  Ru  Ru16  1  0.65936409  1.00000006  0.65936409  1
  Ru  Ru17  1  0.00000002  0.34063602  0.34063603  1
  Si  Si18  1  0.34063603  0.34063602  1.00000005  1
  Ru  Ru19  1  0.34063601  0.00000000  0.34063602  1
