# generated using pymatgen
data_La3YTl3Te7
_symmetry_space_group_name_H-M   'P 1'
_cell_length_a   8.85500717
_cell_length_b   8.85500717
_cell_length_c   8.85500717
_cell_angle_alpha   109.47122192
_cell_angle_beta   109.47122192
_cell_angle_gamma   109.47122192
_symmetry_Int_Tables_number   1
_chemical_formula_structural   La3YTl3Te7
_chemical_formula_sum   'La3 Y1 Tl3 Te7'
_cell_volume   534.49646873
_cell_formula_units_Z   1
loop_
 _symmetry_equiv_pos_site_id
 _symmetry_equiv_pos_as_xyz
  1  'x, y, z'
loop_
 _atom_site_type_symbol
 _atom_site_label
 _atom_site_symmetry_multiplicity
 _atom_site_fract_x
 _atom_site_fract_y
 _atom_site_fract_z
 _atom_site_occupancy
  Y  Y0  1  0.35439904  0.35439903  0.85439907  1
  La  La1  1  0.00000003  0.50000004  0.14560103  1
  La  La2  1  0.64560110  1.00000008  1.00000011  1
  La  La3  1  0.50000007  0.64560105  0.50000007  1
  Tl  Tl4  1  0.14560107  1.00000008  1.00000010  1
  Tl  Tl5  1  0.50000004  0.14560101  0.50000004  1
  Tl  Tl6  1  0.85439910  0.85439907  0.35439908  1
  Te  Te7  1  0.00000003  0.50000004  0.64560106  1
  Te  Te8  1  0.87500005  0.12500001  0.75000006  1
  Te  Te9  1  0.75000008  0.62500005  0.87500009  1
  Te  Te10  1  0.25000007  0.87500007  0.62500008  1
  Te  Te11  1  0.12500002  0.25000002  0.37500003  1
  Te  Te12  1  0.37500007  0.75000006  0.12500006  1
  Te  Te13  1  0.62500006  0.37500003  0.25000005  1
