# generated using pymatgen
data_Sc2InCuSe4
_symmetry_space_group_name_H-M   'P 1'
_cell_length_a   5.80811214
_cell_length_b   5.80811214
_cell_length_c   7.14575481
_cell_angle_alpha   113.97907257
_cell_angle_beta   113.97907257
_cell_angle_gamma   90.00000000
_symmetry_Int_Tables_number   1
_chemical_formula_structural   Sc2InCuSe4
_chemical_formula_sum   'Sc2 In1 Cu1 Se4'
_cell_volume   197.26479641
_cell_formula_units_Z   1
loop_
 _symmetry_equiv_pos_site_id
 _symmetry_equiv_pos_as_xyz
  1  'x, y, z'
loop_
 _atom_site_type_symbol
 _atom_site_label
 _atom_site_symmetry_multiplicity
 _atom_site_fract_x
 _atom_site_fract_y
 _atom_site_fract_z
 _atom_site_occupancy
  In  In0  1  0.49999996  0.49999998  -0.00000004  1
  Sc  Sc1  1  0.24999996  0.74999997  0.49999996  1
  Cu  Cu2  1  0.00000000  0.00000000  0.00000000  1
  Sc  Sc3  1  0.74999996  0.24999999  0.49999997  1
  Se  Se4  1  0.75029194  0.75029197  0.50058395  1
  Se  Se5  1  0.24970798  0.24970799  0.49941598  1
  Se  Se6  1  0.99970794  0.49970798  0.99941595  1
  Se  Se7  1  0.50029198  0.00029200  0.00058399  1
