# generated using pymatgen
data_LiMg3Cu
_symmetry_space_group_name_H-M   'P 1'
_cell_length_a   4.35125589
_cell_length_b   4.35125589
_cell_length_c   6.40287399
_cell_angle_alpha   109.86403656
_cell_angle_beta   109.86403656
_cell_angle_gamma   90.00000000
_symmetry_Int_Tables_number   1
_chemical_formula_structural   LiMg3Cu
_chemical_formula_sum   'Li1 Mg3 Cu1'
_cell_volume   106.31432704
_cell_formula_units_Z   1
loop_
 _symmetry_equiv_pos_site_id
 _symmetry_equiv_pos_as_xyz
  1  'x, y, z'
loop_
 _atom_site_type_symbol
 _atom_site_label
 _atom_site_symmetry_multiplicity
 _atom_site_fract_x
 _atom_site_fract_y
 _atom_site_fract_z
 _atom_site_occupancy
  Li  Li0  1  0.00000000  0.00000000  0.00000000  1
  Mg  Mg1  1  0.75000001  0.25000000  0.49999997  1
  Mg  Mg2  1  0.38647100  0.38647101  0.77294196  1
  Mg  Mg3  1  0.61352900  0.61352901  0.22705797  1
  Cu  Cu4  1  0.24999999  0.75000001  0.49999996  1
