# generated using pymatgen
data_LaDyIn3Au
_symmetry_space_group_name_H-M   'P 1'
_cell_length_a   4.85368395
_cell_length_b   6.09820318
_cell_length_c   6.09820318
_cell_angle_alpha   75.08129120
_cell_angle_beta   66.54927826
_cell_angle_gamma   66.54927826
_symmetry_Int_Tables_number   1
_chemical_formula_structural   LaDyIn3Au
_chemical_formula_sum   'La1 Dy1 In3 Au1'
_cell_volume   150.85685224
_cell_formula_units_Z   1
loop_
 _symmetry_equiv_pos_site_id
 _symmetry_equiv_pos_as_xyz
  1  'x, y, z'
loop_
 _atom_site_type_symbol
 _atom_site_label
 _atom_site_symmetry_multiplicity
 _atom_site_fract_x
 _atom_site_fract_y
 _atom_site_fract_z
 _atom_site_occupancy
  Dy  Dy0  1  0.46039300  0.28960700  0.78960698  1
  La  La1  1  0.53960700  0.71039299  0.21039299  1
  In  In2  1  0.83690301  0.71157799  0.61461598  1
  In  In3  1  0.16309700  0.28842200  0.38538399  1
  In  In4  1  0.16309700  0.88538399  0.78842198  1
  Au  Au5  1  0.83690301  0.11461600  0.21157799  1
