# generated using pymatgen
data_KRbHSCl7O2F7
_symmetry_space_group_name_H-M   'P 1'
_cell_length_a   6.42837381
_cell_length_b   6.42837286
_cell_length_c   12.17196274
_cell_angle_alpha   90.00000000
_cell_angle_beta   90.00000000
_cell_angle_gamma   120.00000763
_symmetry_Int_Tables_number   1
_chemical_formula_structural   KRbHSCl7O2F7
_chemical_formula_sum   'K1 Rb1 H1 S1 Cl7 O2 F7'
_cell_volume   435.60554022
_cell_formula_units_Z   1
loop_
 _symmetry_equiv_pos_site_id
 _symmetry_equiv_pos_as_xyz
  1  'x, y, z'
loop_
 _atom_site_type_symbol
 _atom_site_label
 _atom_site_symmetry_multiplicity
 _atom_site_fract_x
 _atom_site_fract_y
 _atom_site_fract_z
 _atom_site_occupancy
  K  K0  1  0.33333337  0.66666669  0.75517402  1
  Rb  Rb1  1  0.00000000  0.00000000  0.99485002  1
  H  H2  1  0.66666670  0.33333335  0.25517401  1
  Cl  Cl3  1  0.00000000  0.00000000  0.49485001  1
  F  F4  1  0.66666670  0.33333335  0.77921302  1
  O  O5  1  0.33333337  0.66666669  0.27921301  1
  Cl  Cl6  1  0.66666670  0.33333335  0.59823101  1
  S  S7  1  0.33333337  0.66666669  0.09823100  1
  F  F8  1  0.58987705  0.79493903  0.30837301  1
  Cl  Cl9  1  0.92248905  0.46124502  0.56696801  1
  Cl  Cl10  1  0.79493803  0.20506101  0.80837302  1
  F  F11  1  0.46124404  0.53875502  0.06696800  1
  O  O12  1  0.53875604  0.46124502  0.56696801  1
  F  F13  1  0.07751103  0.53875502  0.06696800  1
  Cl  Cl14  1  0.79493805  0.58987602  0.80837302  1
  F  F15  1  0.20506204  0.79493903  0.30837301  1
  Cl  Cl16  1  0.41012302  0.20506101  0.80837302  1
  F  F17  1  0.20506203  0.41012402  0.30837301  1
  F  F18  1  0.46124406  0.92248804  0.06696800  1
  Cl  Cl19  1  0.53875602  0.07751200  0.56696801  1
