# generated using pymatgen
data_Na5SrCu3TeO10
_symmetry_space_group_name_H-M   'P 1'
_cell_length_a   5.36437702
_cell_length_b   6.71302509
_cell_length_c   10.22101879
_cell_angle_alpha   90.00000000
_cell_angle_beta   90.00000000
_cell_angle_gamma   90.00000000
_symmetry_Int_Tables_number   1
_chemical_formula_structural   Na5SrCu3TeO10
_chemical_formula_sum   'Na5 Sr1 Cu3 Te1 O10'
_cell_volume   368.07112691
_cell_formula_units_Z   1
loop_
 _symmetry_equiv_pos_site_id
 _symmetry_equiv_pos_as_xyz
  1  'x, y, z'
loop_
 _atom_site_type_symbol
 _atom_site_label
 _atom_site_symmetry_multiplicity
 _atom_site_fract_x
 _atom_site_fract_y
 _atom_site_fract_z
 _atom_site_occupancy
  Na  Na0  1  0.25000000  0.47400499  0.78571302  1
  Na  Na1  1  0.75000000  0.02599500  0.28571301  1
  Na  Na2  1  0.25000000  0.97400499  0.71428701  1
  Sr  Sr3  1  0.75000000  0.52599499  0.21428700  1
  Na  Na4  1  0.25000000  0.81154499  0.05072100  1
  Na  Na5  1  0.75000000  0.68845499  0.55072101  1
  Te  Te6  1  0.25000000  0.31154500  0.44927901  1
  Cu  Cu7  1  0.75000000  0.18845500  0.94927902  1
  Cu  Cu8  1  0.25000000  0.27017000  0.14181700  1
  Cu  Cu9  1  0.75000000  0.22983000  0.64181701  1
  O  O10  1  0.25000000  0.77016999  0.35818301  1
  O  O11  1  0.75000000  0.72982999  0.85818302  1
  O  O12  1  0.25000000  0.68639999  0.53835701  1
  O  O13  1  0.75000000  0.81359999  0.03835700  1
  O  O14  1  0.25000000  0.18640000  0.96164302  1
  O  O15  1  0.75000000  0.31360000  0.46164301  1
  O  O16  1  0.25000000  0.03421200  0.25818301  1
  O  O17  1  0.75000000  0.46578799  0.75818302  1
  O  O18  1  0.25000000  0.53421199  0.24181700  1
  O  O19  1  0.75000000  0.96578799  0.74181702  1
