# generated using pymatgen
data_Na4Cu2ClO13
_symmetry_space_group_name_H-M   'P 1'
_cell_length_a   5.73666477
_cell_length_b   7.00908661
_cell_length_c   8.35854053
_cell_angle_alpha   90.00000000
_cell_angle_beta   90.00000000
_cell_angle_gamma   95.35803986
_symmetry_Int_Tables_number   1
_chemical_formula_structural   Na4Cu2ClO13
_chemical_formula_sum   'Na4 Cu2 Cl1 O13'
_cell_volume   334.61822790
_cell_formula_units_Z   1
loop_
 _symmetry_equiv_pos_site_id
 _symmetry_equiv_pos_as_xyz
  1  'x, y, z'
loop_
 _atom_site_type_symbol
 _atom_site_label
 _atom_site_symmetry_multiplicity
 _atom_site_fract_x
 _atom_site_fract_y
 _atom_site_fract_z
 _atom_site_occupancy
  Na  Na0  1  0.20348899  0.78258398  0.75000004  1
  Na  Na1  1  0.79651103  0.21741599  0.25000001  1
  Na  Na2  1  0.50053201  0.29822599  0.75000004  1
  Na  Na3  1  0.49946800  0.70177398  0.25000001  1
  O  O4  1  0.23007799  0.78627397  0.52276303  1
  Cu  Cu5  1  0.76992202  0.21372599  0.02276300  1
  Cu  Cu6  1  0.76992202  0.21372599  0.47723703  1
  O  O7  1  0.23007799  0.78627397  0.97723705  1
  O  O8  1  0.98223301  0.96551397  0.75000004  1
  Cl  Cl9  1  0.01776700  0.03448600  0.25000001  1
  O  O10  1  0.29778500  0.29167299  0.90602705  1
  O  O11  1  0.70221501  0.70832698  0.40602702  1
  O  O12  1  0.70221501  0.70832698  0.09397301  1
  O  O13  1  0.29778500  0.29167299  0.59397303  1
  O  O14  1  0.46360699  0.99873897  0.75000004  1
  O  O15  1  0.53639302  0.00126100  0.25000001  1
  O  O16  1  0.46373300  0.61635198  0.75000004  1
  O  O17  1  0.53626701  0.38364799  0.25000001  1
  O  O18  1  0.97828502  0.56716698  0.75000004  1
  O  O19  1  0.02171499  0.43283299  0.25000001  1
