# generated using pymatgen
data_Be2Tc
_symmetry_space_group_name_H-M   'P 1'
_cell_length_a   4.10051203
_cell_length_b   4.10051155
_cell_length_c   5.10417795
_cell_angle_alpha   90.00000000
_cell_angle_beta   90.00000000
_cell_angle_gamma   120.00000763
_symmetry_Int_Tables_number   1
_chemical_formula_structural   Be2Tc
_chemical_formula_sum   'Be4 Tc2'
_cell_volume   74.32459224
_cell_formula_units_Z   2
loop_
 _symmetry_equiv_pos_site_id
 _symmetry_equiv_pos_as_xyz
  1  'x, y, z'
loop_
 _atom_site_type_symbol
 _atom_site_label
 _atom_site_symmetry_multiplicity
 _atom_site_fract_x
 _atom_site_fract_y
 _atom_site_fract_z
 _atom_site_occupancy
  Be  Be0  1  0.00000000  0.00000000  0.50000000  1
  Be  Be1  1  0.00000000  0.00000000  0.00000000  1
  Be  Be2  1  0.66666669  0.33333334  0.75000001  1
  Tc  Tc3  1  0.33333338  0.66666668  0.25000000  1
  Tc  Tc4  1  0.33333338  0.66666668  0.75000001  1
  Be  Be5  1  0.66666669  0.33333334  0.25000000  1
