# generated using pymatgen
data_LaScTiCu2Ge
_symmetry_space_group_name_H-M   'P 1'
_cell_length_a   5.51745224
_cell_length_b   5.51745224
_cell_length_c   5.51745224
_cell_angle_alpha   60.00000000
_cell_angle_beta   60.00000000
_cell_angle_gamma   60.00000000
_symmetry_Int_Tables_number   1
_chemical_formula_structural   LaScTiCu2Ge
_chemical_formula_sum   'La1 Sc1 Ti1 Cu2 Ge1'
_cell_volume   118.76835730
_cell_formula_units_Z   1
loop_
 _symmetry_equiv_pos_site_id
 _symmetry_equiv_pos_as_xyz
  1  'x, y, z'
loop_
 _atom_site_type_symbol
 _atom_site_label
 _atom_site_symmetry_multiplicity
 _atom_site_fract_x
 _atom_site_fract_y
 _atom_site_fract_z
 _atom_site_occupancy
  Sc  Sc0  1  0.75000002  0.75000002  0.75000002  1
  La  La1  1  0.00000000  0.00000000  0.00000000  1
  Ti  Ti2  1  0.37524601  0.87426402  0.37524501  1
  Cu  Cu3  1  0.37524601  0.37524501  0.37524501  1
  Ge  Ge4  1  0.37524601  0.37524501  0.87426402  1
  Cu  Cu5  1  0.87426502  0.37524501  0.37524501  1
