# generated using pymatgen
data_K2CaY(NiH)2
_symmetry_space_group_name_H-M   'P 1'
_cell_length_a   3.35721993
_cell_length_b   3.35722113
_cell_length_c   16.71686935
_cell_angle_alpha   90.00000000
_cell_angle_beta   90.00000000
_cell_angle_gamma   119.99999237
_symmetry_Int_Tables_number   1
_chemical_formula_structural   K2CaY(NiH)2
_chemical_formula_sum   'K2 Ca1 Y1 Ni2 H2'
_cell_volume   163.17189380
_cell_formula_units_Z   1
loop_
 _symmetry_equiv_pos_site_id
 _symmetry_equiv_pos_as_xyz
  1  'x, y, z'
loop_
 _atom_site_type_symbol
 _atom_site_label
 _atom_site_symmetry_multiplicity
 _atom_site_fract_x
 _atom_site_fract_y
 _atom_site_fract_z
 _atom_site_occupancy
  Y  Y0  1  0.00000000  0.00000000  0.74999998  1
  Ca  Ca1  1  0.00000000  0.00000000  0.24999999  1
  K  K2  1  0.00000000  0.00000000  0.49999999  1
  K  K3  1  0.00000000  0.00000000  0.00000000  1
  H  H4  1  0.66666670  0.33333333  0.65574499  1
  Ni  Ni5  1  0.33333337  0.66666666  0.34425499  1
  Ni  Ni6  1  0.33333337  0.66666666  0.15574500  1
  H  H7  1  0.66666670  0.33333333  0.84425498  1
