# generated using pymatgen
data_LiGaCu5
_symmetry_space_group_name_H-M   'P 1'
_cell_length_a   3.39364505
_cell_length_b   5.85805988
_cell_length_c   7.23362494
_cell_angle_alpha   103.05069733
_cell_angle_beta   90.00000000
_cell_angle_gamma   90.00000000
_symmetry_Int_Tables_number   1
_chemical_formula_structural   LiGaCu5
_chemical_formula_sum   'Li1 Ga1 Cu5'
_cell_volume   140.09132590
_cell_formula_units_Z   1
loop_
 _symmetry_equiv_pos_site_id
 _symmetry_equiv_pos_as_xyz
  1  'x, y, z'
loop_
 _atom_site_type_symbol
 _atom_site_label
 _atom_site_symmetry_multiplicity
 _atom_site_fract_x
 _atom_site_fract_y
 _atom_site_fract_z
 _atom_site_occupancy
  Li  Li0  1  0.49999999  0.34115501  0.50092901  1
  Cu  Cu1  1  0.99999999  0.97384103  0.00350305  1
  Ga  Ga2  1  0.49999999  0.53028802  0.01384203  1
  Cu  Cu3  1  -0.00000000  0.38372301  0.19218302  1
  Cu  Cu4  1  0.99999999  0.60345802  0.79728802  1
  Cu  Cu5  1  0.49999999  0.89812903  0.21698404  1
  Cu  Cu6  1  0.49999999  0.11940700  0.82527099  1
