# generated using pymatgen
data_LaYEr2Zr2SnGePd6
_symmetry_space_group_name_H-M   'P 1'
_cell_length_a   7.35945940
_cell_length_b   7.35945940
_cell_length_c   7.35945940
_cell_angle_alpha   109.47122192
_cell_angle_beta   109.47122192
_cell_angle_gamma   109.47122192
_symmetry_Int_Tables_number   1
_chemical_formula_structural   LaYEr2Zr2SnGePd6
_chemical_formula_sum   'La1 Y1 Er2 Zr2 Sn1 Ge1 Pd6'
_cell_volume   306.84272421
_cell_formula_units_Z   1
loop_
 _symmetry_equiv_pos_site_id
 _symmetry_equiv_pos_as_xyz
  1  'x, y, z'
loop_
 _atom_site_type_symbol
 _atom_site_label
 _atom_site_symmetry_multiplicity
 _atom_site_fract_x
 _atom_site_fract_y
 _atom_site_fract_z
 _atom_site_occupancy
  Er  Er0  1  0.12500002  0.25000002  0.37500003  1
  Er  Er1  1  0.75000007  0.62500004  0.87500008  1
  Zr  Zr2  1  0.37500006  0.75000005  0.12500005  1
  Zr  Zr3  1  0.87500004  0.12500001  0.75000005  1
  Y  Y4  1  0.62500005  0.37500003  0.25000004  1
  La  La5  1  0.25000007  0.87500006  0.62500007  1
  Ge  Ge6  1  0.34041804  0.34041802  0.84041805  1
  Sn  Sn7  1  0.50000003  0.15958201  0.50000004  1
  Pd  Pd8  1  0.00000003  0.50000004  0.65958205  1
  Pd  Pd9  1  0.50000006  0.65958205  0.50000006  1
  Pd  Pd10  1  0.15958201  0.00000000  0.00000000  1
  Pd  Pd11  1  0.65958203  0.00000000  0.00000002  1
  Pd  Pd12  1  0.00000003  0.50000004  0.15958203  1
  Pd  Pd13  1  0.84041809  0.84041806  0.34041808  1
