# generated using pymatgen
data_In4Pd3Au
_symmetry_space_group_name_H-M   'P 1'
_cell_length_a   4.27270412
_cell_length_b   6.07710695
_cell_length_c   8.56195545
_cell_angle_alpha   90.00000000
_cell_angle_beta   90.00000000
_cell_angle_gamma   90.00000000
_symmetry_Int_Tables_number   1
_chemical_formula_structural   In4Pd3Au
_chemical_formula_sum   'In4 Pd3 Au1'
_cell_volume   222.31699494
_cell_formula_units_Z   1
loop_
 _symmetry_equiv_pos_site_id
 _symmetry_equiv_pos_as_xyz
  1  'x, y, z'
loop_
 _atom_site_type_symbol
 _atom_site_label
 _atom_site_symmetry_multiplicity
 _atom_site_fract_x
 _atom_site_fract_y
 _atom_site_fract_z
 _atom_site_occupancy
  In  In0  1  0.74999998  0.73569901  0.12348899  1
  In  In1  1  0.74999998  0.76430101  0.62348897  1
  In  In2  1  0.24999999  0.26430100  0.87651095  1
  In  In3  1  0.24999999  0.23569900  0.37651098  1
  Pd  Pd4  1  0.24999999  0.79474301  0.84835296  1
  Pd  Pd5  1  0.24999999  0.70525701  0.34835298  1
  Pd  Pd6  1  0.74999998  0.20525700  0.15164699  1
  Au  Au7  1  0.74999998  0.29474300  0.65164697  1
