# generated using pymatgen
data_EuY3Er2Al3Ga2Si5
_symmetry_space_group_name_H-M   'P 1'
_cell_length_a   4.31890011
_cell_length_b   5.69856930
_cell_length_c   14.33181953
_cell_angle_alpha   90.00000000
_cell_angle_beta   90.00000000
_cell_angle_gamma   112.26840973
_symmetry_Int_Tables_number   1
_chemical_formula_structural   EuY3Er2Al3Ga2Si5
_chemical_formula_sum   'Eu1 Y3 Er2 Al3 Ga2 Si5'
_cell_volume   326.42141171
_cell_formula_units_Z   1
loop_
 _symmetry_equiv_pos_site_id
 _symmetry_equiv_pos_as_xyz
  1  'x, y, z'
loop_
 _atom_site_type_symbol
 _atom_site_label
 _atom_site_symmetry_multiplicity
 _atom_site_fract_x
 _atom_site_fract_y
 _atom_site_fract_z
 _atom_site_occupancy
  Eu  Eu0  1  0.08333199  0.16666400  0.61074602  1
  Y  Y1  1  0.91666796  0.83333598  0.38925401  1
  Er  Er2  1  0.08333199  0.16666400  0.88925403  1
  Y  Y3  1  0.91666796  0.83333598  0.11074600  1
  Y  Y4  1  0.35985697  0.71971398  0.75000002  1
  Er  Er5  1  0.64014298  0.28028599  0.25000001  1
  Al  Al6  1  0.37670997  0.75341998  0.53509602  1
  Ga  Ga7  1  0.62328998  0.24657999  0.46490402  1
  Al  Al8  1  0.37670997  0.75341998  0.96490403  1
  Si  Si9  1  0.62328998  0.24657999  0.03509600  1
  Si  Si10  1  0.65774598  0.31549199  0.75000002  1
  Al  Al11  1  0.34225398  0.68450798  0.25000001  1
  Si  Si12  1  0.20081899  0.40163799  0.10155000  1
  Ga  Ga13  1  0.79918097  0.59836199  0.89845003  1
  Si  Si14  1  0.20081899  0.40163799  0.39845001  1
  Si  Si15  1  0.79918097  0.59836199  0.60155002  1
