# generated using pymatgen
data_EuYNiPRuC2S
_symmetry_space_group_name_H-M   'P 1'
_cell_length_a   3.98335004
_cell_length_b   3.98335052
_cell_length_c   9.88753319
_cell_angle_alpha   90.00000000
_cell_angle_beta   90.00000000
_cell_angle_gamma   119.99999237
_symmetry_Int_Tables_number   1
_chemical_formula_structural   EuYNiPRuC2S
_chemical_formula_sum   'Eu1 Y1 Ni1 P1 Ru1 C2 S1'
_cell_volume   135.86750962
_cell_formula_units_Z   1
loop_
 _symmetry_equiv_pos_site_id
 _symmetry_equiv_pos_as_xyz
  1  'x, y, z'
loop_
 _atom_site_type_symbol
 _atom_site_label
 _atom_site_symmetry_multiplicity
 _atom_site_fract_x
 _atom_site_fract_y
 _atom_site_fract_z
 _atom_site_occupancy
  Eu  Eu0  1  0.33333330  0.66666667  0.25000000  1
  Y  Y1  1  0.66666664  0.33333333  0.74999999  1
  P  P2  1  0.00000000  0.00000000  0.49999999  1
  Ni  Ni3  1  0.00000000  0.00000000  0.00000000  1
  Ru  Ru4  1  0.33333330  0.66666667  0.54167799  1
  C  C5  1  0.66666664  0.33333333  0.45832199  1
  C  C6  1  0.66666664  0.33333333  0.04167800  1
  S  S7  1  0.33333330  0.66666667  0.95832198  1
