# generated using pymatgen
data_LaYAl2In(Si6Ge)2
_symmetry_space_group_name_H-M   'P 1'
_cell_length_a   6.35681009
_cell_length_b   6.35681009
_cell_length_c   6.35681057
_cell_angle_alpha   82.78488159
_cell_angle_beta   82.78488159
_cell_angle_gamma   82.78488922
_symmetry_Int_Tables_number   1
_chemical_formula_structural   LaYAl2In(Si6Ge)2
_chemical_formula_sum   'La1 Y1 Al2 In1 Si12 Ge2'
_cell_volume   251.24186781
_cell_formula_units_Z   1
loop_
 _symmetry_equiv_pos_site_id
 _symmetry_equiv_pos_as_xyz
  1  'x, y, z'
loop_
 _atom_site_type_symbol
 _atom_site_label
 _atom_site_symmetry_multiplicity
 _atom_site_fract_x
 _atom_site_fract_y
 _atom_site_fract_z
 _atom_site_occupancy
  Y  Y0  1  0.65696104  0.65696100  0.65696095  1
  La  La1  1  0.34315902  0.34315900  0.34315897  1
  Al  Al2  1  0.99785405  0.99785399  0.50413893  1
  In  In3  1  0.50413905  0.99785399  0.99785394  1
  Al  Al4  1  0.99785403  0.50413900  0.99785394  1
  Si  Si5  1  0.09404401  0.09404400  0.09404399  1
  Si  Si6  1  0.71449202  0.28534000  0.00004497  1
  Si  Si7  1  0.00004504  0.71449200  0.28533997  1
  Si  Si8  1  0.28534000  0.00004500  0.71449199  1
  Si  Si9  1  0.00004502  0.28534000  0.71449199  1
  Si  Si10  1  0.71449200  0.00004500  0.28533998  1
  Si  Si11  1  0.28534004  0.71449200  0.00004497  1
  Si  Si12  1  0.34346102  0.34346100  0.84784297  1
  Si  Si13  1  0.84784302  0.34346100  0.34346096  1
  Si  Si14  1  0.34346105  0.84784300  0.34346096  1
  Ge  Ge15  1  0.65615004  0.65615000  0.15633795  1
  Si  Si16  1  0.15633804  0.65615000  0.65614997  1
  Ge  Ge17  1  0.65615001  0.15633800  0.65614997  1
  Si  Si18  1  0.90282905  0.90282899  0.90282893  1
