# generated using pymatgen
data_ZrCdAu
_symmetry_space_group_name_H-M   'P 1'
_cell_length_a   3.71193790
_cell_length_b   3.71193790
_cell_length_c   5.28630209
_cell_angle_alpha   110.55401611
_cell_angle_beta   110.55401611
_cell_angle_gamma   90.00000000
_symmetry_Int_Tables_number   1
_chemical_formula_structural   ZrCdAu
_chemical_formula_sum   'Zr1 Cd1 Au1'
_cell_volume   63.22469152
_cell_formula_units_Z   1
loop_
 _symmetry_equiv_pos_site_id
 _symmetry_equiv_pos_as_xyz
  1  'x, y, z'
loop_
 _atom_site_type_symbol
 _atom_site_label
 _atom_site_symmetry_multiplicity
 _atom_site_fract_x
 _atom_site_fract_y
 _atom_site_fract_z
 _atom_site_occupancy
  Zr  Zr0  1  0.00000000  0.00000000  0.00000000  1
  Cd  Cd1  1  0.33164403  0.33164402  0.66328800  1
  Au  Au2  1  0.66835605  0.66835603  0.33671203  1
