# generated using pymatgen
data_ErHf(TiFe4)2
_symmetry_space_group_name_H-M   'P 1'
_cell_length_a   4.92232704
_cell_length_b   4.92232704
_cell_length_c   8.51882744
_cell_angle_alpha   73.20736694
_cell_angle_beta   73.20736694
_cell_angle_gamma   60.00000000
_symmetry_Int_Tables_number   1
_chemical_formula_structural   ErHf(TiFe4)2
_chemical_formula_sum   'Er1 Hf1 Ti2 Fe8'
_cell_volume   168.51213279
_cell_formula_units_Z   1
loop_
 _symmetry_equiv_pos_site_id
 _symmetry_equiv_pos_as_xyz
  1  'x, y, z'
loop_
 _atom_site_type_symbol
 _atom_site_label
 _atom_site_symmetry_multiplicity
 _atom_site_fract_x
 _atom_site_fract_y
 _atom_site_fract_z
 _atom_site_occupancy
  Er  Er0  1  0.00045300  0.00045200  0.99864297  1
  Ti  Ti1  1  0.49939603  0.49939702  0.50181098  1
  Ti  Ti2  1  0.12915701  0.12915800  0.61252698  1
  Hf  Hf3  1  0.61946304  0.61946402  0.14160999  1
  Fe  Fe4  1  0.56438804  0.06763800  0.80358596  1
  Fe  Fe5  1  0.06220801  0.55591802  0.31966500  1
  Fe  Fe6  1  0.06763701  0.56438902  0.80358599  1
  Fe  Fe7  1  0.55591804  0.06220800  0.31966498  1
  Fe  Fe8  1  0.81287405  0.81287303  0.56137998  1
  Fe  Fe9  1  0.31190702  0.31190801  0.06427800  1
  Fe  Fe10  1  0.56438804  0.56438802  0.80358597  1
  Fe  Fe11  1  0.06220800  0.06220900  0.31966499  1
