# generated using pymatgen
data_BaTl4InHgAu
_symmetry_space_group_name_H-M   'P 1'
_cell_length_a   5.36734104
_cell_length_b   7.01889801
_cell_length_c   7.01889801
_cell_angle_alpha   60.00000000
_cell_angle_beta   90.00000000
_cell_angle_gamma   90.00000000
_symmetry_Int_Tables_number   1
_chemical_formula_structural   BaTl4InHgAu
_chemical_formula_sum   'Ba1 Tl4 In1 Hg1 Au1'
_cell_volume   228.99588944
_cell_formula_units_Z   1
loop_
 _symmetry_equiv_pos_site_id
 _symmetry_equiv_pos_as_xyz
  1  'x, y, z'
loop_
 _atom_site_type_symbol
 _atom_site_label
 _atom_site_symmetry_multiplicity
 _atom_site_fract_x
 _atom_site_fract_y
 _atom_site_fract_z
 _atom_site_occupancy
  Ba  Ba0  1  0.25000000  0.82317200  0.35365600  1
  Tl  Tl1  1  0.25000000  0.82317200  0.82317200  1
  Tl  Tl2  1  0.25000000  0.35365600  0.82317200  1
  In  In3  1  0.74999999  0.17682800  0.64634400  1
  Tl  Tl4  1  0.74999999  0.17682800  0.17682800  1
  Hg  Hg5  1  0.74999999  0.64634400  0.17682800  1
  Tl  Tl6  1  0.74999999  0.66666667  0.66666667  1
  Au  Au7  1  0.25000000  0.33333333  0.33333333  1
