# generated using pymatgen
data_LiMg2
_symmetry_space_group_name_H-M   'P 1'
_cell_length_a   5.50874472
_cell_length_b   5.50874472
_cell_length_c   5.89351654
_cell_angle_alpha   62.13716888
_cell_angle_beta   62.13716888
_cell_angle_gamma   59.99999237
_symmetry_Int_Tables_number   1
_chemical_formula_structural   LiMg2
_chemical_formula_sum   'Li2 Mg4'
_cell_volume   130.39570050
_cell_formula_units_Z   2
loop_
 _symmetry_equiv_pos_site_id
 _symmetry_equiv_pos_as_xyz
  1  'x, y, z'
loop_
 _atom_site_type_symbol
 _atom_site_label
 _atom_site_symmetry_multiplicity
 _atom_site_fract_x
 _atom_site_fract_y
 _atom_site_fract_z
 _atom_site_occupancy
  Li  Li0  1  0.16630099  0.16630100  0.50109699  1
  Mg  Mg1  1  0.83369897  0.83369899  0.49890302  1
  Mg  Mg2  1  -0.00000000  0.33149199  0.00000001  1
  Mg  Mg3  1  0.33149199  0.66850799  0.00000003  1
  Mg  Mg4  1  0.49999998  0.49999999  0.50000001  1
  Li  Li5  1  0.66850799  0.00000000  0.00000002  1
