# generated using pymatgen
data_NaCu2AgSbOF14
_symmetry_space_group_name_H-M   'P 1'
_cell_length_a   7.37294817
_cell_length_b   7.44549894
_cell_length_c   7.44549894
_cell_angle_alpha   60.37632751
_cell_angle_beta   60.32181549
_cell_angle_gamma   60.32181549
_symmetry_Int_Tables_number   1
_chemical_formula_structural   NaCu2AgSbOF14
_chemical_formula_sum   'Na1 Cu2 Ag1 Sb1 O1 F14'
_cell_volume   291.23340736
_cell_formula_units_Z   1
loop_
 _symmetry_equiv_pos_site_id
 _symmetry_equiv_pos_as_xyz
  1  'x, y, z'
loop_
 _atom_site_type_symbol
 _atom_site_label
 _atom_site_symmetry_multiplicity
 _atom_site_fract_x
 _atom_site_fract_y
 _atom_site_fract_z
 _atom_site_occupancy
  Na  Na0  1  0.49999999  0.49999999  0.49999997  1
  Cu  Cu1  1  0.50000000  0.00000000  -0.00000001  1
  Cu  Cu2  1  -0.00000001  0.49999999  0.49999999  1
  Ag  Ag3  1  0.00000000  0.00000000  0.00000000  1
  Sb  Sb4  1  0.49999999  0.49999999  -0.00000002  1
  F  F5  1  0.99999998  0.49999999  -0.00000003  1
  O  O6  1  0.05512800  0.19487200  0.69487198  1
  F  F7  1  0.67685998  0.55623599  0.68290496  1
  F  F8  1  0.67685999  0.18290500  0.05623598  1
  F  F9  1  0.08399899  0.55623599  0.68290498  1
  F  F10  1  0.67867298  0.57132699  0.07132698  1
  F  F11  1  0.32313999  0.44376399  0.31709498  1
  F  F12  1  0.94487198  0.80512799  0.30512796  1
  F  F13  1  0.08399900  0.18290500  0.05623600  1
  F  F14  1  0.91600098  0.44376399  0.31709496  1
  F  F15  1  0.32313998  0.81709499  0.94376397  1
  F  F16  1  0.58687999  0.16312000  0.66311997  1
  F  F17  1  0.91600098  0.81709499  0.94376395  1
  F  F18  1  0.32132699  0.42867300  0.92867297  1
  F  F19  1  0.41311998  0.83687999  0.33687998  1
