# generated using pymatgen
data_Hf5ZrPd6PtAu5
_symmetry_space_group_name_H-M   'P 1'
_cell_length_a   5.63827991
_cell_length_b   8.30486393
_cell_length_c   8.30486488
_cell_angle_alpha   120.00000000
_cell_angle_beta   90.00000000
_cell_angle_gamma   90.00000000
_symmetry_Int_Tables_number   1
_chemical_formula_structural   Hf5ZrPd6PtAu5
_chemical_formula_sum   'Hf5 Zr1 Pd6 Pt1 Au5'
_cell_volume   336.77694790
_cell_formula_units_Z   1
loop_
 _symmetry_equiv_pos_site_id
 _symmetry_equiv_pos_as_xyz
  1  'x, y, z'
loop_
 _atom_site_type_symbol
 _atom_site_label
 _atom_site_symmetry_multiplicity
 _atom_site_fract_x
 _atom_site_fract_y
 _atom_site_fract_z
 _atom_site_occupancy
  Hf  Hf0  1  0.75000001  0.70940803  0.70940802  1
  Zr  Zr1  1  0.25000000  0.29059201  0.29059201  1
  Hf  Hf2  1  0.75000001  0.00000000  0.29059199  1
  Hf  Hf3  1  0.25000000  0.00000000  0.70940798  1
  Hf  Hf4  1  0.75000001  0.29059201  0.00000002  1
  Hf  Hf5  1  0.25000000  0.70940803  0.00000004  1
  Pd  Pd6  1  1.00000002  0.66666669  0.33333336  1
  Pd  Pd7  1  -0.00000000  0.33333335  0.66666667  1
  Pd  Pd8  1  0.50000001  0.33333335  0.66666667  1
  Pd  Pd9  1  0.50000001  0.66666669  0.33333336  1
  Au  Au10  1  0.00000000  0.00000000  0.00000000  1
  Au  Au11  1  0.50000001  0.00000000  -0.00000000  1
  Au  Au12  1  0.75000001  0.37417001  0.37417001  1
  Pd  Pd13  1  0.25000000  0.62583002  0.62583002  1
  Au  Au14  1  0.75000001  0.00000000  0.62582999  1
  Pt  Pt15  1  0.25000000  0.00000000  0.37416999  1
  Au  Au16  1  0.75000001  0.62583002  0.00000003  1
  Pd  Pd17  1  0.25000000  0.37417001  0.00000002  1
