# generated using pymatgen
data_K4B2H2CO11
_symmetry_space_group_name_H-M   'P 1'
_cell_length_a   5.22603703
_cell_length_b   6.28282499
_cell_length_c   8.61872578
_cell_angle_alpha   90.00000000
_cell_angle_beta   90.00000000
_cell_angle_gamma   90.00000000
_symmetry_Int_Tables_number   1
_chemical_formula_structural   K4B2H2CO11
_chemical_formula_sum   'K4 B2 H2 C1 O11'
_cell_volume   282.98962125
_cell_formula_units_Z   1
loop_
 _symmetry_equiv_pos_site_id
 _symmetry_equiv_pos_as_xyz
  1  'x, y, z'
loop_
 _atom_site_type_symbol
 _atom_site_label
 _atom_site_symmetry_multiplicity
 _atom_site_fract_x
 _atom_site_fract_y
 _atom_site_fract_z
 _atom_site_occupancy
  K  K0  1  0.25000000  0.25220200  0.41779901  1
  K  K1  1  0.75000000  0.74779800  0.58220102  1
  K  K2  1  0.25000000  0.75220200  0.08220100  1
  K  K3  1  0.75000000  0.24779800  0.91779902  1
  B  B4  1  0.25000000  0.41848200  0.75634202  1
  B  B5  1  0.75000000  0.58151800  0.24365801  1
  H  H6  1  0.25000000  0.91848200  0.74365802  1
  H  H7  1  0.75000000  0.08151800  0.25634201  1
  C  C8  1  0.03444400  0.91475500  0.81938102  1
  O  O9  1  0.53444400  0.08524500  0.18061900  1
  O  O10  1  0.46555600  0.41475500  0.68061902  1
  O  O11  1  0.96555600  0.58524500  0.31938101  1
  O  O12  1  0.75000000  0.08744300  0.40734501  1
  O  O13  1  0.25000000  0.91255700  0.59265502  1
  O  O14  1  0.75000000  0.58744300  0.09265500  1
  O  O15  1  0.25000000  0.41255700  0.90734502  1
  O  O16  1  0.96555600  0.08524500  0.18061900  1
  O  O17  1  0.46555600  0.91475500  0.81938102  1
  O  O18  1  0.53444400  0.58524500  0.31938101  1
  O  O19  1  0.03444400  0.41475500  0.68061902  1
