# generated using pymatgen
data_YNb3MoS12
_symmetry_space_group_name_H-M   'P 1'
_cell_length_a   7.94844341
_cell_length_b   7.94844341
_cell_length_c   7.94844341
_cell_angle_alpha   109.47122192
_cell_angle_beta   109.47122192
_cell_angle_gamma   109.47122192
_symmetry_Int_Tables_number   1
_chemical_formula_structural   YNb3MoS12
_chemical_formula_sum   'Y1 Nb3 Mo1 S12'
_cell_volume   386.56661880
_cell_formula_units_Z   1
loop_
 _symmetry_equiv_pos_site_id
 _symmetry_equiv_pos_as_xyz
  1  'x, y, z'
loop_
 _atom_site_type_symbol
 _atom_site_label
 _atom_site_symmetry_multiplicity
 _atom_site_fract_x
 _atom_site_fract_y
 _atom_site_fract_z
 _atom_site_occupancy
  Y  Y0  1  0.00000000  0.00000000  0.00000000  1
  Nb  Nb1  1  0.50000004  0.50000003  0.50000005  1
  Nb  Nb2  1  0.50000001  0.00000000  0.00000001  1
  Nb  Nb3  1  0.00000003  0.50000003  0.00000003  1
  Mo  Mo4  1  0.00000000  0.00000000  0.50000001  1
  S  S5  1  0.16139702  0.33510502  0.49650203  1
  S  S6  1  0.50349806  0.83860304  0.66489507  1
  S  S7  1  0.83860306  0.66489503  0.50349806  1
  S  S8  1  0.83860304  0.33510502  0.17370804  1
  S  S9  1  0.16139705  0.66489503  0.82629205  1
  S  S10  1  0.33510502  0.17370801  0.83860303  1
  S  S11  1  0.49650202  0.16139701  0.33510502  1
  S  S12  1  0.82629203  0.16139701  0.66489504  1
  S  S13  1  0.66489505  0.50349803  0.83860305  1
  S  S14  1  0.66489507  0.82629204  0.16139706  1
  S  S15  1  0.33510504  0.49650203  0.16139704  1
  S  S16  1  0.17370806  0.83860304  0.33510505  1
