# generated using pymatgen
data_EuYTmAlO4
_symmetry_space_group_name_H-M   'P 1'
_cell_length_a   3.06788993
_cell_length_b   3.06789017
_cell_length_c   13.86128426
_cell_angle_alpha   90.00000000
_cell_angle_beta   90.00000000
_cell_angle_gamma   120.00000000
_symmetry_Int_Tables_number   1
_chemical_formula_structural   EuYTmAlO4
_chemical_formula_sum   'Eu1 Y1 Tm1 Al1 O4'
_cell_volume   112.98315101
_cell_formula_units_Z   1
loop_
 _symmetry_equiv_pos_site_id
 _symmetry_equiv_pos_as_xyz
  1  'x, y, z'
loop_
 _atom_site_type_symbol
 _atom_site_label
 _atom_site_symmetry_multiplicity
 _atom_site_fract_x
 _atom_site_fract_y
 _atom_site_fract_z
 _atom_site_occupancy
  Tm  Tm0  1  0.66666670  0.33333336  0.41372499  1
  Eu  Eu1  1  0.66666670  0.33333336  0.08354100  1
  Y  Y2  1  0.33333338  0.66666671  0.91688998  1
  Al  Al3  1  0.33333338  0.66666671  0.58886799  1
  O  O4  1  0.33333338  0.66666671  0.24847200  1
  O  O5  1  0.66666670  0.33333336  0.75308099  1
  O  O6  1  0.00000000  0.00000000  0.49513799  1
  O  O7  1  0.00000000  0.00000000  0.00028400  1
