# generated using pymatgen
data_MnFe2Si
_symmetry_space_group_name_H-M   'P 1'
_cell_length_a   3.60747695
_cell_length_b   6.12571907
_cell_length_c   6.95504093
_cell_angle_alpha   90.00000000
_cell_angle_beta   90.00000000
_cell_angle_gamma   90.00000000
_symmetry_Int_Tables_number   1
_chemical_formula_structural   MnFe2Si
_chemical_formula_sum   'Mn3 Fe6 Si3'
_cell_volume   153.69520939
_cell_formula_units_Z   3
loop_
 _symmetry_equiv_pos_site_id
 _symmetry_equiv_pos_as_xyz
  1  'x, y, z'
loop_
 _atom_site_type_symbol
 _atom_site_label
 _atom_site_symmetry_multiplicity
 _atom_site_fract_x
 _atom_site_fract_y
 _atom_site_fract_z
 _atom_site_occupancy
  Mn  Mn0  1  0.25000000  0.02624000  0.82711801  1
  Mn  Mn1  1  0.25000000  0.52623999  0.67288201  1
  Mn  Mn2  1  0.75000001  0.97375999  0.17288200  1
  Fe  Fe3  1  0.75000001  0.47375999  0.32711800  1
  Fe  Fe4  1  0.25000000  0.14844800  0.43743800  1
  Fe  Fe5  1  0.25000000  0.64844799  0.06256200  1
  Fe  Fe6  1  0.75000001  0.85155199  0.56256201  1
  Fe  Fe7  1  0.75000001  0.35155200  0.93743801  1
  Si  Si8  1  0.25000000  0.27785400  0.12133000  1
  Fe  Fe9  1  0.25000000  0.77785399  0.37867000  1
  Si  Si10  1  0.75000001  0.72214599  0.87867001  1
  Si  Si11  1  0.75000001  0.22214600  0.62133001  1
