# generated using pymatgen
data_NaCuSe2
_symmetry_space_group_name_H-M   'P 1'
_cell_length_a   5.75022602
_cell_length_b   7.86322117
_cell_length_c   10.25263214
_cell_angle_alpha   90.00000000
_cell_angle_beta   106.28568268
_cell_angle_gamma   90.00000000
_symmetry_Int_Tables_number   1
_chemical_formula_structural   NaCuSe2
_chemical_formula_sum   'Na4 Cu4 Se8'
_cell_volume   444.97503111
_cell_formula_units_Z   4
loop_
 _symmetry_equiv_pos_site_id
 _symmetry_equiv_pos_as_xyz
  1  'x, y, z'
loop_
 _atom_site_type_symbol
 _atom_site_label
 _atom_site_symmetry_multiplicity
 _atom_site_fract_x
 _atom_site_fract_y
 _atom_site_fract_z
 _atom_site_occupancy
  Na  Na0  1  0.48563000  0.74999998  0.36768399  1
  Na  Na1  1  0.11794600  0.24999999  0.63231597  1
  Na  Na2  1  0.43859600  0.74999998  0.78794497  1
  Na  Na3  1  0.65065100  0.24999999  0.21205500  1
  Cu  Cu4  1  0.55899200  0.49999999  0.00000001  1
  Cu  Cu5  1  0.55899200  0.00000000  0.00000001  1
  Cu  Cu6  1  0.14833100  0.24999999  0.20849599  1
  Cu  Cu7  1  0.93983500  0.74999998  0.79150398  1
  Se  Se8  1  0.09033600  0.74999998  0.58931798  1
  Se  Se9  1  0.30224700  0.24999999  0.00607201  1
  Se  Se10  1  0.89594700  0.99722898  0.20950801  1
  Se  Se11  1  0.68643900  0.00277100  0.79049198  1
  Se  Se12  1  0.89594700  0.50277099  0.20950801  1
  Se  Se13  1  0.68643900  0.49722899  0.79049198  1
  Se  Se14  1  0.29617500  0.74999998  0.99392796  1
  Se  Se15  1  0.50101800  0.24999999  0.41068199  1
