# generated using pymatgen
data_Na4Ti(CuO4)3
_symmetry_space_group_name_H-M   'P 1'
_cell_length_a   5.58080387
_cell_length_b   5.76822901
_cell_length_c   8.01690769
_cell_angle_alpha   90.00000000
_cell_angle_beta   90.00000000
_cell_angle_gamma   90.00000000
_symmetry_Int_Tables_number   1
_chemical_formula_structural   Na4Ti(CuO4)3
_chemical_formula_sum   'Na4 Ti1 Cu3 O12'
_cell_volume   258.07511972
_cell_formula_units_Z   1
loop_
 _symmetry_equiv_pos_site_id
 _symmetry_equiv_pos_as_xyz
  1  'x, y, z'
loop_
 _atom_site_type_symbol
 _atom_site_label
 _atom_site_symmetry_multiplicity
 _atom_site_fract_x
 _atom_site_fract_y
 _atom_site_fract_z
 _atom_site_occupancy
  Na  Na0  1  0.01309800  0.94890700  0.75000003  1
  Na  Na1  1  0.48690201  0.44890700  0.75000003  1
  Na  Na2  1  0.51309801  0.55109300  0.25000001  1
  Na  Na3  1  0.98690202  0.05109300  0.25000001  1
  Ti  Ti4  1  -0.00000000  0.50000000  0.00000000  1
  Cu  Cu5  1  -0.00000000  0.50000000  0.50000002  1
  Cu  Cu6  1  0.50000001  0.00000000  -0.00000000  1
  Cu  Cu7  1  0.50000001  0.00000000  0.50000002  1
  O  O8  1  0.10219200  0.46266000  0.25000001  1
  O  O9  1  0.19851500  0.20107400  0.55397302  1
  O  O10  1  0.19851500  0.20107400  0.94602704  1
  O  O11  1  0.30148501  0.70107400  0.55397302  1
  O  O12  1  0.30148501  0.70107400  0.94602704  1
  O  O13  1  0.39780801  0.96266000  0.25000001  1
  O  O14  1  0.60219201  0.03734000  0.75000003  1
  O  O15  1  0.69851502  0.29892600  0.05397300  1
  O  O16  1  0.69851502  0.29892600  0.44602702  1
  O  O17  1  0.80148502  0.79892600  0.05397300  1
  O  O18  1  0.80148502  0.79892600  0.44602702  1
  O  O19  1  0.89780802  0.53734000  0.75000003  1
