# generated using pymatgen
data_EuYTaTiNbCu3S5N3
_symmetry_space_group_name_H-M   'P 1'
_cell_length_a   6.79680586
_cell_length_b   6.79680586
_cell_length_c   6.79680586
_cell_angle_alpha   90.00000000
_cell_angle_beta   90.00000000
_cell_angle_gamma   90.00000000
_symmetry_Int_Tables_number   1
_chemical_formula_structural   EuYTaTiNbCu3S5N3
_chemical_formula_sum   'Eu1 Y1 Ta1 Ti1 Nb1 Cu3 S5 N3'
_cell_volume   313.98911681
_cell_formula_units_Z   1
loop_
 _symmetry_equiv_pos_site_id
 _symmetry_equiv_pos_as_xyz
  1  'x, y, z'
loop_
 _atom_site_type_symbol
 _atom_site_label
 _atom_site_symmetry_multiplicity
 _atom_site_fract_x
 _atom_site_fract_y
 _atom_site_fract_z
 _atom_site_occupancy
  Eu  Eu0  1  0.50000001  0.50000001  0.50000001  1
  Y  Y1  1  0.00000000  0.00000000  0.00000000  1
  Ti  Ti2  1  0.75000002  0.00000000  0.50000001  1
  Ta  Ta3  1  0.50000001  0.75000002  0.00000000  1
  Nb  Nb4  1  0.00000000  0.50000001  0.75000002  1
  Cu  Cu5  1  0.00000000  0.50000001  0.25000001  1
  Cu  Cu6  1  0.25000001  0.00000000  0.50000001  1
  Cu  Cu7  1  0.50000001  0.25000001  0.00000000  1
  S  S8  1  0.75000002  0.25000001  0.25000001  1
  N  N9  1  0.25000001  0.25000001  0.75000002  1
  N  N10  1  0.25000001  0.75000002  0.25000001  1
  S  S11  1  0.75000002  0.75000002  0.75000002  1
  N  N12  1  0.25000001  0.75000002  0.75000002  1
  S  S13  1  0.75000002  0.75000002  0.25000001  1
  S  S14  1  0.25000001  0.25000001  0.25000001  1
  S  S15  1  0.75000002  0.25000001  0.75000002  1
