# generated using pymatgen
data_LiCu7(SO5)2
_symmetry_space_group_name_H-M   'P 1'
_cell_length_a   6.17580318
_cell_length_b   6.17580318
_cell_length_c   6.17580318
_cell_angle_alpha   90.00000000
_cell_angle_beta   90.00000000
_cell_angle_gamma   90.00000000
_symmetry_Int_Tables_number   1
_chemical_formula_structural   LiCu7(SO5)2
_chemical_formula_sum   'Li1 Cu7 S2 O10'
_cell_volume   235.54849911
_cell_formula_units_Z   1
loop_
 _symmetry_equiv_pos_site_id
 _symmetry_equiv_pos_as_xyz
  1  'x, y, z'
loop_
 _atom_site_type_symbol
 _atom_site_label
 _atom_site_symmetry_multiplicity
 _atom_site_fract_x
 _atom_site_fract_y
 _atom_site_fract_z
 _atom_site_occupancy
  Li  Li0  1  0.08610200  0.08610200  0.08610200  1
  Cu  Cu1  1  0.41389799  0.91389797  0.58610198  1
  Cu  Cu2  1  0.58610198  0.41389799  0.91389797  1
  Cu  Cu3  1  0.91389797  0.58610198  0.41389799  1
  Cu  Cu4  1  0.15067300  0.65067298  0.84932697  1
  Cu  Cu5  1  0.34932699  0.34932699  0.34932699  1
  Cu  Cu6  1  0.65067298  0.84932697  0.15067300  1
  Cu  Cu7  1  0.84932697  0.15067300  0.65067298  1
  O  O8  1  0.01539000  0.25656799  0.37060599  1
  O  O9  1  0.12939400  0.98460997  0.75656798  1
  O  O10  1  0.25656799  0.37060599  0.01539000  1
  S  S11  1  0.24343199  0.62939398  0.51538998  1
  O  O12  1  0.37060599  0.01539000  0.25656799  1
  O  O13  1  0.48460999  0.74343198  0.87060597  1
  O  O14  1  0.51538998  0.24343199  0.62939398  1
  S  S15  1  0.62939398  0.51538998  0.24343199  1
  O  O16  1  0.75656798  0.12939400  0.98460997  1
  O  O17  1  0.74343198  0.87060597  0.48460999  1
  O  O18  1  0.87060597  0.48460999  0.74343198  1
  O  O19  1  0.98460997  0.75656798  0.12939400  1
