# generated using pymatgen
data_Mn7(Fe2Si)3
_symmetry_space_group_name_H-M   'P 1'
_cell_length_a   4.85411501
_cell_length_b   6.97069645
_cell_length_c   6.97069645
_cell_angle_alpha   119.97927856
_cell_angle_beta   90.00000000
_cell_angle_gamma   90.00000000
_symmetry_Int_Tables_number   1
_chemical_formula_structural   Mn7(Fe2Si)3
_chemical_formula_sum   'Mn7 Fe6 Si3'
_cell_volume   204.30720374
_cell_formula_units_Z   1
loop_
 _symmetry_equiv_pos_site_id
 _symmetry_equiv_pos_as_xyz
  1  'x, y, z'
loop_
 _atom_site_type_symbol
 _atom_site_label
 _atom_site_symmetry_multiplicity
 _atom_site_fract_x
 _atom_site_fract_y
 _atom_site_fract_z
 _atom_site_occupancy
  Mn  Mn0  1  0.75365600  0.33399002  0.66300703  1
  Mn  Mn1  1  0.75365600  0.66300703  0.33399003  1
  Fe  Fe2  1  0.24634400  0.66300703  0.33399003  1
  Mn  Mn3  1  0.24634400  0.33399002  0.66300703  1
  Mn  Mn4  1  0.50000000  0.00755900  0.24672401  1
  Mn  Mn5  1  0.50000000  0.24672401  0.00755901  1
  Mn  Mn6  1  0.50000000  0.74886604  0.74886605  1
  Mn  Mn7  1  1.00000000  0.99892105  0.75473306  1
  Fe  Fe8  1  1.00000000  0.75473304  0.99892106  1
  Fe  Fe9  1  -0.00000000  0.24869201  0.24869202  1
  Si  Si10  1  0.50000000  0.39904302  0.39904303  1
  Fe  Fe11  1  -0.00000000  0.99907805  0.39363105  1
  Fe  Fe12  1  1.00000000  0.39363102  0.99907805  1
  Si  Si13  1  -0.00000000  0.60381803  0.60381804  1
  Si  Si14  1  0.50000000  0.00107700  0.60513002  1
  Fe  Fe15  1  0.50000000  0.60513003  0.00107702  1
