# generated using pymatgen
data_YGaNi4
_symmetry_space_group_name_H-M   'P 1'
_cell_length_a   4.13398600
_cell_length_b   4.98868942
_cell_length_c   4.98868942
_cell_angle_alpha   117.57669067
_cell_angle_beta   90.00000000
_cell_angle_gamma   90.00000000
_symmetry_Int_Tables_number   1
_chemical_formula_structural   YGaNi4
_chemical_formula_sum   'Y1 Ga1 Ni4'
_cell_volume   91.19431310
_cell_formula_units_Z   1
loop_
 _symmetry_equiv_pos_site_id
 _symmetry_equiv_pos_as_xyz
  1  'x, y, z'
loop_
 _atom_site_type_symbol
 _atom_site_label
 _atom_site_symmetry_multiplicity
 _atom_site_fract_x
 _atom_site_fract_y
 _atom_site_fract_z
 _atom_site_occupancy
  Y  Y0  1  1.00000000  0.50000003  0.50000005  1
  Ga  Ga1  1  0.50000000  0.50000003  0.00000002  1
  Ni  Ni2  1  0.50000000  0.00000000  0.50000002  1
  Ni  Ni3  1  1.00000000  0.83296805  0.16703205  1
  Ni  Ni4  1  -0.00000000  0.16703201  0.83296804  1
  Ni  Ni5  1  0.50000000  0.00000000  -0.00000000  1
