# generated using pymatgen
data_KBaTl2CuTeAuSe5
_symmetry_space_group_name_H-M   'P 1'
_cell_length_a   4.30835819
_cell_length_b   8.46932602
_cell_length_c   11.22843456
_cell_angle_alpha   90.00000000
_cell_angle_beta   90.00000000
_cell_angle_gamma   104.73511505
_symmetry_Int_Tables_number   1
_chemical_formula_structural   KBaTl2CuTeAuSe5
_chemical_formula_sum   'K1 Ba1 Tl2 Cu1 Te1 Au1 Se5'
_cell_volume   396.23849061
_cell_formula_units_Z   1
loop_
 _symmetry_equiv_pos_site_id
 _symmetry_equiv_pos_as_xyz
  1  'x, y, z'
loop_
 _atom_site_type_symbol
 _atom_site_label
 _atom_site_symmetry_multiplicity
 _atom_site_fract_x
 _atom_site_fract_y
 _atom_site_fract_z
 _atom_site_occupancy
  Ba  Ba0  1  0.25581599  0.51163198  0.75000003  1
  K  K1  1  0.74418397  0.48836799  0.25000001  1
  Tl  Tl2  1  0.00000000  0.00000000  0.50000002  1
  Tl  Tl3  1  0.00000000  0.00000000  0.00000000  1
  Te  Te4  1  0.53942498  0.07885000  0.75000003  1
  Cu  Cu5  1  0.46057498  0.92114997  0.25000001  1
  Au  Au6  1  0.93957396  0.87914797  0.75000003  1
  Se  Se7  1  0.06042600  0.12085200  0.25000001  1
  Se  Se8  1  0.38315899  0.76631798  0.45466802  1
  Se  Se9  1  0.38315899  0.76631798  0.04533200  1
  Se  Se10  1  0.61684097  0.23368199  0.95466804  1
  Se  Se11  1  0.61684097  0.23368199  0.54533202  1
