# generated using pymatgen
data_Ba2LiTiP3HCO
_symmetry_space_group_name_H-M   'P 1'
_cell_length_a   5.50031805
_cell_length_b   6.09319401
_cell_length_c   6.67608023
_cell_angle_alpha   117.15151978
_cell_angle_beta   114.32689667
_cell_angle_gamma   90.00000000
_symmetry_Int_Tables_number   1
_chemical_formula_structural   Ba2LiTiP3HCO
_chemical_formula_sum   'Ba2 Li1 Ti1 P3 H1 C1 O1'
_cell_volume   176.46880872
_cell_formula_units_Z   1
loop_
 _symmetry_equiv_pos_site_id
 _symmetry_equiv_pos_as_xyz
  1  'x, y, z'
loop_
 _atom_site_type_symbol
 _atom_site_label
 _atom_site_symmetry_multiplicity
 _atom_site_fract_x
 _atom_site_fract_y
 _atom_site_fract_z
 _atom_site_occupancy
  Li  Li0  1  0.65230201  0.78865102  0.30460404  1
  Ba  Ba1  1  0.34769800  0.21134900  0.69539602  1
  Ba  Ba2  1  0.15230201  0.51595301  0.30460403  1
  Ti  Ti3  1  0.84769800  0.48404701  0.69539603  1
  H  H4  1  0.74999999  0.00000000  1.00000002  1
  C  C5  1  0.25000000  0.00000000  -0.00000000  1
  P  P6  1  0.59545200  0.28106201  0.19090401  1
  P  P7  1  0.40454801  0.71893801  0.80909605  1
  P  P8  1  0.90454799  0.09015800  0.80909602  1
  O  O9  1  0.09545201  0.90984202  0.19090404  1
