# generated using pymatgen
data_LiAlGaSiRh
_symmetry_space_group_name_H-M   'P 1'
_cell_length_a   4.22403812
_cell_length_b   4.22403812
_cell_length_c   5.74672937
_cell_angle_alpha   111.56254578
_cell_angle_beta   111.56254578
_cell_angle_gamma   90.00000000
_symmetry_Int_Tables_number   1
_chemical_formula_structural   LiAlGaSiRh
_chemical_formula_sum   'Li1 Al1 Ga1 Si1 Rh1'
_cell_volume   87.59858125
_cell_formula_units_Z   1
loop_
 _symmetry_equiv_pos_site_id
 _symmetry_equiv_pos_as_xyz
  1  'x, y, z'
loop_
 _atom_site_type_symbol
 _atom_site_label
 _atom_site_symmetry_multiplicity
 _atom_site_fract_x
 _atom_site_fract_y
 _atom_site_fract_z
 _atom_site_occupancy
  Li  Li0  1  0.00000000  0.00000000  0.00000000  1
  Al  Al1  1  0.62017498  0.62017498  0.24035000  1
  Ga  Ga2  1  0.37982498  0.37982499  0.75965001  1
  Si  Si3  1  0.24999999  0.74999997  0.50000000  1
  Rh  Rh4  1  0.74999997  0.24999999  0.50000001  1
