# generated using pymatgen
data_LuZr2
_symmetry_space_group_name_H-M   'P 1'
_cell_length_a   3.35770202
_cell_length_b   3.35770202
_cell_length_c   7.04329157
_cell_angle_alpha   103.78986359
_cell_angle_beta   103.78986359
_cell_angle_gamma   90.00000000
_symmetry_Int_Tables_number   1
_chemical_formula_structural   LuZr2
_chemical_formula_sum   'Lu1 Zr2'
_cell_volume   74.75958294
_cell_formula_units_Z   1
loop_
 _symmetry_equiv_pos_site_id
 _symmetry_equiv_pos_as_xyz
  1  'x, y, z'
loop_
 _atom_site_type_symbol
 _atom_site_label
 _atom_site_symmetry_multiplicity
 _atom_site_fract_x
 _atom_site_fract_y
 _atom_site_fract_z
 _atom_site_occupancy
  Zr  Zr0  1  0.00000000  0.00000000  0.00000000  1
  Lu  Lu1  1  0.33933398  0.33933399  0.67866800  1
  Zr  Zr2  1  0.66066597  0.66066599  0.32133197  1
