# generated using pymatgen
data_LaYIn2SnAu
_symmetry_space_group_name_H-M   'P 1'
_cell_length_a   4.42409706
_cell_length_b   4.42409706
_cell_length_c   9.68873405
_cell_angle_alpha   90.00000000
_cell_angle_beta   90.00000000
_cell_angle_gamma   90.00000000
_symmetry_Int_Tables_number   1
_chemical_formula_structural   LaYIn2SnAu
_chemical_formula_sum   'La1 Y1 In2 Sn1 Au1'
_cell_volume   189.63405339
_cell_formula_units_Z   1
loop_
 _symmetry_equiv_pos_site_id
 _symmetry_equiv_pos_as_xyz
  1  'x, y, z'
loop_
 _atom_site_type_symbol
 _atom_site_label
 _atom_site_symmetry_multiplicity
 _atom_site_fract_x
 _atom_site_fract_y
 _atom_site_fract_z
 _atom_site_occupancy
  Y  Y0  1  0.00000000  0.49999999  0.72108300  1
  La  La1  1  0.49999999  0.00000000  0.27891700  1
  In  In2  1  0.00000000  0.00000000  0.00000000  1
  In  In3  1  0.49999999  0.49999999  -0.00000000  1
  Sn  Sn4  1  0.00000000  0.49999999  0.37175200  1
  Au  Au5  1  0.49999999  0.00000000  0.62824800  1
