# generated using pymatgen
data_Y2Al2Si3Ge
_symmetry_space_group_name_H-M   'P 1'
_cell_length_a   3.98481798
_cell_length_b   4.06704378
_cell_length_c   8.82170010
_cell_angle_alpha   76.67269135
_cell_angle_beta   90.00000000
_cell_angle_gamma   90.00000000
_symmetry_Int_Tables_number   1
_chemical_formula_structural   Y2Al2Si3Ge
_chemical_formula_sum   'Y2 Al2 Si3 Ge1'
_cell_volume   139.11799619
_cell_formula_units_Z   1
loop_
 _symmetry_equiv_pos_site_id
 _symmetry_equiv_pos_as_xyz
  1  'x, y, z'
loop_
 _atom_site_type_symbol
 _atom_site_label
 _atom_site_symmetry_multiplicity
 _atom_site_fract_x
 _atom_site_fract_y
 _atom_site_fract_z
 _atom_site_occupancy
  Y  Y0  1  0.75000000  0.10309000  0.79382002  1
  Y  Y1  1  0.25000000  0.89691004  0.20618003  1
  Al  Al2  1  0.25000000  0.24872601  0.50254802  1
  Al  Al3  1  0.75000000  0.75127403  0.49745203  1
  Si  Si4  1  0.75000000  0.32267901  0.35464202  1
  Si  Si5  1  0.25000000  0.67732103  0.64535804  1
  Si  Si6  1  0.25000000  0.53576702  0.92846604  1
  Ge  Ge7  1  0.75000000  0.46423302  0.07153401  1
