# generated using pymatgen
data_LaErScInSnPdAu2
_symmetry_space_group_name_H-M   'P 1'
_cell_length_a   5.63246584
_cell_length_b   5.63246584
_cell_length_c   5.63246584
_cell_angle_alpha   90.00000000
_cell_angle_beta   90.00000000
_cell_angle_gamma   90.00000000
_symmetry_Int_Tables_number   1
_chemical_formula_structural   LaErScInSnPdAu2
_chemical_formula_sum   'La1 Er1 Sc1 In1 Sn1 Pd1 Au2'
_cell_volume   178.68812811
_cell_formula_units_Z   1
loop_
 _symmetry_equiv_pos_site_id
 _symmetry_equiv_pos_as_xyz
  1  'x, y, z'
loop_
 _atom_site_type_symbol
 _atom_site_label
 _atom_site_symmetry_multiplicity
 _atom_site_fract_x
 _atom_site_fract_y
 _atom_site_fract_z
 _atom_site_occupancy
  Er  Er0  1  0.35604301  0.85604302  0.64395702  1
  La  La1  1  0.85604302  0.64395702  0.35604301  1
  In  In2  1  0.64395702  0.35604301  0.85604302  1
  Sc  Sc3  1  0.14395700  0.14395700  0.14395700  1
  Sn  Sn4  1  0.65630402  0.15630400  0.34369601  1
  Au  Au5  1  0.15630400  0.34369601  0.65630402  1
  Pd  Pd6  1  0.34369601  0.65630402  0.15630400  1
  Au  Au7  1  0.84369602  0.84369602  0.84369602  1
