# generated using pymatgen
data_Mn3AlFeSi5
_symmetry_space_group_name_H-M   'P 1'
_cell_length_a   3.53251600
_cell_length_b   3.53251600
_cell_length_c   12.64284706
_cell_angle_alpha   98.03072357
_cell_angle_beta   98.03072357
_cell_angle_gamma   90.00000000
_symmetry_Int_Tables_number   1
_chemical_formula_structural   Mn3AlFeSi5
_chemical_formula_sum   'Mn3 Al1 Fe1 Si5'
_cell_volume   154.65610421
_cell_formula_units_Z   1
loop_
 _symmetry_equiv_pos_site_id
 _symmetry_equiv_pos_as_xyz
  1  'x, y, z'
loop_
 _atom_site_type_symbol
 _atom_site_label
 _atom_site_symmetry_multiplicity
 _atom_site_fract_x
 _atom_site_fract_y
 _atom_site_fract_z
 _atom_site_occupancy
  Mn  Mn0  1  0.00000000  0.00000000  0.00000000  1
  Mn  Mn1  1  0.40048799  0.40048800  0.80097597  1
  Mn  Mn2  1  0.79936698  0.79936699  0.59873396  1
  Al  Al3  1  0.20063300  0.20063300  0.40126598  1
  Fe  Fe4  1  0.59951199  0.59951200  0.19902398  1
  Si  Si5  1  0.30000199  0.30000200  0.60000397  1
  Si  Si6  1  0.69999798  0.69999799  0.39999597  1
  Si  Si7  1  0.10512900  0.10512900  0.21025799  1
  Si  Si8  1  0.49999999  0.50000000  -0.00000001  1
  Si  Si9  1  0.89487098  0.89487099  0.78974195  1
