# generated using pymatgen
data_YErAlGa9(SiGe)2
_symmetry_space_group_name_H-M   'P 1'
_cell_length_a   4.28354597
_cell_length_b   8.91909981
_cell_length_c   9.44902992
_cell_angle_alpha   118.16149902
_cell_angle_beta   103.10086060
_cell_angle_gamma   90.00000000
_symmetry_Int_Tables_number   1
_chemical_formula_structural   YErAlGa9(SiGe)2
_chemical_formula_sum   'Y1 Er1 Al1 Ga9 Si2 Ge2'
_cell_volume   307.56961558
_cell_formula_units_Z   1
loop_
 _symmetry_equiv_pos_site_id
 _symmetry_equiv_pos_as_xyz
  1  'x, y, z'
loop_
 _atom_site_type_symbol
 _atom_site_label
 _atom_site_symmetry_multiplicity
 _atom_site_fract_x
 _atom_site_fract_y
 _atom_site_fract_z
 _atom_site_occupancy
  Y  Y0  1  1.00000001  0.26089900  1.00000001  1
  Er  Er1  1  -0.00000000  0.73910100  -0.00000004  1
  Ga  Ga2  1  0.20561100  0.70561100  0.41122197  1
  Al  Al3  1  0.79438901  0.29438900  0.58877800  1
  Ga  Ga4  1  0.57804901  0.07804900  0.15609800  1
  Ga  Ga5  1  0.42195101  0.92195099  0.84390196  1
  Ga  Ga6  1  0.57693001  0.57693000  0.15385998  1
  Ga  Ga7  1  0.42307001  0.42307000  0.84613999  1
  Ga  Ga8  1  0.79952401  0.64689200  0.59904798  1
  Ga  Ga9  1  0.20047600  0.35310800  0.40095199  1
  Ga  Ga10  1  0.79952401  0.95215599  0.59904796  1
  Ga  Ga11  1  0.20047600  0.04784400  0.40095200  1
  Ge  Ge12  1  0.64575901  0.39549500  0.29151699  1
  Si  Si13  1  0.35424100  0.60450500  0.70848298  1
  Ge  Ge14  1  0.64575801  0.89602199  0.29151596  1
  Si  Si15  1  0.35424200  0.10397800  0.70848401  1
