# generated using pymatgen
data_Y2In2Sn3Au
_symmetry_space_group_name_H-M   'P 1'
_cell_length_a   4.38582420
_cell_length_b   4.40341187
_cell_length_c   13.17959976
_cell_angle_alpha   90.00000000
_cell_angle_beta   99.57781219
_cell_angle_gamma   90.00000000
_symmetry_Int_Tables_number   1
_chemical_formula_structural   Y2In2Sn3Au
_chemical_formula_sum   'Y2 In2 Sn3 Au1'
_cell_volume   250.98417054
_cell_formula_units_Z   1
loop_
 _symmetry_equiv_pos_site_id
 _symmetry_equiv_pos_as_xyz
  1  'x, y, z'
loop_
 _atom_site_type_symbol
 _atom_site_label
 _atom_site_symmetry_multiplicity
 _atom_site_fract_x
 _atom_site_fract_y
 _atom_site_fract_z
 _atom_site_occupancy
  Y  Y0  1  0.83176297  0.00000000  0.66352599  1
  Y  Y1  1  0.16506899  0.50000002  0.33013799  1
  In  In2  1  0.42968898  0.00000000  0.85937798  1
  In  In3  1  0.57624398  0.50000002  0.15248801  1
  Sn  Sn4  1  0.70052597  0.00000000  0.40105200  1
  Au  Au5  1  0.29049999  0.50000002  0.58099999  1
  Sn  Sn6  1  0.07622500  0.00000000  0.15245000  1
  Sn  Sn7  1  0.92998397  0.50000002  0.85996799  1
