# generated using pymatgen
data_VFeCuCO
_symmetry_space_group_name_H-M   'P 1'
_cell_length_a   3.87314796
_cell_length_b   4.10498810
_cell_length_c   5.20456123
_cell_angle_alpha   113.22634125
_cell_angle_beta   111.84467316
_cell_angle_gamma   90.00000000
_symmetry_Int_Tables_number   1
_chemical_formula_structural   VFeCuCO
_chemical_formula_sum   'V1 Fe1 Cu1 C1 O1'
_cell_volume   69.52964262
_cell_formula_units_Z   1
loop_
 _symmetry_equiv_pos_site_id
 _symmetry_equiv_pos_as_xyz
  1  'x, y, z'
loop_
 _atom_site_type_symbol
 _atom_site_label
 _atom_site_symmetry_multiplicity
 _atom_site_fract_x
 _atom_site_fract_y
 _atom_site_fract_z
 _atom_site_occupancy
  Cu  Cu0  1  0.00000000  0.00000000  0.00000000  1
  V  V1  1  0.50000000  0.00000000  -0.00000002  1
  Fe  Fe2  1  0.21766199  0.21766199  0.43532397  1
  C  C3  1  -0.00000002  0.49999998  -0.00000003  1
  O  O4  1  0.78233796  0.78233796  0.56467592  1
