# generated using pymatgen
data_LiMg3
_symmetry_space_group_name_H-M   'P 1'
_cell_length_a   4.39315796
_cell_length_b   4.39315796
_cell_length_c   5.85690355
_cell_angle_alpha   112.02684784
_cell_angle_beta   112.02684784
_cell_angle_gamma   90.00000000
_symmetry_Int_Tables_number   1
_chemical_formula_structural   LiMg3
_chemical_formula_sum   'Li1 Mg3'
_cell_volume   95.82791748
_cell_formula_units_Z   1
loop_
 _symmetry_equiv_pos_site_id
 _symmetry_equiv_pos_as_xyz
  1  'x, y, z'
loop_
 _atom_site_type_symbol
 _atom_site_label
 _atom_site_symmetry_multiplicity
 _atom_site_fract_x
 _atom_site_fract_y
 _atom_site_fract_z
 _atom_site_occupancy
  Li  Li0  1  0.75000001  0.25000000  0.50000000  1
  Mg  Mg1  1  0.25000001  0.75000001  0.50000000  1
  Mg  Mg2  1  0.50000001  0.50000001  0.00000000  1
  Mg  Mg3  1  0.00000000  0.00000000  0.00000000  1
