# generated using pymatgen
data_TaNb3CuS10
_symmetry_space_group_name_H-M   'P 1'
_cell_length_a   6.47657490
_cell_length_b   6.47657490
_cell_length_c   6.47657442
_cell_angle_alpha   89.81593323
_cell_angle_beta   89.81593323
_cell_angle_gamma   89.81594086
_symmetry_Int_Tables_number   1
_chemical_formula_structural   TaNb3CuS10
_chemical_formula_sum   'Ta1 Nb3 Cu1 S10'
_cell_volume   271.66233923
_cell_formula_units_Z   1
loop_
 _symmetry_equiv_pos_site_id
 _symmetry_equiv_pos_as_xyz
  1  'x, y, z'
loop_
 _atom_site_type_symbol
 _atom_site_label
 _atom_site_symmetry_multiplicity
 _atom_site_fract_x
 _atom_site_fract_y
 _atom_site_fract_z
 _atom_site_occupancy
  Ta  Ta0  1  0.00000000  0.00000000  0.00000000  1
  Nb  Nb1  1  0.41873000  0.22309099  0.55929598  1
  Nb  Nb2  1  0.22309102  0.55929599  0.41872996  1
  Nb  Nb3  1  0.55929601  0.41872999  0.22309095  1
  S  S4  1  0.58127002  0.77690898  0.44070393  1
  Cu  Cu5  1  0.77690900  0.44070399  0.58126994  1
  S  S6  1  0.44070402  0.58126998  0.77690896  1
  S  S7  1  0.23490101  0.23490099  0.23490098  1
  S  S8  1  0.76509902  0.76509898  0.76509893  1
  S  S9  1  0.36722203  0.75167598  0.12759393  1
  S  S10  1  0.75167599  0.12759400  0.36722196  1
  S  S11  1  0.12759402  0.36722199  0.75167599  1
  S  S12  1  0.63277800  0.24832399  0.87240597  1
  S  S13  1  0.24832404  0.87240598  0.63277795  1
  S  S14  1  0.87240601  0.63277798  0.24832391  1
