# generated using pymatgen
data_NaCu2PSeO10
_symmetry_space_group_name_H-M   'P 1'
_cell_length_a   4.98809910
_cell_length_b   7.21972895
_cell_length_c   8.24040222
_cell_angle_alpha   96.76844788
_cell_angle_beta   106.95812225
_cell_angle_gamma   108.59890747
_symmetry_Int_Tables_number   1
_chemical_formula_structural   NaCu2PSeO10
_chemical_formula_sum   'Na1 Cu2 P1 Se1 O10'
_cell_volume   261.65113184
_cell_formula_units_Z   1
loop_
 _symmetry_equiv_pos_site_id
 _symmetry_equiv_pos_as_xyz
  1  'x, y, z'
loop_
 _atom_site_type_symbol
 _atom_site_label
 _atom_site_symmetry_multiplicity
 _atom_site_fract_x
 _atom_site_fract_y
 _atom_site_fract_z
 _atom_site_occupancy
  Na  Na0  1  0.77173100  0.20452000  0.35050999  1
  P  P1  1  0.22826904  0.79548001  0.64948998  1
  Cu  Cu2  1  0.14810201  0.23490000  0.96717297  1
  Cu  Cu3  1  0.85189803  0.76510001  0.03282700  1
  O  O4  1  0.61131001  0.35011700  0.77438497  1
  Se  Se5  1  0.38869003  0.64988301  0.22561499  1
  O  O6  1  0.09740104  0.70022801  0.19993300  1
  O  O7  1  0.59982303  0.73231401  0.41185399  1
  O  O8  1  0.47043001  0.25712600  0.90738297  1
  O  O9  1  0.71886602  0.58472601  0.83121297  1
  O  O10  1  0.90259900  0.29977200  0.80006697  1
  O  O11  1  0.28113402  0.41527400  0.16878700  1
  O  O12  1  0.40017701  0.26768600  0.58814598  1
  O  O13  1  0.00000000  0.00000000  0.00000000  1
  O  O14  1  0.52957003  0.74287401  0.09261700  1
