# generated using pymatgen
data_PrNd2EuY6In2Ge3Pd
_symmetry_space_group_name_H-M   'P 1'
_cell_length_a   8.00860786
_cell_length_b   8.00860786
_cell_length_c   8.41478539
_cell_angle_alpha   118.41570282
_cell_angle_beta   118.41570282
_cell_angle_gamma   90.00000000
_symmetry_Int_Tables_number   1
_chemical_formula_structural   PrNd2EuY6In2Ge3Pd
_chemical_formula_sum   'Pr1 Nd2 Eu1 Y6 In2 Ge3 Pd1'
_cell_volume   399.20156913
_cell_formula_units_Z   1
loop_
 _symmetry_equiv_pos_site_id
 _symmetry_equiv_pos_as_xyz
  1  'x, y, z'
loop_
 _atom_site_type_symbol
 _atom_site_label
 _atom_site_symmetry_multiplicity
 _atom_site_fract_x
 _atom_site_fract_y
 _atom_site_fract_z
 _atom_site_occupancy
  Y  Y0  1  0.50000006  0.50000003  0.00000007  1
  Pr  Pr1  1  0.00000000  0.00000000  0.00000000  1
  Nd  Nd2  1  0.48439409  0.98439406  0.32046914  1
  Y  Y3  1  0.83607506  0.33607502  0.32046909  1
  Y  Y4  1  0.98439410  0.83607505  0.32046915  1
  Nd  Nd5  1  0.33607505  0.48439403  0.32046908  1
  Eu  Eu6  1  0.51560602  0.01560600  0.67953106  1
  Y  Y7  1  0.16392506  0.66392504  0.67953111  1
  Y  Y8  1  0.01560601  0.16392501  0.67953105  1
  Y  Y9  1  0.66392507  0.51560603  0.67953112  1
  In  In10  1  0.12098005  0.62098004  0.00000007  1
  In  In11  1  0.87902007  0.37902002  0.00000008  1
  Ge  Ge12  1  0.62098009  0.87902006  0.00000012  1
  Ge  Ge13  1  0.37902003  0.12098001  0.00000003  1
  Pd  Pd14  1  0.75000009  0.75000005  0.50000014  1
  Ge  Ge15  1  0.25000003  0.25000002  0.50000006  1
