# generated using pymatgen
data_NaHfAl2GaCu2Ge4Au
_symmetry_space_group_name_H-M   'P 1'
_cell_length_a   6.69324923
_cell_length_b   6.69324923
_cell_length_c   6.69324923
_cell_angle_alpha   90.00000000
_cell_angle_beta   90.00000000
_cell_angle_gamma   90.00000000
_symmetry_Int_Tables_number   1
_chemical_formula_structural   NaHfAl2GaCu2Ge4Au
_chemical_formula_sum   'Na1 Hf1 Al2 Ga1 Cu2 Ge4 Au1'
_cell_volume   299.85478892
_cell_formula_units_Z   1
loop_
 _symmetry_equiv_pos_site_id
 _symmetry_equiv_pos_as_xyz
  1  'x, y, z'
loop_
 _atom_site_type_symbol
 _atom_site_label
 _atom_site_symmetry_multiplicity
 _atom_site_fract_x
 _atom_site_fract_y
 _atom_site_fract_z
 _atom_site_occupancy
  Na  Na0  1  0.00000000  0.00000000  0.00000000  1
  Hf  Hf1  1  0.49999998  0.00000000  0.49999998  1
  Al  Al2  1  0.49999998  0.49999998  0.00000000  1
  Al  Al3  1  -0.00000000  0.49999998  0.49999998  1
  Ga  Ga4  1  0.36566999  0.36566999  0.36566999  1
  Cu  Cu5  1  0.13433000  0.63432998  0.86566997  1
  Ge  Ge6  1  0.86566997  0.13433000  0.63432998  1
  Cu  Cu7  1  0.63432998  0.86566997  0.13433000  1
  Ge  Ge8  1  0.63432998  0.63432998  0.63432998  1
  Ge  Ge9  1  0.86566997  0.36566999  0.13433000  1
  Au  Au10  1  0.13433000  0.86566997  0.36566999  1
  Ge  Ge11  1  0.36566999  0.13433000  0.86566997  1
