# generated using pymatgen
data_Li6CuNiO6
_symmetry_space_group_name_H-M   'P 1'
_cell_length_a   5.21028376
_cell_length_b   5.21028376
_cell_length_c   6.32333994
_cell_angle_alpha   90.00000000
_cell_angle_beta   90.00000000
_cell_angle_gamma   113.49501038
_symmetry_Int_Tables_number   1
_chemical_formula_structural   Li6CuNiO6
_chemical_formula_sum   'Li6 Cu1 Ni1 O6'
_cell_volume   157.42855564
_cell_formula_units_Z   1
loop_
 _symmetry_equiv_pos_site_id
 _symmetry_equiv_pos_as_xyz
  1  'x, y, z'
loop_
 _atom_site_type_symbol
 _atom_site_label
 _atom_site_symmetry_multiplicity
 _atom_site_fract_x
 _atom_site_fract_y
 _atom_site_fract_z
 _atom_site_occupancy
  Li  Li0  1  0.16270195  0.83729801  0.25000000  1
  Li  Li1  1  0.83729802  0.16270200  0.75000001  1
  Li  Li2  1  0.49999998  0.50000000  0.50000000  1
  Li  Li3  1  0.49999998  0.50000000  -0.00000000  1
  Li  Li4  1  0.85418702  0.14581300  0.25000000  1
  Li  Li5  1  0.14581295  0.85418701  0.75000001  1
  Cu  Cu6  1  0.73993501  0.26006500  0.02945400  1
  Ni  Ni7  1  0.77408898  0.73439400  0.75000001  1
  O  O8  1  0.22591099  0.26560600  0.25000000  1
  O  O9  1  0.26006496  0.73993500  0.52945401  1
  O  O10  1  0.26006496  0.73993500  0.97054601  1
  O  O11  1  0.73439397  0.77408901  0.25000000  1
  O  O12  1  0.26560599  0.22591100  0.75000001  1
  O  O13  1  0.73993501  0.26006500  0.47054600  1
