# generated using pymatgen
data_CsK2RbSrTe3
_symmetry_space_group_name_H-M   'P 1'
_cell_length_a   9.00476074
_cell_length_b   9.00476074
_cell_length_c   9.00476074
_cell_angle_alpha   90.00000000
_cell_angle_beta   90.00000000
_cell_angle_gamma   90.00000000
_symmetry_Int_Tables_number   1
_chemical_formula_structural   CsK2RbSrTe3
_chemical_formula_sum   'Cs1 K2 Rb1 Sr1 Te3'
_cell_volume   730.15747241
_cell_formula_units_Z   1
loop_
 _symmetry_equiv_pos_site_id
 _symmetry_equiv_pos_as_xyz
  1  'x, y, z'
loop_
 _atom_site_type_symbol
 _atom_site_label
 _atom_site_symmetry_multiplicity
 _atom_site_fract_x
 _atom_site_fract_y
 _atom_site_fract_z
 _atom_site_occupancy
  Cs  Cs0  1  0.00000000  0.00000000  0.00000000  1
  K  K1  1  0.50000001  0.25000001  0.00000000  1
  Rb  Rb2  1  0.50000001  0.75000002  0.00000000  1
  K  K3  1  -0.00000000  0.50000001  0.25000001  1
  Te  Te4  1  0.25000001  0.00000000  0.50000001  1
  Te  Te5  1  0.75000002  0.00000000  0.50000001  1
  Sr  Sr6  1  0.50000001  0.50000001  0.50000001  1
  Te  Te7  1  -0.00000000  0.50000001  0.75000002  1
