# generated using pymatgen
data_LaTlInBi2Pb
_symmetry_space_group_name_H-M   'P 1'
_cell_length_a   3.83615994
_cell_length_b   6.14665508
_cell_length_c   10.00790787
_cell_angle_alpha   90.00000000
_cell_angle_beta   101.04946899
_cell_angle_gamma   90.00000000
_symmetry_Int_Tables_number   1
_chemical_formula_structural   LaTlInBi2Pb
_chemical_formula_sum   'La1 Tl1 In1 Bi2 Pb1'
_cell_volume   231.60736755
_cell_formula_units_Z   1
loop_
 _symmetry_equiv_pos_site_id
 _symmetry_equiv_pos_as_xyz
  1  'x, y, z'
loop_
 _atom_site_type_symbol
 _atom_site_label
 _atom_site_symmetry_multiplicity
 _atom_site_fract_x
 _atom_site_fract_y
 _atom_site_fract_z
 _atom_site_occupancy
  In  In0  1  0.00077600  0.00000000  0.00155200  1
  La  La1  1  0.32881701  0.00000000  0.65763400  1
  Bi  Bi2  1  0.66999301  0.00000000  0.33998600  1
  Tl  Tl3  1  0.12118900  0.49999999  0.24237700  1
  Bi  Bi4  1  0.43482201  0.49999999  0.86964400  1
  Pb  Pb5  1  0.77773601  0.49999999  0.55547200  1
