# generated using pymatgen
data_Na3Li5CuO11
_symmetry_space_group_name_H-M   'P 1'
_cell_length_a   5.26376104
_cell_length_b   5.58809519
_cell_length_c   7.55258083
_cell_angle_alpha   90.00000000
_cell_angle_beta   89.57586670
_cell_angle_gamma   90.00000000
_symmetry_Int_Tables_number   1
_chemical_formula_structural   Na3Li5CuO11
_chemical_formula_sum   'Na3 Li5 Cu1 O11'
_cell_volume   222.14853003
_cell_formula_units_Z   1
loop_
 _symmetry_equiv_pos_site_id
 _symmetry_equiv_pos_as_xyz
  1  'x, y, z'
loop_
 _atom_site_type_symbol
 _atom_site_label
 _atom_site_symmetry_multiplicity
 _atom_site_fract_x
 _atom_site_fract_y
 _atom_site_fract_z
 _atom_site_occupancy
  Na  Na0  1  0.01871800  0.07230600  0.25064100  1
  Na  Na1  1  0.51871800  0.42769399  0.75064103  1
  Li  Li2  1  0.98128199  0.92769397  0.74935904  1
  Na  Na3  1  0.48128200  0.57230598  0.24935902  1
  Li  Li4  1  0.50000000  0.00000000  0.50000002  1
  Li  Li5  1  -0.00000000  0.49999998  -0.00000000  1
  Li  Li6  1  0.00000000  0.49999998  0.50000001  1
  Li  Li7  1  0.50000000  0.00000000  0.00000002  1
  Cu  Cu8  1  0.68199699  0.70494998  0.55629703  1
  O  O9  1  0.18199700  0.79504997  0.05629701  1
  O  O10  1  0.31800300  0.29504999  0.44370302  1
  O  O11  1  0.81800299  0.20494999  0.94370304  1
  O  O12  1  0.79953899  0.18686799  0.55315503  1
  O  O13  1  0.29953900  0.31313199  0.05315501  1
  O  O14  1  0.20046100  0.81313197  0.44684501  1
  O  O15  1  0.70046099  0.68686798  0.94684504  1
  O  O16  1  0.89203499  0.46435498  0.24279203  1
  O  O17  1  0.39203500  0.03564500  0.74279202  1
  O  O18  1  0.10796500  0.53564498  0.75720801  1
  O  O19  1  0.60796499  0.96435497  0.25720802  1
