# generated using pymatgen
data_NaLa2YThTl10InHgSb
_symmetry_space_group_name_H-M   'P 1'
_cell_length_a   6.71670485
_cell_length_b   9.82389164
_cell_length_c   9.82389164
_cell_angle_alpha   120.00000000
_cell_angle_beta   90.00000000
_cell_angle_gamma   90.00000000
_symmetry_Int_Tables_number   1
_chemical_formula_structural   NaLa2YThTl10InHgSb
_chemical_formula_sum   'Na1 La2 Y1 Th1 Tl10 In1 Hg1 Sb1'
_cell_volume   561.37623425
_cell_formula_units_Z   1
loop_
 _symmetry_equiv_pos_site_id
 _symmetry_equiv_pos_as_xyz
  1  'x, y, z'
loop_
 _atom_site_type_symbol
 _atom_site_label
 _atom_site_symmetry_multiplicity
 _atom_site_fract_x
 _atom_site_fract_y
 _atom_site_fract_z
 _atom_site_occupancy
  Y  Y0  1  1.00000002  0.33333335  0.66666669  1
  La  La1  1  -0.00000000  0.66666669  0.33333334  1
  Tl  Tl2  1  0.50000001  0.66666669  0.33333334  1
  Na  Na3  1  0.50000001  0.33333335  0.66666669  1
  Tl  Tl4  1  0.25000001  0.25936401  -0.00000000  1
  La  La5  1  0.25000001  0.74063603  0.74063602  1
  Tl  Tl6  1  0.25000001  0.00000000  0.25936401  1
  Tl  Tl7  1  0.75000002  0.74063603  -0.00000000  1
  Tl  Tl8  1  0.75000002  0.25936401  0.25936401  1
  Th  Th9  1  0.75000002  1.00000004  0.74063602  1
  In  In10  1  0.00000000  0.00000000  0.00000000  1
  Sb  Sb11  1  0.50000001  0.00000000  -0.00000000  1
  Tl  Tl12  1  0.25000001  0.61545802  -0.00000000  1
  Tl  Tl13  1  0.25000001  0.38454201  0.38454201  1
  Tl  Tl14  1  0.25000001  0.00000000  0.61545802  1
  Tl  Tl15  1  0.75000002  0.38454201  -0.00000000  1
  Tl  Tl16  1  0.75000002  0.61545802  0.61545802  1
  Hg  Hg17  1  0.75000002  1.00000004  0.38454201  1
