# generated using pymatgen
data_K2BaNaCuO7
_symmetry_space_group_name_H-M   'P 1'
_cell_length_a   3.90105891
_cell_length_b   3.90105891
_cell_length_c   12.94043636
_cell_angle_alpha   90.00000000
_cell_angle_beta   90.00000000
_cell_angle_gamma   90.00000000
_symmetry_Int_Tables_number   1
_chemical_formula_structural   K2BaNaCuO7
_chemical_formula_sum   'K2 Ba1 Na1 Cu1 O7'
_cell_volume   196.93093333
_cell_formula_units_Z   1
loop_
 _symmetry_equiv_pos_site_id
 _symmetry_equiv_pos_as_xyz
  1  'x, y, z'
loop_
 _atom_site_type_symbol
 _atom_site_label
 _atom_site_symmetry_multiplicity
 _atom_site_fract_x
 _atom_site_fract_y
 _atom_site_fract_z
 _atom_site_occupancy
  K  K0  1  0.50000001  0.50000001  0.75011998  1
  Ba  Ba1  1  0.00000000  0.00000000  0.49999999  1
  K  K2  1  0.50000001  0.50000001  0.24987999  1
  Na  Na3  1  0.00000000  0.00000000  0.00000000  1
  Cu  Cu4  1  0.00000000  0.00000000  0.80619098  1
  O  O5  1  0.50000001  0.50000001  0.55018498  1
  O  O6  1  0.00000000  0.00000000  0.29441399  1
  O  O7  1  0.50000001  0.50000001  0.05004100  1
  O  O8  1  0.50000001  0.50000001  0.94995897  1
  O  O9  1  0.00000000  0.00000000  0.70558598  1
  O  O10  1  0.50000001  0.50000001  0.44981499  1
  O  O11  1  0.00000000  0.00000000  0.19380899  1
