# generated using pymatgen
data_K3Y3TeSe6I
_symmetry_space_group_name_H-M   'P 1'
_cell_length_a   7.15422153
_cell_length_b   7.15422153
_cell_length_c   12.42511845
_cell_angle_alpha   90.00000000
_cell_angle_beta   90.00000000
_cell_angle_gamma   119.11921692
_symmetry_Int_Tables_number   1
_chemical_formula_structural   K3Y3TeSe6I
_chemical_formula_sum   'K3 Y3 Te1 Se6 I1'
_cell_volume   555.57466634
_cell_formula_units_Z   1
loop_
 _symmetry_equiv_pos_site_id
 _symmetry_equiv_pos_as_xyz
  1  'x, y, z'
loop_
 _atom_site_type_symbol
 _atom_site_label
 _atom_site_symmetry_multiplicity
 _atom_site_fract_x
 _atom_site_fract_y
 _atom_site_fract_z
 _atom_site_occupancy
  K  K0  1  0.50000003  0.50000001  0.24999999  1
  Y  Y1  1  0.50000003  0.50000001  0.74999997  1
  Y  Y2  1  0.76219701  0.24035001  -0.00000000  1
  Y  Y3  1  0.23780306  0.75965002  -0.00000000  1
  K  K4  1  0.75965001  0.23780301  0.49999998  1
  K  K5  1  0.24035006  0.76219702  0.49999998  1
  Te  Te6  1  0.00000004  0.50000001  0.17748199  1
  Se  Se7  1  0.50000000  0.00000000  0.32251799  1
  Se  Se8  1  0.80442504  0.65883802  0.49999998  1
  Se  Se9  1  0.19557502  0.34116201  0.49999998  1
  Se  Se10  1  0.65883806  0.80442502  -0.00000000  1
  Se  Se11  1  0.34116201  0.19557501  0.99999996  1
  I  I12  1  0.00000004  0.50000001  0.82251797  1
  Se  Se13  1  0.50000000  0.00000000  0.67748198  1
