# generated using pymatgen
data_LaDyErIn3SnAu2
_symmetry_space_group_name_H-M   'P 1'
_cell_length_a   4.06737995
_cell_length_b   7.69728804
_cell_length_c   7.69728804
_cell_angle_alpha   120.00000000
_cell_angle_beta   90.00000000
_cell_angle_gamma   90.00000000
_symmetry_Int_Tables_number   1
_chemical_formula_structural   LaDyErIn3SnAu2
_chemical_formula_sum   'La1 Dy1 Er1 In3 Sn1 Au2'
_cell_volume   208.69923257
_cell_formula_units_Z   1
loop_
 _symmetry_equiv_pos_site_id
 _symmetry_equiv_pos_as_xyz
  1  'x, y, z'
loop_
 _atom_site_type_symbol
 _atom_site_label
 _atom_site_symmetry_multiplicity
 _atom_site_fract_x
 _atom_site_fract_y
 _atom_site_fract_z
 _atom_site_occupancy
  Er  Er0  1  -0.00000000  0.41138700  0.41138700  1
  Dy  Dy1  1  -0.00000000  1.00000000  0.58861300  1
  La  La2  1  -0.00000000  0.58861300  1.00000000  1
  In  In3  1  0.50000001  0.75700500  0.75700500  1
  In  In4  1  0.50000001  1.00000000  0.24299500  1
  In  In5  1  0.50000001  0.24299500  1.00000000  1
  Au  Au6  1  0.50000001  0.66666666  0.33333334  1
  Au  Au7  1  0.50000001  0.33333333  0.66666667  1
  Sn  Sn8  1  0.00000000  0.00000000  0.00000000  1
