# generated using pymatgen
data_BaNd2Eu4YSi8
_symmetry_space_group_name_H-M   'P 1'
_cell_length_a   7.82566977
_cell_length_b   7.94179106
_cell_length_c   7.94179106
_cell_angle_alpha   93.33154297
_cell_angle_beta   90.00000000
_cell_angle_gamma   90.00000000
_symmetry_Int_Tables_number   1
_chemical_formula_structural   BaNd2Eu4YSi8
_chemical_formula_sum   'Ba1 Nd2 Eu4 Y1 Si8'
_cell_volume   492.74683280
_cell_formula_units_Z   1
loop_
 _symmetry_equiv_pos_site_id
 _symmetry_equiv_pos_as_xyz
  1  'x, y, z'
loop_
 _atom_site_type_symbol
 _atom_site_label
 _atom_site_symmetry_multiplicity
 _atom_site_fract_x
 _atom_site_fract_y
 _atom_site_fract_z
 _atom_site_occupancy
  Ba  Ba0  1  0.01959800  0.30450699  0.69549300  1
  Eu  Eu1  1  0.51959802  0.69549298  0.30450704  1
  Nd  Nd2  1  0.51369002  0.18244300  0.25645901  1
  Eu  Eu3  1  0.01369000  0.81755698  0.74354103  1
  Nd  Nd4  1  0.51369002  0.74354098  0.81755703  1
  Eu  Eu5  1  0.01369000  0.25645899  0.18244301  1
  Y  Y6  1  0.51813602  0.24190799  0.75809200  1
  Eu  Eu7  1  0.01813600  0.75809198  0.24190804  1
  Si  Si8  1  0.15575600  0.57474899  0.42525103  1
  Si  Si9  1  0.65575602  0.42525099  0.57474901  1
  Si  Si10  1  0.22654401  0.90757398  0.09242606  1
  Si  Si11  1  0.72654402  0.09242600  0.90757398  1
  Si  Si12  1  0.84519303  0.95213298  0.40268605  1
  Si  Si13  1  0.34519301  0.04786700  0.59731399  1
  Si  Si14  1  0.84519303  0.59731399  0.04786704  1
  Si  Si15  1  0.34519301  0.40268599  0.95213300  1
