# generated using pymatgen
data_CeYIn4Ga2(SnPd2)2
_symmetry_space_group_name_H-M   'P 1'
_cell_length_a   6.43197393
_cell_length_b   7.01453876
_cell_length_c   8.83270550
_cell_angle_alpha   96.04278564
_cell_angle_beta   111.35219574
_cell_angle_gamma   90.00000000
_symmetry_Int_Tables_number   1
_chemical_formula_structural   CeYIn4Ga2(SnPd2)2
_chemical_formula_sum   'Ce1 Y1 In4 Ga2 Sn2 Pd4'
_cell_volume   368.77597536
_cell_formula_units_Z   1
loop_
 _symmetry_equiv_pos_site_id
 _symmetry_equiv_pos_as_xyz
  1  'x, y, z'
loop_
 _atom_site_type_symbol
 _atom_site_label
 _atom_site_symmetry_multiplicity
 _atom_site_fract_x
 _atom_site_fract_y
 _atom_site_fract_z
 _atom_site_occupancy
  Y  Y0  1  0.21650001  0.68333699  0.57161704  1
  Ce  Ce1  1  0.64488301  0.81666299  0.42838303  1
  Ga  Ga2  1  0.78350000  0.31666300  0.42838300  1
  In  In3  1  0.35511700  0.18333700  0.57161701  1
  Ga  Ga4  1  0.43130901  0.74999999  0.00000003  1
  In  In5  1  0.56869100  0.25000000  -0.00000000  1
  In  In6  1  0.01009800  0.08657200  0.81003302  1
  In  In7  1  0.20006501  0.41342800  0.18996702  1
  Sn  Sn8  1  0.98990202  0.91342799  0.18996702  1
  Pd  Pd9  1  0.79993501  0.58657199  0.81003303  1
  Pd  Pd10  1  0.17984901  0.42657600  0.77768003  1
  Sn  Sn11  1  0.40216900  0.07342400  0.22232000  1
  Pd  Pd12  1  0.82015101  0.57342399  0.22232001  1
  Pd  Pd13  1  0.59783102  0.92657599  0.77768005  1
