# generated using pymatgen
data_Na7Li3O10
_symmetry_space_group_name_H-M   'P 1'
_cell_length_a   5.68275690
_cell_length_b   5.71227551
_cell_length_c   8.49806786
_cell_angle_alpha   101.46336365
_cell_angle_beta   109.26148987
_cell_angle_gamma   102.20838165
_symmetry_Int_Tables_number   1
_chemical_formula_structural   Na7Li3O10
_chemical_formula_sum   'Na7 Li3 O10'
_cell_volume   243.51319803
_cell_formula_units_Z   1
loop_
 _symmetry_equiv_pos_site_id
 _symmetry_equiv_pos_as_xyz
  1  'x, y, z'
loop_
 _atom_site_type_symbol
 _atom_site_label
 _atom_site_symmetry_multiplicity
 _atom_site_fract_x
 _atom_site_fract_y
 _atom_site_fract_z
 _atom_site_occupancy
  Na  Na0  1  0.11537699  0.50967801  0.70720100  1
  Na  Na1  1  0.50000000  0.50000001  0.50000000  1
  Na  Na2  1  0.50000001  0.00000000  0.00000000  1
  Na  Na3  1  0.70390300  0.48599201  0.90328001  1
  Na  Na4  1  0.70432699  0.99995902  0.40542099  1
  Na  Na5  1  0.29567301  0.00004100  0.59457901  1
  Li  Li6  1  0.29609699  0.51400801  0.09671999  1
  Na  Na7  1  0.88462300  0.49032201  0.29279900  1
  Li  Li8  1  0.09501100  0.00829400  0.19316900  1
  Li  Li9  1  0.90498899  0.99170602  0.80683100  1
  O  O10  1  0.07671098  0.81217802  0.96275800  1
  O  O11  1  0.43433400  0.21887400  0.24170600  1
  O  O12  1  0.09371000  0.21675200  0.39347500  1
  O  O13  1  0.75086401  0.20060800  0.69046501  1
  O  O14  1  0.23458300  0.21588300  0.84283201  1
  O  O15  1  0.76541699  0.78411702  0.15716799  1
  O  O16  1  0.24913598  0.79939202  0.30953499  1
  O  O17  1  0.90629000  0.78324802  0.60652500  1
  O  O18  1  0.56566599  0.78112602  0.75829400  1
  O  O19  1  0.92328901  0.18782200  0.03724200  1
