# generated using pymatgen
data_ErZr3InGaSnPd9Au
_symmetry_space_group_name_H-M   'P 1'
_cell_length_a   7.46574020
_cell_length_b   7.46574020
_cell_length_c   7.46574020
_cell_angle_alpha   109.47122192
_cell_angle_beta   109.47122192
_cell_angle_gamma   109.47122192
_symmetry_Int_Tables_number   1
_chemical_formula_structural   ErZr3InGaSnPd9Au
_chemical_formula_sum   'Er1 Zr3 In1 Ga1 Sn1 Pd9 Au1'
_cell_volume   320.32933177
_cell_formula_units_Z   1
loop_
 _symmetry_equiv_pos_site_id
 _symmetry_equiv_pos_as_xyz
  1  'x, y, z'
loop_
 _atom_site_type_symbol
 _atom_site_label
 _atom_site_symmetry_multiplicity
 _atom_site_fract_x
 _atom_site_fract_y
 _atom_site_fract_z
 _atom_site_occupancy
  Er  Er0  1  0.50000002  0.50000001  0.50000003  1
  Zr  Zr1  1  1.00000001  0.50000001  1.00000002  1
  Zr  Zr2  1  0.00000000  0.00000000  0.49999999  1
  Zr  Zr3  1  0.49999999  0.00000000  0.00000001  1
  Ga  Ga4  1  0.50000004  0.75000001  0.25000005  1
  In  In5  1  0.75000000  0.25000000  0.50000002  1
  Sn  Sn6  1  0.25000003  0.50000001  0.75000001  1
  Au  Au7  1  0.25000004  0.75000001  0.50000003  1
  Pd  Pd8  1  0.50000001  0.25000000  0.75000001  1
  Pd  Pd9  1  0.75000002  0.50000001  0.25000004  1
  Pd  Pd10  1  1.00000003  0.70348201  0.70348204  1
  Pd  Pd11  1  0.70348203  0.70348201  0.00000006  1
  Pd  Pd12  1  0.70348199  0.00000000  0.70348200  1
  Pd  Pd13  1  0.00000002  0.29651800  0.29651801  1
  Pd  Pd14  1  0.29651801  0.29651800  0.00000002  1
  Pd  Pd15  1  0.29651799  0.00000000  0.29651800  1
  Pd  Pd16  1  0.00000000  0.00000000  0.00000000  1
