# generated using pymatgen
data_La2SmIn4Sn
_symmetry_space_group_name_H-M   'P 1'
_cell_length_a   5.37591600
_cell_length_b   5.37591696
_cell_length_c   9.56052971
_cell_angle_alpha   90.00000000
_cell_angle_beta   90.00000000
_cell_angle_gamma   119.99999237
_symmetry_Int_Tables_number   1
_chemical_formula_structural   La2SmIn4Sn
_chemical_formula_sum   'La2 Sm1 In4 Sn1'
_cell_volume   239.28619645
_cell_formula_units_Z   1
loop_
 _symmetry_equiv_pos_site_id
 _symmetry_equiv_pos_as_xyz
  1  'x, y, z'
loop_
 _atom_site_type_symbol
 _atom_site_label
 _atom_site_symmetry_multiplicity
 _atom_site_fract_x
 _atom_site_fract_y
 _atom_site_fract_z
 _atom_site_occupancy
  La  La0  1  0.66666666  0.33333333  0.08259800  1
  La  La1  1  0.33333331  0.66666667  0.58259802  1
  Sm  Sm2  1  0.00000000  0.00000000  0.75000002  1
  In  In3  1  0.00000000  0.00000000  0.25000001  1
  In  In4  1  0.66666666  0.33333333  0.41740201  1
  In  In5  1  0.33333331  0.66666667  0.91740203  1
  Sn  Sn6  1  0.33333331  0.66666667  0.25000001  1
  In  In7  1  0.66666666  0.33333333  0.75000002  1
