# generated using pymatgen
data_YEr(Al5Si2)2
_symmetry_space_group_name_H-M   'P 1'
_cell_length_a   5.33025885
_cell_length_b   7.81528187
_cell_length_c   7.81528139
_cell_angle_alpha   120.00000000
_cell_angle_beta   90.00000000
_cell_angle_gamma   90.00000000
_symmetry_Int_Tables_number   1
_chemical_formula_structural   YEr(Al5Si2)2
_chemical_formula_sum   'Y1 Er1 Al10 Si4'
_cell_volume   281.94746672
_cell_formula_units_Z   1
loop_
 _symmetry_equiv_pos_site_id
 _symmetry_equiv_pos_as_xyz
  1  'x, y, z'
loop_
 _atom_site_type_symbol
 _atom_site_label
 _atom_site_symmetry_multiplicity
 _atom_site_fract_x
 _atom_site_fract_y
 _atom_site_fract_z
 _atom_site_occupancy
  Er  Er0  1  0.25000001  0.25096700  0.99999998  1
  Al  Al1  1  0.25000001  0.74903299  0.74903295  1
  Al  Al2  1  0.25000001  0.00000000  0.25096700  1
  Y  Y3  1  0.75000002  0.74903299  -0.00000004  1
  Al  Al4  1  0.75000002  0.25096700  0.25096698  1
  Al  Al5  1  0.75000002  0.00000000  0.74903300  1
  Al  Al6  1  -0.00000000  0.33333333  0.66666664  1
  Al  Al7  1  -0.00000000  0.66666666  0.33333329  1
  Al  Al8  1  0.50000001  0.66666666  0.33333329  1
  Al  Al9  1  0.50000001  0.33333333  0.66666664  1
  Si  Si10  1  0.25000001  0.60139999  -0.00000003  1
  Si  Si11  1  0.25000001  0.39860000  0.39859998  1
  Si  Si12  1  0.25000001  0.00000000  0.60140000  1
  Si  Si13  1  0.75000002  0.39860000  0.99999997  1
  Al  Al14  1  0.75000002  0.60139999  0.60139996  1
  Al  Al15  1  0.75000002  0.00000000  0.39860000  1
