# generated using pymatgen
data_K3BaCuSeIBrO2
_symmetry_space_group_name_H-M   'P 1'
_cell_length_a   4.05881405
_cell_length_b   6.90901232
_cell_length_c   9.71252728
_cell_angle_alpha   91.67546844
_cell_angle_beta   90.00000000
_cell_angle_gamma   107.08159637
_symmetry_Int_Tables_number   1
_chemical_formula_structural   K3BaCuSeIBrO2
_chemical_formula_sum   'K3 Ba1 Cu1 Se1 I1 Br1 O2'
_cell_volume   260.22610298
_cell_formula_units_Z   1
loop_
 _symmetry_equiv_pos_site_id
 _symmetry_equiv_pos_as_xyz
  1  'x, y, z'
loop_
 _atom_site_type_symbol
 _atom_site_label
 _atom_site_symmetry_multiplicity
 _atom_site_fract_x
 _atom_site_fract_y
 _atom_site_fract_z
 _atom_site_occupancy
  Ba  Ba0  1  0.00000000  0.00000000  0.50000001  1
  K  K1  1  0.00000000  0.00000000  0.00000000  1
  K  K2  1  0.28237600  0.56475201  0.69397804  1
  K  K3  1  0.71762400  0.43524801  0.30602203  1
  Cu  Cu4  1  0.35561801  0.71123601  0.44609004  1
  Se  Se5  1  0.91811600  0.83623201  0.74380906  1
  O  O6  1  0.64438200  0.28876400  0.55391003  1
  O  O7  1  0.08188400  0.16376800  0.25619101  1
  Br  Br8  1  0.36171701  0.72343401  0.07191103  1
  I  I9  1  0.63828300  0.27656600  0.92808904  1
