# generated using pymatgen
data_MnAl(SiNi2)2
_symmetry_space_group_name_H-M   'P 1'
_cell_length_a   4.50264788
_cell_length_b   4.50908899
_cell_length_c   4.51983833
_cell_angle_alpha   90.88026428
_cell_angle_beta   90.00000000
_cell_angle_gamma   90.00000000
_symmetry_Int_Tables_number   1
_chemical_formula_structural   MnAl(SiNi2)2
_chemical_formula_sum   'Mn1 Al1 Si2 Ni4'
_cell_volume   91.75472458
_cell_formula_units_Z   1
loop_
 _symmetry_equiv_pos_site_id
 _symmetry_equiv_pos_as_xyz
  1  'x, y, z'
loop_
 _atom_site_type_symbol
 _atom_site_label
 _atom_site_symmetry_multiplicity
 _atom_site_fract_x
 _atom_site_fract_y
 _atom_site_fract_z
 _atom_site_occupancy
  Mn  Mn0  1  0.64358102  0.36233900  0.60939400  1
  Al  Al1  1  0.14358100  0.63766100  0.39060599  1
  Ni  Ni2  1  0.33927301  0.65402000  0.90532900  1
  Ni  Ni3  1  0.83927302  0.34598000  0.09467099  1
  Ni  Ni4  1  0.65633502  0.84821800  0.41345798  1
  Ni  Ni5  1  0.15633500  0.15178200  0.58654201  1
  Si  Si6  1  0.36081201  0.14166300  0.10553200  1
  Si  Si7  1  0.86081202  0.85833700  0.89446799  1
