# generated using pymatgen
data_LaY2InSn2Au3
_symmetry_space_group_name_H-M   'P 1'
_cell_length_a   4.08192921
_cell_length_b   7.49601221
_cell_length_c   7.49601221
_cell_angle_alpha   120.00000000
_cell_angle_beta   90.00000000
_cell_angle_gamma   90.00000000
_symmetry_Int_Tables_number   1
_chemical_formula_structural   LaY2InSn2Au3
_chemical_formula_sum   'La1 Y2 In1 Sn2 Au3'
_cell_volume   198.63540986
_cell_formula_units_Z   1
loop_
 _symmetry_equiv_pos_site_id
 _symmetry_equiv_pos_as_xyz
  1  'x, y, z'
loop_
 _atom_site_type_symbol
 _atom_site_label
 _atom_site_symmetry_multiplicity
 _atom_site_fract_x
 _atom_site_fract_y
 _atom_site_fract_z
 _atom_site_occupancy
  Y  Y0  1  -0.00000000  0.99999998  0.41382601  1
  Y  Y1  1  -0.00000000  0.41382599  0.00000001  1
  La  La2  1  0.99999995  0.58617399  0.58617400  1
  In  In3  1  0.49999997  0.74723198  0.00000001  1
  Sn  Sn4  1  0.49999997  0.99999998  0.74723201  1
  Sn  Sn5  1  0.49999997  0.25276799  0.25276800  1
  Au  Au6  1  0.49999997  0.33333333  0.66666667  1
  Au  Au7  1  0.49999997  0.66666665  0.33333334  1
  Au  Au8  1  0.00000000  0.00000000  0.00000000  1
