# generated using pymatgen
data_La7Er(Sn2Au)2
_symmetry_space_group_name_H-M   'P 1'
_cell_length_a   7.98596478
_cell_length_b   7.98596478
_cell_length_c   7.98596478
_cell_angle_alpha   109.47122192
_cell_angle_beta   109.47122192
_cell_angle_gamma   109.47122192
_symmetry_Int_Tables_number   1
_chemical_formula_structural   La7Er(Sn2Au)2
_chemical_formula_sum   'La7 Er1 Sn4 Au2'
_cell_volume   392.06697264
_cell_formula_units_Z   1
loop_
 _symmetry_equiv_pos_site_id
 _symmetry_equiv_pos_as_xyz
  1  'x, y, z'
loop_
 _atom_site_type_symbol
 _atom_site_label
 _atom_site_symmetry_multiplicity
 _atom_site_fract_x
 _atom_site_fract_y
 _atom_site_fract_z
 _atom_site_occupancy
  Er  Er0  1  0.64590006  0.64590004  0.14590005  1
  La  La1  1  0.14590001  0.14590001  0.64590002  1
  La  La2  1  0.35410001  0.00000000  1.00000003  1
  La  La3  1  0.50000007  0.85410005  0.50000007  1
  La  La4  1  0.85410009  1.00000006  1.00000010  1
  La  La5  1  1.00000006  0.50000003  0.85410007  1
  La  La6  1  0.50000004  0.35410002  0.50000004  1
  La  La7  1  1.00000006  0.50000003  0.35410006  1
  Sn  Sn8  1  0.12500006  0.87500005  0.25000006  1
  Sn  Sn9  1  0.25000003  0.37500002  0.12500003  1
  Sn  Sn10  1  0.75000003  0.12500001  0.37500003  1
  Au  Au11  1  0.37500005  0.62500004  0.75000006  1
  Sn  Sn12  1  0.87500007  0.75000004  0.62500007  1
  Au  Au13  1  0.62500003  0.25000001  0.87500005  1
