# generated using pymatgen
data_YErAl2(SiNi)2
_symmetry_space_group_name_H-M   'P 1'
_cell_length_a   4.06843996
_cell_length_b   4.14590979
_cell_length_c   8.47093010
_cell_angle_alpha   104.16493225
_cell_angle_beta   90.00000000
_cell_angle_gamma   90.00000000
_symmetry_Int_Tables_number   1
_chemical_formula_structural   YErAl2(SiNi)2
_chemical_formula_sum   'Y1 Er1 Al2 Si2 Ni2'
_cell_volume   138.53814314
_cell_formula_units_Z   1
loop_
 _symmetry_equiv_pos_site_id
 _symmetry_equiv_pos_as_xyz
  1  'x, y, z'
loop_
 _atom_site_type_symbol
 _atom_site_label
 _atom_site_symmetry_multiplicity
 _atom_site_fract_x
 _atom_site_fract_y
 _atom_site_fract_z
 _atom_site_occupancy
  Y  Y0  1  0.75000001  0.89343205  0.78686400  1
  Er  Er1  1  0.25000000  0.10656801  0.21313600  1
  Al  Al2  1  0.75000001  0.24999401  0.49998800  1
  Al  Al3  1  0.25000000  0.75000604  0.50001200  1
  Si  Si4  1  0.25000000  0.45945303  0.91890599  1
  Si  Si5  1  0.75000001  0.54054703  0.08109400  1
  Ni  Ni6  1  0.25000000  0.31879702  0.63759399  1
  Ni  Ni7  1  0.75000001  0.68120304  0.36240600  1
