# generated using pymatgen
data_Li2TlHg3
_symmetry_space_group_name_H-M   'P 1'
_cell_length_a   5.05846214
_cell_length_b   5.05846167
_cell_length_c   6.29980278
_cell_angle_alpha   90.00000000
_cell_angle_beta   90.00000000
_cell_angle_gamma   120.00000000
_symmetry_Int_Tables_number   1
_chemical_formula_structural   Li2TlHg3
_chemical_formula_sum   'Li2 Tl1 Hg3'
_cell_volume   139.60293623
_cell_formula_units_Z   1
loop_
 _symmetry_equiv_pos_site_id
 _symmetry_equiv_pos_as_xyz
  1  'x, y, z'
loop_
 _atom_site_type_symbol
 _atom_site_label
 _atom_site_symmetry_multiplicity
 _atom_site_fract_x
 _atom_site_fract_y
 _atom_site_fract_z
 _atom_site_occupancy
  Li  Li0  1  0.00000000  0.00000000  0.00000000  1
  Li  Li1  1  0.00000000  0.00000000  0.50000002  1
  Tl  Tl2  1  0.66666662  0.33333331  0.25000001  1
  Hg  Hg3  1  0.33333328  0.66666662  0.75000003  1
  Hg  Hg4  1  0.66666662  0.33333331  0.75000003  1
  Hg  Hg5  1  0.33333328  0.66666662  0.25000001  1
