# generated using pymatgen
data_PrEuYErGa2Si4(Ni4Ru)2
_symmetry_space_group_name_H-M   'P 1'
_cell_length_a   6.09358406
_cell_length_b   8.43307781
_cell_length_c   8.43307877
_cell_angle_alpha   73.99565887
_cell_angle_beta   68.82051849
_cell_angle_gamma   68.82051086
_symmetry_Int_Tables_number   1
_chemical_formula_structural   PrEuYErGa2Si4(Ni4Ru)2
_chemical_formula_sum   'Pr1 Eu1 Y1 Er1 Ga2 Si4 Ni8 Ru2'
_cell_volume   371.50015983
_cell_formula_units_Z   1
loop_
 _symmetry_equiv_pos_site_id
 _symmetry_equiv_pos_as_xyz
  1  'x, y, z'
loop_
 _atom_site_type_symbol
 _atom_site_label
 _atom_site_symmetry_multiplicity
 _atom_site_fract_x
 _atom_site_fract_y
 _atom_site_fract_z
 _atom_site_occupancy
  Eu  Eu0  1  0.13353796  0.59826400  0.13465999  1
  Y  Y1  1  0.86646194  0.40173600  0.86533999  1
  Pr  Pr2  1  0.63353797  0.13466000  0.59826400  1
  Er  Er3  1  0.36646193  0.86534000  0.40173598  1
  Ga  Ga4  1  0.74999994  0.50000000  0.50000000  1
  Ga  Ga5  1  0.24999996  0.50000000  0.49999998  1
  Ni  Ni6  1  0.97356592  0.77643400  0.77643399  1
  Ni  Ni7  1  0.52643397  0.22356600  0.22356601  1
  Ni  Ni8  1  0.02643398  0.22356600  0.22356599  1
  Ni  Ni9  1  0.47356593  0.77643400  0.77643397  1
  Ni  Ni10  1  0.39944497  0.25988500  0.94122497  1
  Si  Si11  1  0.60055493  0.74011500  0.05877501  1
  Si  Si12  1  0.89944491  0.94122500  0.25988501  1
  Ni  Ni13  1  0.10055499  0.05877500  0.74011497  1
  Ru  Ru14  1  0.74999998  0.00000000  0.00000003  1
  Ni  Ni15  1  0.24999999  0.00000000  0.99999996  1
  Si  Si16  1  0.35981895  0.53225000  0.74811197  1
  Ru  Ru17  1  0.64018095  0.46775000  0.25188801  1
  Ni  Ni18  1  0.85981992  0.74811200  0.53224900  1
  Si  Si19  1  0.14017998  0.25188800  0.46775098  1
