# generated using pymatgen
data_TaMnMo2Pd3Rh
_symmetry_space_group_name_H-M   'P 1'
_cell_length_a   4.36631584
_cell_length_b   5.51193810
_cell_length_c   5.51193857
_cell_angle_alpha   60.00000381
_cell_angle_beta   90.00000000
_cell_angle_gamma   90.00000000
_symmetry_Int_Tables_number   1
_chemical_formula_structural   TaMnMo2Pd3Rh
_chemical_formula_sum   'Ta1 Mn1 Mo2 Pd3 Rh1'
_cell_volume   114.88266359
_cell_formula_units_Z   1
loop_
 _symmetry_equiv_pos_site_id
 _symmetry_equiv_pos_as_xyz
  1  'x, y, z'
loop_
 _atom_site_type_symbol
 _atom_site_label
 _atom_site_symmetry_multiplicity
 _atom_site_fract_x
 _atom_site_fract_y
 _atom_site_fract_z
 _atom_site_occupancy
  Ta  Ta0  1  0.25000001  0.33333333  0.33333334  1
  Mn  Mn1  1  0.75000003  0.66666665  0.66666667  1
  Mo  Mo2  1  0.75000003  0.66208299  0.16895800  1
  Mo  Mo3  1  0.75000003  0.16895900  0.16895800  1
  Rh  Rh4  1  0.75000003  0.16895900  0.66208200  1
  Pd  Pd5  1  0.25000001  0.33791699  0.83104200  1
  Pd  Pd6  1  0.25000001  0.83104098  0.83104201  1
  Pd  Pd7  1  0.25000001  0.83104098  0.33791801  1
