# generated using pymatgen
data_BaLa3Tl3In2Sn3
_symmetry_space_group_name_H-M   'P 1'
_cell_length_a   6.92026615
_cell_length_b   6.92026615
_cell_length_c   9.57387924
_cell_angle_alpha   90.00000000
_cell_angle_beta   90.00000000
_cell_angle_gamma   90.00000000
_symmetry_Int_Tables_number   1
_chemical_formula_structural   BaLa3Tl3In2Sn3
_chemical_formula_sum   'Ba1 La3 Tl3 In2 Sn3'
_cell_volume   458.49387734
_cell_formula_units_Z   1
loop_
 _symmetry_equiv_pos_site_id
 _symmetry_equiv_pos_as_xyz
  1  'x, y, z'
loop_
 _atom_site_type_symbol
 _atom_site_label
 _atom_site_symmetry_multiplicity
 _atom_site_fract_x
 _atom_site_fract_y
 _atom_site_fract_z
 _atom_site_occupancy
  Ba  Ba0  1  0.49999999  0.49999999  0.00000000  1
  La  La1  1  0.00000000  0.00000000  0.00000000  1
  La  La2  1  0.49999999  0.49999999  0.49999999  1
  La  La3  1  0.00000000  0.00000000  0.49999999  1
  Tl  Tl4  1  0.35580499  0.85580498  0.30630499  1
  In  In5  1  0.85580498  0.64419499  0.30630499  1
  Tl  Tl6  1  0.14419500  0.35580499  0.30630499  1
  In  In7  1  0.64419499  0.14419500  0.30630499  1
  Sn  Sn8  1  0.14419500  0.64419499  0.69369498  1
  Tl  Tl9  1  0.64419499  0.85580498  0.69369498  1
  Sn  Sn10  1  0.35580499  0.14419500  0.69369498  1
  Sn  Sn11  1  0.85580498  0.35580499  0.69369498  1
