# generated using pymatgen
data_Sr3LiCaBiAu4
_symmetry_space_group_name_H-M   'P 1'
_cell_length_a   7.48102188
_cell_length_b   7.48486757
_cell_length_c   8.50062943
_cell_angle_alpha   113.77392578
_cell_angle_beta   90.00000000
_cell_angle_gamma   119.98300934
_symmetry_Int_Tables_number   1
_chemical_formula_structural   Sr3LiCaBiAu4
_chemical_formula_sum   'Sr3 Li1 Ca1 Bi1 Au4'
_cell_volume   364.91371651
_cell_formula_units_Z   1
loop_
 _symmetry_equiv_pos_site_id
 _symmetry_equiv_pos_as_xyz
  1  'x, y, z'
loop_
 _atom_site_type_symbol
 _atom_site_label
 _atom_site_symmetry_multiplicity
 _atom_site_fract_x
 _atom_site_fract_y
 _atom_site_fract_z
 _atom_site_occupancy
  Li  Li0  1  0.27418604  0.54837202  0.77046001  1
  Sr  Sr1  1  0.72581404  0.45162801  0.22954002  1
  Sr  Sr2  1  0.00000000  0.00000000  0.00000000  1
  Ca  Ca3  1  0.50000001  0.00000000  0.49999999  1
  Sr  Sr4  1  0.72730808  0.92614803  0.17740404  1
  Au  Au5  1  0.80116002  0.07385200  0.82259599  1
  Au  Au6  1  0.27269201  0.07385200  0.82259599  1
  Au  Au7  1  0.19884007  0.92614803  0.17740404  1
  Bi  Bi8  1  0.71328804  0.42657601  0.63493201  1
  Au  Au9  1  0.28671204  0.57342402  0.36506802  1
