# generated using pymatgen
data_NbTlCu3SbTeSeS8
_symmetry_space_group_name_H-M   'P 1'
_cell_length_a   7.26591778
_cell_length_b   7.88277292
_cell_length_c   8.79126167
_cell_angle_alpha   90.00000000
_cell_angle_beta   90.00000000
_cell_angle_gamma   90.00000000
_symmetry_Int_Tables_number   1
_chemical_formula_structural   NbTlCu3SbTeSeS8
_chemical_formula_sum   'Nb1 Tl1 Cu3 Sb1 Te1 Se1 S8'
_cell_volume   503.52461053
_cell_formula_units_Z   1
loop_
 _symmetry_equiv_pos_site_id
 _symmetry_equiv_pos_as_xyz
  1  'x, y, z'
loop_
 _atom_site_type_symbol
 _atom_site_label
 _atom_site_symmetry_multiplicity
 _atom_site_fract_x
 _atom_site_fract_y
 _atom_site_fract_z
 _atom_site_occupancy
  Cu  Cu0  1  0.09414300  0.17208200  0.39341601  1
  Nb  Nb1  1  0.59414302  0.32791800  0.60658402  1
  Te  Te2  1  0.40585701  0.82791801  0.89341603  1
  Tl  Tl3  1  0.90585703  0.67208201  0.10658400  1
  Cu  Cu4  1  0.24984901  0.26655400  0.98837204  1
  Sb  Sb5  1  0.25015101  0.73344601  0.48837302  1
  Se  Se6  1  0.75015102  0.76655401  0.51162802  1
  Cu  Cu7  1  0.74984902  0.23344600  0.01162800  1
  S  S8  1  0.00178800  0.35615900  0.14991201  1
  S  S9  1  0.49821202  0.64384101  0.64991202  1
  S  S10  1  0.99821203  0.85615901  0.35008801  1
  S  S11  1  0.50178802  0.14384100  0.85008803  1
  S  S12  1  0.00733100  0.87780101  0.86075703  1
  S  S13  1  0.50733102  0.62219901  0.13924301  1
  S  S14  1  0.49266902  0.12219900  0.36075701  1
  S  S15  1  0.99266903  0.37780100  0.63924302  1
