# generated using pymatgen
data_LiMnFeN3
_symmetry_space_group_name_H-M   'P 1'
_cell_length_a   3.03750992
_cell_length_b   4.47875404
_cell_length_c   4.52951193
_cell_angle_alpha   90.00000000
_cell_angle_beta   90.00000000
_cell_angle_gamma   90.00000000
_symmetry_Int_Tables_number   1
_chemical_formula_structural   LiMnFeN3
_chemical_formula_sum   'Li1 Mn1 Fe1 N3'
_cell_volume   61.62065717
_cell_formula_units_Z   1
loop_
 _symmetry_equiv_pos_site_id
 _symmetry_equiv_pos_as_xyz
  1  'x, y, z'
loop_
 _atom_site_type_symbol
 _atom_site_label
 _atom_site_symmetry_multiplicity
 _atom_site_fract_x
 _atom_site_fract_y
 _atom_site_fract_z
 _atom_site_occupancy
  Li  Li0  1  0.50000001  0.00000000  -0.00000000  1
  Mn  Mn1  1  0.00000000  0.50000000  0.50000001  1
  Fe  Fe2  1  0.50000001  0.29026700  0.30832600  1
  N  N3  1  0.50000001  0.70973299  0.69167401  1
  N  N4  1  0.00000000  0.20973300  0.80832601  1
  N  N5  1  0.00000000  0.79026699  0.19167400  1
