# generated using pymatgen
data_Li6MnNiO10
_symmetry_space_group_name_H-M   'P 1'
_cell_length_a   4.74463177
_cell_length_b   4.74750805
_cell_length_c   9.21801472
_cell_angle_alpha   89.85050201
_cell_angle_beta   90.00000000
_cell_angle_gamma   90.00000000
_symmetry_Int_Tables_number   1
_chemical_formula_structural   Li6MnNiO10
_chemical_formula_sum   'Li6 Mn1 Ni1 O10'
_cell_volume   207.63671094
_cell_formula_units_Z   1
loop_
 _symmetry_equiv_pos_site_id
 _symmetry_equiv_pos_as_xyz
  1  'x, y, z'
loop_
 _atom_site_type_symbol
 _atom_site_label
 _atom_site_symmetry_multiplicity
 _atom_site_fract_x
 _atom_site_fract_y
 _atom_site_fract_z
 _atom_site_occupancy
  Li  Li0  1  0.74925904  0.99226599  0.00293100  1
  Li  Li1  1  0.25074101  0.49226599  0.50293098  1
  Li  Li2  1  0.76098404  0.98809999  0.32223799  1
  Li  Li3  1  0.77160204  0.02314400  0.66759698  1
  Li  Li4  1  0.23901601  0.48809999  0.82223797  1
  Li  Li5  1  0.22839801  0.52314399  0.16759700  1
  O  O6  1  0.94898305  0.79871599  0.17408900  1
  Mn  Mn7  1  0.05101700  0.29871600  0.67408898  1
  O  O8  1  0.94940105  0.79922099  0.83037997  1
  Ni  Ni9  1  0.93961305  0.80774399  0.49926499  1
  O  O10  1  0.06038700  0.30774400  0.99926496  1
  O  O11  1  0.05059900  0.29922100  0.33037999  1
  O  O12  1  0.43651702  0.68353199  0.99631597  1
  O  O13  1  0.46135502  0.70920199  0.67566298  1
  O  O14  1  0.44907102  0.69807799  0.33151999  1
  O  O15  1  0.55092903  0.19807800  0.83151997  1
  O  O16  1  0.56348303  0.18353200  0.49631598  1
  O  O17  1  0.53864503  0.20920200  0.17566299  1
