# generated using pymatgen
data_YErScSi6
_symmetry_space_group_name_H-M   'P 1'
_cell_length_a   3.61019611
_cell_length_b   6.54934978
_cell_length_c   6.54934978
_cell_angle_alpha   120.00000000
_cell_angle_beta   90.00000000
_cell_angle_gamma   90.00000000
_symmetry_Int_Tables_number   1
_chemical_formula_structural   YErScSi6
_chemical_formula_sum   'Y1 Er1 Sc1 Si6'
_cell_volume   134.10896085
_cell_formula_units_Z   1
loop_
 _symmetry_equiv_pos_site_id
 _symmetry_equiv_pos_as_xyz
  1  'x, y, z'
loop_
 _atom_site_type_symbol
 _atom_site_label
 _atom_site_symmetry_multiplicity
 _atom_site_fract_x
 _atom_site_fract_y
 _atom_site_fract_z
 _atom_site_occupancy
  Er  Er0  1  0.49999998  0.40415700  0.40415697  1
  Sc  Sc1  1  0.49999998  0.59584301  -0.00000003  1
  Y  Y2  1  0.49999998  0.00000000  0.59584298  1
  Si  Si3  1  -0.00000000  0.66666667  0.33333330  1
  Si  Si4  1  -0.00000000  0.33333334  0.66666663  1
  Si  Si5  1  0.49999998  0.00000000  -0.00000000  1
  Si  Si6  1  0.99999997  0.00000000  0.25765899  1
  Si  Si7  1  -0.00000000  0.74234101  0.74234095  1
  Si  Si8  1  -0.00000000  0.25765900  -0.00000001  1
