# generated using pymatgen
data_MgCu2Ge3(As2P)2
_symmetry_space_group_name_H-M   'P 1'
_cell_length_a   6.38227510
_cell_length_b   6.38227510
_cell_length_c   6.38227510
_cell_angle_alpha   90.00000000
_cell_angle_beta   90.00000000
_cell_angle_gamma   90.00000000
_symmetry_Int_Tables_number   1
_chemical_formula_structural   MgCu2Ge3(As2P)2
_chemical_formula_sum   'Mg1 Cu2 Ge3 As4 P2'
_cell_volume   259.97199138
_cell_formula_units_Z   1
loop_
 _symmetry_equiv_pos_site_id
 _symmetry_equiv_pos_as_xyz
  1  'x, y, z'
loop_
 _atom_site_type_symbol
 _atom_site_label
 _atom_site_symmetry_multiplicity
 _atom_site_fract_x
 _atom_site_fract_y
 _atom_site_fract_z
 _atom_site_occupancy
  Cu  Cu0  1  0.13013700  0.63013699  0.86986299  1
  Mg  Mg1  1  0.63013699  0.86986299  0.13013700  1
  Cu  Cu2  1  0.86986299  0.13013700  0.63013699  1
  Ge  Ge3  1  0.36986299  0.36986299  0.36986299  1
  Ge  Ge4  1  0.48551499  0.98551498  0.51448499  1
  As  As5  1  0.98551498  0.51448499  0.48551499  1
  P  P6  1  0.51448499  0.48551499  0.98551498  1
  As  As7  1  0.01448500  0.01448500  0.01448500  1
  P  P8  1  0.87974299  0.37974299  0.12025700  1
  As  As9  1  0.37974299  0.12025700  0.87974299  1
  As  As10  1  0.12025700  0.87974299  0.37974299  1
  Ge  Ge11  1  0.62025699  0.62025699  0.62025699  1
