# generated using pymatgen
data_BaLi2ZnO6
_symmetry_space_group_name_H-M   'P 1'
_cell_length_a   5.65619755
_cell_length_b   5.65619755
_cell_length_c   5.65619755
_cell_angle_alpha   90.36399841
_cell_angle_beta   119.79006958
_cell_angle_gamma   119.79006958
_symmetry_Int_Tables_number   1
_chemical_formula_structural   BaLi2ZnO6
_chemical_formula_sum   'Ba1 Li2 Zn1 O6'
_cell_volume   128.35863425
_cell_formula_units_Z   1
loop_
 _symmetry_equiv_pos_site_id
 _symmetry_equiv_pos_as_xyz
  1  'x, y, z'
loop_
 _atom_site_type_symbol
 _atom_site_label
 _atom_site_symmetry_multiplicity
 _atom_site_fract_x
 _atom_site_fract_y
 _atom_site_fract_z
 _atom_site_occupancy
  Li  Li0  1  0.50000006  0.75000003  0.25000002  1
  Ba  Ba1  1  0.50000003  0.25000001  0.75000003  1
  Li  Li2  1  0.00000003  0.50000002  0.50000000  1
  Zn  Zn3  1  0.00000000  0.00000000  0.00000000  1
  O  O4  1  0.51491103  0.23567701  0.27923403  1
  O  O5  1  0.48508906  0.76432303  0.72076603  1
  O  O6  1  0.95644308  0.72076603  0.23567704  1
  O  O7  1  0.04355702  0.27923401  0.76432301  1
  O  O8  1  0.00000002  0.25258801  0.25258800  1
  O  O9  1  0.00000004  0.74741203  0.74741200  1
