# generated using pymatgen
data_Li2Mg2Cu
_symmetry_space_group_name_H-M   'P 1'
_cell_length_a   4.12246418
_cell_length_b   4.12246418
_cell_length_c   5.49638605
_cell_angle_alpha   90.00000000
_cell_angle_beta   90.00000000
_cell_angle_gamma   90.00000000
_symmetry_Int_Tables_number   1
_chemical_formula_structural   Li2Mg2Cu
_chemical_formula_sum   'Li2 Mg2 Cu1'
_cell_volume   93.40949202
_cell_formula_units_Z   1
loop_
 _symmetry_equiv_pos_site_id
 _symmetry_equiv_pos_as_xyz
  1  'x, y, z'
loop_
 _atom_site_type_symbol
 _atom_site_label
 _atom_site_symmetry_multiplicity
 _atom_site_fract_x
 _atom_site_fract_y
 _atom_site_fract_z
 _atom_site_occupancy
  Li  Li0  1  0.49999998  0.49999998  0.68519799  1
  Li  Li1  1  0.00000000  0.00000000  0.97253299  1
  Mg  Mg2  1  0.49999998  0.00000000  0.19810400  1
  Mg  Mg3  1  0.00000000  0.49999998  0.19810400  1
  Cu  Cu4  1  0.00000000  0.00000000  0.55426199  1
