# generated using pymatgen
data_Li2MgInCu2
_symmetry_space_group_name_H-M   'P 1'
_cell_length_a   5.45491409
_cell_length_b   5.45491409
_cell_length_c   5.45491409
_cell_angle_alpha   106.29489899
_cell_angle_beta   106.29489899
_cell_angle_gamma   116.02972412
_symmetry_Int_Tables_number   1
_chemical_formula_structural   Li2MgInCu2
_chemical_formula_sum   'Li2 Mg1 In1 Cu2'
_cell_volume   123.71001642
_cell_formula_units_Z   1
loop_
 _symmetry_equiv_pos_site_id
 _symmetry_equiv_pos_as_xyz
  1  'x, y, z'
loop_
 _atom_site_type_symbol
 _atom_site_label
 _atom_site_symmetry_multiplicity
 _atom_site_fract_x
 _atom_site_fract_y
 _atom_site_fract_z
 _atom_site_occupancy
  Li  Li0  1  0.32839298  0.17160699  0.49999997  1
  Li  Li1  1  0.67160692  0.82839295  0.49999989  1
  Mg  Mg2  1  0.17160693  0.67160696  0.84321394  1
  In  In3  1  0.82839297  0.32839298  0.15678593  1
  Cu  Cu4  1  0.24999997  0.24999999  -0.00000004  1
  Cu  Cu5  1  0.74999992  0.74999996  -0.00000011  1
