# generated using pymatgen
data_PaCd
_symmetry_space_group_name_H-M   'P 1'
_cell_length_a   3.37653589
_cell_length_b   3.37653613
_cell_length_c   5.28285408
_cell_angle_alpha   90.00000000
_cell_angle_beta   90.00000000
_cell_angle_gamma   120.00000000
_symmetry_Int_Tables_number   1
_chemical_formula_structural   PaCd
_chemical_formula_sum   'Pa1 Cd1'
_cell_volume   52.16053277
_cell_formula_units_Z   1
loop_
 _symmetry_equiv_pos_site_id
 _symmetry_equiv_pos_as_xyz
  1  'x, y, z'
loop_
 _atom_site_type_symbol
 _atom_site_label
 _atom_site_symmetry_multiplicity
 _atom_site_fract_x
 _atom_site_fract_y
 _atom_site_fract_z
 _atom_site_occupancy
  Pa  Pa0  1  0.66666669  0.33333333  -0.00000000  1
  Cd  Cd1  1  0.33333335  0.66666665  0.49999999  1
