# generated using pymatgen
data_Y2Er4Al(GaSi2)2
_symmetry_space_group_name_H-M   'P 1'
_cell_length_a   5.60349417
_cell_length_b   7.25643826
_cell_length_c   7.25643826
_cell_angle_alpha   81.47463989
_cell_angle_beta   67.28764343
_cell_angle_gamma   67.28764343
_symmetry_Int_Tables_number   1
_chemical_formula_structural   Y2Er4Al(GaSi2)2
_chemical_formula_sum   'Y2 Er4 Al1 Ga2 Si4'
_cell_volume   251.07065534
_cell_formula_units_Z   1
loop_
 _symmetry_equiv_pos_site_id
 _symmetry_equiv_pos_as_xyz
  1  'x, y, z'
loop_
 _atom_site_type_symbol
 _atom_site_label
 _atom_site_symmetry_multiplicity
 _atom_site_fract_x
 _atom_site_fract_y
 _atom_site_fract_z
 _atom_site_occupancy
  Er  Er0  1  -0.00000000  0.00085400  0.99914600  1
  Er  Er1  1  -0.00000003  0.65747800  0.34252204  1
  Er  Er2  1  -0.00000001  0.33530500  0.66469502  1
  Y  Y3  1  0.34162797  0.64635900  0.67038504  1
  Y  Y4  1  0.65837197  0.32961500  0.35364102  1
  Er  Er5  1  0.49999996  0.77503900  0.22496105  1
  Ga  Ga6  1  0.29858898  0.21348800  0.18933401  1
  Ga  Ga7  1  0.70141095  0.81066600  0.78651205  1
  Si  Si8  1  0.49138399  0.00787400  0.50449100  1
  Si  Si9  1  0.99625097  0.00787400  0.50449100  1
  Si  Si10  1  0.00374898  0.49550900  0.99212603  1
  Al  Al11  1  0.50861597  0.49550900  0.99212603  1
  Si  Si12  1  0.49999998  0.22443000  0.77557001  1
