# generated using pymatgen
data_Na3SrMnV(CuO6)2
_symmetry_space_group_name_H-M   'P 1'
_cell_length_a   5.75165415
_cell_length_b   5.75490618
_cell_length_c   8.19661999
_cell_angle_alpha   90.00000000
_cell_angle_beta   90.00000000
_cell_angle_gamma   90.00000000
_symmetry_Int_Tables_number   1
_chemical_formula_structural   Na3SrMnV(CuO6)2
_chemical_formula_sum   'Na3 Sr1 Mn1 V1 Cu2 O12'
_cell_volume   271.31000671
_cell_formula_units_Z   1
loop_
 _symmetry_equiv_pos_site_id
 _symmetry_equiv_pos_as_xyz
  1  'x, y, z'
loop_
 _atom_site_type_symbol
 _atom_site_label
 _atom_site_symmetry_multiplicity
 _atom_site_fract_x
 _atom_site_fract_y
 _atom_site_fract_z
 _atom_site_occupancy
  Na  Na0  1  0.00026200  0.98252997  0.75000000  1
  Sr  Sr1  1  0.49973799  0.48252999  0.75000000  1
  Na  Na2  1  0.50026199  0.51746998  0.25000000  1
  Na  Na3  1  0.99973797  0.01747000  0.25000000  1
  Cu  Cu4  1  0.49999999  0.00000000  0.50000000  1
  Mn  Mn5  1  -0.00000000  0.49999998  -0.00000000  1
  Cu  Cu6  1  -0.00000000  0.49999998  0.50000000  1
  V  V7  1  0.49999999  0.00000000  0.00000000  1
  O  O8  1  0.71892698  0.28088199  0.48110200  1
  O  O9  1  0.78107298  0.78088198  0.01889800  1
  O  O10  1  0.21892699  0.21911799  0.51889800  1
  O  O11  1  0.28107299  0.71911798  0.98110200  1
  O  O12  1  0.28107299  0.71911798  0.51889800  1
  O  O13  1  0.21892699  0.21911799  0.98110200  1
  O  O14  1  0.78107298  0.78088198  0.48110200  1
  O  O15  1  0.71892698  0.28088199  0.01889800  1
  O  O16  1  0.03769200  0.49428698  0.25000000  1
  O  O17  1  0.46230799  0.99428697  0.25000000  1
  O  O18  1  0.53769199  0.00571300  0.75000000  1
  O  O19  1  0.96230798  0.50571298  0.75000000  1
