# generated using pymatgen
data_Li6CuO7
_symmetry_space_group_name_H-M   'P 1'
_cell_length_a   5.32449293
_cell_length_b   5.32449293
_cell_length_c   7.51982021
_cell_angle_alpha   97.97255707
_cell_angle_beta   110.19456482
_cell_angle_gamma   108.45581818
_symmetry_Int_Tables_number   1
_chemical_formula_structural   Li6CuO7
_chemical_formula_sum   'Li6 Cu1 O7'
_cell_volume   182.28055136
_cell_formula_units_Z   1
loop_
 _symmetry_equiv_pos_site_id
 _symmetry_equiv_pos_as_xyz
  1  'x, y, z'
loop_
 _atom_site_type_symbol
 _atom_site_label
 _atom_site_symmetry_multiplicity
 _atom_site_fract_x
 _atom_site_fract_y
 _atom_site_fract_z
 _atom_site_occupancy
  Li  Li0  1  0.72215599  0.47215599  0.25000001  1
  Li  Li1  1  0.27784401  0.52784399  0.75000003  1
  Li  Li2  1  0.49999998  0.00000000  0.50000000  1
  Li  Li3  1  0.00000000  0.00000000  0.00000000  1
  Li  Li4  1  0.62238101  0.87238098  0.75000004  1
  Li  Li5  1  0.37761899  0.12761900  0.25000001  1
  O  O6  1  0.14563603  0.77755199  0.87088004  1
  Cu  Cu7  1  0.40667199  0.27475599  0.62912002  1
  O  O8  1  0.87419998  0.28794299  0.55307101  1
  O  O9  1  0.23487200  0.32112899  0.94692902  1
  O  O10  1  0.12580002  0.71205699  0.44692903  1
  O  O11  1  0.76512800  0.67887099  0.05307102  1
  O  O12  1  0.59332801  0.72524399  0.37088003  1
  O  O13  1  0.85436397  0.22244800  0.12912000  1
