# generated using pymatgen
data_YMgFeCu2P15
_symmetry_space_group_name_H-M   'P 1'
_cell_length_a   6.61844873
_cell_length_b   6.61844873
_cell_length_c   8.61647034
_cell_angle_alpha   90.00000000
_cell_angle_beta   90.00000000
_cell_angle_gamma   117.31186676
_symmetry_Int_Tables_number   1
_chemical_formula_structural   YMgFeCu2P15
_chemical_formula_sum   'Y1 Mg1 Fe1 Cu2 P15'
_cell_volume   335.35911055
_cell_formula_units_Z   1
loop_
 _symmetry_equiv_pos_site_id
 _symmetry_equiv_pos_as_xyz
  1  'x, y, z'
loop_
 _atom_site_type_symbol
 _atom_site_label
 _atom_site_symmetry_multiplicity
 _atom_site_fract_x
 _atom_site_fract_y
 _atom_site_fract_z
 _atom_site_occupancy
  Y  Y0  1  0.00000000  0.00000000  0.00000000  1
  Mg  Mg1  1  0.00000000  0.00000000  0.49999998  1
  Fe  Fe2  1  0.30751997  0.69248000  0.24999999  1
  P  P3  1  0.69248000  0.30752000  0.74999997  1
  Cu  Cu4  1  0.69082500  0.30917500  0.24999999  1
  Cu  Cu5  1  0.30917497  0.69082500  0.74999997  1
  P  P6  1  0.06522598  0.34967200  0.24999999  1
  P  P7  1  0.93477399  0.65032800  0.74999997  1
  P  P8  1  0.65032797  0.93477400  0.24999999  1
  P  P9  1  0.34967201  0.06522600  0.74999997  1
  P  P10  1  0.48777299  0.51222700  0.24999999  1
  P  P11  1  0.51222699  0.48777300  0.74999997  1
  P  P12  1  0.29696197  0.70303800  0.01669600  1
  P  P13  1  0.70303800  0.29696200  0.98330396  1
  P  P14  1  0.70303800  0.29696200  0.51669598  1
  P  P15  1  0.29696197  0.70303800  0.48330398  1
  P  P16  1  0.97811799  0.67044200  0.24999999  1
  P  P17  1  0.02188198  0.32955800  0.74999997  1
  P  P18  1  0.32955801  0.02188200  0.24999999  1
  P  P19  1  0.67044197  0.97811800  0.74999997  1
