# generated using pymatgen
data_LaYEr2SiGeRh6
_symmetry_space_group_name_H-M   'P 1'
_cell_length_a   4.32094288
_cell_length_b   6.97179794
_cell_length_c   7.10244322
_cell_angle_alpha   90.00000000
_cell_angle_beta   90.00000000
_cell_angle_gamma   90.00000000
_symmetry_Int_Tables_number   1
_chemical_formula_structural   LaYEr2SiGeRh6
_chemical_formula_sum   'La1 Y1 Er2 Si1 Ge1 Rh6'
_cell_volume   213.95926010
_cell_formula_units_Z   1
loop_
 _symmetry_equiv_pos_site_id
 _symmetry_equiv_pos_as_xyz
  1  'x, y, z'
loop_
 _atom_site_type_symbol
 _atom_site_label
 _atom_site_symmetry_multiplicity
 _atom_site_fract_x
 _atom_site_fract_y
 _atom_site_fract_z
 _atom_site_occupancy
  Er  Er0  1  0.25000001  0.98647001  0.81298798  1
  Er  Er1  1  0.75000002  0.01353000  0.18701199  1
  Y  Y2  1  0.25000001  0.48647000  0.68701198  1
  La  La3  1  0.75000002  0.51353000  0.31298799  1
  Si  Si4  1  0.25000001  0.30344700  0.10613100  1
  Ge  Ge5  1  0.75000002  0.69655301  0.89386897  1
  Rh  Rh6  1  0.25000001  0.80344701  0.39386899  1
  Rh  Rh7  1  0.75000002  0.19655300  0.60613098  1
  Rh  Rh8  1  0.75000002  0.84662401  0.56700198  1
  Rh  Rh9  1  0.25000001  0.15337600  0.43299799  1
  Rh  Rh10  1  0.75000002  0.34662400  0.93299797  1
  Rh  Rh11  1  0.25000001  0.65337601  0.06700200  1
