# generated using pymatgen
data_LaCeY2Th3NbS10
_symmetry_space_group_name_H-M   'P 1'
_cell_length_a   6.22202682
_cell_length_b   9.36962223
_cell_length_c   9.36962128
_cell_angle_alpha   120.00000000
_cell_angle_beta   90.00000000
_cell_angle_gamma   90.00000000
_symmetry_Int_Tables_number   1
_chemical_formula_structural   LaCeY2Th3NbS10
_chemical_formula_sum   'La1 Ce1 Y2 Th3 Nb1 S10'
_cell_volume   473.04954477
_cell_formula_units_Z   1
loop_
 _symmetry_equiv_pos_site_id
 _symmetry_equiv_pos_as_xyz
  1  'x, y, z'
loop_
 _atom_site_type_symbol
 _atom_site_label
 _atom_site_symmetry_multiplicity
 _atom_site_fract_x
 _atom_site_fract_y
 _atom_site_fract_z
 _atom_site_occupancy
  Y  Y0  1  0.75000002  0.38010298  0.38010299  1
  Ce  Ce1  1  0.25000001  0.61989697  0.61989698  1
  Y  Y2  1  0.75000002  0.99999995  0.61989697  1
  La  La3  1  0.25000001  0.99999995  0.38010296  1
  Th  Th4  1  0.75000002  0.61989697  -0.00000003  1
  Th  Th5  1  0.25000001  0.38010298  -0.00000002  1
  Th  Th6  1  0.00000000  0.00000000  0.00000000  1
  Nb  Nb7  1  0.50000001  0.00000000  -0.00000000  1
  S  S8  1  0.75000002  0.73680597  0.73680598  1
  S  S9  1  0.25000001  0.26319399  0.26319399  1
  S  S10  1  0.75000002  0.99999995  0.26319396  1
  S  S11  1  0.25000001  0.00000000  0.73680601  1
  S  S12  1  0.75000002  0.26319399  -0.00000001  1
  S  S13  1  0.25000001  0.73680597  0.99999998  1
  S  S14  1  -0.00000000  0.66666664  0.33333331  1
  S  S15  1  -0.00000000  0.33333332  0.66666666  1
  S  S16  1  0.50000001  0.33333332  0.66666666  1
  S  S17  1  0.50000001  0.66666664  0.33333331  1
