# generated using pymatgen
data_KTiNiP2
_symmetry_space_group_name_H-M   'P 1'
_cell_length_a   3.79390407
_cell_length_b   3.79390407
_cell_length_c   7.72946453
_cell_angle_alpha   104.20655823
_cell_angle_beta   104.20655823
_cell_angle_gamma   90.00000000
_symmetry_Int_Tables_number   1
_chemical_formula_structural   KTiNiP2
_chemical_formula_sum   'K1 Ti1 Ni1 P2'
_cell_volume   104.33975535
_cell_formula_units_Z   1
loop_
 _symmetry_equiv_pos_site_id
 _symmetry_equiv_pos_as_xyz
  1  'x, y, z'
loop_
 _atom_site_type_symbol
 _atom_site_label
 _atom_site_symmetry_multiplicity
 _atom_site_fract_x
 _atom_site_fract_y
 _atom_site_fract_z
 _atom_site_occupancy
  K  K0  1  0.00000000  0.00000000  0.00000000  1
  Ti  Ti1  1  0.75000001  0.25000000  0.50000003  1
  Ni  Ni2  1  0.25000002  0.75000000  0.50000004  1
  P  P3  1  0.34157201  0.34157200  0.68314403  1
  P  P4  1  0.65842802  0.65842800  0.31685604  1
