# generated using pymatgen
data_Li4CuNi(PO6)2
_symmetry_space_group_name_H-M   'P 1'
_cell_length_a   5.43428278
_cell_length_b   6.51852131
_cell_length_c   6.51852083
_cell_angle_alpha   84.36344147
_cell_angle_beta   78.69206238
_cell_angle_gamma   78.69203186
_symmetry_Int_Tables_number   1
_chemical_formula_structural   Li4CuNi(PO6)2
_chemical_formula_sum   'Li4 Cu1 Ni1 P2 O12'
_cell_volume   221.60135002
_cell_formula_units_Z   1
loop_
 _symmetry_equiv_pos_site_id
 _symmetry_equiv_pos_as_xyz
  1  'x, y, z'
loop_
 _atom_site_type_symbol
 _atom_site_label
 _atom_site_symmetry_multiplicity
 _atom_site_fract_x
 _atom_site_fract_y
 _atom_site_fract_z
 _atom_site_occupancy
  Li  Li0  1  0.24999995  0.70355302  0.29644704  1
  Li  Li1  1  0.74999996  0.29644701  0.70355298  1
  Li  Li2  1  0.24999899  0.09558300  0.90442199  1
  Li  Li3  1  0.75000193  0.90441903  0.09557603  1
  Cu  Cu4  1  0.25347398  0.20616501  0.38142900  1
  Ni  Ni5  1  0.75347395  0.38142901  0.20616499  1
  P  P6  1  0.24652496  0.61857102  0.79383503  1
  P  P7  1  0.74652493  0.79383502  0.61857102  1
  O  O8  1  0.47948597  0.34870401  0.36210000  1
  O  O9  1  0.02051396  0.63790002  0.65129604  1
  O  O10  1  0.52051395  0.65129602  0.63790002  1
  O  O11  1  0.97948595  0.36210001  0.34870398  1
  O  O12  1  0.19646499  0.10313300  0.61843599  1
  O  O13  1  0.30353397  0.38156401  0.89686601  1
  O  O14  1  0.80353393  0.89686603  0.38156403  1
  O  O15  1  0.69646494  0.61843602  0.10313401  1
  O  O16  1  0.83868296  0.19393401  0.04190698  1
  O  O17  1  0.66131693  0.95809303  0.80606603  1
  O  O18  1  0.16131595  0.80606602  0.95809404  1
  O  O19  1  0.33868299  0.04190700  0.19393399  1
