# generated using pymatgen
data_BaNa3CuO7
_symmetry_space_group_name_H-M   'P 1'
_cell_length_a   4.30120802
_cell_length_b   4.30120802
_cell_length_c   13.10970497
_cell_angle_alpha   99.44186401
_cell_angle_beta   99.44186401
_cell_angle_gamma   90.00000000
_symmetry_Int_Tables_number   1
_chemical_formula_structural   BaNa3CuO7
_chemical_formula_sum   'Ba1 Na3 Cu1 O7'
_cell_volume   235.91745641
_cell_formula_units_Z   1
loop_
 _symmetry_equiv_pos_site_id
 _symmetry_equiv_pos_as_xyz
  1  'x, y, z'
loop_
 _atom_site_type_symbol
 _atom_site_label
 _atom_site_symmetry_multiplicity
 _atom_site_fract_x
 _atom_site_fract_y
 _atom_site_fract_z
 _atom_site_occupancy
  Ba  Ba0  1  0.66124602  0.66124600  0.32249202  1
  Na  Na1  1  0.50000001  0.50000000  1.00000001  1
  Na  Na2  1  0.33875401  0.33875400  0.67750801  1
  Na  Na3  1  0.91757202  0.91757201  0.83514403  1
  Cu  Cu4  1  0.08242800  0.08242800  0.16485600  1
  O  O5  1  0.20518901  0.20518900  0.41037801  1
  O  O6  1  0.79481102  0.79481100  0.58962203  1
  O  O7  1  0.59405901  0.09405900  0.18811801  1
  O  O8  1  0.90594101  0.40594100  0.81188202  1
  O  O9  1  0.40594102  0.90594101  0.81188202  1
  O  O10  1  0.00000000  0.00000000  0.00000000  1
  O  O11  1  0.09405901  0.59405900  0.18811801  1
