# generated using pymatgen
data_LiMgTl2Hg
_symmetry_space_group_name_H-M   'P 1'
_cell_length_a   5.06247520
_cell_length_b   5.06247520
_cell_length_c   7.20815659
_cell_angle_alpha   110.55846405
_cell_angle_beta   110.55845642
_cell_angle_gamma   90.00000000
_symmetry_Int_Tables_number   1
_chemical_formula_structural   LiMgTl2Hg
_chemical_formula_sum   'Li1 Mg1 Tl2 Hg1'
_cell_volume   160.34446327
_cell_formula_units_Z   1
loop_
 _symmetry_equiv_pos_site_id
 _symmetry_equiv_pos_as_xyz
  1  'x, y, z'
loop_
 _atom_site_type_symbol
 _atom_site_label
 _atom_site_symmetry_multiplicity
 _atom_site_fract_x
 _atom_site_fract_y
 _atom_site_fract_z
 _atom_site_occupancy
  Li  Li0  1  0.00459700  0.00459700  0.00919400  1
  Tl  Tl1  1  0.74167895  0.24167798  0.48335695  1
  Tl  Tl2  1  0.24167895  0.74167795  0.48335693  1
  Mg  Mg3  1  0.39403196  0.39403197  0.78806394  1
  Hg  Hg4  1  0.61801294  0.61801296  0.23602594  1
