# generated using pymatgen
data_YErAl2(Si2Ni)2
_symmetry_space_group_name_H-M   'P 1'
_cell_length_a   3.92065001
_cell_length_b   3.93943501
_cell_length_c   10.70105648
_cell_angle_alpha   90.00000000
_cell_angle_beta   100.55561829
_cell_angle_gamma   90.00000000
_symmetry_Int_Tables_number   1
_chemical_formula_structural   YErAl2(Si2Ni)2
_chemical_formula_sum   'Y1 Er1 Al2 Si4 Ni2'
_cell_volume   162.48244538
_cell_formula_units_Z   1
loop_
 _symmetry_equiv_pos_site_id
 _symmetry_equiv_pos_as_xyz
  1  'x, y, z'
loop_
 _atom_site_type_symbol
 _atom_site_label
 _atom_site_symmetry_multiplicity
 _atom_site_fract_x
 _atom_site_fract_y
 _atom_site_fract_z
 _atom_site_occupancy
  Y  Y0  1  0.66886600  0.50000000  0.33773200  1
  Er  Er1  1  0.33113400  0.50000000  0.66226798  1
  Al  Al2  1  0.89062701  0.00000000  0.78125398  1
  Al  Al3  1  0.10937300  0.00000000  0.21874599  1
  Si  Si4  1  0.94385201  0.50000000  0.88770398  1
  Ni  Ni5  1  0.05614800  0.50000000  0.11229600  1
  Si  Si6  1  0.78413701  0.00000000  0.56827399  1
  Si  Si7  1  0.21586300  0.00000000  0.43172599  1
  Ni  Ni8  1  0.55632400  0.00000000  0.11264800  1
  Si  Si9  1  0.44367600  0.00000000  0.88735197  1
