# generated using pymatgen
data_LiMgCuGePd
_symmetry_space_group_name_H-M   'P 1'
_cell_length_a   4.18231010
_cell_length_b   4.18231010
_cell_length_c   5.70876312
_cell_angle_alpha   111.48798370
_cell_angle_beta   111.48798370
_cell_angle_gamma   90.00000000
_symmetry_Int_Tables_number   1
_chemical_formula_structural   LiMgCuGePd
_chemical_formula_sum   'Li1 Mg1 Cu1 Ge1 Pd1'
_cell_volume   85.41283100
_cell_formula_units_Z   1
loop_
 _symmetry_equiv_pos_site_id
 _symmetry_equiv_pos_as_xyz
  1  'x, y, z'
loop_
 _atom_site_type_symbol
 _atom_site_label
 _atom_site_symmetry_multiplicity
 _atom_site_fract_x
 _atom_site_fract_y
 _atom_site_fract_z
 _atom_site_occupancy
  Li  Li0  1  0.00000000  0.00000000  0.00000000  1
  Mg  Mg1  1  0.61704694  0.61704697  0.23409394  1
  Cu  Cu2  1  0.38295296  0.38295298  0.76590597  1
  Pd  Pd3  1  0.74999995  0.24999999  0.49999996  1
  Ge  Ge4  1  0.24999995  0.74999996  0.49999995  1
