# generated using pymatgen
data_TiCr2AgS2
_symmetry_space_group_name_H-M   'P 1'
_cell_length_a   3.38667798
_cell_length_b   3.38667870
_cell_length_c   11.78735828
_cell_angle_alpha   90.00000000
_cell_angle_beta   90.00000000
_cell_angle_gamma   119.99999237
_symmetry_Int_Tables_number   1
_chemical_formula_structural   TiCr2AgS2
_chemical_formula_sum   'Ti1 Cr2 Ag1 S2'
_cell_volume   117.08332555
_cell_formula_units_Z   1
loop_
 _symmetry_equiv_pos_site_id
 _symmetry_equiv_pos_as_xyz
  1  'x, y, z'
loop_
 _atom_site_type_symbol
 _atom_site_label
 _atom_site_symmetry_multiplicity
 _atom_site_fract_x
 _atom_site_fract_y
 _atom_site_fract_z
 _atom_site_occupancy
  Ti  Ti0  1  0.33333333  0.66666666  0.10047700  1
  Ag  Ag1  1  0.66666667  0.33333333  0.60047699  1
  Cr  Cr2  1  0.33333333  0.66666666  0.39952299  1
  Cr  Cr3  1  0.66666667  0.33333333  0.89952298  1
  S  S4  1  0.00000000  0.00000000  0.24999999  1
  S  S5  1  0.00000000  0.00000000  0.74999998  1
