# generated using pymatgen
data_K3Cu2Ni3O11
_symmetry_space_group_name_H-M   'P 1'
_cell_length_a   5.35218716
_cell_length_b   7.32986975
_cell_length_c   9.57520199
_cell_angle_alpha   69.92813873
_cell_angle_beta   86.14813995
_cell_angle_gamma   84.22838593
_symmetry_Int_Tables_number   1
_chemical_formula_structural   K3Cu2Ni3O11
_chemical_formula_sum   'K3 Cu2 Ni3 O11'
_cell_volume   350.82458723
_cell_formula_units_Z   1
loop_
 _symmetry_equiv_pos_site_id
 _symmetry_equiv_pos_as_xyz
  1  'x, y, z'
loop_
 _atom_site_type_symbol
 _atom_site_label
 _atom_site_symmetry_multiplicity
 _atom_site_fract_x
 _atom_site_fract_y
 _atom_site_fract_z
 _atom_site_occupancy
  K  K0  1  0.21774501  0.31142700  0.41617003  1
  K  K1  1  0.74246702  0.69852199  0.56293005  1
  K  K2  1  0.73680698  0.12763100  0.18628103  1
  Cu  Cu3  1  0.26049604  0.88420699  0.82046605  1
  Cu  Cu4  1  0.80170901  0.59492299  0.11770603  1
  Ni  Ni5  1  0.19506202  0.42043400  0.90833805  1
  Ni  Ni6  1  0.25413404  0.85766299  0.27360702  1
  Ni  Ni7  1  0.73659498  0.13673100  0.73922706  1
  O  O8  1  0.98956297  0.02428800  0.32016305  1
  O  O9  1  0.00501206  0.97621099  0.68976003  1
  O  O10  1  0.90925500  0.45587400  0.83046307  1
  O  O11  1  0.11680702  0.48221000  0.08134201  1
  O  O12  1  0.67157900  0.35237800  0.22818903  1
  O  O13  1  0.33874103  0.65560599  0.79190905  1
  O  O14  1  0.27547603  0.67756799  0.44556803  1
  O  O15  1  0.74902399  0.32523800  0.57293205  1
  O  O16  1  0.48965498  0.01521000  0.31800803  1
  O  O17  1  0.49265598  0.00845400  0.67902805  1
  O  O18  1  0.89041701  0.64772599  0.26901504  1
