# generated using pymatgen
data_ErNb4CuS14
_symmetry_space_group_name_H-M   'P 1'
_cell_length_a   7.16793346
_cell_length_b   7.38341475
_cell_length_c   7.38341475
_cell_angle_alpha   69.94514465
_cell_angle_beta   71.11891174
_cell_angle_gamma   108.88108826
_symmetry_Int_Tables_number   1
_chemical_formula_structural   ErNb4CuS14
_chemical_formula_sum   'Er1 Nb4 Cu1 S14'
_cell_volume   302.96876221
_cell_formula_units_Z   1
loop_
 _symmetry_equiv_pos_site_id
 _symmetry_equiv_pos_as_xyz
  1  'x, y, z'
loop_
 _atom_site_type_symbol
 _atom_site_label
 _atom_site_symmetry_multiplicity
 _atom_site_fract_x
 _atom_site_fract_y
 _atom_site_fract_z
 _atom_site_occupancy
  Er  Er0  1  0.69982606  0.82318604  0.80008897  1
  Nb  Nb1  1  0.87664003  0.37672502  0.82318597  1
  Nb  Nb2  1  0.49991506  0.80008904  0.37672497  1
  Nb  Nb3  1  0.45351102  0.20595701  0.62368999  1
  Nb  Nb4  1  0.24755401  0.17035301  0.20595699  1
  Cu  Cu5  1  0.07720104  0.62369003  0.17035299  1
  S  S6  1  0.25115403  0.43243202  0.64078799  1
  S  S7  1  0.81872207  0.92678004  0.43243196  1
  S  S8  1  0.89194205  0.64078803  0.92677997  1
  S  S9  1  0.12683201  0.07203700  0.57538500  1
  S  S10  1  0.05479503  0.35257802  0.07203699  1
  S  S11  1  0.70221704  0.57538503  0.35257797  1
  S  S12  1  0.83480902  0.27240001  0.55397897  1
  S  S13  1  0.56240902  0.17362101  0.27239998  1
  S  S14  1  0.38878804  0.55397903  0.17362098  1
  S  S15  1  0.38379806  0.82487604  0.74087498  1
  S  S16  1  0.55892203  0.43424902  0.82487598  1
  S  S17  1  0.12467305  0.74087503  0.43424899  1
  S  S18  1  0.77537400  0.00000000  -0.00000003  1
  S  S19  1  0.17191900  0.00000000  1.00000001  1
