# generated using pymatgen
data_YErAl2Fe2(SiNi2)2
_symmetry_space_group_name_H-M   'P 1'
_cell_length_a   3.96866298
_cell_length_b   4.96184015
_cell_length_c   8.58516979
_cell_angle_alpha   90.00000000
_cell_angle_beta   90.00000000
_cell_angle_gamma   90.00000000
_symmetry_Int_Tables_number   1
_chemical_formula_structural   YErAl2Fe2(SiNi2)2
_chemical_formula_sum   'Y1 Er1 Al2 Fe2 Si2 Ni4'
_cell_volume   169.05805875
_cell_formula_units_Z   1
loop_
 _symmetry_equiv_pos_site_id
 _symmetry_equiv_pos_as_xyz
  1  'x, y, z'
loop_
 _atom_site_type_symbol
 _atom_site_label
 _atom_site_symmetry_multiplicity
 _atom_site_fract_x
 _atom_site_fract_y
 _atom_site_fract_z
 _atom_site_occupancy
  Er  Er0  1  0.00000000  0.49999998  0.00000000  1
  Y  Y1  1  0.00000000  0.00000000  0.50000001  1
  Al  Al2  1  0.00000000  0.49999998  0.33467701  1
  Al  Al3  1  0.00000000  0.00000000  0.83324402  1
  Si  Si4  1  0.00000000  0.00000000  0.16675600  1
  Fe  Fe5  1  0.00000000  0.49999998  0.66532302  1
  Fe  Fe6  1  0.50000000  0.49999998  0.50000001  1
  Si  Si7  1  0.50000000  0.00000000  0.00000000  1
  Ni  Ni8  1  0.50000000  0.75024598  0.25001201  1
  Ni  Ni9  1  0.50000000  0.24975399  0.74998802  1
  Ni  Ni10  1  0.50000000  0.24975399  0.25001201  1
  Ni  Ni11  1  0.50000000  0.75024598  0.74998802  1
