# generated using pymatgen
data_YErHfZrIn6SnPdAu6
_symmetry_space_group_name_H-M   'P 1'
_cell_length_a   5.91608381
_cell_length_b   8.72867203
_cell_length_c   8.72867107
_cell_angle_alpha   120.00000000
_cell_angle_beta   90.00000000
_cell_angle_gamma   90.00000000
_symmetry_Int_Tables_number   1
_chemical_formula_structural   YErHfZrIn6SnPdAu6
_chemical_formula_sum   'Y1 Er1 Hf1 Zr1 In6 Sn1 Pd1 Au6'
_cell_volume   390.35635434
_cell_formula_units_Z   1
loop_
 _symmetry_equiv_pos_site_id
 _symmetry_equiv_pos_as_xyz
  1  'x, y, z'
loop_
 _atom_site_type_symbol
 _atom_site_label
 _atom_site_symmetry_multiplicity
 _atom_site_fract_x
 _atom_site_fract_y
 _atom_site_fract_z
 _atom_site_occupancy
  Er  Er0  1  0.75000002  0.99999997  0.26672096  1
  Y  Y1  1  0.25000001  0.26672099  0.26672100  1
  Zr  Zr2  1  0.75000002  0.26672099  1.00000003  1
  Hf  Hf3  1  0.50000002  0.33333332  0.66666668  1
  In  In4  1  0.25000001  0.00000000  0.73327903  1
  In  In5  1  0.25000001  0.73327898  1.00000000  1
  In  In6  1  1.00000003  0.66666665  0.33333332  1
  In  In7  1  1.00000003  0.33333332  0.66666668  1
  In  In8  1  0.50000002  0.66666665  0.33333332  1
  In  In9  1  0.75000002  0.73327898  0.73327899  1
  Au  Au10  1  0.00000000  0.00000000  0.00000000  1
  Au  Au11  1  0.50000002  0.00000000  -0.00000000  1
  Au  Au12  1  0.75000002  0.38775599  0.38775600  1
  Sn  Sn13  1  0.25000001  0.61224398  0.61224399  1
  Au  Au14  1  0.75000002  0.61224398  -0.00000003  1
  Au  Au15  1  0.75000002  0.00000000  0.61224402  1
  Au  Au16  1  0.25000001  0.00000000  0.38775601  1
  Pd  Pd17  1  0.25000001  0.38775599  -0.00000002  1
