# generated using pymatgen
data_LiMg2
_symmetry_space_group_name_H-M   'P 1'
_cell_length_a   5.65936804
_cell_length_b   5.65936804
_cell_length_c   6.49975491
_cell_angle_alpha   64.19227600
_cell_angle_beta   64.19227600
_cell_angle_gamma   60.00000000
_symmetry_Int_Tables_number   1
_chemical_formula_structural   LiMg2
_chemical_formula_sum   'Li2 Mg4'
_cell_volume   155.85055592
_cell_formula_units_Z   2
loop_
 _symmetry_equiv_pos_site_id
 _symmetry_equiv_pos_as_xyz
  1  'x, y, z'
loop_
 _atom_site_type_symbol
 _atom_site_label
 _atom_site_symmetry_multiplicity
 _atom_site_fract_x
 _atom_site_fract_y
 _atom_site_fract_z
 _atom_site_occupancy
  Li  Li0  1  0.50000002  0.50000000  0.49999999  1
  Mg  Mg1  1  0.00000001  0.32882400  -0.00000001  1
  Mg  Mg2  1  0.83411704  0.83411700  0.49764897  1
  Mg  Mg3  1  0.67117601  0.00000000  -0.00000001  1
  Mg  Mg4  1  0.32882403  0.67117600  -0.00000002  1
  Li  Li5  1  0.16588301  0.16588300  0.50235100  1
