# generated using pymatgen
data_NaYIn3TeSe7O
_symmetry_space_group_name_H-M   'P 1'
_cell_length_a   8.25172234
_cell_length_b   8.25172234
_cell_length_c   8.25172234
_cell_angle_alpha   60.00000000
_cell_angle_beta   60.00000000
_cell_angle_gamma   60.00000000
_symmetry_Int_Tables_number   1
_chemical_formula_structural   NaYIn3TeSe7O
_chemical_formula_sum   'Na1 Y1 In3 Te1 Se7 O1'
_cell_volume   397.30023302
_cell_formula_units_Z   1
loop_
 _symmetry_equiv_pos_site_id
 _symmetry_equiv_pos_as_xyz
  1  'x, y, z'
loop_
 _atom_site_type_symbol
 _atom_site_label
 _atom_site_symmetry_multiplicity
 _atom_site_fract_x
 _atom_site_fract_y
 _atom_site_fract_z
 _atom_site_occupancy
  Na  Na0  1  0.37500001  0.37500001  0.87500003  1
  Y  Y1  1  0.37500001  0.37500001  0.37500001  1
  In  In2  1  0.37500001  0.87500003  0.37500001  1
  In  In3  1  0.87500003  0.37500001  0.37500001  1
  Te  Te4  1  0.75000002  0.75000002  0.75000002  1
  In  In5  1  0.00000000  0.00000000  0.00000000  1
  Se  Se6  1  0.62007402  0.62007402  0.13977800  1
  Se  Se7  1  0.62007402  0.62007402  0.62007402  1
  Se  Se8  1  0.62007402  0.13977800  0.62007402  1
  Se  Se9  1  0.13977800  0.62007402  0.62007402  1
  Se  Se10  1  0.12992600  0.12992600  0.61022202  1
  Se  Se11  1  0.12992600  0.12992600  0.12992600  1
  O  O12  1  0.12992600  0.61022202  0.12992600  1
  Se  Se13  1  0.61022202  0.12992600  0.12992600  1
