# generated using pymatgen
data_CuHgAu
_symmetry_space_group_name_H-M   'P 1'
_cell_length_a   4.10855913
_cell_length_b   4.34078932
_cell_length_c   4.34215832
_cell_angle_alpha   119.98385620
_cell_angle_beta   90.00000000
_cell_angle_gamma   90.00000000
_symmetry_Int_Tables_number   1
_chemical_formula_structural   CuHgAu
_chemical_formula_sum   'Cu1 Hg1 Au1'
_cell_volume   67.07569193
_cell_formula_units_Z   1
loop_
 _symmetry_equiv_pos_site_id
 _symmetry_equiv_pos_as_xyz
  1  'x, y, z'
loop_
 _atom_site_type_symbol
 _atom_site_label
 _atom_site_symmetry_multiplicity
 _atom_site_fract_x
 _atom_site_fract_y
 _atom_site_fract_z
 _atom_site_occupancy
  Hg  Hg0  1  -0.00000000  0.00000700  0.00007700  1
  Cu  Cu1  1  0.49999998  0.33333333  0.66666665  1
  Au  Au2  1  0.49999998  0.66670200  0.33320202  1
