# generated using pymatgen
data_Nb3CuAsS6
_symmetry_space_group_name_H-M   'P 1'
_cell_length_a   6.06034660
_cell_length_b   6.06034660
_cell_length_c   6.06034613
_cell_angle_alpha   90.88936615
_cell_angle_beta   90.88936615
_cell_angle_gamma   90.88937378
_symmetry_Int_Tables_number   1
_chemical_formula_structural   Nb3CuAsS6
_chemical_formula_sum   'Nb3 Cu1 As1 S6'
_cell_volume   222.50189994
_cell_formula_units_Z   1
loop_
 _symmetry_equiv_pos_site_id
 _symmetry_equiv_pos_as_xyz
  1  'x, y, z'
loop_
 _atom_site_type_symbol
 _atom_site_label
 _atom_site_symmetry_multiplicity
 _atom_site_fract_x
 _atom_site_fract_y
 _atom_site_fract_z
 _atom_site_occupancy
  Cu  Cu0  1  0.49999999  0.00000000  0.49999999  1
  Nb  Nb1  1  0.00000001  0.49999999  0.49999999  1
  Nb  Nb2  1  0.50000000  0.49999999  0.99999999  1
  Nb  Nb3  1  0.11836301  0.61652598  0.88754300  1
  S  S4  1  0.61652600  0.88754298  0.11836294  1
  S  S5  1  0.88754298  0.11836300  0.61652598  1
  As  As6  1  0.88163698  0.38347399  0.11245695  1
  S  S7  1  0.38347399  0.11245700  0.88163701  1
  S  S8  1  0.11245701  0.88163698  0.38347397  1
  S  S9  1  0.37876500  0.37876499  0.37876498  1
  S  S10  1  0.62123500  0.62123498  0.62123497  1
