# generated using pymatgen
data_La3YInSn3
_symmetry_space_group_name_H-M   'P 1'
_cell_length_a   4.59920311
_cell_length_b   4.98662710
_cell_length_c   12.11825657
_cell_angle_alpha   90.00000000
_cell_angle_beta   90.00000000
_cell_angle_gamma   90.00000000
_symmetry_Int_Tables_number   1
_chemical_formula_structural   La3YInSn3
_chemical_formula_sum   'La3 Y1 In1 Sn3'
_cell_volume   277.92628706
_cell_formula_units_Z   1
loop_
 _symmetry_equiv_pos_site_id
 _symmetry_equiv_pos_as_xyz
  1  'x, y, z'
loop_
 _atom_site_type_symbol
 _atom_site_label
 _atom_site_symmetry_multiplicity
 _atom_site_fract_x
 _atom_site_fract_y
 _atom_site_fract_z
 _atom_site_occupancy
  Y  Y0  1  0.24999999  0.00000000  0.36057601  1
  La  La1  1  0.24999999  0.49999999  0.86481903  1
  La  La2  1  0.74999998  0.49999999  0.13506900  1
  La  La3  1  0.74999998  0.00000000  0.63774502  1
  In  In4  1  0.24999999  0.00000000  0.07382500  1
  Sn  Sn5  1  0.24999999  0.49999999  0.57742902  1
  Sn  Sn6  1  0.74999998  0.49999999  0.42208902  1
  Sn  Sn7  1  0.74999998  0.00000000  0.92844803  1
