# generated using pymatgen
data_DyErLuMgIn2SnPd2Au
_symmetry_space_group_name_H-M   'P 1'
_cell_length_a   3.75176096
_cell_length_b   7.72835207
_cell_length_c   7.72835207
_cell_angle_alpha   90.00000000
_cell_angle_beta   90.00000000
_cell_angle_gamma   90.00000000
_symmetry_Int_Tables_number   1
_chemical_formula_structural   DyErLuMgIn2SnPd2Au
_chemical_formula_sum   'Dy1 Er1 Lu1 Mg1 In2 Sn1 Pd2 Au1'
_cell_volume   224.08302402
_cell_formula_units_Z   1
loop_
 _symmetry_equiv_pos_site_id
 _symmetry_equiv_pos_as_xyz
  1  'x, y, z'
loop_
 _atom_site_type_symbol
 _atom_site_label
 _atom_site_symmetry_multiplicity
 _atom_site_fract_x
 _atom_site_fract_y
 _atom_site_fract_z
 _atom_site_occupancy
  Er  Er0  1  0.50000001  0.32623700  0.82623699  1
  Dy  Dy1  1  0.50000001  0.82623699  0.67376299  1
  Lu  Lu2  1  0.50000001  0.17376300  0.32623700  1
  Mg  Mg3  1  0.50000001  0.67376299  0.17376300  1
  In  In4  1  -0.00000000  0.50000000  0.50000000  1
  In  In5  1  0.00000000  0.00000000  0.00000000  1
  Pd  Pd6  1  0.00000000  0.12134700  0.62134699  1
  Pd  Pd7  1  0.00000000  0.62134699  0.87865299  1
  Sn  Sn8  1  0.00000000  0.87865299  0.37865300  1
  Au  Au9  1  -0.00000000  0.37865300  0.12134700  1
