# generated using pymatgen
data_YErHfAlGaSi3
_symmetry_space_group_name_H-M   'P 1'
_cell_length_a   4.03961706
_cell_length_b   5.05455494
_cell_length_c   7.19050312
_cell_angle_alpha   90.00000000
_cell_angle_beta   90.00000000
_cell_angle_gamma   90.00000000
_symmetry_Int_Tables_number   1
_chemical_formula_structural   YErHfAlGaSi3
_chemical_formula_sum   'Y1 Er1 Hf1 Al1 Ga1 Si3'
_cell_volume   146.81904616
_cell_formula_units_Z   1
loop_
 _symmetry_equiv_pos_site_id
 _symmetry_equiv_pos_as_xyz
  1  'x, y, z'
loop_
 _atom_site_type_symbol
 _atom_site_label
 _atom_site_symmetry_multiplicity
 _atom_site_fract_x
 _atom_site_fract_y
 _atom_site_fract_z
 _atom_site_occupancy
  Er  Er0  1  0.49999999  0.75000001  0.71740399  1
  Y  Y1  1  0.49999999  0.25000000  0.28259600  1
  Hf  Hf2  1  0.00000000  0.75000001  0.34669899  1
  Al  Al3  1  0.00000000  0.25000000  0.65330099  1
  Ga  Ga4  1  0.00000000  0.00000000  0.00000000  1
  Si  Si5  1  0.00000000  0.50000001  0.00000000  1
  Si  Si6  1  0.49999999  0.75000001  0.09097700  1
  Si  Si7  1  0.49999999  0.25000000  0.90902298  1
