# generated using pymatgen
data_HgBiSbAu
_symmetry_space_group_name_H-M   'P 1'
_cell_length_a   3.68949103
_cell_length_b   3.68949103
_cell_length_c   7.41100121
_cell_angle_alpha   90.00000000
_cell_angle_beta   90.00000000
_cell_angle_gamma   90.00000000
_symmetry_Int_Tables_number   1
_chemical_formula_structural   HgBiSbAu
_chemical_formula_sum   'Hg1 Bi1 Sb1 Au1'
_cell_volume   100.88109844
_cell_formula_units_Z   1
loop_
 _symmetry_equiv_pos_site_id
 _symmetry_equiv_pos_as_xyz
  1  'x, y, z'
loop_
 _atom_site_type_symbol
 _atom_site_label
 _atom_site_symmetry_multiplicity
 _atom_site_fract_x
 _atom_site_fract_y
 _atom_site_fract_z
 _atom_site_occupancy
  Hg  Hg0  1  0.00000000  0.00000000  0.76332398  1
  Bi  Bi1  1  0.00000000  0.00000000  0.23667599  1
  Sb  Sb2  1  0.50000000  0.50000000  0.49999999  1
  Au  Au3  1  0.50000000  0.50000000  0.00000000  1
