# generated using pymatgen
data_Y2Al3FeCo12
_symmetry_space_group_name_H-M   'P 1'
_cell_length_a   3.82799506
_cell_length_b   8.98727036
_cell_length_c   8.98727036
_cell_angle_alpha   120.00000000
_cell_angle_beta   90.00000000
_cell_angle_gamma   90.00000000
_symmetry_Int_Tables_number   1
_chemical_formula_structural   Y2Al3FeCo12
_chemical_formula_sum   'Y2 Al3 Fe1 Co12'
_cell_volume   267.76734549
_cell_formula_units_Z   1
loop_
 _symmetry_equiv_pos_site_id
 _symmetry_equiv_pos_as_xyz
  1  'x, y, z'
loop_
 _atom_site_type_symbol
 _atom_site_label
 _atom_site_symmetry_multiplicity
 _atom_site_fract_x
 _atom_site_fract_y
 _atom_site_fract_z
 _atom_site_occupancy
  Y  Y0  1  0.49999999  0.33333332  0.66666663  1
  Y  Y1  1  0.49999999  0.66666664  0.33333331  1
  Al  Al2  1  0.00000000  0.00000000  0.00000000  1
  Al  Al3  1  0.49999999  0.31588499  0.99999995  1
  Al  Al4  1  0.49999999  0.68411497  0.68411496  1
  Co  Co5  1  0.49999999  0.99999996  0.31588498  1
  Co  Co6  1  0.49999999  0.68411497  -0.00000001  1
  Co  Co7  1  0.49999999  0.31588499  0.31588498  1
  Co  Co8  1  0.49999999  0.99999996  0.68411496  1
  Fe  Fe9  1  0.99999998  0.18325399  0.36650798  1
  Co  Co10  1  0.99999998  0.18325399  0.81674596  1
  Co  Co11  1  0.99999998  0.63349197  0.81674595  1
  Co  Co12  1  -0.00000000  0.81674596  0.63349196  1
  Co  Co13  1  0.99999998  0.36650798  0.18325399  1
  Co  Co14  1  0.99999998  0.81674596  0.18325398  1
  Co  Co15  1  -0.00000000  0.49999998  -0.00000000  1
  Co  Co16  1  0.99999998  0.49999998  0.49999997  1
  Co  Co17  1  -0.00000000  0.99999996  0.49999997  1
