# generated using pymatgen
data_NaSrB5C4O5
_symmetry_space_group_name_H-M   'P 1'
_cell_length_a   3.93837500
_cell_length_b   6.41867924
_cell_length_c   7.04331779
_cell_angle_alpha   90.00000000
_cell_angle_beta   90.00000000
_cell_angle_gamma   90.00000000
_symmetry_Int_Tables_number   1
_chemical_formula_structural   NaSrB5C4O5
_chemical_formula_sum   'Na1 Sr1 B5 C4 O5'
_cell_volume   178.04919844
_cell_formula_units_Z   1
loop_
 _symmetry_equiv_pos_site_id
 _symmetry_equiv_pos_as_xyz
  1  'x, y, z'
loop_
 _atom_site_type_symbol
 _atom_site_label
 _atom_site_symmetry_multiplicity
 _atom_site_fract_x
 _atom_site_fract_y
 _atom_site_fract_z
 _atom_site_occupancy
  Na  Na0  1  0.00000000  0.64274898  0.74745002  1
  Sr  Sr1  1  0.00000000  0.35725099  0.24745001  1
  B  B2  1  0.50000000  0.30517699  0.60199002  1
  B  B3  1  0.50000000  0.69482297  0.10199000  1
  B  B4  1  0.50000000  0.98379996  0.59256202  1
  B  B5  1  0.50000000  0.01620000  0.09256200  1
  B  B6  1  0.20107100  0.12364400  0.81254902  1
  C  C7  1  0.79892900  0.87635597  0.31254901  1
  C  C8  1  0.20107100  0.87635597  0.31254901  1
  C  C9  1  0.79892900  0.12364400  0.81254902  1
  O  O10  1  0.00000000  0.20596999  0.86304103  1
  O  O11  1  0.50000000  0.56387498  0.03131600  1
  O  O12  1  0.50000000  0.96702796  0.73044302  1
  C  C13  1  0.50000000  0.03297200  0.23044301  1
  O  O14  1  0.00000000  0.79402997  0.36304101  1
  O  O15  1  0.50000000  0.43612498  0.53131602  1
