# generated using pymatgen
data_LiMg
_symmetry_space_group_name_H-M   'P 1'
_cell_length_a   3.31537724
_cell_length_b   3.31537724
_cell_length_c   10.13925076
_cell_angle_alpha   80.59035492
_cell_angle_beta   80.59035492
_cell_angle_gamma   60.00001526
_symmetry_Int_Tables_number   1
_chemical_formula_structural   LiMg
_chemical_formula_sum   'Li2 Mg2'
_cell_volume   94.78119142
_cell_formula_units_Z   2
loop_
 _symmetry_equiv_pos_site_id
 _symmetry_equiv_pos_as_xyz
  1  'x, y, z'
loop_
 _atom_site_type_symbol
 _atom_site_label
 _atom_site_symmetry_multiplicity
 _atom_site_fract_x
 _atom_site_fract_y
 _atom_site_fract_z
 _atom_site_occupancy
  Li  Li0  1  0.24978099  0.24978100  0.25065700  1
  Mg  Mg1  1  0.49999997  0.50000000  0.50000001  1
  Li  Li2  1  0.75021896  0.75021899  0.74934301  1
  Mg  Mg3  1  0.00000000  0.00000000  0.00000000  1
