# generated using pymatgen
data_CsKTlBrCl4
_symmetry_space_group_name_H-M   'P 1'
_cell_length_a   6.25778389
_cell_length_b   7.63804197
_cell_length_c   7.63804150
_cell_angle_alpha   120.00000000
_cell_angle_beta   90.00000000
_cell_angle_gamma   90.00000000
_symmetry_Int_Tables_number   1
_chemical_formula_structural   CsKTlBrCl4
_chemical_formula_sum   'Cs1 K1 Tl1 Br1 Cl4'
_cell_volume   316.16605964
_cell_formula_units_Z   1
loop_
 _symmetry_equiv_pos_site_id
 _symmetry_equiv_pos_as_xyz
  1  'x, y, z'
loop_
 _atom_site_type_symbol
 _atom_site_label
 _atom_site_symmetry_multiplicity
 _atom_site_fract_x
 _atom_site_fract_y
 _atom_site_fract_z
 _atom_site_occupancy
  K  K0  1  0.25000000  0.66666666  0.33333332  1
  Tl  Tl1  1  0.75000001  0.33333333  0.66666667  1
  Cs  Cs2  1  0.75000001  0.83651099  0.16348898  1
  Br  Br3  1  0.75000001  0.32697800  0.16348899  1
  Cl  Cl4  1  0.75000001  0.83651099  0.67302199  1
  Cl  Cl5  1  0.25000000  0.16348900  0.83651101  1
  Cl  Cl6  1  0.25000000  0.67302199  0.83651100  1
  Cl  Cl7  1  0.25000000  0.16348900  0.32697800  1
