# generated using pymatgen
data_LaYIn3Sn3(PdAu)2
_symmetry_space_group_name_H-M   'P 1'
_cell_length_a   4.57704592
_cell_length_b   7.38146210
_cell_length_c   7.91619110
_cell_angle_alpha   90.00000000
_cell_angle_beta   90.00000000
_cell_angle_gamma   90.00000000
_symmetry_Int_Tables_number   1
_chemical_formula_structural   LaYIn3Sn3(PdAu)2
_chemical_formula_sum   'La1 Y1 In3 Sn3 Pd2 Au2'
_cell_volume   267.45081962
_cell_formula_units_Z   1
loop_
 _symmetry_equiv_pos_site_id
 _symmetry_equiv_pos_as_xyz
  1  'x, y, z'
loop_
 _atom_site_type_symbol
 _atom_site_label
 _atom_site_symmetry_multiplicity
 _atom_site_fract_x
 _atom_site_fract_y
 _atom_site_fract_z
 _atom_site_occupancy
  Y  Y0  1  0.50000001  0.48406399  0.55336999  1
  La  La1  1  0.50000001  0.98406399  0.44662999  1
  In  In2  1  0.00000000  0.51264199  0.94527099  1
  In  In3  1  0.00000000  0.01264200  0.05472900  1
  Sn  Sn4  1  0.00000000  0.79310699  0.66236799  1
  In  In5  1  0.00000000  0.29310700  0.33763200  1
  Sn  Sn6  1  0.50000001  0.31674900  0.17488200  1
  Sn  Sn7  1  0.50000001  0.81674899  0.82511799  1
  Pd  Pd8  1  0.00000000  0.67557199  0.34572000  1
  Pd  Pd9  1  0.00000000  0.17557200  0.65427999  1
  Au  Au10  1  0.50000001  0.21786600  0.84027099  1
  Au  Au11  1  0.50000001  0.71786599  0.15972900  1
