# generated using pymatgen
data_TaTiPd2RhS4
_symmetry_space_group_name_H-M   'P 1'
_cell_length_a   6.08936882
_cell_length_b   6.08936882
_cell_length_c   6.08936882
_cell_angle_alpha   60.00000000
_cell_angle_beta   60.00000000
_cell_angle_gamma   60.00000000
_symmetry_Int_Tables_number   1
_chemical_formula_structural   TaTiPd2RhS4
_chemical_formula_sum   'Ta1 Ti1 Pd2 Rh1 S4'
_cell_volume   159.66210091
_cell_formula_units_Z   1
loop_
 _symmetry_equiv_pos_site_id
 _symmetry_equiv_pos_as_xyz
  1  'x, y, z'
loop_
 _atom_site_type_symbol
 _atom_site_label
 _atom_site_symmetry_multiplicity
 _atom_site_fract_x
 _atom_site_fract_y
 _atom_site_fract_z
 _atom_site_occupancy
  Ta  Ta0  1  0.75000000  0.75000000  0.75000000  1
  Ti  Ti1  1  0.25000000  0.25000000  0.25000000  1
  Pd  Pd2  1  0.00000000  0.00000000  0.00000000  1
  Pd  Pd3  1  0.79996900  0.79996900  0.20003100  1
  S  S4  1  0.79996900  0.20003100  0.20003100  1
  Rh  Rh5  1  0.20003100  0.79996900  0.79996900  1
  S  S6  1  0.20003100  0.20003100  0.79996900  1
  S  S7  1  0.79996900  0.20003100  0.79996900  1
  S  S8  1  0.20003100  0.79996900  0.20003100  1
