# generated using pymatgen
data_LiYMg2AlGa3CuGe3
_symmetry_space_group_name_H-M   'P 1'
_cell_length_a   4.02650309
_cell_length_b   6.58401299
_cell_length_c   9.85657120
_cell_angle_alpha   90.00000000
_cell_angle_beta   97.53045654
_cell_angle_gamma   90.00000000
_symmetry_Int_Tables_number   1
_chemical_formula_structural   LiYMg2AlGa3CuGe3
_chemical_formula_sum   'Li1 Y1 Mg2 Al1 Ga3 Cu1 Ge3'
_cell_volume   259.04945877
_cell_formula_units_Z   1
loop_
 _symmetry_equiv_pos_site_id
 _symmetry_equiv_pos_as_xyz
  1  'x, y, z'
loop_
 _atom_site_type_symbol
 _atom_site_label
 _atom_site_symmetry_multiplicity
 _atom_site_fract_x
 _atom_site_fract_y
 _atom_site_fract_z
 _atom_site_occupancy
  Li  Li0  1  0.77758699  0.68402600  0.35867602  1
  Y  Y1  1  0.22241300  0.31597400  0.64132403  1
  Mg  Mg2  1  0.72241299  0.18402600  0.14132401  1
  Mg  Mg3  1  0.27758699  0.81597400  0.85867604  1
  Ga  Ga4  1  0.19864300  0.83882400  0.16377201  1
  Al  Al5  1  0.80135698  0.16117600  0.83622804  1
  Cu  Cu6  1  0.30135699  0.33882400  0.33622802  1
  Ga  Ga7  1  0.69864299  0.66117600  0.66377203  1
  Ga  Ga8  1  0.65144699  0.12102700  0.45374002  1
  Ge  Ge9  1  0.34855299  0.87897300  0.54626002  1
  Ge  Ge10  1  0.84855298  0.62102700  0.04626001  1
  Ge  Ge11  1  0.15144700  0.37897300  0.95374004  1
