# generated using pymatgen
data_TbCoCuNi2P3
_symmetry_space_group_name_H-M   'P 1'
_cell_length_a   5.83873320
_cell_length_b   5.85784721
_cell_length_c   5.85784721
_cell_angle_alpha   91.08876038
_cell_angle_beta   90.00000000
_cell_angle_gamma   90.00000000
_symmetry_Int_Tables_number   1
_chemical_formula_structural   TbCoCuNi2P3
_chemical_formula_sum   'Tb1 Co1 Cu1 Ni2 P3'
_cell_volume   200.31630259
_cell_formula_units_Z   1
loop_
 _symmetry_equiv_pos_site_id
 _symmetry_equiv_pos_as_xyz
  1  'x, y, z'
loop_
 _atom_site_type_symbol
 _atom_site_label
 _atom_site_symmetry_multiplicity
 _atom_site_fract_x
 _atom_site_fract_y
 _atom_site_fract_z
 _atom_site_occupancy
  Tb  Tb0  1  0.00317600  0.00000000  -0.00000000  1
  Ni  Ni1  1  0.01314000  0.50000002  -0.00000002  1
  Co  Co2  1  0.01314000  0.00000000  0.50000002  1
  Ni  Ni3  1  0.49466298  0.00000000  -0.00000000  1
  P  P4  1  0.74034398  0.73442902  0.73442900  1
  Cu  Cu5  1  0.74034398  0.26557101  0.26557100  1
  P  P6  1  0.24759699  0.24126701  0.75873302  1
  P  P7  1  0.24759699  0.75873302  0.24126698  1
