# generated using pymatgen
data_Sr2AcIn
_symmetry_space_group_name_H-M   'P 1'
_cell_length_a   6.37168980
_cell_length_b   6.37168980
_cell_length_c   6.37168980
_cell_angle_alpha   60.00000000
_cell_angle_beta   60.00000000
_cell_angle_gamma   60.00000000
_symmetry_Int_Tables_number   1
_chemical_formula_structural   Sr2AcIn
_chemical_formula_sum   'Sr2 Ac1 In1'
_cell_volume   182.91481185
_cell_formula_units_Z   1
loop_
 _symmetry_equiv_pos_site_id
 _symmetry_equiv_pos_as_xyz
  1  'x, y, z'
loop_
 _atom_site_type_symbol
 _atom_site_label
 _atom_site_symmetry_multiplicity
 _atom_site_fract_x
 _atom_site_fract_y
 _atom_site_fract_z
 _atom_site_occupancy
  Sr  Sr0  1  0.00000000  0.00000000  0.00000000  1
  Ac  Ac1  1  0.74999999  0.74999999  0.74999999  1
  Sr  Sr2  1  0.25000000  0.25000000  0.25000000  1
  In  In3  1  0.49999999  0.49999999  0.49999999  1
