# generated using pymatgen
data_YNiP3
_symmetry_space_group_name_H-M   'P 1'
_cell_length_a   4.78204966
_cell_length_b   4.78204966
_cell_length_c   4.78204966
_cell_angle_alpha   90.08065796
_cell_angle_beta   89.91934204
_cell_angle_gamma   89.91934204
_symmetry_Int_Tables_number   1
_chemical_formula_structural   YNiP3
_chemical_formula_sum   'Y1 Ni1 P3'
_cell_volume   109.35558095
_cell_formula_units_Z   1
loop_
 _symmetry_equiv_pos_site_id
 _symmetry_equiv_pos_as_xyz
  1  'x, y, z'
loop_
 _atom_site_type_symbol
 _atom_site_label
 _atom_site_symmetry_multiplicity
 _atom_site_fract_x
 _atom_site_fract_y
 _atom_site_fract_z
 _atom_site_occupancy
  Y  Y0  1  0.94606802  0.05393200  0.05393199  1
  Ni  Ni1  1  0.45278898  0.54721102  0.54721098  1
  P  P2  1  0.45682101  0.04650400  0.54317898  1
  P  P3  1  0.45682098  0.54317902  0.04650400  1
  P  P4  1  0.95349600  0.54317902  0.54317898  1
