# generated using pymatgen
data_LaY3In4
_symmetry_space_group_name_H-M   'P 1'
_cell_length_a   4.90802383
_cell_length_b   4.96219397
_cell_length_c   9.69044590
_cell_angle_alpha   90.00000000
_cell_angle_beta   90.00000000
_cell_angle_gamma   90.00000000
_symmetry_Int_Tables_number   1
_chemical_formula_structural   LaY3In4
_chemical_formula_sum   'La1 Y3 In4'
_cell_volume   236.00660671
_cell_formula_units_Z   1
loop_
 _symmetry_equiv_pos_site_id
 _symmetry_equiv_pos_as_xyz
  1  'x, y, z'
loop_
 _atom_site_type_symbol
 _atom_site_label
 _atom_site_symmetry_multiplicity
 _atom_site_fract_x
 _atom_site_fract_y
 _atom_site_fract_z
 _atom_site_occupancy
  Y  Y0  1  0.00000000  0.00000000  0.24514000  1
  La  La1  1  0.00000000  0.00000000  0.75486001  1
  Y  Y2  1  0.00000000  0.50000000  0.00000000  1
  Y  Y3  1  0.50000002  0.00000000  0.50000001  1
  In  In4  1  0.50000002  0.00000000  0.00000000  1
  In  In5  1  0.50000002  0.50000000  0.24783200  1
  In  In6  1  0.50000002  0.50000000  0.75216801  1
  In  In7  1  0.00000000  0.50000000  0.50000001  1
