# generated using pymatgen
data_LaErIn3Sn2PdAu2
_symmetry_space_group_name_H-M   'P 1'
_cell_length_a   3.86511207
_cell_length_b   7.72212219
_cell_length_c   7.72212219
_cell_angle_alpha   90.00000000
_cell_angle_beta   90.00000000
_cell_angle_gamma   90.00000000
_symmetry_Int_Tables_number   1
_chemical_formula_structural   LaErIn3Sn2PdAu2
_chemical_formula_sum   'La1 Er1 In3 Sn2 Pd1 Au2'
_cell_volume   230.48115915
_cell_formula_units_Z   1
loop_
 _symmetry_equiv_pos_site_id
 _symmetry_equiv_pos_as_xyz
  1  'x, y, z'
loop_
 _atom_site_type_symbol
 _atom_site_label
 _atom_site_symmetry_multiplicity
 _atom_site_fract_x
 _atom_site_fract_y
 _atom_site_fract_z
 _atom_site_occupancy
  Er  Er0  1  -0.00000000  0.67551598  0.17551600  1
  La  La1  1  -0.00000000  0.32448399  0.82448398  1
  In  In2  1  0.99999998  0.17551600  0.32448399  1
  In  In3  1  0.99999998  0.82448398  0.67551598  1
  In  In4  1  0.49999999  0.49999999  0.49999999  1
  Sn  Sn5  1  0.49999999  0.00000000  0.00000000  1
  Pd  Pd6  1  0.49999999  0.88183698  0.38183699  1
  Sn  Sn7  1  0.49999999  0.11816300  0.61816298  1
  Au  Au8  1  0.49999999  0.38183699  0.11816300  1
  Au  Au9  1  0.49999999  0.61816298  0.88183698  1
