# generated using pymatgen
data_YErAl3Si5
_symmetry_space_group_name_H-M   'P 1'
_cell_length_a   4.36281013
_cell_length_b   4.37615395
_cell_length_c   10.02762508
_cell_angle_alpha   90.00000000
_cell_angle_beta   90.00000000
_cell_angle_gamma   90.00000000
_symmetry_Int_Tables_number   1
_chemical_formula_structural   YErAl3Si5
_chemical_formula_sum   'Y1 Er1 Al3 Si5'
_cell_volume   191.45071506
_cell_formula_units_Z   1
loop_
 _symmetry_equiv_pos_site_id
 _symmetry_equiv_pos_as_xyz
  1  'x, y, z'
loop_
 _atom_site_type_symbol
 _atom_site_label
 _atom_site_symmetry_multiplicity
 _atom_site_fract_x
 _atom_site_fract_y
 _atom_site_fract_z
 _atom_site_occupancy
  Y  Y0  1  0.24986499  0.00000000  0.74695599  1
  Er  Er1  1  0.74986498  0.50000001  0.25304400  1
  Al  Al2  1  0.22365999  0.00000000  0.13204300  1
  Al  Al3  1  0.72365998  0.50000001  0.86795699  1
  Al  Al4  1  0.26925699  0.50000001  0.49822400  1
  Si  Si5  1  0.76925698  0.00000000  0.50177600  1
  Si  Si6  1  0.26968499  0.00000000  0.37600600  1
  Si  Si7  1  0.76968498  0.50000001  0.62399399  1
  Si  Si8  1  0.22153299  0.50000001  0.99776299  1
  Si  Si9  1  0.72153298  0.00000000  0.00223700  1
