# generated using pymatgen
data_NaLi5O6
_symmetry_space_group_name_H-M   'P 1'
_cell_length_a   5.37245703
_cell_length_b   5.44038486
_cell_length_c   5.45400000
_cell_angle_alpha   99.70416260
_cell_angle_beta   90.00000000
_cell_angle_gamma   90.00000000
_symmetry_Int_Tables_number   1
_chemical_formula_structural   NaLi5O6
_chemical_formula_sum   'Na1 Li5 O6'
_cell_volume   157.12981457
_cell_formula_units_Z   1
loop_
 _symmetry_equiv_pos_site_id
 _symmetry_equiv_pos_as_xyz
  1  'x, y, z'
loop_
 _atom_site_type_symbol
 _atom_site_label
 _atom_site_symmetry_multiplicity
 _atom_site_fract_x
 _atom_site_fract_y
 _atom_site_fract_z
 _atom_site_occupancy
  Li  Li0  1  0.52137100  0.32067200  0.71585899  1
  Li  Li1  1  0.47862900  0.67932801  0.28414096  1
  Li  Li2  1  0.02137100  0.67932801  0.78414097  1
  Na  Na3  1  0.97862900  0.32067200  0.21585898  1
  Li  Li4  1  0.75281000  0.53792301  0.50915298  1
  O  O5  1  0.24719000  0.46207701  0.49084698  1
  O  O6  1  0.25281000  0.46207701  0.99084699  1
  Li  Li7  1  0.74719000  0.53792301  0.00915297  1
  O  O8  1  0.82853100  0.04932100  0.84145801  1
  O  O9  1  0.17146900  0.95067901  0.15854194  1
  O  O10  1  0.32853100  0.95067901  0.65854195  1
  O  O11  1  0.67146900  0.04932100  0.34145800  1
