# generated using pymatgen
data_Hf2ZrMnAl2Fe2SiGe2P
_symmetry_space_group_name_H-M   'P 1'
_cell_length_a   6.66744280
_cell_length_b   6.69578218
_cell_length_c   6.81031132
_cell_angle_alpha   90.00000000
_cell_angle_beta   79.11846161
_cell_angle_gamma   90.00000000
_symmetry_Int_Tables_number   1
_chemical_formula_structural   Hf2ZrMnAl2Fe2SiGe2P
_chemical_formula_sum   'Hf2 Zr1 Mn1 Al2 Fe2 Si1 Ge2 P1'
_cell_volume   298.57107593
_cell_formula_units_Z   1
loop_
 _symmetry_equiv_pos_site_id
 _symmetry_equiv_pos_as_xyz
  1  'x, y, z'
loop_
 _atom_site_type_symbol
 _atom_site_label
 _atom_site_symmetry_multiplicity
 _atom_site_fract_x
 _atom_site_fract_y
 _atom_site_fract_z
 _atom_site_occupancy
  Mn  Mn0  1  0.31167701  0.45603199  0.79392899  1
  Hf  Hf1  1  0.68832302  0.54396799  0.20607100  1
  Hf  Hf2  1  0.31167701  0.04396800  0.29392900  1
  Zr  Zr3  1  0.68832302  0.95603197  0.70607099  1
  Al  Al4  1  0.43771701  0.75806698  0.01134100  1
  P  P5  1  0.43771701  0.74193298  0.51134099  1
  Ge  Ge6  1  0.56228302  0.24193299  0.98865899  1
  Al  Al7  1  0.56228302  0.25806699  0.48865900  1
  Fe  Fe8  1  0.93490603  0.66173098  0.83552399  1
  Si  Si9  1  0.06509400  0.16173100  0.66447599  1
  Fe  Fe10  1  0.06509400  0.33826899  0.16447600  1
  Ge  Ge11  1  0.93490603  0.83826898  0.33552400  1
