# generated using pymatgen
data_SrCoNiP2
_symmetry_space_group_name_H-M   'P 1'
_cell_length_a   3.83001208
_cell_length_b   3.83001208
_cell_length_c   6.74067211
_cell_angle_alpha   106.50489044
_cell_angle_beta   106.50489044
_cell_angle_gamma   90.00000000
_symmetry_Int_Tables_number   1
_chemical_formula_structural   SrCoNiP2
_chemical_formula_sum   'Sr1 Co1 Ni1 P2'
_cell_volume   90.54721856
_cell_formula_units_Z   1
loop_
 _symmetry_equiv_pos_site_id
 _symmetry_equiv_pos_as_xyz
  1  'x, y, z'
loop_
 _atom_site_type_symbol
 _atom_site_label
 _atom_site_symmetry_multiplicity
 _atom_site_fract_x
 _atom_site_fract_y
 _atom_site_fract_z
 _atom_site_occupancy
  Sr  Sr0  1  0.00000000  0.00000000  0.00000000  1
  Co  Co1  1  0.74999998  0.24999999  0.49999999  1
  Ni  Ni2  1  0.24999999  0.74999998  0.49999999  1
  P  P3  1  0.66145598  0.66145598  0.32291199  1
  P  P4  1  0.33854399  0.33854399  0.67708799  1
