# generated using pymatgen
data_Y2In3SnPdAu5
_symmetry_space_group_name_H-M   'P 1'
_cell_length_a   4.48866177
_cell_length_b   7.17360401
_cell_length_c   7.92197514
_cell_angle_alpha   90.00000000
_cell_angle_beta   90.00000000
_cell_angle_gamma   90.00000000
_symmetry_Int_Tables_number   1
_chemical_formula_structural   Y2In3SnPdAu5
_chemical_formula_sum   'Y2 In3 Sn1 Pd1 Au5'
_cell_volume   255.08666499
_cell_formula_units_Z   1
loop_
 _symmetry_equiv_pos_site_id
 _symmetry_equiv_pos_as_xyz
  1  'x, y, z'
loop_
 _atom_site_type_symbol
 _atom_site_label
 _atom_site_symmetry_multiplicity
 _atom_site_fract_x
 _atom_site_fract_y
 _atom_site_fract_z
 _atom_site_occupancy
  Y  Y0  1  0.75000004  0.47257800  0.82443499  1
  Y  Y1  1  0.25000001  0.02742200  0.32443499  1
  In  In2  1  0.75000004  0.97257800  0.67556499  1
  In  In3  1  0.25000001  0.52742200  0.17556500  1
  In  In4  1  0.25000001  0.64134600  0.55883199  1
  Sn  Sn5  1  0.25000001  0.14134600  0.94116798  1
  Au  Au6  1  0.75000004  0.35865400  0.44116799  1
  Au  Au7  1  0.75000004  0.85865400  0.05883200  1
  Au  Au8  1  0.25000001  0.77900000  0.87178799  1
  Au  Au9  1  0.25000001  0.27900000  0.62821199  1
  Pd  Pd10  1  0.75000004  0.72100000  0.37178799  1
  Au  Au11  1  0.75000004  0.22100000  0.12821200  1
