# generated using pymatgen
data_NaLiCu6AsP5
_symmetry_space_group_name_H-M   'P 1'
_cell_length_a   5.48095894
_cell_length_b   7.84897280
_cell_length_c   7.84895134
_cell_angle_alpha   120.00028992
_cell_angle_beta   90.00000000
_cell_angle_gamma   90.00000000
_symmetry_Int_Tables_number   1
_chemical_formula_structural   NaLiCu6AsP5
_chemical_formula_sum   'Na1 Li1 Cu6 As1 P5'
_cell_volume   292.42222146
_cell_formula_units_Z   1
loop_
 _symmetry_equiv_pos_site_id
 _symmetry_equiv_pos_as_xyz
  1  'x, y, z'
loop_
 _atom_site_type_symbol
 _atom_site_label
 _atom_site_symmetry_multiplicity
 _atom_site_fract_x
 _atom_site_fract_y
 _atom_site_fract_z
 _atom_site_occupancy
  Li  Li0  1  0.75000001  0.06951200  0.72080402  1
  Na  Na1  1  0.75000001  0.27918701  0.34870202  1
  Cu  Cu2  1  0.75000001  0.65129901  0.93048805  1
  Cu  Cu3  1  0.25000000  0.93048802  0.27919604  1
  Cu  Cu4  1  0.25000000  0.72081301  0.65129804  1
  Cu  Cu5  1  0.25000000  0.34870101  0.06951202  1
  Cu  Cu6  1  0.25000000  0.33333334  0.66666670  1
  Cu  Cu7  1  0.75000001  0.66666668  0.33333337  1
  P  P8  1  0.25000000  0.07694500  0.69665302  1
  As  As9  1  0.25000000  0.30334501  0.38028602  1
  P  P10  1  0.25000000  0.61971801  0.92306105  1
  P  P11  1  0.75000001  0.92305502  0.30334704  1
  P  P12  1  0.75000001  0.69665501  0.61971404  1
  P  P13  1  0.75000001  0.38028201  0.07693902  1
