# generated using pymatgen
data_Li5MnO12
_symmetry_space_group_name_H-M   'P 1'
_cell_length_a   5.62176323
_cell_length_b   5.62569952
_cell_length_c   7.32502031
_cell_angle_alpha   72.28285980
_cell_angle_beta   72.25820923
_cell_angle_gamma   72.36260986
_symmetry_Int_Tables_number   1
_chemical_formula_structural   Li5MnO12
_chemical_formula_sum   'Li5 Mn1 O12'
_cell_volume   204.45847961
_cell_formula_units_Z   1
loop_
 _symmetry_equiv_pos_site_id
 _symmetry_equiv_pos_as_xyz
  1  'x, y, z'
loop_
 _atom_site_type_symbol
 _atom_site_label
 _atom_site_symmetry_multiplicity
 _atom_site_fract_x
 _atom_site_fract_y
 _atom_site_fract_z
 _atom_site_occupancy
  Li  Li0  1  0.33319496  0.34266499  0.16209903  1
  Li  Li1  1  0.32939496  0.33245299  0.66530403  1
  Li  Li2  1  0.67237092  0.67492798  0.33506906  1
  Li  Li3  1  0.65706392  0.66773498  0.83752906  1
  Mn  Mn4  1  0.99599588  0.99755597  0.49495610  1
  Li  Li5  1  0.00894694  0.98774497  0.00627105  1
  O  O6  1  0.90234490  0.89791598  0.29659209  1
  O  O7  1  0.30484294  0.69467398  0.00102705  1
  O  O8  1  0.36364592  0.97679998  0.33052707  1
  O  O9  1  0.02477396  0.63616198  0.66995503  1
  O  O10  1  0.09822699  0.09693000  0.70221100  1
  O  O11  1  0.43821595  0.43997699  0.36735904  1
  O  O12  1  0.76707291  0.76548998  0.03587308  1
  O  O13  1  0.23329597  0.23258099  0.96278501  1
  O  O14  1  0.56276793  0.56473799  0.63218405  1
  O  O15  1  0.63398096  0.03067700  0.66639402  1
  O  O16  1  0.97094292  0.36495499  0.33400106  1
  O  O17  1  0.70292194  0.29601899  0.99986304  1
