# generated using pymatgen
data_MnAl8GaSi6
_symmetry_space_group_name_H-M   'P 1'
_cell_length_a   5.56357622
_cell_length_b   5.56357574
_cell_length_c   9.06178284
_cell_angle_alpha   90.00000000
_cell_angle_beta   90.00000000
_cell_angle_gamma   120.00000000
_symmetry_Int_Tables_number   1
_chemical_formula_structural   MnAl8GaSi6
_chemical_formula_sum   'Mn1 Al8 Ga1 Si6'
_cell_volume   242.91387909
_cell_formula_units_Z   1
loop_
 _symmetry_equiv_pos_site_id
 _symmetry_equiv_pos_as_xyz
  1  'x, y, z'
loop_
 _atom_site_type_symbol
 _atom_site_label
 _atom_site_symmetry_multiplicity
 _atom_site_fract_x
 _atom_site_fract_y
 _atom_site_fract_z
 _atom_site_occupancy
  Ga  Ga0  1  0.00000000  0.00000000  0.50000001  1
  Al  Al1  1  0.00000000  0.00000000  0.00000000  1
  Mn  Mn2  1  0.66666664  0.33333334  0.75000001  1
  Al  Al3  1  0.33333331  0.66666668  0.25000000  1
  Al  Al4  1  0.49999998  0.00000000  0.50000001  1
  Al  Al5  1  0.49999997  0.50000001  0.50000001  1
  Al  Al6  1  0.99999995  0.50000001  0.50000001  1
  Al  Al7  1  0.49999998  0.00000000  -0.00000000  1
  Al  Al8  1  0.49999997  0.50000001  1.00000002  1
  Al  Al9  1  0.99999995  0.50000001  -0.00000000  1
  Si  Si10  1  0.16619898  0.83380201  0.75000001  1
  Si  Si11  1  0.66760296  0.83380201  0.75000001  1
  Si  Si12  1  0.16619899  0.33239800  0.75000001  1
  Si  Si13  1  0.83380096  0.16619800  0.25000000  1
  Si  Si14  1  0.33239698  0.16619800  0.25000000  1
  Si  Si15  1  0.83380096  0.66760201  0.25000000  1
