# generated using pymatgen
data_Cu3Ge(SeS)2
_symmetry_space_group_name_H-M   'P 1'
_cell_length_a   5.55882215
_cell_length_b   5.55882215
_cell_length_c   6.60267544
_cell_angle_alpha   114.89472198
_cell_angle_beta   114.89472198
_cell_angle_gamma   90.00000000
_symmetry_Int_Tables_number   1
_chemical_formula_structural   Cu3Ge(SeS)2
_chemical_formula_sum   'Cu3 Ge1 Se2 S2'
_cell_volume   163.93312985
_cell_formula_units_Z   1
loop_
 _symmetry_equiv_pos_site_id
 _symmetry_equiv_pos_as_xyz
  1  'x, y, z'
loop_
 _atom_site_type_symbol
 _atom_site_label
 _atom_site_symmetry_multiplicity
 _atom_site_fract_x
 _atom_site_fract_y
 _atom_site_fract_z
 _atom_site_occupancy
  Cu  Cu0  1  0.74999999  0.25000000  0.50000003  1
  Cu  Cu1  1  0.25000002  0.74999999  0.50000004  1
  Cu  Cu2  1  0.00000000  0.00000000  0.00000000  1
  Ge  Ge3  1  0.50000001  0.49999999  0.00000003  1
  Se  Se4  1  0.86134401  0.86134399  0.27170905  1
  S  S5  1  0.58963499  0.13865700  0.72829203  1
  S  S6  1  0.41036501  0.41036500  0.27170903  1
  Se  Se7  1  0.13865601  0.58963399  0.72829003  1
