# generated using pymatgen
data_K3Tl2Ni3S3Cl2
_symmetry_space_group_name_H-M   'P 1'
_cell_length_a   4.28721189
_cell_length_b   8.66856384
_cell_length_c   9.10136318
_cell_angle_alpha   63.63725281
_cell_angle_beta   76.37738037
_cell_angle_gamma   75.68309021
_symmetry_Int_Tables_number   1
_chemical_formula_structural   K3Tl2Ni3S3Cl2
_chemical_formula_sum   'K3 Tl2 Ni3 S3 Cl2'
_cell_volume   290.55822420
_cell_formula_units_Z   1
loop_
 _symmetry_equiv_pos_site_id
 _symmetry_equiv_pos_as_xyz
  1  'x, y, z'
loop_
 _atom_site_type_symbol
 _atom_site_label
 _atom_site_symmetry_multiplicity
 _atom_site_fract_x
 _atom_site_fract_y
 _atom_site_fract_z
 _atom_site_occupancy
  K  K0  1  0.16006209  0.91660296  0.76327297  1
  K  K1  1  0.56044808  0.67675297  0.20235098  1
  K  K2  1  0.43955204  0.32324699  0.79764898  1
  Tl  Tl3  1  0.83993803  0.08339700  0.23672700  1
  Ni  Ni4  1  0.02397708  0.87522496  0.07682098  1
  Ni  Ni5  1  0.31463301  0.00000000  0.00000000  1
  Ni  Ni6  1  0.97602303  0.12477499  0.92317899  1
  Tl  Tl7  1  0.68536702  0.00000000  0.00000000  1
  Cl  Cl8  1  0.24741104  0.35350398  0.15167399  1
  Cl  Cl9  1  0.00000005  0.49999998  0.49999998  1
  S  S10  1  0.35119309  0.85427396  0.44333997  1
  S  S11  1  0.64880703  0.14572599  0.55665999  1
  S  S12  1  0.75258908  0.64649597  0.84832598  1
