# generated using pymatgen
data_La8YTlSn5
_symmetry_space_group_name_H-M   'P 1'
_cell_length_a   6.31455183
_cell_length_b   10.09773159
_cell_length_c   10.09773159
_cell_angle_alpha   84.38959503
_cell_angle_beta   71.77967834
_cell_angle_gamma   71.77967834
_symmetry_Int_Tables_number   1
_chemical_formula_structural   La8YTlSn5
_chemical_formula_sum   'La8 Y1 Tl1 Sn5'
_cell_volume   580.91218329
_cell_formula_units_Z   1
loop_
 _symmetry_equiv_pos_site_id
 _symmetry_equiv_pos_as_xyz
  1  'x, y, z'
loop_
 _atom_site_type_symbol
 _atom_site_label
 _atom_site_symmetry_multiplicity
 _atom_site_fract_x
 _atom_site_fract_y
 _atom_site_fract_z
 _atom_site_occupancy
  Y  Y0  1  0.84003998  0.63425702  0.19085401  1
  La  La1  1  0.66515200  0.36574301  0.80914501  1
  La  La2  1  0.33484800  0.19085501  0.63425701  1
  La  La3  1  0.15995994  0.80914502  0.36574403  1
  La  La4  1  0.52570396  0.80914502  0.63425603  1
  La  La5  1  0.96910502  0.19085501  0.36574299  1
  La  La6  1  0.47429699  0.36574301  0.19085501  1
  Sn  Sn7  1  0.03089395  0.63425702  0.80914604  1
  La  La8  1  0.49999994  1.00000003  0.00000003  1
  La  La9  1  0.88171396  1.00000003  0.70711203  1
  Sn  Sn10  1  0.58882595  1.00000003  0.29288803  1
  Sn  Sn11  1  0.41117396  0.70711202  0.00000002  1
  Sn  Sn12  1  0.11828598  0.29288801  0.00000001  1
  Tl  Tl13  1  0.49999998  0.50000001  0.50000002  1
  Sn  Sn14  1  -0.00000004  0.50000001  0.50000003  1
