# generated using pymatgen
data_CaLaPrY2Mg(InSn4)2
_symmetry_space_group_name_H-M   'P 1'
_cell_length_a   8.27314186
_cell_length_b   8.27314186
_cell_length_c   9.64344883
_cell_angle_alpha   115.40103149
_cell_angle_beta   115.40103149
_cell_angle_gamma   90.00000000
_symmetry_Int_Tables_number   1
_chemical_formula_structural   CaLaPrY2Mg(InSn4)2
_chemical_formula_sum   'Ca1 La1 Pr1 Y2 Mg1 In2 Sn8'
_cell_volume   524.72570899
_cell_formula_units_Z   1
loop_
 _symmetry_equiv_pos_site_id
 _symmetry_equiv_pos_as_xyz
  1  'x, y, z'
loop_
 _atom_site_type_symbol
 _atom_site_label
 _atom_site_symmetry_multiplicity
 _atom_site_fract_x
 _atom_site_fract_y
 _atom_site_fract_z
 _atom_site_occupancy
  Y  Y0  1  0.25000000  0.25000000  0.50000002  1
  La  La1  1  0.75000001  0.75000001  0.50000002  1
  Mg  Mg2  1  0.83027301  0.66972801  0.00000100  1
  Pr  Pr3  1  0.66972701  0.16972700  1.00000004  1
  Ca  Ca4  1  0.33027301  0.83027301  0.00000000  1
  Y  Y5  1  0.16972700  0.33027201  0.99999904  1
  In  In6  1  0.00000000  0.00000000  0.00000000  1
  In  In7  1  0.50000001  0.50000001  0.00000000  1
  Sn  Sn8  1  0.96752602  0.46752601  0.24379001  1
  Sn  Sn9  1  0.77626401  0.96752602  0.24379001  1
  Sn  Sn10  1  0.46752601  0.27626400  0.24379001  1
  Sn  Sn11  1  0.27626401  0.77626401  0.24379001  1
  Sn  Sn12  1  0.72373601  0.22373600  0.75621003  1
  Sn  Sn13  1  0.53247401  0.72373601  0.75621003  1
  Sn  Sn14  1  0.22373600  0.03247400  0.75621003  1
  Sn  Sn15  1  0.03247400  0.53247401  0.75621003  1
