# generated using pymatgen
data_MnFe11
_symmetry_space_group_name_H-M   'P 1'
_cell_length_a   5.16283417
_cell_length_b   5.16283417
_cell_length_c   6.92605972
_cell_angle_alpha   68.11710358
_cell_angle_beta   68.11710358
_cell_angle_gamma   59.99999619
_symmetry_Int_Tables_number   1
_chemical_formula_structural   MnFe11
_chemical_formula_sum   'Mn1 Fe11'
_cell_volume   144.31582998
_cell_formula_units_Z   1
loop_
 _symmetry_equiv_pos_site_id
 _symmetry_equiv_pos_as_xyz
  1  'x, y, z'
loop_
 _atom_site_type_symbol
 _atom_site_label
 _atom_site_symmetry_multiplicity
 _atom_site_fract_x
 _atom_site_fract_y
 _atom_site_fract_z
 _atom_site_occupancy
  Mn  Mn0  1  0.00000000  0.00000000  0.00000000  1
  Fe  Fe1  1  0.21843100  0.21843100  0.34470701  1
  Fe  Fe2  1  0.78156900  0.78156902  0.65529303  1
  Fe  Fe3  1  0.50000000  0.50000001  0.00000002  1
  Fe  Fe4  1  -0.00000001  0.50000001  0.00000001  1
  Fe  Fe5  1  0.50000001  0.00000000  0.00000001  1
  Fe  Fe6  1  0.71394101  0.24188201  0.33023602  1
  Fe  Fe7  1  0.71394100  0.71394102  0.33023603  1
  Fe  Fe8  1  0.24188200  0.71394102  0.33023602  1
  Fe  Fe9  1  0.75811801  0.28605901  0.66976402  1
  Fe  Fe10  1  0.28605900  0.75811802  0.66976402  1
  Fe  Fe11  1  0.28605900  0.28605901  0.66976400  1
