# generated using pymatgen
data_LaErSnAu3
_symmetry_space_group_name_H-M   'P 1'
_cell_length_a   4.62364817
_cell_length_b   4.62364769
_cell_length_c   7.22211981
_cell_angle_alpha   90.00000000
_cell_angle_beta   90.00000000
_cell_angle_gamma   120.00000763
_symmetry_Int_Tables_number   1
_chemical_formula_structural   LaErSnAu3
_chemical_formula_sum   'La1 Er1 Sn1 Au3'
_cell_volume   133.71028080
_cell_formula_units_Z   1
loop_
 _symmetry_equiv_pos_site_id
 _symmetry_equiv_pos_as_xyz
  1  'x, y, z'
loop_
 _atom_site_type_symbol
 _atom_site_label
 _atom_site_symmetry_multiplicity
 _atom_site_fract_x
 _atom_site_fract_y
 _atom_site_fract_z
 _atom_site_occupancy
  Er  Er0  1  0.00000000  0.00000000  0.50000001  1
  La  La1  1  0.00000000  0.00000000  0.00000000  1
  Sn  Sn2  1  0.66666667  0.33333333  0.75000002  1
  Au  Au3  1  0.33333337  0.66666666  0.25000001  1
  Au  Au4  1  0.66666667  0.33333333  0.25000001  1
  Au  Au5  1  0.33333337  0.66666666  0.75000002  1
