# generated using pymatgen
data_ErLuAlIn2SnPdAu2
_symmetry_space_group_name_H-M   'P 1'
_cell_length_a   3.95665693
_cell_length_b   7.99772596
_cell_length_c   7.99772596
_cell_angle_alpha   120.00000000
_cell_angle_beta   90.00000000
_cell_angle_gamma   90.00000000
_symmetry_Int_Tables_number   1
_chemical_formula_structural   ErLuAlIn2SnPdAu2
_chemical_formula_sum   'Er1 Lu1 Al1 In2 Sn1 Pd1 Au2'
_cell_volume   219.17553031
_cell_formula_units_Z   1
loop_
 _symmetry_equiv_pos_site_id
 _symmetry_equiv_pos_as_xyz
  1  'x, y, z'
loop_
 _atom_site_type_symbol
 _atom_site_label
 _atom_site_symmetry_multiplicity
 _atom_site_fract_x
 _atom_site_fract_y
 _atom_site_fract_z
 _atom_site_occupancy
  Er  Er0  1  0.50000001  0.00000000  -0.00000000  1
  Lu  Lu1  1  0.25093500  0.33333334  0.66666668  1
  Al  Al2  1  0.74906501  0.66666667  0.33333334  1
  In  In3  1  0.25050000  0.92021001  0.61756402  1
  Pd  Pd4  1  0.25050000  0.69735401  0.07979001  1
  In  In5  1  0.25050000  0.38243600  0.30264601  1
  Au  Au6  1  0.74950001  0.07979000  0.38243601  1
  Au  Au7  1  0.74950001  0.30264600  0.92021002  1
  Sn  Sn8  1  0.74950001  0.61756401  0.69735402  1
