# generated using pymatgen
data_LiCuO3
_symmetry_space_group_name_H-M   'P 1'
_cell_length_a   5.23244095
_cell_length_b   6.64847660
_cell_length_c   6.64847660
_cell_angle_alpha   85.94575500
_cell_angle_beta   81.87577057
_cell_angle_gamma   81.87577057
_symmetry_Int_Tables_number   1
_chemical_formula_structural   LiCuO3
_chemical_formula_sum   'Li4 Cu4 O12'
_cell_volume   226.36266572
_cell_formula_units_Z   4
loop_
 _symmetry_equiv_pos_site_id
 _symmetry_equiv_pos_as_xyz
  1  'x, y, z'
loop_
 _atom_site_type_symbol
 _atom_site_label
 _atom_site_symmetry_multiplicity
 _atom_site_fract_x
 _atom_site_fract_y
 _atom_site_fract_z
 _atom_site_occupancy
  Li  Li0  1  0.75000000  0.09353400  0.90646599  1
  Li  Li1  1  0.24999993  0.90646603  0.09353401  1
  Li  Li2  1  0.74999994  0.72976403  0.27023598  1
  Li  Li3  1  0.24999998  0.27023601  0.72976401  1
  Cu  Cu4  1  0.78857999  0.20484801  0.39441697  1
  Cu  Cu5  1  0.71141995  0.60558302  0.79515200  1
  Cu  Cu6  1  0.21141993  0.79515203  0.60558302  1
  Cu  Cu7  1  0.28857997  0.39441701  0.20484800  1
  O  O8  1  0.59642397  0.42994202  0.29050998  1
  O  O9  1  0.90357594  0.70949003  0.57005798  1
  O  O10  1  0.40357595  0.57005802  0.70949001  1
  O  O11  1  0.09642398  0.29051001  0.42994201  1
  O  O12  1  0.11796795  0.62577002  0.14070101  1
  O  O13  1  0.38203193  0.85929903  0.37423001  1
  O  O14  1  0.88203197  0.37423001  0.85929899  1
  O  O15  1  0.61796799  0.14070101  0.62576999  1
  O  O16  1  0.86808800  0.02463300  0.20586396  1
  O  O17  1  0.63191194  0.79413603  0.97536701  1
  O  O18  1  0.13191192  0.97536704  0.79413603  1
  O  O19  1  0.36808798  0.20586401  0.02463299  1
