# generated using pymatgen
data_LiHf(AlSi)3
_symmetry_space_group_name_H-M   'P 1'
_cell_length_a   4.46260309
_cell_length_b   5.61023378
_cell_length_c   5.61023378
_cell_angle_alpha   120.00000000
_cell_angle_beta   90.00000000
_cell_angle_gamma   90.00000000
_symmetry_Int_Tables_number   1
_chemical_formula_structural   LiHf(AlSi)3
_chemical_formula_sum   'Li1 Hf1 Al3 Si3'
_cell_volume   121.64123251
_cell_formula_units_Z   1
loop_
 _symmetry_equiv_pos_site_id
 _symmetry_equiv_pos_as_xyz
  1  'x, y, z'
loop_
 _atom_site_type_symbol
 _atom_site_label
 _atom_site_symmetry_multiplicity
 _atom_site_fract_x
 _atom_site_fract_y
 _atom_site_fract_z
 _atom_site_occupancy
  Hf  Hf0  1  0.24999999  0.66666669  0.33333333  1
  Li  Li1  1  0.74999998  0.33333334  0.66666667  1
  Al  Al2  1  0.74999998  0.83449703  0.16550299  1
  Al  Al3  1  0.74999998  0.33100601  0.16550300  1
  Si  Si4  1  0.74999998  0.83449703  0.66899399  1
  Al  Al5  1  0.24999999  0.16550301  0.83449701  1
  Si  Si6  1  0.24999999  0.66899402  0.83449700  1
  Si  Si7  1  0.24999999  0.16550301  0.33100600  1
