# generated using pymatgen
data_LiMgHg2
_symmetry_space_group_name_H-M   'P 1'
_cell_length_a   4.21967220
_cell_length_b   4.21967220
_cell_length_c   7.76167345
_cell_angle_alpha   74.22696686
_cell_angle_beta   74.22696686
_cell_angle_gamma   59.99999619
_symmetry_Int_Tables_number   1
_chemical_formula_structural   LiMgHg2
_chemical_formula_sum   'Li1 Mg1 Hg2'
_cell_volume   113.63743652
_cell_formula_units_Z   1
loop_
 _symmetry_equiv_pos_site_id
 _symmetry_equiv_pos_as_xyz
  1  'x, y, z'
loop_
 _atom_site_type_symbol
 _atom_site_label
 _atom_site_symmetry_multiplicity
 _atom_site_fract_x
 _atom_site_fract_y
 _atom_site_fract_z
 _atom_site_occupancy
  Li  Li0  1  0.50000002  0.50000001  0.50000001  1
  Mg  Mg1  1  0.00000000  0.00000000  0.00000000  1
  Hg  Hg2  1  0.73532203  0.73532201  0.79403402  1
  Hg  Hg3  1  0.26467801  0.26467800  0.20596601  1
