# generated using pymatgen
data_KRbRuCl3F2
_symmetry_space_group_name_H-M   'P 1'
_cell_length_a   3.91922903
_cell_length_b   3.91922903
_cell_length_c   9.34643459
_cell_angle_alpha   90.00000000
_cell_angle_beta   90.00000000
_cell_angle_gamma   90.00000000
_symmetry_Int_Tables_number   1
_chemical_formula_structural   KRbRuCl3F2
_chemical_formula_sum   'K1 Rb1 Ru1 Cl3 F2'
_cell_volume   143.56456450
_cell_formula_units_Z   1
loop_
 _symmetry_equiv_pos_site_id
 _symmetry_equiv_pos_as_xyz
  1  'x, y, z'
loop_
 _atom_site_type_symbol
 _atom_site_label
 _atom_site_symmetry_multiplicity
 _atom_site_fract_x
 _atom_site_fract_y
 _atom_site_fract_z
 _atom_site_occupancy
  K  K0  1  0.00000000  0.00000000  0.00000000  1
  Rb  Rb1  1  0.50000000  0.50000000  0.73823603  1
  Ru  Ru2  1  0.50000000  0.50000000  0.26176401  1
  Cl  Cl3  1  0.00000000  0.00000000  0.50000002  1
  Cl  Cl4  1  0.00000000  0.50000000  0.15036301  1
  Cl  Cl5  1  0.50000000  0.00000000  0.84963704  1
  F  F6  1  0.50000000  0.00000000  0.15036301  1
  F  F7  1  0.00000000  0.50000000  0.84963704  1
