# generated using pymatgen
data_KTlCu5TeSe6
_symmetry_space_group_name_H-M   'P 1'
_cell_length_a   4.04307413
_cell_length_b   9.68912220
_cell_length_c   10.47315025
_cell_angle_alpha   103.79747009
_cell_angle_beta   101.12913513
_cell_angle_gamma   90.00000000
_symmetry_Int_Tables_number   1
_chemical_formula_structural   KTlCu5TeSe6
_chemical_formula_sum   'K1 Tl1 Cu5 Te1 Se6'
_cell_volume   390.48580527
_cell_formula_units_Z   1
loop_
 _symmetry_equiv_pos_site_id
 _symmetry_equiv_pos_as_xyz
  1  'x, y, z'
loop_
 _atom_site_type_symbol
 _atom_site_label
 _atom_site_symmetry_multiplicity
 _atom_site_fract_x
 _atom_site_fract_y
 _atom_site_fract_z
 _atom_site_occupancy
  K  K0  1  0.49999999  0.49999999  0.00000000  1
  Cu  Cu1  1  0.34026099  0.01157800  0.68052201  1
  Cu  Cu2  1  0.65973899  0.98842199  0.31947800  1
  Cu  Cu3  1  0.29614200  0.66912799  0.59228400  1
  Cu  Cu4  1  0.70385798  0.33087200  0.40771601  1
  Cu  Cu5  1  0.00000000  0.00000000  0.00000000  1
  Tl  Tl6  1  0.23937799  0.15813300  0.47875600  1
  Te  Te7  1  0.76062199  0.84186699  0.52124400  1
  Se  Se8  1  0.57258299  0.15950100  0.14516600  1
  Se  Se9  1  0.42741700  0.84049899  0.85483400  1
  Se  Se10  1  0.09056301  0.83502699  0.18112600  1
  Se  Se11  1  0.90943698  0.16497300  0.81887401  1
  Se  Se12  1  0.17194200  0.49174199  0.34388400  1
  Se  Se13  1  0.82805798  0.50825799  0.65611601  1
