# generated using pymatgen
data_SrLi5
_symmetry_space_group_name_H-M   'P 1'
_cell_length_a   4.53675985
_cell_length_b   4.53675985
_cell_length_c   8.16797924
_cell_angle_alpha   90.00000000
_cell_angle_beta   90.00000000
_cell_angle_gamma   120.00000000
_symmetry_Int_Tables_number   1
_chemical_formula_structural   SrLi5
_chemical_formula_sum   'Sr1 Li5'
_cell_volume   145.59177448
_cell_formula_units_Z   1
loop_
 _symmetry_equiv_pos_site_id
 _symmetry_equiv_pos_as_xyz
  1  'x, y, z'
loop_
 _atom_site_type_symbol
 _atom_site_label
 _atom_site_symmetry_multiplicity
 _atom_site_fract_x
 _atom_site_fract_y
 _atom_site_fract_z
 _atom_site_occupancy
  Li  Li0  1  0.33333331  0.66666662  0.31552999  1
  Li  Li1  1  0.66666667  0.33333331  0.68446998  1
  Sr  Sr2  1  0.33333331  0.66666662  0.64405398  1
  Li  Li3  1  0.66666667  0.33333331  0.35594599  1
  Li  Li4  1  0.00000000  0.00000000  0.49999999  1
  Li  Li5  1  0.00000000  0.00000000  0.00000000  1
