# generated using pymatgen
data_K4Na2CaEu(OF2)3
_symmetry_space_group_name_H-M   'P 1'
_cell_length_a   7.35000181
_cell_length_b   7.35000181
_cell_length_c   10.40973759
_cell_angle_alpha   110.67305756
_cell_angle_beta   110.67305756
_cell_angle_gamma   90.00000000
_symmetry_Int_Tables_number   1
_chemical_formula_structural   K4Na2CaEu(OF2)3
_chemical_formula_sum   'K4 Na2 Ca1 Eu1 O3 F6'
_cell_volume   487.25615641
_cell_formula_units_Z   1
loop_
 _symmetry_equiv_pos_site_id
 _symmetry_equiv_pos_as_xyz
  1  'x, y, z'
loop_
 _atom_site_type_symbol
 _atom_site_label
 _atom_site_symmetry_multiplicity
 _atom_site_fract_x
 _atom_site_fract_y
 _atom_site_fract_z
 _atom_site_occupancy
  Eu  Eu0  1  0.24999999  0.75000001  0.49999996  1
  K  K1  1  0.50000001  0.00000000  -0.00000001  1
  K  K2  1  0.75000001  0.25000000  0.49999996  1
  Na  Na3  1  -0.00000001  0.50000001  -0.00000001  1
  Ca  Ca4  1  0.10658800  0.10658800  0.21317599  1
  Na  Na5  1  0.89341200  0.89341201  0.78682393  1
  K  K6  1  0.65054500  0.65054501  0.77614594  1
  K  K7  1  0.34945499  0.87439901  0.22385396  1
  O  O8  1  0.75793800  0.75793801  0.51587595  1
  O  O9  1  0.24206200  0.24206200  0.48412397  1
  F  F10  1  0.12560100  0.12560100  0.77614596  1
  F  F11  1  0.87439900  0.87439901  0.22385396  1
  F  F12  1  0.65054501  0.12560100  0.77614595  1
  F  F13  1  0.87439901  0.34945501  0.22385397  1
  F  F14  1  0.12560099  0.65054501  0.77614595  1
  F  F15  1  0.34945500  0.34945501  0.22385398  1
  O  O16  1  0.00000000  0.00000000  0.00000000  1
