# generated using pymatgen
data_TaGa(Cu2Ni)2
_symmetry_space_group_name_H-M   'P 1'
_cell_length_a   4.32682419
_cell_length_b   5.41576767
_cell_length_c   5.41576767
_cell_angle_alpha   119.64019775
_cell_angle_beta   90.00000000
_cell_angle_gamma   90.00000000
_symmetry_Int_Tables_number   1
_chemical_formula_structural   TaGa(Cu2Ni)2
_chemical_formula_sum   'Ta1 Ga1 Cu4 Ni2'
_cell_volume   110.30193260
_cell_formula_units_Z   1
loop_
 _symmetry_equiv_pos_site_id
 _symmetry_equiv_pos_as_xyz
  1  'x, y, z'
loop_
 _atom_site_type_symbol
 _atom_site_label
 _atom_site_symmetry_multiplicity
 _atom_site_fract_x
 _atom_site_fract_y
 _atom_site_fract_z
 _atom_site_occupancy
  Ta  Ta0  1  -0.00000000  0.08934600  0.91065401  1
  Ga  Ga1  1  0.49999998  0.41752400  0.58247599  1
  Cu  Cu2  1  0.49999998  0.91364700  0.08635296  1
  Cu  Cu3  1  -0.00000000  0.58313400  0.41686598  1
  Ni  Ni4  1  0.49999998  0.91036600  0.59136097  1
  Ni  Ni5  1  0.49999998  0.40863900  0.08963398  1
  Cu  Cu6  1  0.99999996  0.08871100  0.41136700  1
  Cu  Cu7  1  -0.00000000  0.58863300  0.91128899  1
