# generated using pymatgen
data_NaLi(CuO3)2
_symmetry_space_group_name_H-M   'P 1'
_cell_length_a   5.03640795
_cell_length_b   5.20453787
_cell_length_c   7.55647802
_cell_angle_alpha   90.00000000
_cell_angle_beta   89.50049591
_cell_angle_gamma   90.00000000
_symmetry_Int_Tables_number   1
_chemical_formula_structural   NaLi(CuO3)2
_chemical_formula_sum   'Na2 Li2 Cu4 O12'
_cell_volume   198.06420401
_cell_formula_units_Z   2
loop_
 _symmetry_equiv_pos_site_id
 _symmetry_equiv_pos_as_xyz
  1  'x, y, z'
loop_
 _atom_site_type_symbol
 _atom_site_label
 _atom_site_symmetry_multiplicity
 _atom_site_fract_x
 _atom_site_fract_y
 _atom_site_fract_z
 _atom_site_occupancy
  Li  Li0  1  0.50843301  0.95357902  0.75740199  1
  Na  Na1  1  0.50000001  0.50000001  1.00000000  1
  Na  Na2  1  0.49156701  0.04642100  0.24259798  1
  Li  Li3  1  0.00843300  0.54642101  0.25740200  1
  Cu  Cu4  1  0.00000000  1.00000003  0.50000001  1
  Cu  Cu5  1  0.99156701  0.45357901  0.74259797  1
  Cu  Cu6  1  0.50000001  0.50000001  0.49999999  1
  Cu  Cu7  1  0.00000000  0.00000000  0.00000000  1
  O  O8  1  0.68159301  0.17900700  0.93735799  1
  O  O9  1  0.67072501  0.19054100  0.57914798  1
  O  O10  1  0.63779301  0.42645001  0.26416898  1
  O  O11  1  0.36220700  0.57355001  0.73583100  1
  O  O12  1  0.32927500  0.80945902  0.42085199  1
  O  O13  1  0.31840700  0.82099302  0.06264199  1
  O  O14  1  0.18159300  0.32099301  0.43735800  1
  O  O15  1  0.17072500  0.30945901  0.07914799  1
  O  O16  1  0.13779300  0.07355000  0.76416901  1
  O  O17  1  0.86220701  0.92645002  0.23583097  1
  O  O18  1  0.82927501  0.69054102  0.92085198  1
  O  O19  1  0.81840701  0.67900702  0.56264198  1
