# generated using pymatgen
data_KNa6NiO10F
_symmetry_space_group_name_H-M   'P 1'
_cell_length_a   3.97436929
_cell_length_b   3.97436929
_cell_length_c   16.77032280
_cell_angle_alpha   89.79633331
_cell_angle_beta   89.79633331
_cell_angle_gamma   90.92973328
_symmetry_Int_Tables_number   1
_chemical_formula_structural   KNa6NiO10F
_chemical_formula_sum   'K1 Na6 Ni1 O10 F1'
_cell_volume   264.85922266
_cell_formula_units_Z   1
loop_
 _symmetry_equiv_pos_site_id
 _symmetry_equiv_pos_as_xyz
  1  'x, y, z'
loop_
 _atom_site_type_symbol
 _atom_site_label
 _atom_site_symmetry_multiplicity
 _atom_site_fract_x
 _atom_site_fract_y
 _atom_site_fract_z
 _atom_site_occupancy
  Na  Na0  1  0.01921100  0.01504700  0.73002803  1
  K  K1  1  0.98495302  0.98078901  0.26997200  1
  Na  Na2  1  0.51704101  0.48963500  0.88930303  1
  Na  Na3  1  0.51036501  0.48295900  0.11069700  1
  Na  Na4  1  0.99983501  0.00016500  0.50000001  1
  Na  Na5  1  0.00808501  0.99191501  -0.00000000  1
  Na  Na6  1  0.50503301  0.50462300  0.62286602  1
  Ni  Ni7  1  0.49537701  0.49496700  0.37713401  1
  O  O8  1  0.50009101  0.49990900  0.50000001  1
  O  O9  1  0.00770101  0.99610701  0.87586303  1
  O  O10  1  0.00389301  0.99229901  0.12413700  1
  O  O11  1  0.50471501  0.50306900  0.74402702  1
  O  O12  1  0.49693101  0.49528500  0.25597301  1
  O  O13  1  0.03190401  0.49007300  0.00003600  1
  F  F14  1  0.50992702  0.96809601  0.99996403  1
  O  O15  1  0.01006401  0.55750100  0.62058802  1
  O  O16  1  0.55750500  0.00983000  0.62068302  1
  O  O17  1  0.99017001  0.44249500  0.37931701  1
  O  O18  1  0.44249902  0.98993601  0.37941201  1
