# generated using pymatgen
data_Li6CuO9
_symmetry_space_group_name_H-M   'P 1'
_cell_length_a   3.87909007
_cell_length_b   5.14682484
_cell_length_c   10.05278778
_cell_angle_alpha   90.00000000
_cell_angle_beta   90.00000000
_cell_angle_gamma   112.13826752
_symmetry_Int_Tables_number   1
_chemical_formula_structural   Li6CuO9
_chemical_formula_sum   'Li6 Cu1 O9'
_cell_volume   185.90741636
_cell_formula_units_Z   1
loop_
 _symmetry_equiv_pos_site_id
 _symmetry_equiv_pos_as_xyz
  1  'x, y, z'
loop_
 _atom_site_type_symbol
 _atom_site_label
 _atom_site_symmetry_multiplicity
 _atom_site_fract_x
 _atom_site_fract_y
 _atom_site_fract_z
 _atom_site_occupancy
  Li  Li0  1  0.35713096  0.71426197  0.57236701  1
  Li  Li1  1  0.35713096  0.71426197  0.92763302  1
  Li  Li2  1  0.30174397  0.60348797  0.25000001  1
  Li  Li3  1  0.64286898  0.28573799  0.07236700  1
  Li  Li4  1  0.64286898  0.28573799  0.42763301  1
  Li  Li5  1  0.69825597  0.39651198  0.75000002  1
  O  O6  1  0.26884297  0.53768597  0.75000002  1
  Cu  Cu7  1  0.73115697  0.46231398  0.25000001  1
  O  O8  1  0.18481798  0.36963598  0.43735101  1
  O  O9  1  0.45286495  0.90572996  0.11961200  1
  O  O10  1  0.45286495  0.90572996  0.38038801  1
  O  O11  1  0.18481798  0.36963598  0.06264900  1
  O  O12  1  0.54713499  0.09427000  0.61961201  1
  O  O13  1  0.54713499  0.09427000  0.88038802  1
  O  O14  1  0.81518196  0.63036397  0.93735102  1
  O  O15  1  0.81518196  0.63036397  0.56264901  1
