# generated using pymatgen
data_LaSnAu
_symmetry_space_group_name_H-M   'P 1'
_cell_length_a   4.57862616
_cell_length_b   7.27510023
_cell_length_c   7.98195410
_cell_angle_alpha   90.00000000
_cell_angle_beta   90.00000000
_cell_angle_gamma   90.00000000
_symmetry_Int_Tables_number   1
_chemical_formula_structural   LaSnAu
_chemical_formula_sum   'La4 Sn4 Au4'
_cell_volume   265.87860528
_cell_formula_units_Z   4
loop_
 _symmetry_equiv_pos_site_id
 _symmetry_equiv_pos_as_xyz
  1  'x, y, z'
loop_
 _atom_site_type_symbol
 _atom_site_label
 _atom_site_symmetry_multiplicity
 _atom_site_fract_x
 _atom_site_fract_y
 _atom_site_fract_z
 _atom_site_occupancy
  La  La0  1  0.24999999  0.01127700  0.30745600  1
  La  La1  1  0.24999999  0.51127698  0.19254400  1
  La  La2  1  0.74999997  0.98872297  0.69254399  1
  La  La3  1  0.74999997  0.48872298  0.80745599  1
  Sn  Sn4  1  0.24999999  0.17757999  0.91190199  1
  Sn  Sn5  1  0.24999999  0.67757998  0.58809799  1
  Au  Au6  1  0.74999997  0.82241997  0.08809800  1
  Sn  Sn7  1  0.74999997  0.32241999  0.41190199  1
  Au  Au8  1  0.24999999  0.28037799  0.58501799  1
  Sn  Sn9  1  0.24999999  0.78037798  0.91498199  1
  Au  Au10  1  0.74999997  0.71962198  0.41498199  1
  Au  Au11  1  0.74999997  0.21962199  0.08501800  1
