# generated using pymatgen
data_LaYTl3Bi
_symmetry_space_group_name_H-M   'P 1'
_cell_length_a   4.37873697
_cell_length_b   4.95475912
_cell_length_c   9.18725777
_cell_angle_alpha   101.74989319
_cell_angle_beta   90.00000000
_cell_angle_gamma   90.00000000
_symmetry_Int_Tables_number   1
_chemical_formula_structural   LaYTl3Bi
_chemical_formula_sum   'La1 Y1 Tl3 Bi1'
_cell_volume   195.14630718
_cell_formula_units_Z   1
loop_
 _symmetry_equiv_pos_site_id
 _symmetry_equiv_pos_as_xyz
  1  'x, y, z'
loop_
 _atom_site_type_symbol
 _atom_site_label
 _atom_site_symmetry_multiplicity
 _atom_site_fract_x
 _atom_site_fract_y
 _atom_site_fract_z
 _atom_site_occupancy
  Y  Y0  1  0.25000000  0.59324499  0.71008004  1
  La  La1  1  0.75000000  0.40675500  0.28992002  1
  Tl  Tl2  1  0.25000000  0.18681100  0.97867904  1
  Tl  Tl3  1  0.75000000  0.81318899  0.02132103  1
  Bi  Bi4  1  0.25000000  0.94386499  0.38675104  1
  Tl  Tl5  1  0.75000000  0.05613500  0.61324902  1
