# generated using pymatgen
data_LiY(CoNi4)2
_symmetry_space_group_name_H-M   'P 1'
_cell_length_a   5.05340815
_cell_length_b   5.05340815
_cell_length_c   6.98082209
_cell_angle_alpha   90.00000000
_cell_angle_beta   90.00000000
_cell_angle_gamma   120.00000000
_symmetry_Int_Tables_number   1
_chemical_formula_structural   LiY(CoNi4)2
_chemical_formula_sum   'Li1 Y1 Co2 Ni8'
_cell_volume   154.38530267
_cell_formula_units_Z   1
loop_
 _symmetry_equiv_pos_site_id
 _symmetry_equiv_pos_as_xyz
  1  'x, y, z'
loop_
 _atom_site_type_symbol
 _atom_site_label
 _atom_site_symmetry_multiplicity
 _atom_site_fract_x
 _atom_site_fract_y
 _atom_site_fract_z
 _atom_site_occupancy
  Y  Y0  1  0.00000000  0.00000000  0.49999999  1
  Li  Li1  1  0.00000000  0.00000000  0.00000000  1
  Ni  Ni2  1  0.66666666  0.33333335  0.99999999  1
  Ni  Ni3  1  0.33333335  0.66666669  0.99999999  1
  Co  Co4  1  0.50000000  0.50000002  0.70667899  1
  Co  Co5  1  0.50000002  1.00000004  0.70667899  1
  Ni  Ni6  1  0.00000002  0.50000002  0.70667899  1
  Ni  Ni7  1  0.50000000  0.50000002  0.29332100  1
  Ni  Ni8  1  0.50000002  1.00000004  0.29332100  1
  Ni  Ni9  1  0.00000002  0.50000002  0.29332100  1
  Ni  Ni10  1  0.33333335  0.66666669  0.49999999  1
  Ni  Ni11  1  0.66666666  0.33333335  0.49999999  1
