# generated using pymatgen
data_Na5Cu2O9
_symmetry_space_group_name_H-M   'P 1'
_cell_length_a   5.19826174
_cell_length_b   5.19826174
_cell_length_c   9.49071026
_cell_angle_alpha   90.00000000
_cell_angle_beta   90.00000000
_cell_angle_gamma   105.89507294
_symmetry_Int_Tables_number   1
_chemical_formula_structural   Na5Cu2O9
_chemical_formula_sum   'Na5 Cu2 O9'
_cell_volume   246.65158360
_cell_formula_units_Z   1
loop_
 _symmetry_equiv_pos_site_id
 _symmetry_equiv_pos_as_xyz
  1  'x, y, z'
loop_
 _atom_site_type_symbol
 _atom_site_label
 _atom_site_symmetry_multiplicity
 _atom_site_fract_x
 _atom_site_fract_y
 _atom_site_fract_z
 _atom_site_occupancy
  Na  Na0  1  0.36768699  0.36768699  -0.00000000  1
  Na  Na1  1  0.86768698  0.86768698  0.49999999  1
  Na  Na2  1  0.06659800  0.06659800  -0.00000000  1
  Na  Na3  1  0.48483999  0.09939800  0.90531798  1
  Na  Na4  1  0.67765198  0.54961399  0.89447198  1
  O  O5  1  0.21017800  0.47263399  0.84201898  1
  Cu  Cu6  1  0.71017798  0.97263397  0.65798098  1
  Cu  Cu7  1  0.17765200  0.04961400  0.60552798  1
  O  O8  1  0.98483998  0.59939798  0.59468198  1
  O  O9  1  0.56659799  0.56659798  0.49999999  1
  O  O10  1  0.59939799  0.98483997  0.40531799  1
  O  O11  1  0.04961400  0.17765200  0.39447199  1
  O  O12  1  0.97263398  0.71017798  0.34201899  1
  O  O13  1  0.47263399  0.21017799  0.15798100  1
  O  O14  1  0.54961399  0.67765198  0.10552800  1
  O  O15  1  0.09939800  0.48483999  0.09468200  1
