# generated using pymatgen
data_Na2SrCuO6
_symmetry_space_group_name_H-M   'P 1'
_cell_length_a   5.77834320
_cell_length_b   5.79173088
_cell_length_c   8.16725349
_cell_angle_alpha   90.00000000
_cell_angle_beta   89.75465393
_cell_angle_gamma   90.00000000
_symmetry_Int_Tables_number   1
_chemical_formula_structural   Na2SrCuO6
_chemical_formula_sum   'Na4 Sr2 Cu2 O12'
_cell_volume   273.32777136
_cell_formula_units_Z   2
loop_
 _symmetry_equiv_pos_site_id
 _symmetry_equiv_pos_as_xyz
  1  'x, y, z'
loop_
 _atom_site_type_symbol
 _atom_site_label
 _atom_site_symmetry_multiplicity
 _atom_site_fract_x
 _atom_site_fract_y
 _atom_site_fract_z
 _atom_site_occupancy
  Na  Na0  1  0.99418397  0.02733000  0.24895002  1
  Sr  Sr1  1  0.50581598  0.52733001  0.25105002  1
  Sr  Sr2  1  0.49418398  0.47267001  0.74895004  1
  Na  Na3  1  0.00581600  0.97267002  0.75105004  1
  Na  Na4  1  -0.00000000  0.50000001  0.50000002  1
  Na  Na5  1  0.49999998  0.00000000  0.00000001  1
  Cu  Cu6  1  0.49999998  0.00000000  0.50000003  1
  Cu  Cu7  1  0.99999997  0.50000001  0.00000001  1
  O  O8  1  0.56598798  0.01306500  0.73768704  1
  O  O9  1  0.93401197  0.51306501  0.76231305  1
  O  O10  1  0.43401198  0.98693502  0.26231302  1
  O  O11  1  0.06598800  0.48693501  0.23768701  1
  O  O12  1  0.29411299  0.72997802  0.53496303  1
  O  O13  1  0.20588699  0.22997800  0.96503705  1
  O  O14  1  0.70588698  0.27002201  0.46503703  1
  O  O15  1  0.79411297  0.77002202  0.03496301  1
  O  O16  1  0.73197997  0.29194701  0.03449401  1
  O  O17  1  0.76801997  0.79194702  0.46550603  1
  O  O18  1  0.26801999  0.70805301  0.96550605  1
  O  O19  1  0.23197999  0.20805300  0.53449403  1
