# generated using pymatgen
data_K2NaTl3
_symmetry_space_group_name_H-M   'P 1'
_cell_length_a   6.14223385
_cell_length_b   6.14223433
_cell_length_c   8.14847088
_cell_angle_alpha   90.00000000
_cell_angle_beta   90.00000000
_cell_angle_gamma   120.00000000
_symmetry_Int_Tables_number   1
_chemical_formula_structural   K2NaTl3
_chemical_formula_sum   'K2 Na1 Tl3'
_cell_volume   266.23152335
_cell_formula_units_Z   1
loop_
 _symmetry_equiv_pos_site_id
 _symmetry_equiv_pos_as_xyz
  1  'x, y, z'
loop_
 _atom_site_type_symbol
 _atom_site_label
 _atom_site_symmetry_multiplicity
 _atom_site_fract_x
 _atom_site_fract_y
 _atom_site_fract_z
 _atom_site_occupancy
  K  K0  1  0.00000000  0.00000000  0.00000000  1
  K  K1  1  0.00000000  0.00000000  0.50000001  1
  Tl  Tl2  1  0.66666669  0.33333334  0.75000001  1
  Na  Na3  1  0.33333336  0.66666667  0.25000000  1
  Tl  Tl4  1  0.33333336  0.66666667  0.75000001  1
  Tl  Tl5  1  0.66666669  0.33333334  0.25000000  1
