# generated using pymatgen
data_NdEuIn4(SnAu2)2
_symmetry_space_group_name_H-M   'P 1'
_cell_length_a   4.51155519
_cell_length_b   7.46387005
_cell_length_c   8.57640457
_cell_angle_alpha   90.00000000
_cell_angle_beta   90.00000000
_cell_angle_gamma   90.00000000
_symmetry_Int_Tables_number   1
_chemical_formula_structural   NdEuIn4(SnAu2)2
_chemical_formula_sum   'Nd1 Eu1 In4 Sn2 Au4'
_cell_volume   288.79894607
_cell_formula_units_Z   1
loop_
 _symmetry_equiv_pos_site_id
 _symmetry_equiv_pos_as_xyz
  1  'x, y, z'
loop_
 _atom_site_type_symbol
 _atom_site_label
 _atom_site_symmetry_multiplicity
 _atom_site_fract_x
 _atom_site_fract_y
 _atom_site_fract_z
 _atom_site_occupancy
  Eu  Eu0  1  0.74999997  0.46754100  0.82215604  1
  Nd  Nd1  1  0.24999999  0.03245900  0.32215602  1
  In  In2  1  0.74999997  0.96754099  0.67784403  1
  In  In3  1  0.24999999  0.53245900  0.17784401  1
  In  In4  1  0.24999999  0.64758900  0.56431003  1
  In  In5  1  0.24999999  0.14758900  0.93569005  1
  Sn  Sn6  1  0.74999997  0.35241100  0.43569002  1
  Sn  Sn7  1  0.74999997  0.85241099  0.06431000  1
  Au  Au8  1  0.24999999  0.76978299  0.87717404  1
  Au  Au9  1  0.24999999  0.26978300  0.62282603  1
  Au  Au10  1  0.74999997  0.73021700  0.37717402  1
  Au  Au11  1  0.74999997  0.23021700  0.12282601  1
