# generated using pymatgen
data_Y2In2Sn2GePd
_symmetry_space_group_name_H-M   'P 1'
_cell_length_a   4.59912014
_cell_length_b   5.71953917
_cell_length_c   8.04896355
_cell_angle_alpha   90.00000000
_cell_angle_beta   90.00000000
_cell_angle_gamma   113.70660400
_symmetry_Int_Tables_number   1
_chemical_formula_structural   Y2In2Sn2GePd
_chemical_formula_sum   'Y2 In2 Sn2 Ge1 Pd1'
_cell_volume   193.86046445
_cell_formula_units_Z   1
loop_
 _symmetry_equiv_pos_site_id
 _symmetry_equiv_pos_as_xyz
  1  'x, y, z'
loop_
 _atom_site_type_symbol
 _atom_site_label
 _atom_site_symmetry_multiplicity
 _atom_site_fract_x
 _atom_site_fract_y
 _atom_site_fract_z
 _atom_site_occupancy
  Y  Y0  1  0.57025697  0.14051400  0.75000004  1
  Y  Y1  1  0.42974292  0.85948599  0.25000001  1
  In  In2  1  0.14027497  0.28055000  0.05273100  1
  In  In3  1  0.85972492  0.71944999  0.94726905  1
  Sn  Sn4  1  0.85972492  0.71944999  0.55273103  1
  Sn  Sn5  1  0.14027497  0.28055000  0.44726903  1
  Pd  Pd6  1  0.28429195  0.56858399  0.75000004  1
  Ge  Ge7  1  0.71570795  0.43141600  0.25000001  1
