# generated using pymatgen
data_KRb2Tl(BrCl)2
_symmetry_space_group_name_H-M   'P 1'
_cell_length_a   6.03932190
_cell_length_b   7.74259996
_cell_length_c   7.74259901
_cell_angle_alpha   120.00000763
_cell_angle_beta   90.00000000
_cell_angle_gamma   90.00000000
_symmetry_Int_Tables_number   1
_chemical_formula_structural   KRb2Tl(BrCl)2
_chemical_formula_sum   'K1 Rb2 Tl1 Br2 Cl2'
_cell_volume   313.53957521
_cell_formula_units_Z   1
loop_
 _symmetry_equiv_pos_site_id
 _symmetry_equiv_pos_as_xyz
  1  'x, y, z'
loop_
 _atom_site_type_symbol
 _atom_site_label
 _atom_site_symmetry_multiplicity
 _atom_site_fract_x
 _atom_site_fract_y
 _atom_site_fract_z
 _atom_site_occupancy
  K  K0  1  0.75000001  0.82551403  0.17448504  1
  Rb  Rb1  1  0.75000001  0.34897101  0.17448502  1
  Rb  Rb2  1  0.75000001  0.82551403  0.65102804  1
  Tl  Tl3  1  0.25000000  0.17448601  0.82551500  1
  Cl  Cl4  1  0.25000000  0.65102902  0.82551502  1
  Br  Br5  1  0.25000000  0.17448601  0.34897200  1
  Cl  Cl6  1  0.25000000  0.66666669  0.33333337  1
  Br  Br7  1  0.75000001  0.33333334  0.66666667  1
