# generated using pymatgen
data_ErTa2TiRe2N3
_symmetry_space_group_name_H-M   'P 1'
_cell_length_a   3.57498002
_cell_length_b   6.78576612
_cell_length_c   6.78576517
_cell_angle_alpha   120.00000000
_cell_angle_beta   90.00000000
_cell_angle_gamma   90.00000000
_symmetry_Int_Tables_number   1
_chemical_formula_structural   ErTa2TiRe2N3
_chemical_formula_sum   'Er1 Ta2 Ti1 Re2 N3'
_cell_volume   142.56140419
_cell_formula_units_Z   1
loop_
 _symmetry_equiv_pos_site_id
 _symmetry_equiv_pos_as_xyz
  1  'x, y, z'
loop_
 _atom_site_type_symbol
 _atom_site_label
 _atom_site_symmetry_multiplicity
 _atom_site_fract_x
 _atom_site_fract_y
 _atom_site_fract_z
 _atom_site_occupancy
  Er  Er0  1  -0.00000000  0.33333332  0.66666666  1
  Ta  Ta1  1  0.99999999  0.66666663  0.33333330  1
  Ti  Ti2  1  0.50000000  0.00000000  -0.00000000  1
  Ta  Ta3  1  0.50000000  0.38076198  0.38076199  1
  Re  Re4  1  0.50000000  0.61923797  -0.00000004  1
  Re  Re5  1  0.50000000  0.00000000  0.61923802  1
  N  N6  1  0.99999999  0.00000000  0.28055801  1
  N  N7  1  -0.00000000  0.28055799  -0.00000002  1
  N  N8  1  -0.00000000  0.71944196  0.71944197  1
