# generated using pymatgen
data_KNaEuTlSb2Se3S2Br
_symmetry_space_group_name_H-M   'P 1'
_cell_length_a   6.82156897
_cell_length_b   6.96979713
_cell_length_c   6.83969736
_cell_angle_alpha   90.00000000
_cell_angle_beta   80.74757385
_cell_angle_gamma   90.00000000
_symmetry_Int_Tables_number   1
_chemical_formula_structural   KNaEuTlSb2Se3S2Br
_chemical_formula_sum   'K1 Na1 Eu1 Tl1 Sb2 Se3 S2 Br1'
_cell_volume   320.96217621
_cell_formula_units_Z   1
loop_
 _symmetry_equiv_pos_site_id
 _symmetry_equiv_pos_as_xyz
  1  'x, y, z'
loop_
 _atom_site_type_symbol
 _atom_site_label
 _atom_site_symmetry_multiplicity
 _atom_site_fract_x
 _atom_site_fract_y
 _atom_site_fract_z
 _atom_site_occupancy
  Eu  Eu0  1  0.21039900  0.03533500  0.68129599  1
  Na  Na1  1  0.78960101  0.96466498  0.31870396  1
  Tl  Tl2  1  0.28960100  0.53533499  0.31870399  1
  K  K3  1  0.71039901  0.46466499  0.68129597  1
  Sb  Sb4  1  0.00815200  0.26021299  0.44568900  1
  Sb  Sb5  1  0.99184801  0.73978699  0.55431095  1
  S  S6  1  0.49184801  0.76021299  0.55431098  1
  Se  Se7  1  0.50815201  0.23978700  0.44568898  1
  Se  Se8  1  0.28733200  0.38397499  0.91530999  1
  Br  Br9  1  0.71266801  0.61602499  0.08468996  1
  S  S10  1  0.21266800  0.88397498  0.08468999  1
  Se  Se11  1  0.78733201  0.11602500  0.91530996  1
