# generated using pymatgen
data_LaDyZnInCuPd
_symmetry_space_group_name_H-M   'P 1'
_cell_length_a   4.55854416
_cell_length_b   5.74776268
_cell_length_c   5.74776268
_cell_angle_alpha   79.31130981
_cell_angle_beta   66.63735962
_cell_angle_gamma   66.63735962
_symmetry_Int_Tables_number   1
_chemical_formula_structural   LaDyZnInCuPd
_chemical_formula_sum   'La1 Dy1 Zn1 In1 Cu1 Pd1'
_cell_volume   126.84641907
_cell_formula_units_Z   1
loop_
 _symmetry_equiv_pos_site_id
 _symmetry_equiv_pos_as_xyz
  1  'x, y, z'
loop_
 _atom_site_type_symbol
 _atom_site_label
 _atom_site_symmetry_multiplicity
 _atom_site_fract_x
 _atom_site_fract_y
 _atom_site_fract_z
 _atom_site_occupancy
  Dy  Dy0  1  0.46638400  0.28361599  0.78361601  1
  La  La1  1  0.53361603  0.71638398  0.21638400  1
  In  In2  1  0.16573506  0.88336198  0.78516897  1
  Zn  Zn3  1  0.83426496  0.11663800  0.21483103  1
  Pd  Pd4  1  0.16573401  0.28516999  0.38336200  1
  Cu  Cu5  1  0.83426601  0.71482998  0.61663801  1
