# generated using pymatgen
data_ErMnAl2Fe7Si9
_symmetry_space_group_name_H-M   'P 1'
_cell_length_a   3.07790709
_cell_length_b   9.35611725
_cell_length_c   9.35611725
_cell_angle_alpha   90.00000000
_cell_angle_beta   90.00000000
_cell_angle_gamma   90.00000000
_symmetry_Int_Tables_number   1
_chemical_formula_structural   ErMnAl2Fe7Si9
_chemical_formula_sum   'Er1 Mn1 Al2 Fe7 Si9'
_cell_volume   269.43053699
_cell_formula_units_Z   1
loop_
 _symmetry_equiv_pos_site_id
 _symmetry_equiv_pos_as_xyz
  1  'x, y, z'
loop_
 _atom_site_type_symbol
 _atom_site_label
 _atom_site_symmetry_multiplicity
 _atom_site_fract_x
 _atom_site_fract_y
 _atom_site_fract_z
 _atom_site_occupancy
  Er  Er0  1  -0.00000000  0.67553098  0.17553100  1
  Mn  Mn1  1  0.00000000  0.32446899  0.82446898  1
  Al  Al2  1  -0.00000000  0.17553100  0.32446899  1
  Al  Al3  1  0.00000000  0.82446898  0.67553098  1
  Fe  Fe4  1  0.00000000  0.00000000  0.00000000  1
  Fe  Fe5  1  0.00000000  0.49999999  0.49999999  1
  Fe  Fe6  1  -0.00000000  0.12430200  0.62430198  1
  Si  Si7  1  -0.00000000  0.87569798  0.37569799  1
  Si  Si8  1  -0.00000000  0.62430198  0.87569798  1
  Si  Si9  1  -0.00000000  0.37569799  0.12430200  1
  Fe  Fe10  1  0.49999999  0.21353099  0.07021400  1
  Si  Si11  1  0.49999999  0.78646898  0.92978598  1
  Si  Si12  1  0.49999999  0.07021400  0.78646898  1
  Si  Si13  1  0.49999999  0.71353098  0.42978599  1
  Si  Si14  1  0.49999999  0.92978598  0.21353099  1
  Fe  Fe15  1  0.49999999  0.28646899  0.57021398  1
  Fe  Fe16  1  0.49999999  0.57021398  0.71353098  1
  Si  Si17  1  0.49999999  0.42978599  0.28646899  1
  Si  Si18  1  0.49999999  0.49999999  0.00000000  1
  Fe  Fe19  1  0.49999999  0.00000000  0.49999999  1
