# generated using pymatgen
data_ErScAl4
_symmetry_space_group_name_H-M   'P 1'
_cell_length_a   5.29160404
_cell_length_b   5.29160404
_cell_length_c   5.29160404
_cell_angle_alpha   88.83924103
_cell_angle_beta   60.43131256
_cell_angle_gamma   119.09608459
_symmetry_Int_Tables_number   1
_chemical_formula_structural   ErScAl4
_chemical_formula_sum   'Er1 Sc1 Al4'
_cell_volume   105.80399311
_cell_formula_units_Z   1
loop_
 _symmetry_equiv_pos_site_id
 _symmetry_equiv_pos_as_xyz
  1  'x, y, z'
loop_
 _atom_site_type_symbol
 _atom_site_label
 _atom_site_symmetry_multiplicity
 _atom_site_fract_x
 _atom_site_fract_y
 _atom_site_fract_z
 _atom_site_occupancy
  Er  Er0  1  0.24999997  0.37518899  0.87481104  1
  Sc  Sc1  1  0.74999995  0.62481099  0.12518903  1
  Al  Al2  1  0.49999992  0.99999999  0.50000004  1
  Al  Al3  1  0.99999997  0.49999999  0.50000005  1
  Al  Al4  1  0.99999992  0.99999999  0.50000006  1
  Al  Al5  1  0.49999992  0.99999999  0.00000002  1
