# generated using pymatgen
data_La3In4Sn4GeAu4
_symmetry_space_group_name_H-M   'P 1'
_cell_length_a   5.87551498
_cell_length_b   8.67222214
_cell_length_c   8.67222118
_cell_angle_alpha   83.41051483
_cell_angle_beta   70.19896698
_cell_angle_gamma   70.19895935
_symmetry_Int_Tables_number   1
_chemical_formula_structural   La3In4Sn4GeAu4
_chemical_formula_sum   'La3 In4 Sn4 Ge1 Au4'
_cell_volume   391.17419960
_cell_formula_units_Z   1
loop_
 _symmetry_equiv_pos_site_id
 _symmetry_equiv_pos_as_xyz
  1  'x, y, z'
loop_
 _atom_site_type_symbol
 _atom_site_label
 _atom_site_symmetry_multiplicity
 _atom_site_fract_x
 _atom_site_fract_y
 _atom_site_fract_z
 _atom_site_occupancy
  In  In0  1  0.05369900  0.02858300  0.39923301  1
  La  La1  1  0.48151488  0.97141697  0.60076706  1
  La  La2  1  0.91771794  0.60076698  0.02858301  1
  La  La3  1  0.54706796  0.39923299  0.97141703  1
  In  In4  1  0.44257192  0.66987898  0.37906004  1
  In  In5  1  0.49151096  0.33012099  0.62094002  1
  Sn  Sn6  1  0.88754893  0.62093998  0.66987902  1
  In  In7  1  0.17836795  0.37905999  0.33012102  1
  Sn  Sn8  1  0.80660488  0.97324397  0.81471405  1
  Au  Au9  1  0.59456301  0.02675600  0.18528599  1
  Sn  Sn10  1  0.22015098  0.18528599  0.97324402  1
  Sn  Sn11  1  0.37868090  0.81471398  0.02675604  1
  Au  Au12  1  0.00114397  0.25458599  0.67683203  1
  Au  Au13  1  0.93256192  0.74541398  0.32316802  1
  Au  Au14  1  0.74427097  0.32316799  0.25458600  1
  Ge  Ge15  1  0.32202392  0.67683198  0.74541405  1
