# generated using pymatgen
data_VFe3Co7Ni3C
_symmetry_space_group_name_H-M   'P 1'
_cell_length_a   3.80430245
_cell_length_b   3.80430245
_cell_length_c   15.61194801
_cell_angle_alpha   83.00173187
_cell_angle_beta   83.00173187
_cell_angle_gamma   59.99999237
_symmetry_Int_Tables_number   1
_chemical_formula_structural   VFe3Co7Ni3C
_chemical_formula_sum   'V1 Fe3 Co7 Ni3 C1'
_cell_volume   193.72989698
_cell_formula_units_Z   1
loop_
 _symmetry_equiv_pos_site_id
 _symmetry_equiv_pos_as_xyz
  1  'x, y, z'
loop_
 _atom_site_type_symbol
 _atom_site_label
 _atom_site_symmetry_multiplicity
 _atom_site_fract_x
 _atom_site_fract_y
 _atom_site_fract_z
 _atom_site_occupancy
  V  V0  1  0.00000000  0.00000000  0.00000000  1
  Co  Co1  1  0.60139098  0.60139099  0.19582701  1
  Fe  Fe2  1  0.20042899  0.20042900  0.39871301  1
  Fe  Fe3  1  0.79957097  0.79957099  0.60128703  1
  Co  Co4  1  0.39860898  0.39860900  0.80417303  1
  Co  Co5  1  0.04789000  0.04789000  0.85633003  1
  Co  Co6  1  0.85018297  0.85018299  0.44945102  1
  Co  Co7  1  0.44930298  0.44930300  0.65209102  1
  Ni  Ni8  1  0.65180698  0.65180699  0.04457901  1
  Ni  Ni9  1  0.25119299  0.25119300  0.24642101  1
  Ni  Ni10  1  0.34819399  0.34819400  0.95541803  1
  Fe  Fe11  1  0.14981699  0.14981700  0.55054902  1
  Co  Co12  1  0.74880697  0.74880699  0.75357903  1
  C  C13  1  0.95210996  0.95210999  0.14367002  1
  Co  Co14  1  0.55069698  0.55069700  0.34790902  1
