# generated using pymatgen
data_ZrScIr
_symmetry_space_group_name_H-M   'P 1'
_cell_length_a   3.29730606
_cell_length_b   3.29730606
_cell_length_c   5.87877512
_cell_angle_alpha   106.28656006
_cell_angle_beta   106.28656006
_cell_angle_gamma   90.00000000
_symmetry_Int_Tables_number   1
_chemical_formula_structural   ZrScIr
_chemical_formula_sum   'Zr1 Sc1 Ir1'
_cell_volume   58.67365883
_cell_formula_units_Z   1
loop_
 _symmetry_equiv_pos_site_id
 _symmetry_equiv_pos_as_xyz
  1  'x, y, z'
loop_
 _atom_site_type_symbol
 _atom_site_label
 _atom_site_symmetry_multiplicity
 _atom_site_fract_x
 _atom_site_fract_y
 _atom_site_fract_z
 _atom_site_occupancy
  Zr  Zr0  1  0.65816998  0.65816998  0.31633999  1
  Sc  Sc1  1  0.34182999  0.34182999  0.68366001  1
  Ir  Ir2  1  0.00000000  0.00000000  0.00000000  1
