# generated using pymatgen
data_EuIn5SnAu3
_symmetry_space_group_name_H-M   'P 1'
_cell_length_a   4.65616989
_cell_length_b   8.17218781
_cell_length_c   9.13142776
_cell_angle_alpha   90.00000000
_cell_angle_beta   104.77079773
_cell_angle_gamma   90.00000000
_symmetry_Int_Tables_number   1
_chemical_formula_structural   EuIn5SnAu3
_chemical_formula_sum   'Eu1 In5 Sn1 Au3'
_cell_volume   335.97844473
_cell_formula_units_Z   1
loop_
 _symmetry_equiv_pos_site_id
 _symmetry_equiv_pos_as_xyz
  1  'x, y, z'
loop_
 _atom_site_type_symbol
 _atom_site_label
 _atom_site_symmetry_multiplicity
 _atom_site_fract_x
 _atom_site_fract_y
 _atom_site_fract_z
 _atom_site_occupancy
  Eu  Eu0  1  0.29569600  0.89194602  0.59139202  1
  In  In1  1  0.70430401  0.39194601  0.40860801  1
  In  In2  1  0.46228401  0.23115201  0.92456804  1
  In  In3  1  0.53771601  0.73115202  0.07543199  1
  In  In4  1  0.09424500  0.08079500  0.18849001  1
  In  In5  1  0.90575501  0.58079501  0.81151002  1
  Sn  Sn6  1  0.06033400  0.42956801  0.12066800  1
  Au  Au7  1  0.93966601  0.92956802  0.87933202  1
  Au  Au8  1  0.32840300  0.50056001  0.65680603  1
  Au  Au9  1  0.67159701  0.00056000  0.34319400  1
