# generated using pymatgen
data_Y2ZrSi3SnAu3
_symmetry_space_group_name_H-M   'P 1'
_cell_length_a   8.19639397
_cell_length_b   8.19639397
_cell_length_c   8.19639397
_cell_angle_alpha   109.47122192
_cell_angle_beta   109.47122192
_cell_angle_gamma   109.47122192
_symmetry_Int_Tables_number   1
_chemical_formula_structural   Y2ZrSi3SnAu3
_chemical_formula_sum   'Y4 Zr2 Si6 Sn2 Au6'
_cell_volume   423.88355053
_cell_formula_units_Z   2
loop_
 _symmetry_equiv_pos_site_id
 _symmetry_equiv_pos_as_xyz
  1  'x, y, z'
loop_
 _atom_site_type_symbol
 _atom_site_label
 _atom_site_symmetry_multiplicity
 _atom_site_fract_x
 _atom_site_fract_y
 _atom_site_fract_z
 _atom_site_occupancy
  Y  Y0  1  0.87499997  0.12500000  0.74999999  1
  Y  Y1  1  0.62499999  0.37499999  0.25000002  1
  Y  Y2  1  0.12500001  0.25000000  0.37500000  1
  Y  Y3  1  0.37500003  0.74999999  0.12500004  1
  Zr  Zr4  1  0.75000000  0.62499999  0.87500000  1
  Zr  Zr5  1  0.25000004  0.87499999  0.62500002  1
  Si  Si6  1  0.37500002  0.62499999  0.75000000  1
  Si  Si7  1  0.12500005  0.87499999  0.25000004  1
  Si  Si8  1  0.62499999  0.25000000  0.87499998  1
  Si  Si9  1  0.87500001  0.74999999  0.62500003  1
  Si  Si10  1  0.74999997  0.12500000  0.37500000  1
  Si  Si11  1  0.25000001  0.37499999  0.12500002  1
  Sn  Sn12  1  0.00000003  0.49999999  0.67248399  1
  Au  Au13  1  0.32751601  0.32751599  0.82751598  1
  Au  Au14  1  0.49999999  0.17248400  0.49999999  1
  Sn  Sn15  1  0.17248399  0.00000000  0.00000000  1
  Au  Au16  1  0.82751601  0.82751599  0.32751605  1
  Au  Au17  1  0.00000003  0.49999999  0.17248402  1
  Au  Au18  1  0.50000002  0.67248399  0.50000002  1
  Au  Au19  1  0.67248397  0.00000000  0.99999996  1
