# generated using pymatgen
data_Na2CuO4
_symmetry_space_group_name_H-M   'P 1'
_cell_length_a   3.37528300
_cell_length_b   5.87996912
_cell_length_c   6.41901970
_cell_angle_alpha   114.78006744
_cell_angle_beta   105.24296570
_cell_angle_gamma   90.00000000
_symmetry_Int_Tables_number   1
_chemical_formula_structural   Na2CuO4
_chemical_formula_sum   'Na2 Cu1 O4'
_cell_volume   110.70963533
_cell_formula_units_Z   1
loop_
 _symmetry_equiv_pos_site_id
 _symmetry_equiv_pos_as_xyz
  1  'x, y, z'
loop_
 _atom_site_type_symbol
 _atom_site_label
 _atom_site_symmetry_multiplicity
 _atom_site_fract_x
 _atom_site_fract_y
 _atom_site_fract_z
 _atom_site_occupancy
  Cu  Cu0  1  0.74139602  0.69127297  0.48279300  1
  Na  Na1  1  0.26160801  0.31297499  0.52321600  1
  Na  Na2  1  0.99444403  0.99692196  0.98888900  1
  O  O3  1  0.63771502  0.98545796  0.27542900  1
  O  O4  1  0.36303200  0.02293700  0.72606400  1
  O  O5  1  0.89002202  0.54608398  0.78004400  1
  O  O6  1  0.11178201  0.44435098  0.22356399  1
