# generated using pymatgen
data_La2PrYIn3SnAu
_symmetry_space_group_name_H-M   'P 1'
_cell_length_a   3.92528510
_cell_length_b   8.37208176
_cell_length_c   8.37208271
_cell_angle_alpha   120.00000000
_cell_angle_beta   90.00000000
_cell_angle_gamma   90.00000000
_symmetry_Int_Tables_number   1
_chemical_formula_structural   La2PrYIn3SnAu
_chemical_formula_sum   'La2 Pr1 Y1 In3 Sn1 Au1'
_cell_volume   238.26969479
_cell_formula_units_Z   1
loop_
 _symmetry_equiv_pos_site_id
 _symmetry_equiv_pos_as_xyz
  1  'x, y, z'
loop_
 _atom_site_type_symbol
 _atom_site_label
 _atom_site_symmetry_multiplicity
 _atom_site_fract_x
 _atom_site_fract_y
 _atom_site_fract_z
 _atom_site_occupancy
  Y  Y0  1  0.99999997  0.76382603  0.76382598  1
  Pr  Pr1  1  -0.00000000  1.00000004  0.23617401  1
  La  La2  1  0.99999997  0.23617401  0.99999995  1
  La  La3  1  0.49999999  0.39838002  0.39837999  1
  In  In4  1  0.49999999  1.00000004  0.60161999  1
  In  In5  1  0.49999999  0.60162002  0.99999996  1
  In  In6  1  0.49999999  0.00000000  -0.00000000  1
  Sn  Sn7  1  0.99999997  0.66666669  0.33333333  1
  Au  Au8  1  0.99999997  0.33333335  0.66666664  1
