# generated using pymatgen
data_CsK2RbTlCl3
_symmetry_space_group_name_H-M   'P 1'
_cell_length_a   6.18257809
_cell_length_b   6.18257856
_cell_length_c   10.89138794
_cell_angle_alpha   90.00000000
_cell_angle_beta   90.00000000
_cell_angle_gamma   120.00000000
_symmetry_Int_Tables_number   1
_chemical_formula_structural   CsK2RbTlCl3
_chemical_formula_sum   'Cs1 K2 Rb1 Tl1 Cl3'
_cell_volume   360.53971670
_cell_formula_units_Z   1
loop_
 _symmetry_equiv_pos_site_id
 _symmetry_equiv_pos_as_xyz
  1  'x, y, z'
loop_
 _atom_site_type_symbol
 _atom_site_label
 _atom_site_symmetry_multiplicity
 _atom_site_fract_x
 _atom_site_fract_y
 _atom_site_fract_z
 _atom_site_occupancy
  K  K0  1  0.66666667  0.33333333  0.42172500  1
  K  K1  1  0.33333335  0.66666665  0.92172501  1
  Cs  Cs2  1  0.33333335  0.66666665  0.57827500  1
  Rb  Rb3  1  0.66666667  0.33333333  0.07827500  1
  Cl  Cl4  1  0.00000000  0.00000000  0.25000000  1
  Tl  Tl5  1  0.00000000  0.00000000  0.75000000  1
  Cl  Cl6  1  0.33333335  0.66666665  0.25000000  1
  Cl  Cl7  1  0.66666667  0.33333333  0.75000000  1
