# generated using pymatgen
data_K4BaTlSeS7
_symmetry_space_group_name_H-M   'P 1'
_cell_length_a   7.71367311
_cell_length_b   7.71367311
_cell_length_c   7.71367311
_cell_angle_alpha   108.40338135
_cell_angle_beta   110.00776672
_cell_angle_gamma   110.00776672
_symmetry_Int_Tables_number   1
_chemical_formula_structural   K4BaTlSeS7
_chemical_formula_sum   'K4 Ba1 Tl1 Se1 S7'
_cell_volume   353.22292150
_cell_formula_units_Z   1
loop_
 _symmetry_equiv_pos_site_id
 _symmetry_equiv_pos_as_xyz
  1  'x, y, z'
loop_
 _atom_site_type_symbol
 _atom_site_label
 _atom_site_symmetry_multiplicity
 _atom_site_fract_x
 _atom_site_fract_y
 _atom_site_fract_z
 _atom_site_occupancy
  Ba  Ba0  1  0.11987405  0.75267806  0.13199408  1
  K  K1  1  0.37931603  0.36719603  0.24732205  1
  K  K2  1  0.88012603  0.01212000  0.63280402  1
  K  K3  1  0.00000003  0.50000004  0.50000006  1
  K  K4  1  0.62068407  0.86800607  0.98788012  1
  Tl  Tl5  1  0.50000003  0.25000002  0.75000005  1
  Se  Se6  1  0.88834504  0.27334302  0.02471903  1
  S  S7  1  0.23970104  0.48538204  0.88303007  1
  S  S8  1  0.75137606  0.61500205  0.72665809  1
  S  S9  1  0.60235102  0.11696901  0.35667003  1
  S  S10  1  0.76029906  0.64332905  0.24568108  1
  S  S11  1  0.24862407  0.97528208  0.86362612  1
  S  S12  1  0.11165501  0.13637301  0.38499702  1
  S  S13  1  0.39764906  0.75432006  0.51461909  1
