# generated using pymatgen
data_NbTc3Ru4
_symmetry_space_group_name_H-M   'P 1'
_cell_length_a   4.47865391
_cell_length_b   5.47406006
_cell_length_c   5.47406006
_cell_angle_alpha   120.00000000
_cell_angle_beta   90.00000000
_cell_angle_gamma   90.00000000
_symmetry_Int_Tables_number   1
_chemical_formula_structural   NbTc3Ru4
_chemical_formula_sum   'Nb1 Tc3 Ru4'
_cell_volume   116.22438340
_cell_formula_units_Z   1
loop_
 _symmetry_equiv_pos_site_id
 _symmetry_equiv_pos_as_xyz
  1  'x, y, z'
loop_
 _atom_site_type_symbol
 _atom_site_label
 _atom_site_symmetry_multiplicity
 _atom_site_fract_x
 _atom_site_fract_y
 _atom_site_fract_z
 _atom_site_occupancy
  Tc  Tc0  1  0.75000002  0.83034999  0.16964900  1
  Nb  Nb1  1  0.75000002  0.33929900  0.16964900  1
  Tc  Tc2  1  0.75000002  0.83034999  0.66069999  1
  Tc  Tc3  1  0.25000001  0.16965000  0.83035099  1
  Ru  Ru4  1  0.25000001  0.66070099  0.83035099  1
  Ru  Ru5  1  0.25000001  0.16965000  0.33929999  1
  Ru  Ru6  1  0.25000001  0.66666666  0.33333333  1
  Ru  Ru7  1  0.75000002  0.33333333  0.66666666  1
