# generated using pymatgen
data_KNa2Li2CuAgO11
_symmetry_space_group_name_H-M   'P 1'
_cell_length_a   3.99445510
_cell_length_b   7.70268583
_cell_length_c   7.70268583
_cell_angle_alpha   90.00000000
_cell_angle_beta   90.00000000
_cell_angle_gamma   90.00000000
_symmetry_Int_Tables_number   1
_chemical_formula_structural   KNa2Li2CuAgO11
_chemical_formula_sum   'K1 Na2 Li2 Cu1 Ag1 O11'
_cell_volume   236.99648960
_cell_formula_units_Z   1
loop_
 _symmetry_equiv_pos_site_id
 _symmetry_equiv_pos_as_xyz
  1  'x, y, z'
loop_
 _atom_site_type_symbol
 _atom_site_label
 _atom_site_symmetry_multiplicity
 _atom_site_fract_x
 _atom_site_fract_y
 _atom_site_fract_z
 _atom_site_occupancy
  Li  Li0  1  0.00000000  0.50000001  0.50000001  1
  K  K1  1  0.49999999  0.00000000  0.00000000  1
  Na  Na2  1  0.60868698  0.65829301  0.77927102  1
  Na  Na3  1  0.89131298  0.15829300  0.27927101  1
  Li  Li4  1  0.10868700  0.27927101  0.84170702  1
  Ag  Ag5  1  0.10868700  0.72072902  0.15829300  1
  O  O6  1  0.60868698  0.34170701  0.22072900  1
  Cu  Cu7  1  0.89131298  0.84170702  0.72072902  1
  O  O8  1  0.39131299  0.22072900  0.65829301  1
  O  O9  1  0.39131299  0.77927102  0.34170701  1
  O  O10  1  0.10913900  0.34096601  0.10960900  1
  O  O11  1  0.10913900  0.65903401  0.89039102  1
  O  O12  1  0.60913898  0.60960901  0.15903400  1
  O  O13  1  0.89086098  0.10960900  0.65903401  1
  O  O14  1  0.39086099  0.15903400  0.39039101  1
  O  O15  1  0.39086099  0.84096602  0.60960901  1
  O  O16  1  0.89086098  0.89039102  0.34096601  1
  O  O17  1  0.60913898  0.39039101  0.84096602  1
