# generated using pymatgen
data_Mn3GaFe13Si3
_symmetry_space_group_name_H-M   'P 1'
_cell_length_a   3.54213095
_cell_length_b   3.54213095
_cell_length_c   17.96339417
_cell_angle_alpha   90.00000000
_cell_angle_beta   90.00000000
_cell_angle_gamma   90.00000000
_symmetry_Int_Tables_number   1
_chemical_formula_structural   Mn3GaFe13Si3
_chemical_formula_sum   'Mn3 Ga1 Fe13 Si3'
_cell_volume   225.38116751
_cell_formula_units_Z   1
loop_
 _symmetry_equiv_pos_site_id
 _symmetry_equiv_pos_as_xyz
  1  'x, y, z'
loop_
 _atom_site_type_symbol
 _atom_site_label
 _atom_site_symmetry_multiplicity
 _atom_site_fract_x
 _atom_site_fract_y
 _atom_site_fract_z
 _atom_site_occupancy
  Mn  Mn0  1  0.00000000  0.00000000  0.20187600  1
  Mn  Mn1  1  0.00000000  0.00000000  0.39994600  1
  Mn  Mn2  1  0.00000000  0.00000000  0.60005399  1
  Fe  Fe3  1  0.00000000  0.00000000  0.79812399  1
  Fe  Fe4  1  0.00000000  0.00000000  0.00000000  1
  Fe  Fe5  1  0.50000001  0.50000001  -0.00000000  1
  Ga  Ga6  1  0.50000001  0.50000001  0.19938900  1
  Fe  Fe7  1  0.50000001  0.50000001  0.39926200  1
  Fe  Fe8  1  0.50000001  0.50000001  0.60073799  1
  Fe  Fe9  1  0.50000001  0.50000001  0.80061099  1
  Fe  Fe10  1  0.50000001  0.00000000  0.09705300  1
  Si  Si11  1  0.50000001  0.00000000  0.29991600  1
  Fe  Fe12  1  0.50000001  0.00000000  0.50000000  1
  Fe  Fe13  1  0.50000001  0.00000000  0.70008399  1
  Fe  Fe14  1  0.50000001  0.00000000  0.90294699  1
  Fe  Fe15  1  -0.00000000  0.50000001  0.09705300  1
  Si  Si16  1  -0.00000000  0.50000001  0.29991600  1
  Fe  Fe17  1  -0.00000000  0.50000001  0.50000000  1
  Si  Si18  1  -0.00000000  0.50000001  0.70008399  1
  Fe  Fe19  1  -0.00000000  0.50000001  0.90294699  1
