# generated using pymatgen
data_TiAl2Si5
_symmetry_space_group_name_H-M   'P 1'
_cell_length_a   4.34370613
_cell_length_b   4.98255014
_cell_length_c   5.49945021
_cell_angle_alpha   90.00000000
_cell_angle_beta   90.00000000
_cell_angle_gamma   90.00000000
_symmetry_Int_Tables_number   1
_chemical_formula_structural   TiAl2Si5
_chemical_formula_sum   'Ti1 Al2 Si5'
_cell_volume   119.02313582
_cell_formula_units_Z   1
loop_
 _symmetry_equiv_pos_site_id
 _symmetry_equiv_pos_as_xyz
  1  'x, y, z'
loop_
 _atom_site_type_symbol
 _atom_site_label
 _atom_site_symmetry_multiplicity
 _atom_site_fract_x
 _atom_site_fract_y
 _atom_site_fract_z
 _atom_site_occupancy
  Ti  Ti0  1  0.49999998  0.70331798  0.00000000  1
  Al  Al1  1  -0.00000000  0.29668199  0.49999998  1
  Al  Al2  1  -0.00000000  0.85120298  0.24825399  1
  Si  Si3  1  0.49999998  0.14879700  0.25174599  1
  Si  Si4  1  -0.00000000  0.85120298  0.75174597  1
  Si  Si5  1  0.49999998  0.14879700  0.74825397  1
  Si  Si6  1  -0.00000000  0.33999199  0.00000000  1
  Si  Si7  1  0.49999998  0.66000798  0.49999998  1
