# generated using pymatgen
data_MnFe6P
_symmetry_space_group_name_H-M   'P 1'
_cell_length_a   5.12033987
_cell_length_b   5.12034035
_cell_length_c   8.29576492
_cell_angle_alpha   90.00000000
_cell_angle_beta   90.00000000
_cell_angle_gamma   120.00000000
_symmetry_Int_Tables_number   1
_chemical_formula_structural   MnFe6P
_chemical_formula_sum   'Mn2 Fe12 P2'
_cell_volume   188.35826737
_cell_formula_units_Z   2
loop_
 _symmetry_equiv_pos_site_id
 _symmetry_equiv_pos_as_xyz
  1  'x, y, z'
loop_
 _atom_site_type_symbol
 _atom_site_label
 _atom_site_symmetry_multiplicity
 _atom_site_fract_x
 _atom_site_fract_y
 _atom_site_fract_z
 _atom_site_occupancy
  Mn  Mn0  1  0.00000000  0.00000000  0.00000000  1
  Mn  Mn1  1  0.00000000  0.00000000  0.50000000  1
  Fe  Fe2  1  0.66666670  0.33333335  0.25000000  1
  Fe  Fe3  1  0.33333338  0.66666669  0.75000001  1
  Fe  Fe4  1  0.17328705  0.82671303  0.25000000  1
  Fe  Fe5  1  0.65342606  0.82671303  0.25000000  1
  Fe  Fe6  1  0.17328702  0.34657401  0.25000000  1
  Fe  Fe7  1  0.82671303  0.17328701  0.75000001  1
  Fe  Fe8  1  0.34657402  0.17328701  0.75000001  1
  Fe  Fe9  1  0.82671306  0.65342603  0.75000001  1
  Fe  Fe10  1  0.50000001  0.00000000  -0.00000000  1
  Fe  Fe11  1  0.50000004  0.50000002  -0.00000000  1
  Fe  Fe12  1  0.00000003  0.50000002  -0.00000000  1
  Fe  Fe13  1  0.50000001  0.00000000  0.50000000  1
  P  P14  1  0.50000004  0.50000002  0.50000000  1
  P  P15  1  0.00000003  0.50000002  0.50000000  1
