# generated using pymatgen
data_Li2O2
_symmetry_space_group_name_H-M   'P 1'
_cell_length_a   2.97104740
_cell_length_b   5.18405581
_cell_length_c   5.22914886
_cell_angle_alpha   110.05285645
_cell_angle_beta   90.00024414
_cell_angle_gamma   90.00033569
_symmetry_Int_Tables_number   1
_chemical_formula_structural   Li2O2
_chemical_formula_sum   'Li4 O4'
_cell_volume   75.65716067
_cell_formula_units_Z   2
loop_
 _symmetry_equiv_pos_site_id
 _symmetry_equiv_pos_as_xyz
  1  'x, y, z'
loop_
 _atom_site_type_symbol
 _atom_site_label
 _atom_site_symmetry_multiplicity
 _atom_site_fract_x
 _atom_site_fract_y
 _atom_site_fract_z
 _atom_site_occupancy
  Li  Li0  1  -0.00000000  0.99999902  -0.00000002  1
  Li  Li1  1  0.50000000  0.49999901  -0.00000000  1
  Li  Li2  1  0.49999900  0.00000300  0.50000099  1
  Li  Li3  1  0.00000200  0.50000201  0.50000098  1
  O  O4  1  0.49999300  0.74097602  0.73025797  1
  O  O5  1  0.00000500  0.24097201  0.73031198  1
  O  O6  1  0.50000700  0.25902301  0.26974099  1
  O  O7  1  0.99999301  0.75902602  0.26968699  1
