# generated using pymatgen
data_BaIn4Sn2Au
_symmetry_space_group_name_H-M   'P 1'
_cell_length_a   5.29190302
_cell_length_b   6.83191013
_cell_length_c   6.83191013
_cell_angle_alpha   60.00000000
_cell_angle_beta   90.00000000
_cell_angle_gamma   90.00000000
_symmetry_Int_Tables_number   1
_chemical_formula_structural   BaIn4Sn2Au
_chemical_formula_sum   'Ba1 In4 Sn2 Au1'
_cell_volume   213.90788729
_cell_formula_units_Z   1
loop_
 _symmetry_equiv_pos_site_id
 _symmetry_equiv_pos_as_xyz
  1  'x, y, z'
loop_
 _atom_site_type_symbol
 _atom_site_label
 _atom_site_symmetry_multiplicity
 _atom_site_fract_x
 _atom_site_fract_y
 _atom_site_fract_z
 _atom_site_occupancy
  Ba  Ba0  1  0.25000000  0.82488500  0.35022998  1
  In  In1  1  0.25000000  0.82488500  0.82488400  1
  In  In2  1  0.25000000  0.35023100  0.82488401  1
  In  In3  1  0.75000000  0.17511500  0.64977001  1
  In  In4  1  0.75000000  0.64976900  0.17511598  1
  Sn  Sn5  1  0.75000000  0.17511500  0.17511600  1
  Au  Au6  1  0.75000000  0.66666666  0.66666666  1
  Sn  Sn7  1  0.25000000  0.33333333  0.33333333  1
