# generated using pymatgen
data_LuAlSnGePdAu
_symmetry_space_group_name_H-M   'P 1'
_cell_length_a   3.98096991
_cell_length_b   3.98096991
_cell_length_c   8.39743042
_cell_angle_alpha   90.00000000
_cell_angle_beta   90.00000000
_cell_angle_gamma   90.00000000
_symmetry_Int_Tables_number   1
_chemical_formula_structural   LuAlSnGePdAu
_chemical_formula_sum   'Lu1 Al1 Sn1 Ge1 Pd1 Au1'
_cell_volume   133.08349667
_cell_formula_units_Z   1
loop_
 _symmetry_equiv_pos_site_id
 _symmetry_equiv_pos_as_xyz
  1  'x, y, z'
loop_
 _atom_site_type_symbol
 _atom_site_label
 _atom_site_symmetry_multiplicity
 _atom_site_fract_x
 _atom_site_fract_y
 _atom_site_fract_z
 _atom_site_occupancy
  Al  Al0  1  0.00000000  0.50000001  0.72366996  1
  Lu  Lu1  1  0.50000001  0.00000000  0.27632999  1
  Ge  Ge2  1  0.00000000  0.00000000  0.00000000  1
  Sn  Sn3  1  0.50000001  0.50000001  0.00000000  1
  Au  Au4  1  0.50000001  0.00000000  0.63618997  1
  Pd  Pd5  1  0.00000000  0.50000001  0.36380998  1
