# generated using pymatgen
data_MnFe(NiP)2
_symmetry_space_group_name_H-M   'P 1'
_cell_length_a   3.80382895
_cell_length_b   3.80382895
_cell_length_c   5.37371683
_cell_angle_alpha   90.00000000
_cell_angle_beta   90.00000000
_cell_angle_gamma   90.00000000
_symmetry_Int_Tables_number   1
_chemical_formula_structural   MnFe(NiP)2
_chemical_formula_sum   'Mn1 Fe1 Ni2 P2'
_cell_volume   77.75292529
_cell_formula_units_Z   1
loop_
 _symmetry_equiv_pos_site_id
 _symmetry_equiv_pos_as_xyz
  1  'x, y, z'
loop_
 _atom_site_type_symbol
 _atom_site_label
 _atom_site_symmetry_multiplicity
 _atom_site_fract_x
 _atom_site_fract_y
 _atom_site_fract_z
 _atom_site_occupancy
  Mn  Mn0  1  0.00000000  0.00000000  0.00000000  1
  Fe  Fe1  1  0.50000001  0.50000001  0.50000002  1
  Ni  Ni2  1  0.50000001  0.00000000  0.74138902  1
  Ni  Ni3  1  0.00000000  0.50000001  0.25861101  1
  P  P4  1  0.50000001  0.00000000  0.25861101  1
  P  P5  1  0.00000000  0.50000001  0.74138902  1
