# generated using pymatgen
data_Na4Zn(CuO4)3
_symmetry_space_group_name_H-M   'P 1'
_cell_length_a   5.72168016
_cell_length_b   5.73092079
_cell_length_c   8.17504215
_cell_angle_alpha   89.94532776
_cell_angle_beta   90.00000000
_cell_angle_gamma   90.00000000
_symmetry_Int_Tables_number   1
_chemical_formula_structural   Na4Zn(CuO4)3
_chemical_formula_sum   'Na4 Zn1 Cu3 O12'
_cell_volume   268.06356346
_cell_formula_units_Z   1
loop_
 _symmetry_equiv_pos_site_id
 _symmetry_equiv_pos_as_xyz
  1  'x, y, z'
loop_
 _atom_site_type_symbol
 _atom_site_label
 _atom_site_symmetry_multiplicity
 _atom_site_fract_x
 _atom_site_fract_y
 _atom_site_fract_z
 _atom_site_occupancy
  Na  Na0  1  0.76219498  0.99300804  0.23739601  1
  Na  Na1  1  0.26467699  0.49139802  0.23757700  1
  Na  Na2  1  0.23780499  0.49300802  0.73739597  1
  Na  Na3  1  0.73532298  0.99139804  0.73757699  1
  Zn  Zn4  1  0.25439999  0.99902704  0.99796397  1
  Cu  Cu5  1  0.25745499  0.98378104  0.48134400  1
  Cu  Cu6  1  0.74254498  0.48378102  0.98134396  1
  Cu  Cu7  1  0.74559998  0.49902702  0.49796399  1
  O  O8  1  0.52316198  0.22781501  0.00097801  1
  O  O9  1  0.75844798  0.46551602  0.73351697  1
  O  O10  1  0.47683799  0.72781503  0.50097799  1
  O  O11  1  0.24155199  0.96551604  0.23351701  1
  O  O12  1  0.24771699  0.04644700  0.73049696  1
  O  O13  1  0.52854698  0.22613401  0.46139998  1
  O  O14  1  0.02704000  0.28143801  0.00403001  1
  O  O15  1  0.02956100  0.28543601  0.46129698  1
  O  O16  1  0.75228298  0.54644702  0.23049700  1
  O  O17  1  0.47145299  0.72613403  0.96139997  1
  O  O18  1  0.97043897  0.78543603  0.96129697  1
  O  O19  1  0.97295997  0.78143803  0.50402999  1
