# generated using pymatgen
data_K5Tl10InHg4
_symmetry_space_group_name_H-M   'P 1'
_cell_length_a   10.04951286
_cell_length_b   10.04951286
_cell_length_c   10.04951286
_cell_angle_alpha   107.08823395
_cell_angle_beta   107.08823395
_cell_angle_gamma   107.08823395
_symmetry_Int_Tables_number   1
_chemical_formula_structural   K5Tl10InHg4
_chemical_formula_sum   'K5 Tl10 In1 Hg4'
_cell_volume   843.19865573
_cell_formula_units_Z   1
loop_
 _symmetry_equiv_pos_site_id
 _symmetry_equiv_pos_as_xyz
  1  'x, y, z'
loop_
 _atom_site_type_symbol
 _atom_site_label
 _atom_site_symmetry_multiplicity
 _atom_site_fract_x
 _atom_site_fract_y
 _atom_site_fract_z
 _atom_site_occupancy
  K  K0  1  0.09802100  0.02688400  0.29906999  1
  K  K1  1  0.90197894  0.97311596  0.70092995  1
  K  K2  1  0.70092995  0.90197896  0.97311595  1
  K  K3  1  0.97311595  0.70092997  0.90197895  1
  Tl  Tl4  1  0.49999997  0.49999998  0.49999997  1
  Tl  Tl5  1  0.29906999  0.09802100  0.02688399  1
  Tl  Tl6  1  0.02688399  0.29906999  0.09802099  1
  K  K7  1  0.00000000  0.00000000  0.00000000  1
  In  In8  1  0.38933797  0.46910798  0.15817698  1
  Tl  Tl9  1  0.61066196  0.53089198  0.84182296  1
  Hg  Hg10  1  0.07466998  0.68234597  0.22778298  1
  Tl  Tl11  1  0.84182295  0.61066197  0.53089197  1
  Tl  Tl12  1  0.22778299  0.07467000  0.68234598  1
  Tl  Tl13  1  0.92532996  0.31765399  0.77221697  1
  Hg  Hg14  1  0.77221695  0.92532996  0.31765396  1
  Tl  Tl15  1  0.68234597  0.22778299  0.07466999  1
  Hg  Hg16  1  0.31765397  0.77221697  0.92532996  1
  Hg  Hg17  1  0.46910798  0.15817699  0.38933798  1
  Tl  Tl18  1  0.53089196  0.84182296  0.61066196  1
  Tl  Tl19  1  0.15817698  0.38933798  0.46910798  1
