# generated using pymatgen
data_Li5Cu
_symmetry_space_group_name_H-M   'P 1'
_cell_length_a   3.79391289
_cell_length_b   4.19082499
_cell_length_c   9.47154236
_cell_angle_alpha   90.00000000
_cell_angle_beta   90.00000000
_cell_angle_gamma   90.00000000
_symmetry_Int_Tables_number   1
_chemical_formula_structural   Li5Cu
_chemical_formula_sum   'Li5 Cu1'
_cell_volume   150.59397093
_cell_formula_units_Z   1
loop_
 _symmetry_equiv_pos_site_id
 _symmetry_equiv_pos_as_xyz
  1  'x, y, z'
loop_
 _atom_site_type_symbol
 _atom_site_label
 _atom_site_symmetry_multiplicity
 _atom_site_fract_x
 _atom_site_fract_y
 _atom_site_fract_z
 _atom_site_occupancy
  Li  Li0  1  0.50000001  0.00000000  0.11255700  1
  Li  Li1  1  0.00000000  0.50000000  0.88744297  1
  Li  Li2  1  0.00000000  0.00000000  0.31393799  1
  Li  Li3  1  0.50000001  0.50000000  0.68606197  1
  Li  Li4  1  0.00000000  0.00000000  0.97336496  1
  Cu  Cu5  1  0.50000001  0.50000000  0.02663500  1
