# generated using pymatgen
data_TiRuS2
_symmetry_space_group_name_H-M   'P 1'
_cell_length_a   3.56665182
_cell_length_b   3.56665182
_cell_length_c   7.09234524
_cell_angle_alpha   75.43704224
_cell_angle_beta   75.43704224
_cell_angle_gamma   60.00000000
_symmetry_Int_Tables_number   1
_chemical_formula_structural   TiRuS2
_chemical_formula_sum   'Ti1 Ru1 S2'
_cell_volume   74.76853624
_cell_formula_units_Z   1
loop_
 _symmetry_equiv_pos_site_id
 _symmetry_equiv_pos_as_xyz
  1  'x, y, z'
loop_
 _atom_site_type_symbol
 _atom_site_label
 _atom_site_symmetry_multiplicity
 _atom_site_fract_x
 _atom_site_fract_y
 _atom_site_fract_z
 _atom_site_occupancy
  Ti  Ti0  1  0.16684800  0.16684801  0.49945601  1
  Ru  Ru1  1  0.99764099  0.99764104  0.00707704  1
  S  S2  1  0.59488599  0.59488602  0.21534203  1
  S  S3  1  0.40062599  0.40062602  0.79812203  1
