# generated using pymatgen
data_YSiNi2
_symmetry_space_group_name_H-M   'P 1'
_cell_length_a   3.96469998
_cell_length_b   3.99761200
_cell_length_c   8.36162472
_cell_angle_alpha   103.83019257
_cell_angle_beta   90.00000000
_cell_angle_gamma   90.00000000
_symmetry_Int_Tables_number   1
_chemical_formula_structural   YSiNi2
_chemical_formula_sum   'Y2 Si2 Ni4'
_cell_volume   128.68402877
_cell_formula_units_Z   2
loop_
 _symmetry_equiv_pos_site_id
 _symmetry_equiv_pos_as_xyz
  1  'x, y, z'
loop_
 _atom_site_type_symbol
 _atom_site_label
 _atom_site_symmetry_multiplicity
 _atom_site_fract_x
 _atom_site_fract_y
 _atom_site_fract_z
 _atom_site_occupancy
  Y  Y0  1  0.75000000  0.89249300  0.78498598  1
  Y  Y1  1  0.25000000  0.10750700  0.21501399  1
  Ni  Ni2  1  0.25000000  0.32155700  0.64311398  1
  Si  Si3  1  0.75000000  0.67844300  0.35688599  1
  Ni  Ni4  1  0.75000000  0.24990600  0.49981199  1
  Ni  Ni5  1  0.25000000  0.75009400  0.50018798  1
  Si  Si6  1  0.25000000  0.45788000  0.91575997  1
  Ni  Ni7  1  0.75000000  0.54212000  0.08424000  1
