# generated using pymatgen
data_MnFe12
_symmetry_space_group_name_H-M   'P 1'
_cell_length_a   4.69385815
_cell_length_b   6.58304453
_cell_length_c   6.58304453
_cell_angle_alpha   82.04226685
_cell_angle_beta   69.11390686
_cell_angle_gamma   69.11390686
_symmetry_Int_Tables_number   1
_chemical_formula_structural   MnFe12
_chemical_formula_sum   'Mn1 Fe12'
_cell_volume   177.54614326
_cell_formula_units_Z   1
loop_
 _symmetry_equiv_pos_site_id
 _symmetry_equiv_pos_as_xyz
  1  'x, y, z'
loop_
 _atom_site_type_symbol
 _atom_site_label
 _atom_site_symmetry_multiplicity
 _atom_site_fract_x
 _atom_site_fract_y
 _atom_site_fract_z
 _atom_site_occupancy
  Mn  Mn0  1  0.00000000  0.00000000  0.00000000  1
  Fe  Fe1  1  0.49999993  0.77372801  0.22627199  1
  Fe  Fe2  1  0.49999997  0.22627200  0.77372798  1
  Fe  Fe3  1  0.73036792  0.76963201  0.76963198  1
  Fe  Fe4  1  0.26963198  0.23036800  0.23036799  1
  Fe  Fe5  1  0.00000000  0.00000000  0.49999999  1
  Fe  Fe6  1  0.49999999  0.00000000  0.49999997  1
  Fe  Fe7  1  0.49999995  0.50000000  -0.00000001  1
  Fe  Fe8  1  0.99999994  0.50000000  -0.00000003  1
  Fe  Fe9  1  -0.00000003  0.35973900  0.64026100  1
  Fe  Fe10  1  -0.00000006  0.64026101  0.35973901  1
  Fe  Fe11  1  0.64369196  0.35630800  0.35630798  1
  Fe  Fe12  1  0.35630794  0.64369201  0.64369199  1
