# generated using pymatgen
data_Na3CaTe2SeO7
_symmetry_space_group_name_H-M   'P 1'
_cell_length_a   6.97568321
_cell_length_b   6.97568321
_cell_length_c   6.97568321
_cell_angle_alpha   60.00000000
_cell_angle_beta   60.00000000
_cell_angle_gamma   60.00000000
_symmetry_Int_Tables_number   1
_chemical_formula_structural   Na3CaTe2SeO7
_chemical_formula_sum   'Na3 Ca1 Te2 Se1 O7'
_cell_volume   240.01879510
_cell_formula_units_Z   1
loop_
 _symmetry_equiv_pos_site_id
 _symmetry_equiv_pos_as_xyz
  1  'x, y, z'
loop_
 _atom_site_type_symbol
 _atom_site_label
 _atom_site_symmetry_multiplicity
 _atom_site_fract_x
 _atom_site_fract_y
 _atom_site_fract_z
 _atom_site_occupancy
  Na  Na0  1  0.75000001  0.75000001  0.75000001  1
  Ca  Ca1  1  0.00000000  0.00000000  0.00000000  1
  Na  Na2  1  0.37500001  0.37500001  0.87500002  1
  Na  Na3  1  0.37500001  0.87500002  0.37500001  1
  Te  Te4  1  0.87500002  0.37500001  0.37500001  1
  Te  Te5  1  0.37500001  0.37500001  0.37500001  1
  O  O6  1  0.13713700  0.13713600  0.58859101  1
  Se  Se7  1  0.13713700  0.58859101  0.13713600  1
  O  O8  1  0.58859201  0.13713600  0.13713600  1
  O  O9  1  0.61286301  0.61286401  0.16140900  1
  O  O10  1  0.61286301  0.61286401  0.61286401  1
  O  O11  1  0.61286301  0.16140900  0.61286401  1
  O  O12  1  0.13713700  0.13713600  0.13713600  1
  O  O13  1  0.16140800  0.61286401  0.61286401  1
