# generated using pymatgen
data_SrAc3
_symmetry_space_group_name_H-M   'P 1'
_cell_length_a   5.97509003
_cell_length_b   5.97509003
_cell_length_c   7.29675055
_cell_angle_alpha   114.16934967
_cell_angle_beta   114.16934967
_cell_angle_gamma   90.00000000
_symmetry_Int_Tables_number   1
_chemical_formula_structural   SrAc3
_chemical_formula_sum   'Sr1 Ac3'
_cell_volume   212.39275884
_cell_formula_units_Z   1
loop_
 _symmetry_equiv_pos_site_id
 _symmetry_equiv_pos_as_xyz
  1  'x, y, z'
loop_
 _atom_site_type_symbol
 _atom_site_label
 _atom_site_symmetry_multiplicity
 _atom_site_fract_x
 _atom_site_fract_y
 _atom_site_fract_z
 _atom_site_occupancy
  Ac  Ac0  1  0.75000003  0.25000001  0.50000006  1
  Ac  Ac1  1  0.25000005  0.75000002  0.50000007  1
  Ac  Ac2  1  0.50000004  0.50000002  0.00000006  1
  Sr  Sr3  1  0.00000000  0.00000000  0.00000000  1
