# generated using pymatgen
data_Er3Al10GaRh2
_symmetry_space_group_name_H-M   'P 1'
_cell_length_a   6.30633593
_cell_length_b   7.48112917
_cell_length_c   8.02431679
_cell_angle_alpha   90.00000000
_cell_angle_beta   90.00000000
_cell_angle_gamma   90.00000000
_symmetry_Int_Tables_number   1
_chemical_formula_structural   Er3Al10GaRh2
_chemical_formula_sum   'Er3 Al10 Ga1 Rh2'
_cell_volume   378.57533909
_cell_formula_units_Z   1
loop_
 _symmetry_equiv_pos_site_id
 _symmetry_equiv_pos_as_xyz
  1  'x, y, z'
loop_
 _atom_site_type_symbol
 _atom_site_label
 _atom_site_symmetry_multiplicity
 _atom_site_fract_x
 _atom_site_fract_y
 _atom_site_fract_z
 _atom_site_occupancy
  Er  Er0  1  0.50000001  0.00000000  0.79376902  1
  Er  Er1  1  0.00000000  0.00000000  0.70623102  1
  Er  Er2  1  0.00000000  0.00000000  0.29376901  1
  Al  Al3  1  0.50000001  0.00000000  0.20623101  1
  Al  Al4  1  0.85586601  0.88256998  0.00000000  1
  Al  Al5  1  0.64413401  0.88256998  0.50000001  1
  Al  Al6  1  0.14413400  0.11743000  0.00000000  1
  Ga  Ga7  1  0.35586600  0.11743000  0.50000001  1
  Rh  Rh8  1  0.74893801  0.21865900  0.00000000  1
  Al  Al9  1  0.75106201  0.21865900  0.50000001  1
  Al  Al10  1  0.75000001  0.68690098  0.75000002  1
  Al  Al11  1  0.75000001  0.68690098  0.25000001  1
  Rh  Rh12  1  0.25106200  0.78134098  0.00000000  1
  Al  Al13  1  0.24893800  0.78134098  0.50000001  1
  Al  Al14  1  0.25000000  0.31309899  0.75000002  1
  Al  Al15  1  0.25000000  0.31309899  0.25000001  1
