# generated using pymatgen
data_LiMgCu2Ge
_symmetry_space_group_name_H-M   'P 1'
_cell_length_a   3.94811010
_cell_length_b   3.94811010
_cell_length_c   6.11109400
_cell_angle_alpha   108.84615326
_cell_angle_beta   108.84615326
_cell_angle_gamma   90.00000000
_symmetry_Int_Tables_number   1
_chemical_formula_structural   LiMgCu2Ge
_chemical_formula_sum   'Li1 Mg1 Cu2 Ge1'
_cell_volume   84.73632126
_cell_formula_units_Z   1
loop_
 _symmetry_equiv_pos_site_id
 _symmetry_equiv_pos_as_xyz
  1  'x, y, z'
loop_
 _atom_site_type_symbol
 _atom_site_label
 _atom_site_symmetry_multiplicity
 _atom_site_fract_x
 _atom_site_fract_y
 _atom_site_fract_z
 _atom_site_occupancy
  Li  Li0  1  0.00000000  0.00000000  0.00000000  1
  Mg  Mg1  1  0.75000001  0.25000000  0.50000004  1
  Cu  Cu2  1  0.25000003  0.75000000  0.50000005  1
  Cu  Cu3  1  0.61959402  0.61959400  0.23918805  1
  Ge  Ge4  1  0.38040601  0.38040600  0.76081203  1
