# generated using pymatgen
data_La3PrY2In3Sn2Au5
_symmetry_space_group_name_H-M   'P 1'
_cell_length_a   7.78129578
_cell_length_b   8.76032448
_cell_length_c   7.78129578
_cell_angle_alpha   116.36714172
_cell_angle_beta   90.00000000
_cell_angle_gamma   116.36714172
_symmetry_Int_Tables_number   1
_chemical_formula_structural   La3PrY2In3Sn2Au5
_chemical_formula_sum   'La3 Pr1 Y2 In3 Sn2 Au5'
_cell_volume   412.74852444
_cell_formula_units_Z   1
loop_
 _symmetry_equiv_pos_site_id
 _symmetry_equiv_pos_as_xyz
  1  'x, y, z'
loop_
 _atom_site_type_symbol
 _atom_site_label
 _atom_site_symmetry_multiplicity
 _atom_site_fract_x
 _atom_site_fract_y
 _atom_site_fract_z
 _atom_site_occupancy
  Y  Y0  1  0.00000000  0.00000000  0.00000000  1
  Pr  Pr1  1  0.50000001  0.00000000  0.50000001  1
  La  La2  1  0.20080895  0.71548292  0.01467395  1
  La  La3  1  0.79919100  0.28451697  0.98532601  1
  Y  Y4  1  0.51467396  0.71548292  0.70080897  1
  La  La5  1  0.70080897  0.71548292  0.20080895  1
  In  In6  1  0.98532601  0.28451697  0.48532599  1
  In  In7  1  0.48532599  0.28451697  0.29919099  1
  In  In8  1  0.29919099  0.28451697  0.79919100  1
  Sn  Sn9  1  0.01467395  0.71548292  0.51467396  1
  Sn  Sn10  1  0.74999998  0.49999995  0.74999998  1
  Au  Au11  1  0.24999997  0.49999995  0.24999997  1
  Au  Au12  1  0.86336803  0.00000100  0.63663302  1
  Au  Au13  1  0.13663193  0.99999889  0.36336693  1
  Au  Au14  1  0.36336801  0.00000000  0.86336803  1
  Au  Au15  1  0.63663194  0.99999989  0.13663193  1
