# generated using pymatgen
data_YEr2Al2CoSi4Ni3
_symmetry_space_group_name_H-M   'P 1'
_cell_length_a   4.09328985
_cell_length_b   4.19367886
_cell_length_c   13.16820145
_cell_angle_alpha   90.00000000
_cell_angle_beta   98.94134521
_cell_angle_gamma   90.00000000
_symmetry_Int_Tables_number   1
_chemical_formula_structural   YEr2Al2CoSi4Ni3
_chemical_formula_sum   'Y1 Er2 Al2 Co1 Si4 Ni3'
_cell_volume   223.29769563
_cell_formula_units_Z   1
loop_
 _symmetry_equiv_pos_site_id
 _symmetry_equiv_pos_as_xyz
  1  'x, y, z'
loop_
 _atom_site_type_symbol
 _atom_site_label
 _atom_site_symmetry_multiplicity
 _atom_site_fract_x
 _atom_site_fract_y
 _atom_site_fract_z
 _atom_site_occupancy
  Y  Y0  1  0.00000000  0.00000000  0.00000000  1
  Er  Er1  1  0.68790002  0.50000002  0.37580000  1
  Er  Er2  1  0.31210001  0.50000002  0.62420000  1
  Al  Al3  1  0.59524402  0.00000000  0.19048800  1
  Co  Co4  1  0.40475601  0.00000000  0.80951200  1
  Al  Al5  1  0.77567403  0.00000000  0.55134800  1
  Si  Si6  1  0.22432601  0.00000000  0.44865200  1
  Ni  Ni7  1  0.90286203  0.50000002  0.80572400  1
  Si  Si8  1  0.09713800  0.50000002  0.19427600  1
  Si  Si9  1  0.54526502  0.50000002  0.09053000  1
  Si  Si10  1  0.45473502  0.50000002  0.90947000  1
  Ni  Ni11  1  0.86600503  0.00000000  0.73201000  1
  Ni  Ni12  1  0.13399500  1.00000003  0.26799000  1
