# generated using pymatgen
data_SrLiCa2O4
_symmetry_space_group_name_H-M   'P 1'
_cell_length_a   4.88543797
_cell_length_b   5.41174603
_cell_length_c   5.68878794
_cell_angle_alpha   118.40168762
_cell_angle_beta   115.42897034
_cell_angle_gamma   90.00000000
_symmetry_Int_Tables_number   1
_chemical_formula_structural   SrLiCa2O4
_chemical_formula_sum   'Sr1 Li1 Ca2 O4'
_cell_volume   115.46708770
_cell_formula_units_Z   1
loop_
 _symmetry_equiv_pos_site_id
 _symmetry_equiv_pos_as_xyz
  1  'x, y, z'
loop_
 _atom_site_type_symbol
 _atom_site_label
 _atom_site_symmetry_multiplicity
 _atom_site_fract_x
 _atom_site_fract_y
 _atom_site_fract_z
 _atom_site_occupancy
  Li  Li0  1  0.00000000  0.00000000  0.00000000  1
  Sr  Sr1  1  0.50000000  0.49999998  -0.00000002  1
  Ca  Ca2  1  0.26179699  0.74999997  0.49999996  1
  Ca  Ca3  1  0.73820301  0.24999999  0.50000001  1
  O  O4  1  0.83381101  0.33381099  0.16762200  1
  O  O5  1  0.16618899  0.66618897  0.83237798  1
  O  O6  1  0.83381100  0.83381097  0.16762196  1
  O  O7  1  0.16618900  0.16618899  0.83237801  1
