# generated using pymatgen
data_KBaNa3Sr3O6
_symmetry_space_group_name_H-M   'P 1'
_cell_length_a   7.42958260
_cell_length_b   7.42958260
_cell_length_c   8.44141102
_cell_angle_alpha   63.89180756
_cell_angle_beta   63.89180756
_cell_angle_gamma   59.99999619
_symmetry_Int_Tables_number   1
_chemical_formula_structural   KBaNa3Sr3O6
_chemical_formula_sum   'K1 Ba1 Na3 Sr3 O6'
_cell_volume   347.54753688
_cell_formula_units_Z   1
loop_
 _symmetry_equiv_pos_site_id
 _symmetry_equiv_pos_as_xyz
  1  'x, y, z'
loop_
 _atom_site_type_symbol
 _atom_site_label
 _atom_site_symmetry_multiplicity
 _atom_site_fract_x
 _atom_site_fract_y
 _atom_site_fract_z
 _atom_site_occupancy
  Ba  Ba0  1  0.66642199  0.66642198  0.00073404  1
  Sr  Sr1  1  0.33357799  0.33357799  0.99926607  1
  K  K2  1  0.53337299  0.87386398  0.37545506  1
  Sr  Sr3  1  0.21730800  0.53337299  0.37545504  1
  Na  Na4  1  0.87386398  0.21730800  0.37545505  1
  Sr  Sr5  1  0.12613600  0.78269198  0.62454506  1
  Na  Na6  1  0.78269198  0.46662699  0.62454507  1
  Na  Na7  1  0.46662699  0.12613600  0.62454505  1
  O  O8  1  0.76135698  0.08522700  0.74270507  1
  O  O9  1  0.08522700  0.41071099  0.74270505  1
  O  O10  1  0.41071099  0.76135698  0.74270508  1
  O  O11  1  0.58928899  0.23864299  0.25729504  1
  O  O12  1  0.91477298  0.58928899  0.25729506  1
  O  O13  1  0.23864300  0.91477298  0.25729505  1
