# generated using pymatgen
data_YIn7(SnAu)3
_symmetry_space_group_name_H-M   'P 1'
_cell_length_a   6.66182423
_cell_length_b   7.68046761
_cell_length_c   8.97442722
_cell_angle_alpha   96.86341095
_cell_angle_beta   111.78692627
_cell_angle_gamma   90.00000000
_symmetry_Int_Tables_number   1
_chemical_formula_structural   YIn7(SnAu)3
_chemical_formula_sum   'Y1 In7 Sn3 Au3'
_cell_volume   422.83979043
_cell_formula_units_Z   1
loop_
 _symmetry_equiv_pos_site_id
 _symmetry_equiv_pos_as_xyz
  1  'x, y, z'
loop_
 _atom_site_type_symbol
 _atom_site_label
 _atom_site_symmetry_multiplicity
 _atom_site_fract_x
 _atom_site_fract_y
 _atom_site_fract_z
 _atom_site_occupancy
  Y  Y0  1  0.20144697  0.91883399  0.18241796  1
  In  In1  1  0.01902899  0.58116600  0.81758198  1
  In  In2  1  0.79855298  0.08116600  0.81758203  1
  In  In3  1  0.98097097  0.41883400  0.18241800  1
  In  In4  1  0.79758296  0.81967299  0.43443998  1
  In  In5  1  0.36314298  0.68032700  0.56555998  1
  In  In6  1  0.20241699  0.18032700  0.56556001  1
  In  In7  1  0.63685698  0.31967300  0.43444001  1
  Sn  Sn8  1  0.57871097  0.74999999  -0.00000003  1
  Sn  Sn9  1  0.42128898  0.25000000  -0.00000000  1
  Au  Au10  1  0.40432498  0.58104900  0.22072598  1
  Sn  Sn11  1  0.18359897  0.91895099  0.77927397  1
  Au  Au12  1  0.59567498  0.41895100  0.77927401  1
  Au  Au13  1  0.81640098  0.08104900  0.22072602  1
