# generated using pymatgen
data_Li2Fe3NiP4
_symmetry_space_group_name_H-M   'P 1'
_cell_length_a   5.45839024
_cell_length_b   5.46403599
_cell_length_c   6.81582451
_cell_angle_alpha   90.00000000
_cell_angle_beta   113.60446167
_cell_angle_gamma   90.00000000
_symmetry_Int_Tables_number   1
_chemical_formula_structural   Li2Fe3NiP4
_chemical_formula_sum   'Li2 Fe3 Ni1 P4'
_cell_volume   186.27268421
_cell_formula_units_Z   1
loop_
 _symmetry_equiv_pos_site_id
 _symmetry_equiv_pos_as_xyz
  1  'x, y, z'
loop_
 _atom_site_type_symbol
 _atom_site_label
 _atom_site_symmetry_multiplicity
 _atom_site_fract_x
 _atom_site_fract_y
 _atom_site_fract_z
 _atom_site_occupancy
  Li  Li0  1  0.49716598  0.50000000  0.99433199  1
  Li  Li1  1  0.99761896  0.00000000  0.99523800  1
  Fe  Fe2  1  0.50475698  0.24623200  0.50252700  1
  Fe  Fe3  1  0.99776996  0.75376800  0.50252700  1
  Fe  Fe4  1  0.99776996  0.24623200  0.50252700  1
  Ni  Ni5  1  0.50475698  0.75376800  0.50252700  1
  P  P6  1  0.15129399  0.50000000  0.30258800  1
  P  P7  1  0.66273698  0.00000000  0.32547400  1
  P  P8  1  0.33649099  1.00000000  0.67298200  1
  P  P9  1  0.83553997  0.50000000  0.67108000  1
