# generated using pymatgen
data_Na3Sr3CuBiO12
_symmetry_space_group_name_H-M   'P 1'
_cell_length_a   5.82291079
_cell_length_b   5.89708090
_cell_length_c   8.26700497
_cell_angle_alpha   90.00000000
_cell_angle_beta   89.57659149
_cell_angle_gamma   90.00000000
_symmetry_Int_Tables_number   1
_chemical_formula_structural   Na3Sr3CuBiO12
_chemical_formula_sum   'Na3 Sr3 Cu1 Bi1 O12'
_cell_volume   283.86612009
_cell_formula_units_Z   1
loop_
 _symmetry_equiv_pos_site_id
 _symmetry_equiv_pos_as_xyz
  1  'x, y, z'
loop_
 _atom_site_type_symbol
 _atom_site_label
 _atom_site_symmetry_multiplicity
 _atom_site_fract_x
 _atom_site_fract_y
 _atom_site_fract_z
 _atom_site_occupancy
  Na  Na0  1  0.00914300  0.46166701  0.75060598  1
  Sr  Sr1  1  0.49085702  0.96166702  0.74939400  1
  Sr  Sr2  1  0.50914302  0.03833300  0.25060601  1
  Sr  Sr3  1  0.99085704  0.53833301  0.24939403  1
  Na  Na4  1  0.50000002  0.50000001  0.00000002  1
  Na  Na5  1  0.00000000  0.00000000  0.49999999  1
  Bi  Bi6  1  0.00000000  0.00000000  0.00000000  1
  Cu  Cu7  1  0.50000002  0.50000001  0.50000000  1
  O  O8  1  0.27075401  0.19778800  0.96025598  1
  O  O9  1  0.22924601  0.69778801  0.53974399  1
  O  O10  1  0.72924603  0.80221201  0.03974403  1
  O  O11  1  0.77075403  0.30221201  0.46025602  1
  O  O12  1  0.19466301  0.72801701  0.95754898  1
  O  O13  1  0.30533701  0.22801700  0.54245100  1
  O  O14  1  0.80533703  0.27198300  0.04245103  1
  O  O15  1  0.69466303  0.77198301  0.45754901  1
  O  O16  1  0.57718602  0.52128801  0.73320300  1
  O  O17  1  0.92281403  0.02128800  0.76679701  1
  O  O18  1  0.42281402  0.47871201  0.26679701  1
  O  O19  1  0.07718600  0.97871202  0.23320300  1
