# generated using pymatgen
data_Ba2NaLi3TlNi
_symmetry_space_group_name_H-M   'P 1'
_cell_length_a   5.20912409
_cell_length_b   5.20912409
_cell_length_c   9.06505394
_cell_angle_alpha   73.30249023
_cell_angle_beta   73.30249023
_cell_angle_gamma   60.00000000
_symmetry_Int_Tables_number   1
_chemical_formula_structural   Ba2NaLi3TlNi
_chemical_formula_sum   'Ba2 Na1 Li3 Tl1 Ni1'
_cell_volume   200.95946677
_cell_formula_units_Z   1
loop_
 _symmetry_equiv_pos_site_id
 _symmetry_equiv_pos_as_xyz
  1  'x, y, z'
loop_
 _atom_site_type_symbol
 _atom_site_label
 _atom_site_symmetry_multiplicity
 _atom_site_fract_x
 _atom_site_fract_y
 _atom_site_fract_z
 _atom_site_occupancy
  Ba  Ba0  1  0.49999997  0.49999999  0.50000005  1
  Ba  Ba1  1  0.00000000  0.00000000  0.00000000  1
  Na  Na2  1  0.62562897  0.62562899  0.12311305  1
  Li  Li3  1  0.12394699  0.12394700  0.62815903  1
  Ni  Ni4  1  0.87605295  0.87605298  0.37184107  1
  Li  Li5  1  0.37437098  0.37437099  0.87688705  1
  Li  Li6  1  0.25057499  0.25057499  0.24827503  1
  Tl  Tl7  1  0.74942496  0.74942498  0.75172508  1
