# generated using pymatgen
data_LaDyInGa2Ge
_symmetry_space_group_name_H-M   'P 1'
_cell_length_a   4.60794783
_cell_length_b   5.78929329
_cell_length_c   5.78929329
_cell_angle_alpha   80.22402954
_cell_angle_beta   66.54856873
_cell_angle_gamma   66.54856873
_symmetry_Int_Tables_number   1
_chemical_formula_structural   LaDyInGa2Ge
_chemical_formula_sum   'La1 Dy1 In1 Ga2 Ge1'
_cell_volume   129.96728802
_cell_formula_units_Z   1
loop_
 _symmetry_equiv_pos_site_id
 _symmetry_equiv_pos_as_xyz
  1  'x, y, z'
loop_
 _atom_site_type_symbol
 _atom_site_label
 _atom_site_symmetry_multiplicity
 _atom_site_fract_x
 _atom_site_fract_y
 _atom_site_fract_z
 _atom_site_occupancy
  Dy  Dy0  1  0.46107602  0.28892399  0.78892398  1
  La  La1  1  0.53892403  0.71107597  0.21107600  1
  In  In2  1  0.16538802  0.88960297  0.77962098  1
  Ga  Ga3  1  0.83461203  0.11039700  0.22037900  1
  Ga  Ga4  1  0.16538801  0.27962099  0.38960299  1
  Ge  Ge5  1  0.83461204  0.72037897  0.61039699  1
