# generated using pymatgen
data_YScAl2BC2N
_symmetry_space_group_name_H-M   'P 1'
_cell_length_a   3.17874408
_cell_length_b   3.17874384
_cell_length_c   14.23989773
_cell_angle_alpha   90.00000000
_cell_angle_beta   90.00000000
_cell_angle_gamma   120.00000000
_symmetry_Int_Tables_number   1
_chemical_formula_structural   YScAl2BC2N
_chemical_formula_sum   'Y1 Sc1 Al2 B1 C2 N1'
_cell_volume   124.60876662
_cell_formula_units_Z   1
loop_
 _symmetry_equiv_pos_site_id
 _symmetry_equiv_pos_as_xyz
  1  'x, y, z'
loop_
 _atom_site_type_symbol
 _atom_site_label
 _atom_site_symmetry_multiplicity
 _atom_site_fract_x
 _atom_site_fract_y
 _atom_site_fract_z
 _atom_site_occupancy
  Al  Al0  1  0.66666665  0.33333334  0.57709501  1
  Y  Y1  1  0.33333332  0.66666669  0.42290501  1
  Sc  Sc2  1  0.33333332  0.66666669  0.07709500  1
  Al  Al3  1  0.66666665  0.33333334  0.92290502  1
  B  B4  1  0.66666665  0.33333334  0.25000000  1
  C  C5  1  0.33333332  0.66666669  0.75000001  1
  N  N6  1  0.00000000  0.00000000  0.50000001  1
  C  C7  1  0.00000000  0.00000000  0.00000000  1
