# generated using pymatgen
data_BaCaLa2Y2TlSn2Hg
_symmetry_space_group_name_H-M   'P 1'
_cell_length_a   8.44711399
_cell_length_b   8.45961189
_cell_length_c   8.44711399
_cell_angle_alpha   119.95114136
_cell_angle_beta   90.00000000
_cell_angle_gamma   119.95114136
_symmetry_Int_Tables_number   1
_chemical_formula_structural   BaCaLa2Y2TlSn2Hg
_chemical_formula_sum   'Ba1 Ca1 La2 Y2 Tl1 Sn2 Hg1'
_cell_volume   427.45690956
_cell_formula_units_Z   1
loop_
 _symmetry_equiv_pos_site_id
 _symmetry_equiv_pos_as_xyz
  1  'x, y, z'
loop_
 _atom_site_type_symbol
 _atom_site_label
 _atom_site_symmetry_multiplicity
 _atom_site_fract_x
 _atom_site_fract_y
 _atom_site_fract_z
 _atom_site_occupancy
  Ba  Ba0  1  0.24999999  0.49999998  0.74999999  1
  La  La1  1  0.74999999  0.49999998  0.24999999  1
  La  La2  1  0.00000000  0.00000000  0.00000000  1
  Ca  Ca3  1  0.50000000  0.00000000  0.50000000  1
  Y  Y4  1  0.74999999  0.49999998  0.74999999  1
  Y  Y5  1  0.24999999  0.49999998  0.24999999  1
  Tl  Tl6  1  0.28076900  0.00000100  0.21923200  1
  Hg  Hg7  1  0.71923098  0.99999896  0.78076798  1
  Sn  Sn8  1  0.78076900  0.00000000  0.28076900  1
  Sn  Sn9  1  0.21923100  0.00000000  0.71923100  1
