# generated using pymatgen
data_LaEr3Ga3SiGe2
_symmetry_space_group_name_H-M   'P 1'
_cell_length_a   3.83195400
_cell_length_b   7.60375977
_cell_length_c   7.60375977
_cell_angle_alpha   90.00000000
_cell_angle_beta   90.00000000
_cell_angle_gamma   90.00000000
_symmetry_Int_Tables_number   1
_chemical_formula_structural   LaEr3Ga3SiGe2
_chemical_formula_sum   'La1 Er3 Ga3 Si1 Ge2'
_cell_volume   221.55270753
_cell_formula_units_Z   1
loop_
 _symmetry_equiv_pos_site_id
 _symmetry_equiv_pos_as_xyz
  1  'x, y, z'
loop_
 _atom_site_type_symbol
 _atom_site_label
 _atom_site_symmetry_multiplicity
 _atom_site_fract_x
 _atom_site_fract_y
 _atom_site_fract_z
 _atom_site_occupancy
  Er  Er0  1  0.50000000  0.17096301  0.67096302  1
  La  La1  1  0.50000000  0.82903703  0.32903701  1
  Er  Er2  1  0.50000000  0.32903701  0.17096301  1
  Er  Er3  1  0.50000000  0.67096302  0.82903703  1
  Ga  Ga4  1  0.00000000  0.00000000  0.00000000  1
  Ga  Ga5  1  0.00000000  0.50000002  0.50000002  1
  Ga  Ga6  1  0.00000000  0.63071802  0.13071800  1
  Si  Si7  1  0.00000000  0.36928201  0.86928203  1
  Ge  Ge8  1  0.00000000  0.86928203  0.63071802  1
  Ge  Ge9  1  0.00000000  0.13071800  0.36928201  1
