# generated using pymatgen
data_YMg3In2
_symmetry_space_group_name_H-M   'P 1'
_cell_length_a   3.11368608
_cell_length_b   5.17510605
_cell_length_c   9.59353256
_cell_angle_alpha   90.00000000
_cell_angle_beta   99.33928680
_cell_angle_gamma   90.00000000
_symmetry_Int_Tables_number   1
_chemical_formula_structural   YMg3In2
_chemical_formula_sum   'Y1 Mg3 In2'
_cell_volume   152.53778126
_cell_formula_units_Z   1
loop_
 _symmetry_equiv_pos_site_id
 _symmetry_equiv_pos_as_xyz
  1  'x, y, z'
loop_
 _atom_site_type_symbol
 _atom_site_label
 _atom_site_symmetry_multiplicity
 _atom_site_fract_x
 _atom_site_fract_y
 _atom_site_fract_z
 _atom_site_occupancy
  Mg  Mg0  1  0.60343698  0.25000000  0.20687399  1
  Y  Y1  1  0.92936597  0.25000000  0.85873198  1
  Mg  Mg2  1  0.07063400  0.74999999  0.14126800  1
  Mg  Mg3  1  0.39656299  0.74999999  0.79312599  1
  In  In4  1  0.27099999  0.25000000  0.54199999  1
  In  In5  1  0.72899998  0.74999999  0.45799999  1
