# generated using pymatgen
data_Na3SrLi2(CuO6)2
_symmetry_space_group_name_H-M   'P 1'
_cell_length_a   5.53555822
_cell_length_b   5.55730009
_cell_length_c   9.56992626
_cell_angle_alpha   74.76056671
_cell_angle_beta   73.49143219
_cell_angle_gamma   61.71263504
_symmetry_Int_Tables_number   1
_chemical_formula_structural   Na3SrLi2(CuO6)2
_chemical_formula_sum   'Na3 Sr1 Li2 Cu2 O12'
_cell_volume   245.67252501
_cell_formula_units_Z   1
loop_
 _symmetry_equiv_pos_site_id
 _symmetry_equiv_pos_as_xyz
  1  'x, y, z'
loop_
 _atom_site_type_symbol
 _atom_site_label
 _atom_site_symmetry_multiplicity
 _atom_site_fract_x
 _atom_site_fract_y
 _atom_site_fract_z
 _atom_site_occupancy
  Na  Na0  1  0.00531200  0.02499200  0.01121900  1
  Sr  Sr1  1  0.52509703  0.50695400  0.51571699  1
  Na  Na2  1  0.63210804  0.64994201  0.14331797  1
  Na  Na3  1  0.91437606  0.88203201  0.39021196  1
  Li  Li4  1  0.13764201  0.14749600  0.64482001  1
  Li  Li5  1  0.38829203  0.40257300  0.89208200  1
  Cu  Cu6  1  0.22573902  0.29390900  0.23083599  1
  Cu  Cu7  1  0.72916205  0.79011301  0.72942998  1
  O  O8  1  0.44213303  0.54657100  0.04265997  1
  O  O9  1  0.97346703  0.02611900  0.54215699  1
  O  O10  1  0.84504905  0.72787001  0.25683596  1
  O  O11  1  0.33154602  0.23476400  0.75716400  1
  O  O12  1  0.48029802  0.06396800  0.02994999  1
  O  O13  1  0.02233302  0.52028000  0.53401300  1
  O  O14  1  0.81398903  0.23374000  0.26981998  1
  O  O15  1  0.29157004  0.76751201  0.76771499  1
  O  O16  1  0.30218804  0.77965101  0.29336598  1
  O  O17  1  0.76067003  0.30534500  0.79066799  1
  O  O18  1  0.99759205  0.50416100  0.01706896  1
  O  O19  1  0.55586105  0.96644001  0.51537997  1
