# generated using pymatgen
data_ErZnInCu3SiGe5
_symmetry_space_group_name_H-M   'P 1'
_cell_length_a   5.08364439
_cell_length_b   5.08364439
_cell_length_c   8.61411285
_cell_angle_alpha   72.83786774
_cell_angle_beta   72.83786774
_cell_angle_gamma   59.99999619
_symmetry_Int_Tables_number   1
_chemical_formula_structural   ErZnInCu3SiGe5
_chemical_formula_sum   'Er1 Zn1 In1 Cu3 Si1 Ge5'
_cell_volume   181.25693589
_cell_formula_units_Z   1
loop_
 _symmetry_equiv_pos_site_id
 _symmetry_equiv_pos_as_xyz
  1  'x, y, z'
loop_
 _atom_site_type_symbol
 _atom_site_label
 _atom_site_symmetry_multiplicity
 _atom_site_fract_x
 _atom_site_fract_y
 _atom_site_fract_z
 _atom_site_occupancy
  Er  Er0  1  0.00000000  0.00000000  0.00000000  1
  In  In1  1  0.14189500  0.14189500  0.57431498  1
  Zn  Zn2  1  0.85810499  0.85810498  0.42568496  1
  Cu  Cu3  1  0.49999999  0.49999999  0.49999997  1
  Si  Si4  1  0.33276299  0.33276299  0.00171099  1
  Cu  Cu5  1  0.66723699  0.66723699  0.99828896  1
  Cu  Cu6  1  0.58102899  0.08197400  0.75596797  1
  Ge  Ge7  1  0.58102899  0.58102899  0.75596796  1
  Ge  Ge8  1  0.08197400  0.58102899  0.75596797  1
  Ge  Ge9  1  0.91802598  0.41897099  0.24403197  1
  Ge  Ge10  1  0.41897099  0.91802598  0.24403197  1
  Ge  Ge11  1  0.41897099  0.41897099  0.24403198  1
