# generated using pymatgen
data_La2Dy2GaSn2Ge2PdAu2
_symmetry_space_group_name_H-M   'P 1'
_cell_length_a   4.57320309
_cell_length_b   7.23927879
_cell_length_c   7.81607914
_cell_angle_alpha   90.00000000
_cell_angle_beta   90.00000000
_cell_angle_gamma   90.00000000
_symmetry_Int_Tables_number   1
_chemical_formula_structural   La2Dy2GaSn2Ge2PdAu2
_chemical_formula_sum   'La2 Dy2 Ga1 Sn2 Ge2 Pd1 Au2'
_cell_volume   258.76452570
_cell_formula_units_Z   1
loop_
 _symmetry_equiv_pos_site_id
 _symmetry_equiv_pos_as_xyz
  1  'x, y, z'
loop_
 _atom_site_type_symbol
 _atom_site_label
 _atom_site_symmetry_multiplicity
 _atom_site_fract_x
 _atom_site_fract_y
 _atom_site_fract_z
 _atom_site_occupancy
  La  La0  1  0.25000000  0.01302700  0.30557999  1
  Dy  Dy1  1  0.25000000  0.51302701  0.19442000  1
  Dy  Dy2  1  0.74999999  0.98697303  0.69441999  1
  La  La3  1  0.74999999  0.48697301  0.80557999  1
  Ga  Ga4  1  0.25000000  0.66605502  0.57640199  1
  Ge  Ge5  1  0.25000000  0.16605500  0.92359798  1
  Sn  Sn6  1  0.74999999  0.33394501  0.42359799  1
  Ge  Ge7  1  0.74999999  0.83394502  0.07640200  1
  Au  Au8  1  0.25000000  0.29320901  0.60110899  1
  Sn  Sn9  1  0.25000000  0.79320902  0.89889098  1
  Pd  Pd10  1  0.74999999  0.70679102  0.39889099  1
  Au  Au11  1  0.74999999  0.20679101  0.10110900  1
