# generated using pymatgen
data_Hf2Nb4Si4TcW
_symmetry_space_group_name_H-M   'P 1'
_cell_length_a   4.33372498
_cell_length_b   5.16832495
_cell_length_c   9.39144516
_cell_angle_alpha   89.55755615
_cell_angle_beta   90.00000000
_cell_angle_gamma   90.00000000
_symmetry_Int_Tables_number   1
_chemical_formula_structural   Hf2Nb4Si4TcW
_chemical_formula_sum   'Hf2 Nb4 Tc1 Si4 W1'
_cell_volume   210.34424591
_cell_formula_units_Z   1
loop_
 _symmetry_equiv_pos_site_id
 _symmetry_equiv_pos_as_xyz
  1  'x, y, z'
loop_
 _atom_site_type_symbol
 _atom_site_label
 _atom_site_symmetry_multiplicity
 _atom_site_fract_x
 _atom_site_fract_y
 _atom_site_fract_z
 _atom_site_occupancy
  Hf  Hf0  1  0.00000000  0.50000001  0.49999999  1
  Hf  Hf1  1  0.00000000  0.50000001  0.00000000  1
  Nb  Nb2  1  0.00000000  0.00000000  0.49999999  1
  Nb  Nb3  1  0.00000000  0.25370100  0.24957400  1
  Nb  Nb4  1  -0.00000000  0.74629901  0.75042599  1
  Nb  Nb5  1  0.00000000  0.00000000  0.00000000  1
  Tc  Tc6  1  0.50000000  0.24888000  0.08682900  1
  Si  Si7  1  0.50000000  0.74905101  0.58779699  1
  W  W8  1  0.50000000  0.75112001  0.91317099  1
  Si  Si9  1  0.50000000  0.25094900  0.41220299  1
  Si  Si10  1  0.00000000  0.24658100  0.75053799  1
  Si  Si11  1  -0.00000000  0.75341901  0.24946200  1
