# generated using pymatgen
data_Li4NiBHO9
_symmetry_space_group_name_H-M   'P 1'
_cell_length_a   3.12726808
_cell_length_b   4.72566509
_cell_length_c   10.21859074
_cell_angle_alpha   90.00000000
_cell_angle_beta   90.00000000
_cell_angle_gamma   90.00000000
_symmetry_Int_Tables_number   1
_chemical_formula_structural   Li4NiBHO9
_chemical_formula_sum   'Li4 Ni1 B1 H1 O9'
_cell_volume   151.01464187
_cell_formula_units_Z   1
loop_
 _symmetry_equiv_pos_site_id
 _symmetry_equiv_pos_as_xyz
  1  'x, y, z'
loop_
 _atom_site_type_symbol
 _atom_site_label
 _atom_site_symmetry_multiplicity
 _atom_site_fract_x
 _atom_site_fract_y
 _atom_site_fract_z
 _atom_site_occupancy
  Li  Li0  1  0.74999998  0.98860998  0.63183202  1
  Li  Li1  1  0.74999998  0.51138999  0.13183200  1
  Li  Li2  1  0.24999999  0.01139000  0.36816801  1
  Li  Li3  1  0.24999999  0.48860999  0.86816802  1
  Ni  Ni4  1  0.74999998  0.58852199  0.42908301  1
  B  B5  1  0.74999998  0.91147798  0.92908302  1
  H  H6  1  0.24999999  0.41147799  0.57091701  1
  O  O7  1  0.24999999  0.08852200  0.07091700  1
  O  O8  1  0.74999998  0.71140999  0.95036902  1
  O  O9  1  0.74999998  0.78858998  0.45036901  1
  O  O10  1  0.24999999  0.28858999  0.04963100  1
  O  O11  1  0.24999999  0.21141000  0.54963101  1
  O  O12  1  0.24999999  0.74828399  0.70705802  1
  O  O13  1  0.24999999  0.75171599  0.20705801  1
  O  O14  1  0.74999998  0.25171600  0.29294201  1
  O  O15  1  0.74999998  0.24828400  0.79294202  1
