# generated using pymatgen
data_Li2Mg
_symmetry_space_group_name_H-M   'P 1'
_cell_length_a   5.15529203
_cell_length_b   5.15529203
_cell_length_c   5.15529203
_cell_angle_alpha   60.28040314
_cell_angle_beta   60.28040314
_cell_angle_gamma   60.28040314
_symmetry_Int_Tables_number   1
_chemical_formula_structural   Li2Mg
_chemical_formula_sum   'Li4 Mg2'
_cell_volume   97.49721000
_cell_formula_units_Z   2
loop_
 _symmetry_equiv_pos_site_id
 _symmetry_equiv_pos_as_xyz
  1  'x, y, z'
loop_
 _atom_site_type_symbol
 _atom_site_label
 _atom_site_symmetry_multiplicity
 _atom_site_fract_x
 _atom_site_fract_y
 _atom_site_fract_z
 _atom_site_occupancy
  Li  Li0  1  0.37791199  0.37791199  0.37791201  1
  Li  Li1  1  0.62208798  0.62208798  0.62208802  1
  Li  Li2  1  0.00000000  0.00000000  0.00000000  1
  Mg  Mg3  1  0.49999998  0.00000000  1.00000000  1
  Li  Li4  1  0.00000000  0.49999998  1.00000000  1
  Mg  Mg5  1  0.00000000  0.00000000  0.49999999  1
