# generated using pymatgen
data_HfZr2MnAlGa3Si3Ge
_symmetry_space_group_name_H-M   'P 1'
_cell_length_a   5.03207493
_cell_length_b   6.15362883
_cell_length_c   6.15362883
_cell_angle_alpha   90.00000000
_cell_angle_beta   90.00000000
_cell_angle_gamma   90.00000000
_symmetry_Int_Tables_number   1
_chemical_formula_structural   HfZr2MnAlGa3Si3Ge
_chemical_formula_sum   'Hf1 Zr2 Mn1 Al1 Ga3 Si3 Ge1'
_cell_volume   190.55032470
_cell_formula_units_Z   1
loop_
 _symmetry_equiv_pos_site_id
 _symmetry_equiv_pos_as_xyz
  1  'x, y, z'
loop_
 _atom_site_type_symbol
 _atom_site_label
 _atom_site_symmetry_multiplicity
 _atom_site_fract_x
 _atom_site_fract_y
 _atom_site_fract_z
 _atom_site_occupancy
  Mn  Mn0  1  0.50000001  0.33466301  0.15932100  1
  Hf  Hf1  1  0.50000001  0.66533702  0.84067902  1
  Zr  Zr2  1  0.50000001  0.15932100  0.66533702  1
  Zr  Zr3  1  0.50000001  0.84067902  0.33466301  1
  Al  Al4  1  -0.00000000  0.33466301  0.84067902  1
  Ga  Ga5  1  -0.00000000  0.84067902  0.66533702  1
  Ga  Ga6  1  0.00000000  0.15932100  0.33466301  1
  Ga  Ga7  1  -0.00000000  0.66533702  0.15932100  1
  Si  Si8  1  0.75000001  0.00000000  -0.00000000  1
  Si  Si9  1  0.25000000  0.00000000  0.00000000  1
  Si  Si10  1  0.75000001  0.50000001  0.50000001  1
  Ge  Ge11  1  0.25000000  0.50000001  0.50000001  1
