# generated using pymatgen
data_Cu5MoS8
_symmetry_space_group_name_H-M   'P 1'
_cell_length_a   7.28674746
_cell_length_b   7.28674746
_cell_length_c   7.28674746
_cell_angle_alpha   61.91015244
_cell_angle_beta   61.91015244
_cell_angle_gamma   61.91015625
_symmetry_Int_Tables_number   1
_chemical_formula_structural   Cu5MoS8
_chemical_formula_sum   'Cu5 Mo1 S8'
_cell_volume   285.27762329
_cell_formula_units_Z   1
loop_
 _symmetry_equiv_pos_site_id
 _symmetry_equiv_pos_as_xyz
  1  'x, y, z'
loop_
 _atom_site_type_symbol
 _atom_site_label
 _atom_site_symmetry_multiplicity
 _atom_site_fract_x
 _atom_site_fract_y
 _atom_site_fract_z
 _atom_site_occupancy
  Cu  Cu0  1  0.50000001  0.49999998  0.49999997  1
  Cu  Cu1  1  0.49999999  0.00000000  0.49999999  1
  Cu  Cu2  1  0.50000001  0.49999998  -0.00000003  1
  Cu  Cu3  1  0.00000002  0.49999998  0.49999998  1
  Mo  Mo4  1  0.87614201  0.87614197  0.87614195  1
  Cu  Cu5  1  0.12385800  0.12385800  0.12385799  1
  S  S6  1  0.26859802  0.74568297  0.74568297  1
  S  S7  1  0.74568301  0.74568297  0.26859796  1
  S  S8  1  0.74568299  0.26859799  0.74568297  1
  S  S9  1  0.74087001  0.74086997  0.74086996  1
  S  S10  1  0.73140199  0.25431699  0.25431698  1
  S  S11  1  0.25431700  0.25431699  0.73140198  1
  S  S12  1  0.25431702  0.73140197  0.25431697  1
  S  S13  1  0.25913000  0.25912999  0.25912999  1
