# generated using pymatgen
data_KLi3O2
_symmetry_space_group_name_H-M   'P 1'
_cell_length_a   5.19396591
_cell_length_b   5.19396544
_cell_length_c   5.59190702
_cell_angle_alpha   90.00000000
_cell_angle_beta   90.00000000
_cell_angle_gamma   120.00000000
_symmetry_Int_Tables_number   1
_chemical_formula_structural   KLi3O2
_chemical_formula_sum   'K1 Li3 O2'
_cell_volume   130.64377582
_cell_formula_units_Z   1
loop_
 _symmetry_equiv_pos_site_id
 _symmetry_equiv_pos_as_xyz
  1  'x, y, z'
loop_
 _atom_site_type_symbol
 _atom_site_label
 _atom_site_symmetry_multiplicity
 _atom_site_fract_x
 _atom_site_fract_y
 _atom_site_fract_z
 _atom_site_occupancy
  K  K0  1  0.00000000  0.00000000  0.50000000  1
  Li  Li1  1  0.50000001  0.00000000  0.00000000  1
  Li  Li2  1  -0.00000003  0.50000000  -0.00000000  1
  Li  Li3  1  0.49999998  0.50000000  1.00000000  1
  O  O4  1  0.33333330  0.66666666  0.19633500  1
  O  O5  1  0.66666666  0.33333333  0.80366500  1
