# generated using pymatgen
data_YIn3Sn3Au5
_symmetry_space_group_name_H-M   'P 1'
_cell_length_a   4.18773794
_cell_length_b   7.38986778
_cell_length_c   8.56904888
_cell_angle_alpha   90.00000000
_cell_angle_beta   90.00000000
_cell_angle_gamma   90.00000000
_symmetry_Int_Tables_number   1
_chemical_formula_structural   YIn3Sn3Au5
_chemical_formula_sum   'Y1 In3 Sn3 Au5'
_cell_volume   265.18489641
_cell_formula_units_Z   1
loop_
 _symmetry_equiv_pos_site_id
 _symmetry_equiv_pos_as_xyz
  1  'x, y, z'
loop_
 _atom_site_type_symbol
 _atom_site_label
 _atom_site_symmetry_multiplicity
 _atom_site_fract_x
 _atom_site_fract_y
 _atom_site_fract_z
 _atom_site_occupancy
  Y  Y0  1  0.25000000  0.53297102  0.17481800  1
  In  In1  1  0.75000001  0.46702901  0.82518201  1
  In  In2  1  0.25000000  0.03297100  0.32518200  1
  In  In3  1  0.75000001  0.96702903  0.67481801  1
  Sn  Sn4  1  0.25000000  0.63721302  0.56097901  1
  Sn  Sn5  1  0.75000001  0.36278701  0.43902101  1
  Sn  Sn6  1  0.25000000  0.13721300  0.93902101  1
  Au  Au7  1  0.75000001  0.86278703  0.06097900  1
  Au  Au8  1  0.75000001  0.73479102  0.37079601  1
  Au  Au9  1  0.25000000  0.26520901  0.62920401  1
  Au  Au10  1  0.75000001  0.23479101  0.12920400  1
  Au  Au11  1  0.25000000  0.76520902  0.87079601  1
