# generated using pymatgen
data_Ta2Nb2Pd2RuRh
_symmetry_space_group_name_H-M   'P 1'
_cell_length_a   4.78695011
_cell_length_b   4.78695011
_cell_length_c   4.78695011
_cell_angle_alpha   90.00000000
_cell_angle_beta   90.00000000
_cell_angle_gamma   90.00000000
_symmetry_Int_Tables_number   1
_chemical_formula_structural   Ta2Nb2Pd2RuRh
_chemical_formula_sum   'Ta2 Nb2 Ru1 Pd2 Rh1'
_cell_volume   109.69244179
_cell_formula_units_Z   1
loop_
 _symmetry_equiv_pos_site_id
 _symmetry_equiv_pos_as_xyz
  1  'x, y, z'
loop_
 _atom_site_type_symbol
 _atom_site_label
 _atom_site_symmetry_multiplicity
 _atom_site_fract_x
 _atom_site_fract_y
 _atom_site_fract_z
 _atom_site_occupancy
  Ta  Ta0  1  0.49999999  0.24999999  0.00000000  1
  Ta  Ta1  1  0.49999999  0.74999998  -0.00000000  1
  Nb  Nb2  1  0.24999999  0.00000000  0.49999999  1
  Nb  Nb3  1  0.74999998  0.00000000  0.49999999  1
  Ru  Ru4  1  0.00000000  0.49999999  0.24999999  1
  Pd  Pd5  1  0.00000000  0.49999999  0.74999998  1
  Rh  Rh6  1  0.49999999  0.49999999  0.49999999  1
  Pd  Pd7  1  0.00000000  0.00000000  0.00000000  1
