# generated using pymatgen
data_LiCaO2
_symmetry_space_group_name_H-M   'P 1'
_cell_length_a   4.37804222
_cell_length_b   4.37804127
_cell_length_c   5.26955891
_cell_angle_alpha   90.00000000
_cell_angle_beta   90.00000000
_cell_angle_gamma   120.00000763
_symmetry_Int_Tables_number   1
_chemical_formula_structural   LiCaO2
_chemical_formula_sum   'Li1 Ca1 O2'
_cell_volume   87.47111417
_cell_formula_units_Z   1
loop_
 _symmetry_equiv_pos_site_id
 _symmetry_equiv_pos_as_xyz
  1  'x, y, z'
loop_
 _atom_site_type_symbol
 _atom_site_label
 _atom_site_symmetry_multiplicity
 _atom_site_fract_x
 _atom_site_fract_y
 _atom_site_fract_z
 _atom_site_occupancy
  Ca  Ca0  1  0.66666666  0.33333336  0.99997902  1
  Li  Li1  1  0.00000000  0.00000000  0.44946701  1
  O  O2  1  0.33333337  0.66666673  0.55363701  1
  O  O3  1  0.00000000  0.00000000  0.11701700  1
