# generated using pymatgen
data_Mn2AlCo6Ni7
_symmetry_space_group_name_H-M   'P 1'
_cell_length_a   4.14037848
_cell_length_b   4.14037848
_cell_length_c   13.88311863
_cell_angle_alpha   81.42432404
_cell_angle_beta   81.42432404
_cell_angle_gamma   59.99998856
_symmetry_Int_Tables_number   1
_chemical_formula_structural   Mn2AlCo6Ni7
_chemical_formula_sum   'Mn2 Al1 Co6 Ni7'
_cell_volume   203.03107645
_cell_formula_units_Z   1
loop_
 _symmetry_equiv_pos_site_id
 _symmetry_equiv_pos_as_xyz
  1  'x, y, z'
loop_
 _atom_site_type_symbol
 _atom_site_label
 _atom_site_symmetry_multiplicity
 _atom_site_fract_x
 _atom_site_fract_y
 _atom_site_fract_z
 _atom_site_occupancy
  Mn  Mn0  1  0.37699000  0.37699002  0.86902998  1
  Co  Co1  1  0.12585800  0.12585801  0.62242598  1
  Al  Al2  1  0.62301000  0.62301003  0.13097000  1
  Mn  Mn3  1  0.87414200  0.87414204  0.37757399  1
  Co  Co4  1  0.24806200  0.24806201  0.25581399  1
  Co  Co5  1  0.50000000  0.50000003  0.49999999  1
  Co  Co6  1  0.75193800  0.75193804  0.74418598  1
  Co  Co7  1  0.06511400  0.06511400  0.80465798  1
  Ni  Ni8  1  0.81288600  0.81288604  0.56134198  1
  Co  Co9  1  0.30858400  0.30858402  0.07424800  1
  Ni  Ni10  1  0.56185800  0.56185803  0.31442599  1
  Ni  Ni11  1  0.69141600  0.69141603  0.92575198  1
  Ni  Ni12  1  0.43814200  0.43814202  0.68557398  1
  Ni  Ni13  1  0.93488600  0.93488605  0.19534199  1
  Ni  Ni14  1  0.18711400  0.18711401  0.43865799  1
  Ni  Ni15  1  0.00000000  0.00000000  0.00000000  1
