# generated using pymatgen
data_Y5In2Si3SnSbPt3Au5
_symmetry_space_group_name_H-M   'P 1'
_cell_length_a   3.91315508
_cell_length_b   11.72810173
_cell_length_c   11.72810173
_cell_angle_alpha   120.00000000
_cell_angle_beta   90.00000000
_cell_angle_gamma   90.00000000
_symmetry_Int_Tables_number   1
_chemical_formula_structural   Y5In2Si3SnSbPt3Au5
_chemical_formula_sum   'Y5 In2 Si3 Sn1 Sb1 Pt3 Au5'
_cell_volume   466.13653111
_cell_formula_units_Z   1
loop_
 _symmetry_equiv_pos_site_id
 _symmetry_equiv_pos_as_xyz
  1  'x, y, z'
loop_
 _atom_site_type_symbol
 _atom_site_label
 _atom_site_symmetry_multiplicity
 _atom_site_fract_x
 _atom_site_fract_y
 _atom_site_fract_z
 _atom_site_occupancy
  Y  Y0  1  -0.00000000  0.71640101  -0.00000001  1
  Y  Y1  1  0.99999998  0.28359900  0.28359900  1
  Y  Y2  1  -0.00000000  1.00000002  0.71640099  1
  Y  Y3  1  0.99999998  0.33333334  0.66666666  1
  In  In4  1  -0.00000000  0.66666668  0.33333333  1
  Y  Y5  1  0.49999999  0.32647401  1.00000000  1
  Au  Au6  1  0.49999999  0.67352601  0.67352599  1
  Au  Au7  1  0.49999999  1.00000002  0.32647399  1
  In  In8  1  0.49999999  0.25210000  0.44696700  1
  Si  Si9  1  0.49999999  0.19486700  0.74790000  1
  Sb  Sb10  1  0.49999999  0.55303301  0.80513300  1
  Si  Si11  1  0.49999999  0.80513301  0.55303299  1
  Sn  Sn12  1  0.49999999  0.44696701  0.25209999  1
  Au  Au13  1  0.49999999  0.74790001  0.19486699  1
  Pt  Pt14  1  -0.00000000  0.17776500  -0.00000000  1
  Au  Au15  1  0.99999998  0.82223501  0.82223499  1
  Si  Si16  1  -0.00000000  1.00000002  0.17776499  1
  Au  Au17  1  -0.00000000  0.46876801  1.00000000  1
  Pt  Pt18  1  0.99999998  0.53123201  0.53123199  1
  Pt  Pt19  1  -0.00000000  1.00000002  0.46876799  1
