# generated using pymatgen
data_EuIn6Sn6GeAu
_symmetry_space_group_name_H-M   'P 1'
_cell_length_a   4.67526102
_cell_length_b   4.67526102
_cell_length_c   19.20934486
_cell_angle_alpha   90.00000000
_cell_angle_beta   90.00000000
_cell_angle_gamma   90.00000000
_symmetry_Int_Tables_number   1
_chemical_formula_structural   EuIn6Sn6GeAu
_chemical_formula_sum   'Eu1 In6 Sn6 Ge1 Au1'
_cell_volume   419.87912039
_cell_formula_units_Z   1
loop_
 _symmetry_equiv_pos_site_id
 _symmetry_equiv_pos_as_xyz
  1  'x, y, z'
loop_
 _atom_site_type_symbol
 _atom_site_label
 _atom_site_symmetry_multiplicity
 _atom_site_fract_x
 _atom_site_fract_y
 _atom_site_fract_z
 _atom_site_occupancy
  Eu  Eu0  1  0.50000000  0.00000000  0.11171599  1
  In  In1  1  0.50000000  0.00000000  0.61629297  1
  In  In2  1  0.00000000  0.50000000  0.88828396  1
  In  In3  1  0.00000000  0.50000000  0.38370698  1
  In  In4  1  0.50000000  0.00000000  0.92014296  1
  In  In5  1  0.50000000  0.00000000  0.41253898  1
  In  In6  1  0.00000000  0.50000000  0.07985700  1
  Ge  Ge7  1  0.00000000  0.50000000  0.58746097  1
  Sn  Sn8  1  0.50000000  0.50000000  0.75063997  1
  Sn  Sn9  1  0.50000000  0.50000000  0.24935999  1
  Sn  Sn10  1  0.00000000  0.00000000  0.75046497  1
  Sn  Sn11  1  0.00000000  0.00000000  0.24953499  1
  Sn  Sn12  1  0.50000000  0.50000000  0.49999998  1
  Au  Au13  1  0.00000000  0.00000000  0.00000000  1
  Sn  Sn14  1  0.00000000  0.00000000  0.49999998  1
