# generated using pymatgen
data_K6CuHgCl2(O3F2)2
_symmetry_space_group_name_H-M   'P 1'
_cell_length_a   9.11152554
_cell_length_b   9.11152554
_cell_length_c   9.11152554
_cell_angle_alpha   107.63928986
_cell_angle_beta   107.63928986
_cell_angle_gamma   107.63928986
_symmetry_Int_Tables_number   1
_chemical_formula_structural   K6CuHgCl2(O3F2)2
_chemical_formula_sum   'K6 Cu1 Hg1 Cl2 O6 F4'
_cell_volume   618.65393052
_cell_formula_units_Z   1
loop_
 _symmetry_equiv_pos_site_id
 _symmetry_equiv_pos_as_xyz
  1  'x, y, z'
loop_
 _atom_site_type_symbol
 _atom_site_label
 _atom_site_symmetry_multiplicity
 _atom_site_fract_x
 _atom_site_fract_y
 _atom_site_fract_z
 _atom_site_occupancy
  K  K0  1  0.18796499  0.17467799  0.92101096  1
  K  K1  1  0.92101097  0.18796499  0.17467802  1
  K  K2  1  0.17467798  0.92101097  0.18796501  1
  K  K3  1  0.32532199  0.31203499  0.57898899  1
  K  K4  1  0.31203498  0.57898898  0.32532200  1
  K  K5  1  0.57898898  0.32532199  0.31203501  1
  Cu  Cu6  1  0.81203496  0.82532197  0.07898903  1
  F  F7  1  0.07898898  0.81203497  0.82532198  1
  F  F8  1  0.82532198  0.07898900  0.81203498  1
  O  O9  1  0.67467797  0.68796498  0.42101101  1
  Hg  Hg10  1  0.68796497  0.42101099  0.67467799  1
  O  O11  1  0.42101098  0.67467798  0.68796499  1
  F  F12  1  0.24999999  0.24999999  0.25000000  1
  O  O13  1  0.74999997  0.74999997  0.75000000  1
  O  O14  1  0.98516697  0.24999999  0.51483300  1
  F  F15  1  0.24999998  0.51483298  0.98516697  1
  Cl  Cl16  1  0.51483297  0.98516697  0.25000002  1
  O  O17  1  0.01483298  0.74999997  0.48516699  1
  Cl  Cl18  1  0.74999997  0.48516698  0.01483303  1
  O  O19  1  0.48516699  0.01483300  0.74999998  1
