# generated using pymatgen
data_Er2AlFe2CoNi6
_symmetry_space_group_name_H-M   'P 1'
_cell_length_a   4.76044178
_cell_length_b   4.76044130
_cell_length_c   7.89520597
_cell_angle_alpha   90.00000000
_cell_angle_beta   90.00000000
_cell_angle_gamma   120.00000763
_symmetry_Int_Tables_number   1
_chemical_formula_structural   Er2AlFe2CoNi6
_chemical_formula_sum   'Er2 Al1 Fe2 Co1 Ni6'
_cell_volume   154.94891363
_cell_formula_units_Z   1
loop_
 _symmetry_equiv_pos_site_id
 _symmetry_equiv_pos_as_xyz
  1  'x, y, z'
loop_
 _atom_site_type_symbol
 _atom_site_label
 _atom_site_symmetry_multiplicity
 _atom_site_fract_x
 _atom_site_fract_y
 _atom_site_fract_z
 _atom_site_occupancy
  Er  Er0  1  0.66666672  0.33333335  0.56621500  1
  Er  Er1  1  0.33333339  0.66666670  0.43378500  1
  Al  Al2  1  0.33333339  0.66666670  0.06621500  1
  Co  Co3  1  0.66666672  0.33333335  0.93378500  1
  Fe  Fe4  1  0.00000000  0.00000000  0.50000000  1
  Fe  Fe5  1  0.00000000  0.00000000  0.00000000  1
  Ni  Ni6  1  0.82988408  0.65976803  0.25000000  1
  Ni  Ni7  1  0.82988405  0.17011601  0.25000000  1
  Ni  Ni8  1  0.34023203  0.17011601  0.25000000  1
  Ni  Ni9  1  0.17011603  0.34023202  0.75000000  1
  Ni  Ni10  1  0.17011606  0.82988404  0.75000000  1
  Ni  Ni11  1  0.65976809  0.82988404  0.75000000  1
