# generated using pymatgen
data_LaCeIn6
_symmetry_space_group_name_H-M   'P 1'
_cell_length_a   5.20162106
_cell_length_b   6.67545414
_cell_length_c   6.67545414
_cell_angle_alpha   60.00000000
_cell_angle_beta   90.00000000
_cell_angle_gamma   90.00000000
_symmetry_Int_Tables_number   1
_chemical_formula_structural   LaCeIn6
_chemical_formula_sum   'La1 Ce1 In6'
_cell_volume   200.73863891
_cell_formula_units_Z   1
loop_
 _symmetry_equiv_pos_site_id
 _symmetry_equiv_pos_as_xyz
  1  'x, y, z'
loop_
 _atom_site_type_symbol
 _atom_site_label
 _atom_site_symmetry_multiplicity
 _atom_site_fract_x
 _atom_site_fract_y
 _atom_site_fract_z
 _atom_site_occupancy
  La  La0  1  0.25000000  0.33333333  0.33333333  1
  Ce  Ce1  1  0.74999999  0.66666666  0.66666666  1
  In  In2  1  0.74999999  0.66860499  0.16569699  1
  In  In3  1  0.74999999  0.16569800  0.16569700  1
  In  In4  1  0.74999999  0.16569800  0.66860400  1
  In  In5  1  0.25000000  0.33139500  0.83430300  1
  In  In6  1  0.25000000  0.83430199  0.83430299  1
  In  In7  1  0.25000000  0.83430199  0.33139599  1
