# generated using pymatgen
data_Y2In3CuSnGe
_symmetry_space_group_name_H-M   'P 1'
_cell_length_a   4.50123787
_cell_length_b   4.58623886
_cell_length_c   9.92153645
_cell_angle_alpha   90.00000000
_cell_angle_beta   103.11120605
_cell_angle_gamma   90.00000000
_symmetry_Int_Tables_number   1
_chemical_formula_structural   Y2In3CuSnGe
_chemical_formula_sum   'Y2 In3 Cu1 Sn1 Ge1'
_cell_volume   199.47847152
_cell_formula_units_Z   1
loop_
 _symmetry_equiv_pos_site_id
 _symmetry_equiv_pos_as_xyz
  1  'x, y, z'
loop_
 _atom_site_type_symbol
 _atom_site_label
 _atom_site_symmetry_multiplicity
 _atom_site_fract_x
 _atom_site_fract_y
 _atom_site_fract_z
 _atom_site_occupancy
  Y  Y0  1  0.60819002  0.25000001  0.21638000  1
  Y  Y1  1  0.39181001  0.75000002  0.78361999  1
  In  In2  1  0.17474401  0.75000002  0.34948800  1
  Cu  Cu3  1  0.82525603  0.25000001  0.65051200  1
  In  In4  1  0.24866401  0.25000001  0.49732800  1
  In  In5  1  0.75133602  0.75000002  0.50267200  1
  Ge  Ge6  1  0.04306500  0.75000002  0.08613000  1
  Sn  Sn7  1  0.95693503  0.25000001  0.91387000  1
