# generated using pymatgen
data_YBeBP3
_symmetry_space_group_name_H-M   'P 1'
_cell_length_a   3.13288999
_cell_length_b   5.44952822
_cell_length_c   5.44952822
_cell_angle_alpha   120.00000000
_cell_angle_beta   90.00000000
_cell_angle_gamma   90.00000000
_symmetry_Int_Tables_number   1
_chemical_formula_structural   YBeBP3
_chemical_formula_sum   'Y1 Be1 B1 P3'
_cell_volume   80.57375202
_cell_formula_units_Z   1
loop_
 _symmetry_equiv_pos_site_id
 _symmetry_equiv_pos_as_xyz
  1  'x, y, z'
loop_
 _atom_site_type_symbol
 _atom_site_label
 _atom_site_symmetry_multiplicity
 _atom_site_fract_x
 _atom_site_fract_y
 _atom_site_fract_z
 _atom_site_occupancy
  Y  Y0  1  0.50000000  0.00000000  -0.00000000  1
  Be  Be1  1  0.50000000  0.33333333  0.66666668  1
  B  B2  1  0.50000000  0.66666665  0.33333336  1
  P  P3  1  0.00000000  0.00000000  0.50000000  1
  P  P4  1  -0.00000000  0.49999999  1.00000003  1
  P  P5  1  -0.00000000  0.49999999  0.50000002  1
