# generated using pymatgen
data_K4Cu4Se3S5
_symmetry_space_group_name_H-M   'P 1'
_cell_length_a   6.00564003
_cell_length_b   7.60170412
_cell_length_c   12.41833019
_cell_angle_alpha   84.51887512
_cell_angle_beta   76.00687408
_cell_angle_gamma   66.73281860
_symmetry_Int_Tables_number   1
_chemical_formula_structural   K4Cu4Se3S5
_chemical_formula_sum   'K4 Cu4 Se3 S5'
_cell_volume   505.37228943
_cell_formula_units_Z   1
loop_
 _symmetry_equiv_pos_site_id
 _symmetry_equiv_pos_as_xyz
  1  'x, y, z'
loop_
 _atom_site_type_symbol
 _atom_site_label
 _atom_site_symmetry_multiplicity
 _atom_site_fract_x
 _atom_site_fract_y
 _atom_site_fract_z
 _atom_site_occupancy
  K  K0  1  0.92917197  0.50000002  0.14165599  1
  K  K1  1  0.82082800  0.00000000  0.35834399  1
  K  K2  1  0.57082797  0.50000002  0.85834399  1
  K  K3  1  0.17917200  0.00000000  0.64165599  1
  Cu  Cu4  1  0.00000000  0.00000000  0.00000000  1
  Cu  Cu5  1  0.74999997  0.50000002  0.49999999  1
  Cu  Cu6  1  0.50000000  0.00000000  -0.00000001  1
  Cu  Cu7  1  0.24999997  0.50000002  0.49999999  1
  Se  Se8  1  0.17066599  0.19611401  0.88896599  1
  S  S9  1  0.25574495  0.80388703  0.11103500  1
  S  S10  1  0.63321899  0.19611401  0.11103499  1
  Se  Se11  1  0.94036695  0.80388703  0.88896598  1
  S  S12  1  0.57933398  0.30388601  0.61103399  1
  S  S13  1  0.80963296  0.69611302  0.61103399  1
  S  S14  1  0.11678098  0.30388601  0.38896500  1
  Se  Se15  1  0.49425496  0.69611302  0.38896499  1
