# generated using pymatgen
data_ErHfZr2Ga2Ge4Pd7
_symmetry_space_group_name_H-M   'P 1'
_cell_length_a   7.23873234
_cell_length_b   7.23873234
_cell_length_c   7.23873234
_cell_angle_alpha   109.47122192
_cell_angle_beta   109.47122192
_cell_angle_gamma   109.47122192
_symmetry_Int_Tables_number   1
_chemical_formula_structural   ErHfZr2Ga2Ge4Pd7
_chemical_formula_sum   'Er1 Hf1 Zr2 Ga2 Ge4 Pd7'
_cell_volume   291.98843031
_cell_formula_units_Z   1
loop_
 _symmetry_equiv_pos_site_id
 _symmetry_equiv_pos_as_xyz
  1  'x, y, z'
loop_
 _atom_site_type_symbol
 _atom_site_label
 _atom_site_symmetry_multiplicity
 _atom_site_fract_x
 _atom_site_fract_y
 _atom_site_fract_z
 _atom_site_occupancy
  Er  Er0  1  0.50000003  0.50000001  0.50000003  1
  Hf  Hf1  1  0.00000003  0.50000001  0.00000003  1
  Zr  Zr2  1  0.00000000  0.00000000  0.49999999  1
  Zr  Zr3  1  0.50000000  0.00000000  0.00000001  1
  Ga  Ga4  1  0.00000004  0.68350802  0.68350803  1
  Ga  Ga5  1  0.68350804  0.68350802  0.00000005  1
  Ge  Ge6  1  0.68350800  0.00000000  0.68350801  1
  Ge  Ge7  1  0.00000002  0.31649201  0.31649201  1
  Ge  Ge8  1  0.31649202  0.31649201  0.00000003  1
  Ge  Ge9  1  0.31649200  0.00000000  0.31649200  1
  Pd  Pd10  1  0.50000004  0.75000002  0.25000005  1
  Pd  Pd11  1  0.75000001  0.25000001  0.50000002  1
  Pd  Pd12  1  0.25000003  0.50000001  0.75000002  1
  Pd  Pd13  1  0.25000005  0.75000002  0.50000004  1
  Pd  Pd14  1  0.50000001  0.25000001  0.75000001  1
  Pd  Pd15  1  0.75000003  0.50000001  0.25000004  1
  Pd  Pd16  1  0.00000000  0.00000000  0.00000000  1
