# generated using pymatgen
data_TiMnFeCu4P7
_symmetry_space_group_name_H-M   'P 1'
_cell_length_a   6.54966450
_cell_length_b   6.54966450
_cell_length_c   7.48720312
_cell_angle_alpha   64.06248474
_cell_angle_beta   64.06248474
_cell_angle_gamma   59.99999619
_symmetry_Int_Tables_number   1
_chemical_formula_structural   TiMnFeCu4P7
_chemical_formula_sum   'Ti1 Mn1 Fe1 Cu4 P7'
_cell_volume   240.07277813
_cell_formula_units_Z   1
loop_
 _symmetry_equiv_pos_site_id
 _symmetry_equiv_pos_as_xyz
  1  'x, y, z'
loop_
 _atom_site_type_symbol
 _atom_site_label
 _atom_site_symmetry_multiplicity
 _atom_site_fract_x
 _atom_site_fract_y
 _atom_site_fract_z
 _atom_site_occupancy
  Mn  Mn0  1  0.66654202  0.66654199  0.00037395  1
  Ti  Ti1  1  0.33345801  0.33345800  0.99962598  1
  Fe  Fe2  1  0.54104202  0.87771599  0.36566195  1
  Cu  Cu3  1  0.21558001  0.54104199  0.36566197  1
  Cu  Cu4  1  0.87771600  0.21558000  0.36566196  1
  Cu  Cu5  1  0.12228402  0.78441999  0.63433797  1
  Cu  Cu6  1  0.78442001  0.45895800  0.63433796  1
  P  P7  1  0.45895800  0.12228400  0.63433798  1
  P  P8  1  0.75580900  0.08642100  0.73881597  1
  P  P9  1  0.08642101  0.41895400  0.73881598  1
  P  P10  1  0.41895402  0.75580899  0.73881596  1
  P  P11  1  0.58104601  0.24419100  0.26118397  1
  P  P12  1  0.91357901  0.58104599  0.26118394  1
  P  P13  1  0.24419102  0.91357899  0.26118395  1
