# generated using pymatgen
data_TiMn3Fe5SiGe4
_symmetry_space_group_name_H-M   'P 1'
_cell_length_a   6.43023348
_cell_length_b   6.43023348
_cell_length_c   6.43023348
_cell_angle_alpha   109.47122192
_cell_angle_beta   109.47122192
_cell_angle_gamma   109.47122192
_symmetry_Int_Tables_number   1
_chemical_formula_structural   TiMn3Fe5SiGe4
_chemical_formula_sum   'Ti1 Mn3 Fe5 Si1 Ge4'
_cell_volume   204.67194429
_cell_formula_units_Z   1
loop_
 _symmetry_equiv_pos_site_id
 _symmetry_equiv_pos_as_xyz
  1  'x, y, z'
loop_
 _atom_site_type_symbol
 _atom_site_label
 _atom_site_symmetry_multiplicity
 _atom_site_fract_x
 _atom_site_fract_y
 _atom_site_fract_z
 _atom_site_occupancy
  Mn  Mn0  1  0.00000003  0.50000002  0.13896603  1
  Ti  Ti1  1  1.00000003  0.50000002  0.63896605  1
  Mn  Mn2  1  0.36103402  0.36103401  0.86103402  1
  Mn  Mn3  1  0.63896606  1.00000003  0.00000007  1
  Fe  Fe4  1  0.86103406  0.86103403  0.36103407  1
  Fe  Fe5  1  0.50000001  0.13896600  0.50000002  1
  Fe  Fe6  1  0.13896600  0.00000000  0.00000000  1
  Fe  Fe7  1  0.50000004  0.63896602  0.50000004  1
  Ge  Ge8  1  0.25000006  0.87500003  0.62500005  1
  Ge  Ge9  1  0.87500001  0.12500000  0.75000002  1
  Fe  Fe10  1  0.62500002  0.37500001  0.25000003  1
  Ge  Ge11  1  0.75000004  0.62500002  0.87500005  1
  Si  Si12  1  0.12500002  0.25000001  0.37500001  1
  Ge  Ge13  1  0.37500005  0.75000002  0.12500005  1
