# generated using pymatgen
data_KNa(PO4)2
_symmetry_space_group_name_H-M   'P 1'
_cell_length_a   4.92768812
_cell_length_b   4.92768812
_cell_length_c   8.49744892
_cell_angle_alpha   90.00000000
_cell_angle_beta   90.00000000
_cell_angle_gamma   120.00000000
_symmetry_Int_Tables_number   1
_chemical_formula_structural   KNa(PO4)2
_chemical_formula_sum   'K1 Na1 P2 O8'
_cell_volume   178.69221022
_cell_formula_units_Z   1
loop_
 _symmetry_equiv_pos_site_id
 _symmetry_equiv_pos_as_xyz
  1  'x, y, z'
loop_
 _atom_site_type_symbol
 _atom_site_label
 _atom_site_symmetry_multiplicity
 _atom_site_fract_x
 _atom_site_fract_y
 _atom_site_fract_z
 _atom_site_occupancy
  Na  Na0  1  0.00000000  0.00000000  0.00000000  1
  K  K1  1  0.00000000  0.00000000  0.50000000  1
  P  P2  1  0.33333333  0.66666665  0.19667700  1
  P  P3  1  0.66666665  0.33333333  0.80332301  1
  O  O4  1  0.11848400  0.34510899  0.13827700  1
  O  O5  1  0.65489098  0.77337498  0.13827700  1
  O  O6  1  0.34510899  0.11848400  0.86172301  1
  O  O7  1  0.22662500  0.88151598  0.13827700  1
  O  O8  1  0.77337498  0.65489099  0.86172301  1
  O  O9  1  0.88151598  0.22662499  0.86172301  1
  O  O10  1  0.33333333  0.66666665  0.36874800  1
  O  O11  1  0.66666665  0.33333333  0.63125201  1
