# generated using pymatgen
data_LaIn11Sn4
_symmetry_space_group_name_H-M   'P 1'
_cell_length_a   6.36815977
_cell_length_b   6.36816072
_cell_length_c   10.47263813
_cell_angle_alpha   90.00000000
_cell_angle_beta   90.00000000
_cell_angle_gamma   120.00000000
_symmetry_Int_Tables_number   1
_chemical_formula_structural   LaIn11Sn4
_chemical_formula_sum   'La1 In11 Sn4'
_cell_volume   367.80251601
_cell_formula_units_Z   1
loop_
 _symmetry_equiv_pos_site_id
 _symmetry_equiv_pos_as_xyz
  1  'x, y, z'
loop_
 _atom_site_type_symbol
 _atom_site_label
 _atom_site_symmetry_multiplicity
 _atom_site_fract_x
 _atom_site_fract_y
 _atom_site_fract_z
 _atom_site_occupancy
  In  In0  1  0.00000000  0.00000000  0.00000000  1
  La  La1  1  0.00055703  0.50027900  0.49999999  1
  In  In2  1  0.99996107  0.49998000  -0.00000000  1
  In  In3  1  0.49972208  0.99944401  0.49999999  1
  In  In4  1  0.50001902  0.00003800  -0.00000000  1
  In  In5  1  0.49972205  0.50027900  0.49999999  1
  In  In6  1  0.50001905  0.49998000  -0.00000000  1
  In  In7  1  0.83315404  0.16684700  0.75002399  1
  In  In8  1  0.83315404  0.16684700  0.24997600  1
  In  In9  1  0.83315407  0.66630800  0.75002399  1
  In  In10  1  0.83315407  0.66630800  0.24997600  1
  In  In11  1  0.33369302  0.16684700  0.75002399  1
  Sn  Sn12  1  0.33369302  0.16684700  0.24997600  1
  Sn  Sn13  1  0.33333339  0.66666667  0.75000999  1
  Sn  Sn14  1  0.33333339  0.66666667  0.24999000  1
  Sn  Sn15  1  0.00000000  0.00000000  0.49999999  1
