# generated using pymatgen
data_K3NaTl2Te2Se4(BrCl)4
_symmetry_space_group_name_H-M   'P 1'
_cell_length_a   7.41819429
_cell_length_b   7.41819429
_cell_length_c   13.59378719
_cell_angle_alpha   100.52149200
_cell_angle_beta   100.52149200
_cell_angle_gamma   109.31476593
_symmetry_Int_Tables_number   1
_chemical_formula_structural   K3NaTl2Te2Se4(BrCl)4
_chemical_formula_sum   'K3 Na1 Tl2 Te2 Se4 Br4 Cl4'
_cell_volume   669.86028973
_cell_formula_units_Z   1
loop_
 _symmetry_equiv_pos_site_id
 _symmetry_equiv_pos_as_xyz
  1  'x, y, z'
loop_
 _atom_site_type_symbol
 _atom_site_label
 _atom_site_symmetry_multiplicity
 _atom_site_fract_x
 _atom_site_fract_y
 _atom_site_fract_z
 _atom_site_occupancy
  Na  Na0  1  0.33281096  0.83281096  0.66562197  1
  K  K1  1  0.16718897  0.66718897  0.33437798  1
  K  K2  1  0.91718894  0.91718896  0.83437796  1
  K  K3  1  0.08281099  0.08281100  0.16562200  1
  Tl  Tl4  1  0.00002198  0.50002198  0.00004399  1
  Te  Te5  1  0.49997795  0.99997796  0.99995597  1
  Tl  Tl6  1  0.24997798  0.24997799  0.49995599  1
  Te  Te7  1  0.75002195  0.75002197  0.50004397  1
  Se  Se8  1  0.99692195  0.49692198  0.49999997  1
  Se  Se9  1  0.50307799  0.00307800  0.49999999  1
  Se  Se10  1  0.25307798  0.25307799  -0.00000001  1
  Se  Se11  1  0.74692195  0.74692197  -0.00000003  1
  Cl  Cl12  1  0.66616098  0.16719699  0.83421098  1
  Br  Br13  1  0.83280296  0.33383899  0.16578898  1
  Br  Br14  1  0.33298596  0.83194996  0.16578898  1
  Cl  Cl15  1  0.16804997  0.66701397  0.83421098  1
  Cl  Cl16  1  0.58383896  0.58280297  0.66578897  1
  Br  Br17  1  0.41719697  0.41616098  0.33421098  1
  Br  Br18  1  0.91701394  0.91804996  0.33421096  1
  Cl  Cl19  1  0.08194999  0.08298600  0.66578899  1
