# generated using pymatgen
data_NaSr3Ca(CuO4)3
_symmetry_space_group_name_H-M   'P 1'
_cell_length_a   5.80520916
_cell_length_b   5.86291122
_cell_length_c   8.23254776
_cell_angle_alpha   90.00000000
_cell_angle_beta   89.63364410
_cell_angle_gamma   90.00000000
_symmetry_Int_Tables_number   1
_chemical_formula_structural   NaSr3Ca(CuO4)3
_chemical_formula_sum   'Na1 Sr3 Ca1 Cu3 O12'
_cell_volume   280.19254171
_cell_formula_units_Z   1
loop_
 _symmetry_equiv_pos_site_id
 _symmetry_equiv_pos_as_xyz
  1  'x, y, z'
loop_
 _atom_site_type_symbol
 _atom_site_label
 _atom_site_symmetry_multiplicity
 _atom_site_fract_x
 _atom_site_fract_y
 _atom_site_fract_z
 _atom_site_occupancy
  Na  Na0  1  0.99176297  0.03573800  0.24935003  1
  Sr  Sr1  1  0.50823699  0.53573798  0.25065001  1
  Sr  Sr2  1  0.49176299  0.46426198  0.74934998  1
  Sr  Sr3  1  0.00823700  0.96426196  0.75064996  1
  Ca  Ca4  1  0.00000000  0.49999998  0.49999997  1
  Cu  Cu5  1  0.49999999  0.00000000  0.00000002  1
  Cu  Cu6  1  0.49999999  0.00000000  0.49999999  1
  Cu  Cu7  1  0.00000000  0.49999998  -0.00000000  1
  O  O8  1  0.57381098  0.01886500  0.73479198  1
  O  O9  1  0.92618897  0.51886498  0.76520800  1
  O  O10  1  0.42618899  0.98113496  0.26520800  1
  O  O11  1  0.07381100  0.48113498  0.23479199  1
  O  O12  1  0.30192899  0.72819197  0.54022798  1
  O  O13  1  0.19807099  0.22819199  0.95977195  1
  O  O14  1  0.69807098  0.27180799  0.45977200  1
  O  O15  1  0.80192898  0.77180797  0.04022803  1
  O  O16  1  0.72955798  0.29920199  0.03822303  1
  O  O17  1  0.77044198  0.79920197  0.46177701  1
  O  O18  1  0.27044199  0.70079797  0.96177696  1
  O  O19  1  0.22955799  0.20079799  0.53822298  1
