# generated using pymatgen
data_Li2O2
_symmetry_space_group_name_H-M   'P 1'
_cell_length_a   3.08299088
_cell_length_b   6.10715532
_cell_length_c   8.13941479
_cell_angle_alpha   90.34461212
_cell_angle_beta   90.83151245
_cell_angle_gamma   95.34716034
_symmetry_Int_Tables_number   1
_chemical_formula_structural   Li2O2
_chemical_formula_sum   'Li8 O8'
_cell_volume   152.56423277
_cell_formula_units_Z   4
loop_
 _symmetry_equiv_pos_site_id
 _symmetry_equiv_pos_as_xyz
  1  'x, y, z'
loop_
 _atom_site_type_symbol
 _atom_site_label
 _atom_site_symmetry_multiplicity
 _atom_site_fract_x
 _atom_site_fract_y
 _atom_site_fract_z
 _atom_site_occupancy
  Li  Li0  1  -0.00000006  0.50000000  -0.00000001  1
  Li  Li1  1  0.49667994  0.75183300  0.24747200  1
  Li  Li2  1  0.50331999  0.24816700  0.75252802  1
  Li  Li3  1  0.00000000  0.00000000  0.50000001  1
  Li  Li4  1  0.51168099  0.24621800  0.24807901  1
  Li  Li5  1  -0.00000006  0.50000000  0.50000000  1
  Li  Li6  1  0.48831894  0.75378200  0.75192101  1
  Li  Li7  1  0.00000000  0.00000000  0.00000000  1
  O  O8  1  0.47210993  0.76644600  0.98994701  1
  O  O9  1  0.03764000  0.00424900  0.23837401  1
  O  O10  1  0.02963494  0.50995800  0.74077801  1
  O  O11  1  0.53342199  0.25775400  0.48771901  1
  O  O12  1  0.52788999  0.23355400  0.01005300  1
  O  O13  1  0.97036498  0.49004200  0.25922201  1
  O  O14  1  0.96235993  0.99575100  0.76162601  1
  O  O15  1  0.46657794  0.74224600  0.51228101  1
