# generated using pymatgen
data_BaSrZrRuO6
_symmetry_space_group_name_H-M   'P 1'
_cell_length_a   5.82398891
_cell_length_b   5.82398891
_cell_length_c   5.82398891
_cell_angle_alpha   60.00000000
_cell_angle_beta   60.00000000
_cell_angle_gamma   60.00000000
_symmetry_Int_Tables_number   1
_chemical_formula_structural   BaSrZrRuO6
_chemical_formula_sum   'Ba1 Sr1 Zr1 Ru1 O6'
_cell_volume   139.68398653
_cell_formula_units_Z   1
loop_
 _symmetry_equiv_pos_site_id
 _symmetry_equiv_pos_as_xyz
  1  'x, y, z'
loop_
 _atom_site_type_symbol
 _atom_site_label
 _atom_site_symmetry_multiplicity
 _atom_site_fract_x
 _atom_site_fract_y
 _atom_site_fract_z
 _atom_site_occupancy
  Ba  Ba0  1  0.25000000  0.25000000  0.25000000  1
  Sr  Sr1  1  0.74999999  0.74999999  0.74999999  1
  Zr  Zr2  1  0.49999999  0.49999999  0.49999999  1
  Ru  Ru3  1  0.00000000  0.00000000  0.00000000  1
  O  O4  1  0.76131699  0.76131699  0.23868300  1
  O  O5  1  0.23868300  0.76131699  0.76131699  1
  O  O6  1  0.23868300  0.76131699  0.23868300  1
  O  O7  1  0.23868300  0.23868300  0.76131699  1
  O  O8  1  0.76131699  0.23868300  0.23868300  1
  O  O9  1  0.76131699  0.23868300  0.76131699  1
