# generated using pymatgen
data_Mn3Cu5O11
_symmetry_space_group_name_H-M   'P 1'
_cell_length_a   6.66784668
_cell_length_b   6.66784668
_cell_length_c   6.66784668
_cell_angle_alpha   109.47122192
_cell_angle_beta   109.47122192
_cell_angle_gamma   109.47122192
_symmetry_Int_Tables_number   1
_chemical_formula_structural   Mn3Cu5O11
_chemical_formula_sum   'Mn3 Cu5 O11'
_cell_volume   228.21012237
_cell_formula_units_Z   1
loop_
 _symmetry_equiv_pos_site_id
 _symmetry_equiv_pos_as_xyz
  1  'x, y, z'
loop_
 _atom_site_type_symbol
 _atom_site_label
 _atom_site_symmetry_multiplicity
 _atom_site_fract_x
 _atom_site_fract_y
 _atom_site_fract_z
 _atom_site_occupancy
  Mn  Mn0  1  0.00000003  0.50000001  0.50000002  1
  Mn  Mn1  1  0.50000003  0.50000001  1.00000002  1
  Mn  Mn2  1  0.50000006  1.00000002  0.50000006  1
  Cu  Cu3  1  0.50000006  1.00000002  1.00000005  1
  Cu  Cu4  1  0.00000003  0.50000001  0.00000003  1
  Cu  Cu5  1  0.50000003  0.50000001  0.50000003  1
  Cu  Cu6  1  0.00000000  0.00000000  0.49999999  1
  Cu  Cu7  1  0.87097303  0.68581501  0.18515806  1
  O  O8  1  0.12902702  0.31418501  0.81484200  1
  O  O9  1  0.49934201  0.31418401  0.18515703  1
  O  O10  1  0.81484202  0.50065701  0.68581503  1
  O  O11  1  0.68581504  0.81484202  0.50065705  1
  O  O12  1  0.68581500  0.18515700  0.87097301  1
  O  O13  1  0.81484200  0.12902700  0.31418402  1
  O  O14  1  0.31418501  0.18515800  0.49934301  1
  O  O15  1  0.50065804  0.68581601  0.81484303  1
  O  O16  1  0.18515803  0.49934301  0.31418503  1
  O  O17  1  0.31418505  0.81484302  0.12902705  1
  O  O18  1  0.18515805  0.87097302  0.68581604  1
