# generated using pymatgen
data_In3Au
_symmetry_space_group_name_H-M   'P 1'
_cell_length_a   3.59314895
_cell_length_b   5.11989689
_cell_length_c   5.15602016
_cell_angle_alpha   90.00000000
_cell_angle_beta   90.00000000
_cell_angle_gamma   90.00000000
_symmetry_Int_Tables_number   1
_chemical_formula_structural   In3Au
_chemical_formula_sum   'In3 Au1'
_cell_volume   94.85299365
_cell_formula_units_Z   1
loop_
 _symmetry_equiv_pos_site_id
 _symmetry_equiv_pos_as_xyz
  1  'x, y, z'
loop_
 _atom_site_type_symbol
 _atom_site_label
 _atom_site_symmetry_multiplicity
 _atom_site_fract_x
 _atom_site_fract_y
 _atom_site_fract_z
 _atom_site_occupancy
  In  In0  1  0.50000001  0.75000002  0.18524399  1
  In  In1  1  0.50000001  0.25000001  0.81475597  1
  In  In2  1  0.00000000  0.75000002  0.68469698  1
  Au  Au3  1  0.00000000  0.25000001  0.31530299  1
