# generated using pymatgen
data_EuErGa6(Ge2Pd)2
_symmetry_space_group_name_H-M   'P 1'
_cell_length_a   6.77462387
_cell_length_b   6.77462387
_cell_length_c   6.77462387
_cell_angle_alpha   108.39263916
_cell_angle_beta   110.01318359
_cell_angle_gamma   110.01318359
_symmetry_Int_Tables_number   1
_chemical_formula_structural   EuErGa6(Ge2Pd)2
_chemical_formula_sum   'Eu1 Er1 Ga6 Ge4 Pd2'
_cell_volume   239.28669275
_cell_formula_units_Z   1
loop_
 _symmetry_equiv_pos_site_id
 _symmetry_equiv_pos_as_xyz
  1  'x, y, z'
loop_
 _atom_site_type_symbol
 _atom_site_label
 _atom_site_symmetry_multiplicity
 _atom_site_fract_x
 _atom_site_fract_y
 _atom_site_fract_z
 _atom_site_occupancy
  Eu  Eu0  1  0.49999991  0.49999995  0.99999990  1
  Er  Er1  1  0.49999983  0.99999990  0.49999983  1
  Ga  Ga2  1  0.72380494  0.27597797  0.27575092  1
  Ga  Ga3  1  0.27619491  0.55194595  0.55217290  1
  Ga  Ga4  1  0.99977297  0.05194599  0.77575094  1
  Ga  Ga5  1  0.00022688  0.77597792  0.05217289  1
  Ga  Ga6  1  0.00022689  0.72424893  0.44805389  1
  Ga  Ga7  1  0.99977291  0.44782696  0.72402188  1
  Pd  Pd8  1  0.27619496  0.22424898  0.22402195  1
  Pd  Pd9  1  0.72380484  0.94782691  0.94805382  1
  Ge  Ge10  1  0.31842885  0.90921491  0.90921485  1
  Ge  Ge11  1  0.68157090  0.59078494  0.59078488  1
  Ge  Ge12  1  -0.00000001  0.09078599  0.40921399  1
  Ge  Ge13  1  -0.00000006  0.40921396  0.09078594  1
