# generated using pymatgen
data_K3RbBrCl7
_symmetry_space_group_name_H-M   'P 1'
_cell_length_a   4.89283800
_cell_length_b   8.32261086
_cell_length_c   9.63777828
_cell_angle_alpha   90.00000000
_cell_angle_beta   90.00000000
_cell_angle_gamma   90.00000000
_symmetry_Int_Tables_number   1
_chemical_formula_structural   K3RbBrCl7
_chemical_formula_sum   'K3 Rb1 Br1 Cl7'
_cell_volume   392.46176843
_cell_formula_units_Z   1
loop_
 _symmetry_equiv_pos_site_id
 _symmetry_equiv_pos_as_xyz
  1  'x, y, z'
loop_
 _atom_site_type_symbol
 _atom_site_label
 _atom_site_symmetry_multiplicity
 _atom_site_fract_x
 _atom_site_fract_y
 _atom_site_fract_z
 _atom_site_occupancy
  K  K0  1  0.25000000  0.26446600  0.12035800  1
  K  K1  1  0.75000000  0.73553401  0.87964197  1
  Rb  Rb2  1  0.25000000  0.76446601  0.37964199  1
  K  K3  1  0.75000000  0.23553400  0.62035798  1
  Cl  Cl4  1  0.25000000  0.02928700  0.83135398  1
  Cl  Cl5  1  0.75000000  0.97071302  0.16864600  1
  Cl  Cl6  1  0.25000000  0.52928701  0.66864598  1
  Cl  Cl7  1  0.75000000  0.47071301  0.33135399  1
  Cl  Cl8  1  0.25000000  0.14256500  0.43142099  1
  Br  Br9  1  0.75000000  0.85743501  0.56857898  1
  Cl  Cl10  1  0.25000000  0.64256501  0.06857900  1
  Cl  Cl11  1  0.75000000  0.35743501  0.93142097  1
