# generated using pymatgen
data_SrInCuAu
_symmetry_space_group_name_H-M   'P 1'
_cell_length_a   5.62441826
_cell_length_b   5.62441826
_cell_length_c   5.62441874
_cell_angle_alpha   71.49935150
_cell_angle_beta   71.49935150
_cell_angle_gamma   71.49935913
_symmetry_Int_Tables_number   1
_chemical_formula_structural   SrInCuAu
_chemical_formula_sum   'Sr1 In1 Cu1 Au1'
_cell_volume   155.29691534
_cell_formula_units_Z   1
loop_
 _symmetry_equiv_pos_site_id
 _symmetry_equiv_pos_as_xyz
  1  'x, y, z'
loop_
 _atom_site_type_symbol
 _atom_site_label
 _atom_site_symmetry_multiplicity
 _atom_site_fract_x
 _atom_site_fract_y
 _atom_site_fract_z
 _atom_site_occupancy
  Sr  Sr0  1  0.00000000  0.00000000  0.00000000  1
  In  In1  1  0.50000003  0.50000001  0.49999995  1
  Au  Au2  1  0.29350702  0.29350701  0.29350697  1
  Cu  Cu3  1  0.70649305  0.70649302  0.70649292  1
