# generated using pymatgen
data_K4Cu2(TeSe3)3
_symmetry_space_group_name_H-M   'P 1'
_cell_length_a   7.29233122
_cell_length_b   7.29233122
_cell_length_c   10.06924534
_cell_angle_alpha   90.00000000
_cell_angle_beta   90.00000000
_cell_angle_gamma   90.00000000
_symmetry_Int_Tables_number   1
_chemical_formula_structural   K4Cu2(TeSe3)3
_chemical_formula_sum   'K4 Cu2 Te3 Se9'
_cell_volume   535.46328119
_cell_formula_units_Z   1
loop_
 _symmetry_equiv_pos_site_id
 _symmetry_equiv_pos_as_xyz
  1  'x, y, z'
loop_
 _atom_site_type_symbol
 _atom_site_label
 _atom_site_symmetry_multiplicity
 _atom_site_fract_x
 _atom_site_fract_y
 _atom_site_fract_z
 _atom_site_occupancy
  K  K0  1  -0.00000000  0.49999999  0.24999999  1
  K  K1  1  -0.00000000  0.49999999  0.74999997  1
  K  K2  1  0.49999999  0.00000000  0.74999997  1
  K  K3  1  0.49999999  0.00000000  0.24999999  1
  Cu  Cu4  1  0.49999999  0.49999999  0.49999998  1
  Cu  Cu5  1  0.00000000  0.00000000  0.00000000  1
  Te  Te6  1  0.49999999  0.49999999  0.25528299  1
  Te  Te7  1  0.74538798  0.77684198  -0.00000000  1
  Te  Te8  1  0.22315799  0.74538798  0.00000000  1
  Se  Se9  1  0.00000000  0.00000000  0.75528297  1
  Se  Se10  1  0.25461199  0.22315799  0.00000000  1
  Se  Se11  1  0.27684199  0.24538799  0.49999998  1
  Se  Se12  1  0.72315798  0.75461198  0.49999998  1
  Se  Se13  1  0.24538799  0.72315798  0.49999998  1
  Se  Se14  1  0.49999999  0.49999999  0.74471697  1
  Se  Se15  1  0.75461198  0.27684199  0.49999998  1
  Se  Se16  1  0.00000000  0.00000000  0.24471699  1
  Se  Se17  1  0.77684198  0.25461199  -0.00000000  1
