# generated using pymatgen
data_ErTiMnAlSi8
_symmetry_space_group_name_H-M   'P 1'
_cell_length_a   3.96209788
_cell_length_b   4.96143818
_cell_length_c   8.64148617
_cell_angle_alpha   90.00000000
_cell_angle_beta   90.00000000
_cell_angle_gamma   90.00000000
_symmetry_Int_Tables_number   1
_chemical_formula_structural   ErTiMnAlSi8
_chemical_formula_sum   'Er1 Ti1 Mn1 Al1 Si8'
_cell_volume   169.87177468
_cell_formula_units_Z   1
loop_
 _symmetry_equiv_pos_site_id
 _symmetry_equiv_pos_as_xyz
  1  'x, y, z'
loop_
 _atom_site_type_symbol
 _atom_site_label
 _atom_site_symmetry_multiplicity
 _atom_site_fract_x
 _atom_site_fract_y
 _atom_site_fract_z
 _atom_site_occupancy
  Er  Er0  1  0.00000000  0.49999998  -0.00000000  1
  Ti  Ti1  1  0.00000000  0.00000000  0.49999999  1
  Mn  Mn2  1  0.00000000  0.49999998  0.33427499  1
  Al  Al3  1  0.00000000  0.00000000  0.82921398  1
  Si  Si4  1  0.00000000  0.00000000  0.17078600  1
  Si  Si5  1  0.00000000  0.49999998  0.66572499  1
  Si  Si6  1  0.50000001  0.49999998  0.49999999  1
  Si  Si7  1  0.50000001  0.00000000  0.00000000  1
  Si  Si8  1  0.50000001  0.75763697  0.25893099  1
  Si  Si9  1  0.50000001  0.24236299  0.74106899  1
  Si  Si10  1  0.50000001  0.24236299  0.25893099  1
  Si  Si11  1  0.50000001  0.75763697  0.74106899  1
