# generated using pymatgen
data_Na2LiCa(CuO3)4
_symmetry_space_group_name_H-M   'P 1'
_cell_length_a   5.58567619
_cell_length_b   5.65171909
_cell_length_c   7.97010422
_cell_angle_alpha   90.00000000
_cell_angle_beta   90.00000000
_cell_angle_gamma   90.00000000
_symmetry_Int_Tables_number   1
_chemical_formula_structural   Na2LiCa(CuO3)4
_chemical_formula_sum   'Na2 Li1 Ca1 Cu4 O12'
_cell_volume   251.60561215
_cell_formula_units_Z   1
loop_
 _symmetry_equiv_pos_site_id
 _symmetry_equiv_pos_as_xyz
  1  'x, y, z'
loop_
 _atom_site_type_symbol
 _atom_site_label
 _atom_site_symmetry_multiplicity
 _atom_site_fract_x
 _atom_site_fract_y
 _atom_site_fract_z
 _atom_site_occupancy
  Na  Na0  1  0.97559297  0.50334899  0.24999999  1
  Li  Li1  1  0.47559298  0.99665098  0.24999999  1
  Na  Na2  1  0.02440700  0.49665099  0.74999998  1
  Ca  Ca3  1  0.52440698  0.00334900  0.74999998  1
  Cu  Cu4  1  0.49999998  0.49999999  -0.00000000  1
  Cu  Cu5  1  0.00000000  0.00000000  0.49999999  1
  Cu  Cu6  1  0.49999998  0.49999999  0.49999999  1
  Cu  Cu7  1  0.00000000  0.00000000  0.00000000  1
  O  O8  1  0.50583998  0.43051099  0.24999999  1
  O  O9  1  0.00584000  0.06948900  0.24999999  1
  O  O10  1  0.49415998  0.56948899  0.74999998  1
  O  O11  1  0.99415997  0.93051098  0.74999998  1
  O  O12  1  0.21610199  0.71695499  0.03451500  1
  O  O13  1  0.71610198  0.78304499  0.46548499  1
  O  O14  1  0.78389797  0.28304500  0.53451499  1
  O  O15  1  0.28389799  0.21695500  0.96548497  1
  O  O16  1  0.78389797  0.28304500  0.96548497  1
  O  O17  1  0.28389799  0.21695500  0.53451499  1
  O  O18  1  0.21610199  0.71695499  0.46548499  1
  O  O19  1  0.71610198  0.78304499  0.03451500  1
