# generated using pymatgen
data_Er3ScNi4C3N
_symmetry_space_group_name_H-M   'P 1'
_cell_length_a   4.00399685
_cell_length_b   5.84731913
_cell_length_c   7.52453709
_cell_angle_alpha   90.00000000
_cell_angle_beta   90.00000000
_cell_angle_gamma   90.00000000
_symmetry_Int_Tables_number   1
_chemical_formula_structural   Er3ScNi4C3N
_chemical_formula_sum   'Er3 Sc1 Ni4 C3 N1'
_cell_volume   176.16933333
_cell_formula_units_Z   1
loop_
 _symmetry_equiv_pos_site_id
 _symmetry_equiv_pos_as_xyz
  1  'x, y, z'
loop_
 _atom_site_type_symbol
 _atom_site_label
 _atom_site_symmetry_multiplicity
 _atom_site_fract_x
 _atom_site_fract_y
 _atom_site_fract_z
 _atom_site_occupancy
  Er  Er0  1  0.25000001  0.23344299  0.61160399  1
  Er  Er1  1  0.25000001  0.73344298  0.88839599  1
  Sc  Sc2  1  0.75000003  0.76655698  0.38839600  1
  Er  Er3  1  0.75000003  0.26655699  0.11160400  1
  Ni  Ni4  1  0.25000001  0.03198200  0.32162800  1
  Ni  Ni5  1  0.25000001  0.53198199  0.17837200  1
  Ni  Ni6  1  0.75000003  0.96801798  0.67837199  1
  Ni  Ni7  1  0.75000003  0.46801799  0.82162799  1
  N  N8  1  0.25000001  0.14721000  0.92668499  1
  C  C9  1  0.25000001  0.64720999  0.57331499  1
  C  C10  1  0.75000003  0.85278998  0.07331500  1
  C  C11  1  0.75000003  0.35278999  0.42668500  1
