# generated using pymatgen
data_AlB4OsCN
_symmetry_space_group_name_H-M   'P 1'
_cell_length_a   2.93824601
_cell_length_b   2.93824625
_cell_length_c   10.59615803
_cell_angle_alpha   90.00000000
_cell_angle_beta   90.00000000
_cell_angle_gamma   120.00000000
_symmetry_Int_Tables_number   1
_chemical_formula_structural   AlB4OsCN
_chemical_formula_sum   'Al1 B4 Os1 C1 N1'
_cell_volume   79.22375157
_cell_formula_units_Z   1
loop_
 _symmetry_equiv_pos_site_id
 _symmetry_equiv_pos_as_xyz
  1  'x, y, z'
loop_
 _atom_site_type_symbol
 _atom_site_label
 _atom_site_symmetry_multiplicity
 _atom_site_fract_x
 _atom_site_fract_y
 _atom_site_fract_z
 _atom_site_occupancy
  Al  Al0  1  0.00000000  0.00000000  0.00000000  1
  B  B1  1  0.00000000  0.00000000  0.50000000  1
  B  B2  1  0.66666669  0.33333335  0.25000000  1
  B  B3  1  0.33333337  0.66666669  0.75000000  1
  C  C4  1  0.66666669  0.33333335  0.87672100  1
  Os  Os5  1  0.66666669  0.33333335  0.62327900  1
  B  B6  1  0.33333337  0.66666669  0.37672100  1
  N  N7  1  0.33333337  0.66666669  0.12327900  1
