# generated using pymatgen
data_HfMnAl3Ga5(SiGe2)2
_symmetry_space_group_name_H-M   'P 1'
_cell_length_a   5.22671986
_cell_length_b   7.59071779
_cell_length_c   7.59071827
_cell_angle_alpha   120.00000000
_cell_angle_beta   90.00000000
_cell_angle_gamma   90.00000000
_symmetry_Int_Tables_number   1
_chemical_formula_structural   HfMnAl3Ga5(SiGe2)2
_chemical_formula_sum   'Hf1 Mn1 Al3 Ga5 Si2 Ge4'
_cell_volume   260.81080121
_cell_formula_units_Z   1
loop_
 _symmetry_equiv_pos_site_id
 _symmetry_equiv_pos_as_xyz
  1  'x, y, z'
loop_
 _atom_site_type_symbol
 _atom_site_label
 _atom_site_symmetry_multiplicity
 _atom_site_fract_x
 _atom_site_fract_y
 _atom_site_fract_z
 _atom_site_occupancy
  Mn  Mn0  1  0.25000001  1.00000004  0.74906603  1
  Hf  Hf1  1  0.25000001  0.74906603  0.00000002  1
  Al  Al2  1  0.75000002  1.00000004  0.25093403  1
  Al  Al3  1  0.50000001  0.66666669  0.33333336  1
  Ga  Ga4  1  0.25000001  0.25093401  0.25093401  1
  Al  Al5  1  0.75000002  0.25093401  0.00000001  1
  Ga  Ga6  1  -0.00000000  0.66666669  0.33333336  1
  Ga  Ga7  1  0.75000002  0.74906603  0.74906603  1
  Ga  Ga8  1  0.50000001  0.33333335  0.66666668  1
  Ga  Ga9  1  -0.00000000  0.33333335  0.66666668  1
  Ge  Ge10  1  0.25000001  0.38955702  0.00000001  1
  Ge  Ge11  1  0.25000001  0.61044303  0.61044302  1
  Ge  Ge12  1  0.75000002  1.00000004  0.61044303  1
  Si  Si13  1  0.75000002  0.38955702  0.38955701  1
  Ge  Ge14  1  0.25000001  1.00000004  0.38955703  1
  Si  Si15  1  0.75000002  0.61044303  0.00000002  1
