# generated using pymatgen
data_TaVNiP6O
_symmetry_space_group_name_H-M   'P 1'
_cell_length_a   5.36399889
_cell_length_b   5.36399889
_cell_length_c   5.36399889
_cell_angle_alpha   60.10166550
_cell_angle_beta   60.10166550
_cell_angle_gamma   60.10166931
_symmetry_Int_Tables_number   1
_chemical_formula_structural   TaVNiP6O
_chemical_formula_sum   'Ta1 V1 Ni1 P6 O1'
_cell_volume   109.38312133
_cell_formula_units_Z   1
loop_
 _symmetry_equiv_pos_site_id
 _symmetry_equiv_pos_as_xyz
  1  'x, y, z'
loop_
 _atom_site_type_symbol
 _atom_site_label
 _atom_site_symmetry_multiplicity
 _atom_site_fract_x
 _atom_site_fract_y
 _atom_site_fract_z
 _atom_site_occupancy
  Ta  Ta0  1  0.75000002  0.75000003  0.75000000  1
  V  V1  1  0.25000001  0.25000001  0.25000000  1
  Ni  Ni2  1  0.00000000  0.00000000  0.00000000  1
  O  O3  1  0.50000001  0.50000002  0.50000000  1
  P  P4  1  0.20600200  0.75000003  0.29399799  1
  P  P5  1  0.75000002  0.29399801  0.20600199  1
  P  P6  1  0.29399801  0.20600201  0.75000001  1
  P  P7  1  0.79399802  0.25000001  0.70600200  1
  P  P8  1  0.70600201  0.79399803  0.24999998  1
  P  P9  1  0.25000000  0.70600202  0.79399801  1
