# generated using pymatgen
data_LaY2InSn2Pd2Au
_symmetry_space_group_name_H-M   'P 1'
_cell_length_a   4.17589617
_cell_length_b   7.12780380
_cell_length_c   7.12780476
_cell_angle_alpha   120.00000000
_cell_angle_beta   90.00000000
_cell_angle_gamma   90.00000000
_symmetry_Int_Tables_number   1
_chemical_formula_structural   LaY2InSn2Pd2Au
_chemical_formula_sum   'La1 Y2 In1 Sn2 Pd2 Au1'
_cell_volume   183.73498373
_cell_formula_units_Z   1
loop_
 _symmetry_equiv_pos_site_id
 _symmetry_equiv_pos_as_xyz
  1  'x, y, z'
loop_
 _atom_site_type_symbol
 _atom_site_label
 _atom_site_symmetry_multiplicity
 _atom_site_fract_x
 _atom_site_fract_y
 _atom_site_fract_z
 _atom_site_occupancy
  Y  Y0  1  0.49999998  0.58285503  0.00000003  1
  Y  Y1  1  0.49999998  0.41714502  0.41714501  1
  La  La2  1  0.49999998  0.00000000  0.58285498  1
  In  In3  1  0.99999996  0.25154301  0.00000001  1
  Sn  Sn4  1  0.99999996  0.74845704  0.74845702  1
  Sn  Sn5  1  0.00000000  0.00000000  0.25154299  1
  Pd  Pd6  1  0.99999996  0.33333335  0.66666667  1
  Au  Au7  1  -0.00000000  0.66666670  0.33333336  1
  Pd  Pd8  1  0.49999998  0.00000000  -0.00000000  1
