# generated using pymatgen
data_NaLiH5O7
_symmetry_space_group_name_H-M   'P 1'
_cell_length_a   3.86368299
_cell_length_b   6.55984402
_cell_length_c   6.55984449
_cell_angle_alpha   120.00000000
_cell_angle_beta   90.00000000
_cell_angle_gamma   90.00000000
_symmetry_Int_Tables_number   1
_chemical_formula_structural   NaLiH5O7
_chemical_formula_sum   'Na1 Li1 H5 O7'
_cell_volume   143.98563762
_cell_formula_units_Z   1
loop_
 _symmetry_equiv_pos_site_id
 _symmetry_equiv_pos_as_xyz
  1  'x, y, z'
loop_
 _atom_site_type_symbol
 _atom_site_label
 _atom_site_symmetry_multiplicity
 _atom_site_fract_x
 _atom_site_fract_y
 _atom_site_fract_z
 _atom_site_occupancy
  Na  Na0  1  0.75000000  0.66666668  0.33333335  1
  Li  Li1  1  0.25000000  0.33333334  0.66666667  1
  H  H2  1  0.75000000  0.13728700  0.86104299  1
  H  H3  1  0.75000000  0.13895700  0.27624400  1
  H  H4  1  0.75000000  0.72375601  0.86271302  1
  H  H5  1  0.25000000  0.86271301  0.13895703  1
  H  H6  1  0.25000000  0.86104301  0.72375602  1
  O  O7  1  0.25000000  0.27624400  0.13728701  1
  O  O8  1  0.75000000  0.08263600  0.69244299  1
  O  O9  1  0.75000000  0.30755701  0.39019301  1
  O  O10  1  0.75000000  0.60980701  0.91736401  1
  O  O11  1  0.25000000  0.91736402  0.30755703  1
  O  O12  1  0.25000000  0.69244301  0.60980702  1
  O  O13  1  0.25000000  0.39019301  0.08263601  1
