# generated using pymatgen
data_YErAlGa2Si(NiRh)2
_symmetry_space_group_name_H-M   'P 1'
_cell_length_a   4.40881681
_cell_length_b   4.40881681
_cell_length_c   9.93859482
_cell_angle_alpha   90.00000000
_cell_angle_beta   90.00000000
_cell_angle_gamma   90.00000000
_symmetry_Int_Tables_number   1
_chemical_formula_structural   YErAlGa2Si(NiRh)2
_chemical_formula_sum   'Y1 Er1 Al1 Ga2 Si1 Ni2 Rh2'
_cell_volume   193.18308363
_cell_formula_units_Z   1
loop_
 _symmetry_equiv_pos_site_id
 _symmetry_equiv_pos_as_xyz
  1  'x, y, z'
loop_
 _atom_site_type_symbol
 _atom_site_label
 _atom_site_symmetry_multiplicity
 _atom_site_fract_x
 _atom_site_fract_y
 _atom_site_fract_z
 _atom_site_occupancy
  Y  Y0  1  0.00000000  0.50000002  0.25225100  1
  Er  Er1  1  0.50000002  0.00000000  0.74774901  1
  Al  Al2  1  0.50000002  0.50000002  0.50000001  1
  Ga  Ga3  1  0.50000002  0.00000000  0.12976900  1
  Si  Si4  1  0.00000000  0.00000000  0.50000001  1
  Ga  Ga5  1  0.00000000  0.50000002  0.87023102  1
  Ni  Ni6  1  0.00000000  0.00000000  0.00000000  1
  Ni  Ni7  1  0.00000000  0.50000002  0.62316401  1
  Rh  Rh8  1  0.50000002  0.00000000  0.37683601  1
  Rh  Rh9  1  0.50000002  0.50000002  -0.00000000  1
