# generated using pymatgen
data_NaSr2Li2Eu
_symmetry_space_group_name_H-M   'P 1'
_cell_length_a   5.80709124
_cell_length_b   5.80709124
_cell_length_c   8.25102806
_cell_angle_alpha   90.00000000
_cell_angle_beta   90.00000000
_cell_angle_gamma   90.00000000
_symmetry_Int_Tables_number   1
_chemical_formula_structural   NaSr2Li2Eu
_chemical_formula_sum   'Na1 Sr2 Li2 Eu1'
_cell_volume   278.24371474
_cell_formula_units_Z   1
loop_
 _symmetry_equiv_pos_site_id
 _symmetry_equiv_pos_as_xyz
  1  'x, y, z'
loop_
 _atom_site_type_symbol
 _atom_site_label
 _atom_site_symmetry_multiplicity
 _atom_site_fract_x
 _atom_site_fract_y
 _atom_site_fract_z
 _atom_site_occupancy
  Eu  Eu0  1  0.49999998  0.49999998  0.00000000  1
  Sr  Sr1  1  0.00000000  0.00000000  0.50000000  1
  Li  Li2  1  0.00000000  0.49999998  0.25794500  1
  Li  Li3  1  0.49999998  0.00000000  0.25794500  1
  Na  Na4  1  0.00000000  0.49999998  0.74205499  1
  Sr  Sr5  1  0.49999998  0.00000000  0.74205499  1
