# generated using pymatgen
data_LaYInSn2Au
_symmetry_space_group_name_H-M   'P 1'
_cell_length_a   3.84887195
_cell_length_b   4.82663965
_cell_length_c   8.55373192
_cell_angle_alpha   90.00028229
_cell_angle_beta   89.99998474
_cell_angle_gamma   89.99212646
_symmetry_Int_Tables_number   1
_chemical_formula_structural   LaYInSn2Au
_chemical_formula_sum   'La1 Y1 In1 Sn2 Au1'
_cell_volume   158.90368528
_cell_formula_units_Z   1
loop_
 _symmetry_equiv_pos_site_id
 _symmetry_equiv_pos_as_xyz
  1  'x, y, z'
loop_
 _atom_site_type_symbol
 _atom_site_label
 _atom_site_symmetry_multiplicity
 _atom_site_fract_x
 _atom_site_fract_y
 _atom_site_fract_z
 _atom_site_occupancy
  Y  Y0  1  -0.00000005  0.99995305  0.02228202  1
  La  La1  1  -0.00000002  0.49998702  0.48468799  1
  In  In2  1  0.49999999  0.50000402  0.83564199  1
  Sn  Sn3  1  0.49999999  0.49994902  0.18424401  1
  Sn  Sn4  1  0.49999996  0.99996905  0.64447601  1
  Au  Au5  1  0.49999996  0.99993905  0.32866802  1
