# generated using pymatgen
data_Li6CaMn(CuO4)2
_symmetry_space_group_name_H-M   'P 1'
_cell_length_a   5.46453810
_cell_length_b   5.48269129
_cell_length_c   8.28441906
_cell_angle_alpha   70.71101379
_cell_angle_beta   83.60799408
_cell_angle_gamma   68.92969513
_symmetry_Int_Tables_number   1
_chemical_formula_structural   Li6CaMn(CuO4)2
_chemical_formula_sum   'Li6 Ca1 Mn1 Cu2 O8'
_cell_volume   218.60007133
_cell_formula_units_Z   1
loop_
 _symmetry_equiv_pos_site_id
 _symmetry_equiv_pos_as_xyz
  1  'x, y, z'
loop_
 _atom_site_type_symbol
 _atom_site_label
 _atom_site_symmetry_multiplicity
 _atom_site_fract_x
 _atom_site_fract_y
 _atom_site_fract_z
 _atom_site_occupancy
  Li  Li0  1  0.27272998  0.17624900  0.20393001  1
  Ca  Ca1  1  0.72726992  0.82375098  0.79607004  1
  Li  Li2  1  0.24536594  0.75982398  0.99719204  1
  Li  Li3  1  0.75463396  0.24017599  0.00280801  1
  Li  Li4  1  0.26314392  0.94551597  0.57448804  1
  Li  Li5  1  0.73685597  0.05448400  0.42551201  1
  Li  Li6  1  0.74211494  0.47873199  0.58700902  1
  Mn  Mn7  1  0.25788496  0.52126799  0.41299102  1
  Cu  Cu8  1  0.27778096  0.39298499  0.76960202  1
  Cu  Cu9  1  0.72221893  0.60701498  0.23039802  1
  O  O10  1  0.00709495  0.69144198  0.60826903  1
  O  O11  1  0.99290495  0.30855799  0.39173102  1
  O  O12  1  0.15949798  0.18067500  0.97288602  1
  O  O13  1  0.84050192  0.81932498  0.02711403  1
  O  O14  1  0.49388494  0.58501698  0.80419703  1
  O  O15  1  0.50611496  0.41498299  0.19580302  1
  O  O16  1  0.51008093  0.80935098  0.37900003  1
  O  O17  1  0.48991897  0.19064899  0.62100001  1
