# generated using pymatgen
data_KNa2Cu2Te2HI2BrO7
_symmetry_space_group_name_H-M   'P 1'
_cell_length_a   6.93254995
_cell_length_b   6.93254995
_cell_length_c   10.64058495
_cell_angle_alpha   90.00000000
_cell_angle_beta   90.00000000
_cell_angle_gamma   111.73061371
_symmetry_Int_Tables_number   1
_chemical_formula_structural   KNa2Cu2Te2HI2BrO7
_chemical_formula_sum   'K1 Na2 Cu2 Te2 H1 I2 Br1 O7'
_cell_volume   475.04722818
_cell_formula_units_Z   1
loop_
 _symmetry_equiv_pos_site_id
 _symmetry_equiv_pos_as_xyz
  1  'x, y, z'
loop_
 _atom_site_type_symbol
 _atom_site_label
 _atom_site_symmetry_multiplicity
 _atom_site_fract_x
 _atom_site_fract_y
 _atom_site_fract_z
 _atom_site_occupancy
  Cu  Cu0  1  0.49999999  0.49999999  0.50000000  1
  K  K1  1  0.00000000  0.00000000  0.00000000  1
  Te  Te2  1  0.61328599  0.38671399  -0.00000000  1
  H  H3  1  0.38671399  0.61328598  -0.00000000  1
  Na  Na4  1  0.88671398  0.11328600  0.50000000  1
  Na  Na5  1  0.11328600  0.88671398  0.50000000  1
  Te  Te6  1  0.89218598  0.47721399  0.90802500  1
  Cu  Cu7  1  0.40084899  0.40084899  0.86470900  1
  I  I8  1  0.52278599  0.10781400  0.09197500  1
  O  O9  1  0.97721398  0.39218599  0.59197500  1
  O  O10  1  0.02278600  0.60781398  0.40802500  1
  Br  Br11  1  0.47721399  0.89218598  0.90802500  1
  O  O12  1  0.60781398  0.02278600  0.40802500  1
  I  I13  1  0.10781400  0.52278599  0.09197500  1
  O  O14  1  0.09915100  0.09915100  0.36470900  1
  O  O15  1  0.59915099  0.59915098  0.13529100  1
  O  O16  1  0.90084898  0.90084898  0.63529100  1
  O  O17  1  0.39218600  0.97721398  0.59197500  1
