# generated using pymatgen
data_Na3Li2Cu2NiO10
_symmetry_space_group_name_H-M   'P 1'
_cell_length_a   5.52694988
_cell_length_b   6.41739798
_cell_length_c   6.86575890
_cell_angle_alpha   90.00000000
_cell_angle_beta   113.26049805
_cell_angle_gamma   90.00000000
_symmetry_Int_Tables_number   1
_chemical_formula_structural   Na3Li2Cu2NiO10
_chemical_formula_sum   'Na3 Li2 Cu2 Ni1 O10'
_cell_volume   223.72560091
_cell_formula_units_Z   1
loop_
 _symmetry_equiv_pos_site_id
 _symmetry_equiv_pos_as_xyz
  1  'x, y, z'
loop_
 _atom_site_type_symbol
 _atom_site_label
 _atom_site_symmetry_multiplicity
 _atom_site_fract_x
 _atom_site_fract_y
 _atom_site_fract_z
 _atom_site_occupancy
  Na  Na0  1  0.71768101  0.25000000  0.64918097  1
  Na  Na1  1  0.28231900  0.75000000  0.35081898  1
  Na  Na2  1  0.25190600  0.48480300  0.65173598  1
  Li  Li3  1  0.74809401  0.98480300  0.34826397  1
  Li  Li4  1  0.74809401  0.51519700  0.34826397  1
  Cu  Cu5  1  0.25190600  0.01519700  0.65173598  1
  Ni  Ni6  1  0.17529500  0.25000000  0.18565499  1
  Cu  Cu7  1  0.82470501  0.75000000  0.81434496  1
  O  O8  1  0.51608101  0.25000000  0.93804696  1
  O  O9  1  0.48391901  0.75000000  0.06195299  1
  O  O10  1  0.54799601  0.25000000  0.32202898  1
  O  O11  1  0.45200400  0.75000000  0.67797097  1
  O  O12  1  0.09440800  0.47513500  0.32783999  1
  O  O13  1  0.90559201  0.97513500  0.67215996  1
  O  O14  1  0.90559201  0.52486500  0.67215996  1
  O  O15  1  0.09440800  0.02486500  0.32783999  1
  O  O16  1  0.47346001  0.25000000  0.78616297  1
  O  O17  1  0.52654001  0.75000000  0.21383698  1
