# generated using pymatgen
data_ErAl3Ga2RuRh5
_symmetry_space_group_name_H-M   'P 1'
_cell_length_a   5.62252617
_cell_length_b   6.64750195
_cell_length_c   6.64750195
_cell_angle_alpha   65.18112183
_cell_angle_beta   64.98185730
_cell_angle_gamma   64.98185730
_symmetry_Int_Tables_number   1
_chemical_formula_structural   ErAl3Ga2RuRh5
_chemical_formula_sum   'Er1 Al3 Ga2 Ru1 Rh5'
_cell_volume   195.04228238
_cell_formula_units_Z   1
loop_
 _symmetry_equiv_pos_site_id
 _symmetry_equiv_pos_as_xyz
  1  'x, y, z'
loop_
 _atom_site_type_symbol
 _atom_site_label
 _atom_site_symmetry_multiplicity
 _atom_site_fract_x
 _atom_site_fract_y
 _atom_site_fract_z
 _atom_site_occupancy
  Er  Er0  1  0.53753895  0.74999998  0.75000002  1
  Al  Al1  1  0.46246098  0.24999999  0.24999999  1
  Ga  Ga2  1  0.88485393  0.92143298  0.92143301  1
  Al  Al3  1  0.11514599  0.07856700  0.07856700  1
  Ga  Ga4  1  0.22771996  0.57856699  0.57856702  1
  Al  Al5  1  0.77227997  0.42143299  0.42143299  1
  Rh  Rh6  1  0.99999993  0.99999997  0.50000002  1
  Rh  Rh7  1  -0.00000003  0.49999999  0.00000003  1
  Rh  Rh8  1  0.99999997  0.28575199  0.71424797  1
  Rh  Rh9  1  0.99999995  0.71424798  0.28575200  1
  Rh  Rh10  1  0.49999998  0.21424799  0.78575198  1
  Ru  Ru11  1  0.49999995  0.78575198  0.21424803  1
