# generated using pymatgen
data_BaLaAsO2
_symmetry_space_group_name_H-M   'P 1'
_cell_length_a   4.13514805
_cell_length_b   4.13514805
_cell_length_c   7.21803284
_cell_angle_alpha   106.64527893
_cell_angle_beta   106.64527893
_cell_angle_gamma   90.00000000
_symmetry_Int_Tables_number   1
_chemical_formula_structural   BaLaAsO2
_chemical_formula_sum   'Ba1 La1 As1 O2'
_cell_volume   112.84376752
_cell_formula_units_Z   1
loop_
 _symmetry_equiv_pos_site_id
 _symmetry_equiv_pos_as_xyz
  1  'x, y, z'
loop_
 _atom_site_type_symbol
 _atom_site_label
 _atom_site_symmetry_multiplicity
 _atom_site_fract_x
 _atom_site_fract_y
 _atom_site_fract_z
 _atom_site_occupancy
  Ba  Ba0  1  0.65920297  0.65920298  0.31840597  1
  La  La1  1  0.34079699  0.34079699  0.68159398  1
  As  As2  1  0.00000000  0.00000000  0.00000000  1
  O  O3  1  0.74999998  0.24999999  0.49999997  1
  O  O4  1  0.24999998  0.74999998  0.49999997  1
