# generated using pymatgen
data_BaTl3CuAg(SbSe6)2
_symmetry_space_group_name_H-M   'P 1'
_cell_length_a   4.13357306
_cell_length_b   11.47033215
_cell_length_c   11.89988708
_cell_angle_alpha   90.00000000
_cell_angle_beta   90.00000000
_cell_angle_gamma   90.00000000
_symmetry_Int_Tables_number   1
_chemical_formula_structural   BaTl3CuAg(SbSe6)2
_chemical_formula_sum   'Ba1 Tl3 Cu1 Ag1 Sb2 Se12'
_cell_volume   564.21477143
_cell_formula_units_Z   1
loop_
 _symmetry_equiv_pos_site_id
 _symmetry_equiv_pos_as_xyz
  1  'x, y, z'
loop_
 _atom_site_type_symbol
 _atom_site_label
 _atom_site_symmetry_multiplicity
 _atom_site_fract_x
 _atom_site_fract_y
 _atom_site_fract_z
 _atom_site_occupancy
  Cu  Cu0  1  0.25000000  0.16553900  0.51583000  1
  Ba  Ba1  1  0.25000000  0.33446100  0.01583000  1
  Tl  Tl2  1  0.74999999  0.83446099  0.48417000  1
  Ag  Ag3  1  0.74999999  0.66553899  0.98416999  1
  Tl  Tl4  1  0.74999999  0.46398099  0.65782000  1
  Tl  Tl5  1  0.74999999  0.03601900  0.15782000  1
  Sb  Sb6  1  0.25000000  0.53601899  0.34218000  1
  Sb  Sb7  1  0.25000000  0.96398099  0.84217999  1
  Se  Se8  1  0.25000000  0.63468499  0.55261200  1
  Se  Se9  1  0.25000000  0.86531499  0.05261200  1
  Se  Se10  1  0.74999999  0.36531500  0.44738800  1
  Se  Se11  1  0.74999999  0.13468500  0.94738799  1
  Se  Se12  1  0.25000000  0.30299200  0.72000299  1
  Se  Se13  1  0.25000000  0.19700800  0.22000300  1
  Se  Se14  1  0.74999999  0.69700799  0.27999700  1
  Se  Se15  1  0.74999999  0.80299199  0.77999699  1
  Se  Se16  1  0.74999999  0.05430000  0.61710400  1
  Se  Se17  1  0.74999999  0.44569999  0.11710400  1
  Se  Se18  1  0.25000000  0.94569999  0.38289600  1
  Se  Se19  1  0.25000000  0.55429999  0.88289599  1
