# generated using pymatgen
data_Mn4Fe13Si
_symmetry_space_group_name_H-M   'P 1'
_cell_length_a   4.53942776
_cell_length_b   4.53942776
_cell_length_c   12.96196175
_cell_angle_alpha   94.93704987
_cell_angle_beta   94.93704987
_cell_angle_gamma   119.64949799
_symmetry_Int_Tables_number   1
_chemical_formula_structural   Mn4Fe13Si
_chemical_formula_sum   'Mn4 Fe13 Si1'
_cell_volume   228.69982173
_cell_formula_units_Z   1
loop_
 _symmetry_equiv_pos_site_id
 _symmetry_equiv_pos_as_xyz
  1  'x, y, z'
loop_
 _atom_site_type_symbol
 _atom_site_label
 _atom_site_symmetry_multiplicity
 _atom_site_fract_x
 _atom_site_fract_y
 _atom_site_fract_z
 _atom_site_occupancy
  Mn  Mn0  1  0.87551099  0.62448900  0.25000002  1
  Mn  Mn1  1  0.54084200  0.29060200  0.58332400  1
  Mn  Mn2  1  0.20939799  0.95915799  0.91667600  1
  Mn  Mn3  1  0.79796200  0.04971300  0.08842101  1
  Fe  Fe4  1  0.45028699  0.70203800  0.41157901  1
  Fe  Fe5  1  0.12249499  0.37750500  0.74999999  1
  Fe  Fe6  1  0.86920499  0.96045999  0.58159002  1
  Fe  Fe7  1  0.53953999  0.63079500  0.91841000  1
  Fe  Fe8  1  0.12150299  0.71033599  0.08253801  1
  Fe  Fe9  1  0.78966399  0.37849700  0.41746201  1
  Fe  Fe10  1  0.45602300  0.04397700  0.74999999  1
  Si  Si11  1  0.46264999  0.37076900  0.08583301  1
  Fe  Fe12  1  0.12923100  0.03735000  0.41416700  1
  Fe  Fe13  1  0.79490099  0.70509899  0.75000001  1
  Fe  Fe14  1  0.54478199  0.95521799  0.25000002  1
  Fe  Fe15  1  0.21393899  0.62079000  0.58257300  1
  Fe  Fe16  1  0.87921000  0.28606100  0.91742700  1
  Fe  Fe17  1  0.20285800  0.29714200  0.25000000  1
