# generated using pymatgen
data_La2EuIn2PbAu3
_symmetry_space_group_name_H-M   'P 1'
_cell_length_a   6.47489977
_cell_length_b   6.54553080
_cell_length_c   8.38680172
_cell_angle_alpha   68.19460297
_cell_angle_beta   86.77037048
_cell_angle_gamma   85.06254578
_symmetry_Int_Tables_number   1
_chemical_formula_structural   La2EuIn2PbAu3
_chemical_formula_sum   'La2 Eu1 In2 Pb1 Au3'
_cell_volume   328.67593840
_cell_formula_units_Z   1
loop_
 _symmetry_equiv_pos_site_id
 _symmetry_equiv_pos_as_xyz
  1  'x, y, z'
loop_
 _atom_site_type_symbol
 _atom_site_label
 _atom_site_symmetry_multiplicity
 _atom_site_fract_x
 _atom_site_fract_y
 _atom_site_fract_z
 _atom_site_occupancy
  Eu  Eu0  1  0.72279702  0.20467300  0.98804001  1
  La  La1  1  0.85470002  0.51201700  0.27936799  1
  La  La2  1  0.50000002  0.00000000  0.50000000  1
  In  In3  1  0.14530000  0.48798300  0.72063201  1
  In  In4  1  0.27720300  0.79532701  0.01195999  1
  Pb  Pb5  1  0.97999604  0.04774500  0.62948500  1
  Au  Au6  1  0.22589200  0.22408400  0.14617300  1
  Au  Au7  1  0.77410802  0.77591601  0.85382700  1
  Au  Au8  1  0.02000398  0.95225501  0.37051500  1
