# generated using pymatgen
data_LiMn(CuO2)6
_symmetry_space_group_name_H-M   'P 1'
_cell_length_a   5.20994711
_cell_length_b   5.54069853
_cell_length_c   7.65790272
_cell_angle_alpha   94.51873016
_cell_angle_beta   89.71826935
_cell_angle_gamma   89.88256836
_symmetry_Int_Tables_number   1
_chemical_formula_structural   LiMn(CuO2)6
_chemical_formula_sum   'Li1 Mn1 Cu6 O12'
_cell_volume   220.36828033
_cell_formula_units_Z   1
loop_
 _symmetry_equiv_pos_site_id
 _symmetry_equiv_pos_as_xyz
  1  'x, y, z'
loop_
 _atom_site_type_symbol
 _atom_site_label
 _atom_site_symmetry_multiplicity
 _atom_site_fract_x
 _atom_site_fract_y
 _atom_site_fract_z
 _atom_site_occupancy
  Li  Li0  1  0.99695998  0.56280701  0.68281803  1
  Mn  Mn1  1  0.50488399  0.09447200  0.23576601  1
  Cu  Cu2  1  0.00477600  0.48281701  0.27208901  1
  Cu  Cu3  1  0.48972499  0.09422000  0.68424101  1
  Cu  Cu4  1  0.49957999  0.51103801  0.50263402  1
  Cu  Cu5  1  0.99964598  0.01408100  0.98807601  1
  Cu  Cu6  1  0.00915900  0.99482702  0.48548201  1
  Cu  Cu7  1  0.49691999  0.52385601  0.00158102  1
  O  O8  1  0.28919599  0.82004702  0.57624602  1
  O  O9  1  0.12324699  0.99681102  0.24176802  1
  O  O10  1  0.29651199  0.18973700  0.94032800  1
  O  O11  1  0.17920400  0.28644301  0.56695900  1
  O  O12  1  0.80332998  0.29190101  0.07061302  1
  O  O13  1  0.38159899  0.46757501  0.22864502  1
  O  O14  1  0.63012298  0.47038101  0.77735802  1
  O  O15  1  0.19395399  0.69721502  0.94304501  1
  O  O16  1  0.83866698  0.68848902  0.45169403  1
  O  O17  1  0.69294498  0.80535402  0.06679703  1
  O  O18  1  0.87162098  0.98710602  0.76238103  1
  O  O19  1  0.69795198  0.16322600  0.45028101  1
