# generated using pymatgen
data_La6ErTh3(Sn2Au)2
_symmetry_space_group_name_H-M   'P 1'
_cell_length_a   6.27843285
_cell_length_b   8.94411373
_cell_length_c   8.94411373
_cell_angle_alpha   120.00000000
_cell_angle_beta   90.00000000
_cell_angle_gamma   90.00000000
_symmetry_Int_Tables_number   1
_chemical_formula_structural   La6ErTh3(Sn2Au)2
_chemical_formula_sum   'La6 Er1 Th3 Sn4 Au2'
_cell_volume   434.96720214
_cell_formula_units_Z   1
loop_
 _symmetry_equiv_pos_site_id
 _symmetry_equiv_pos_as_xyz
  1  'x, y, z'
loop_
 _atom_site_type_symbol
 _atom_site_label
 _atom_site_symmetry_multiplicity
 _atom_site_fract_x
 _atom_site_fract_y
 _atom_site_fract_z
 _atom_site_occupancy
  Er  Er0  1  -0.00000000  0.66666669  0.33333335  1
  La  La1  1  0.50000001  0.33333334  0.66666669  1
  La  La2  1  -0.00000000  0.33333334  0.66666669  1
  Th  Th3  1  0.50000001  0.66666669  0.33333335  1
  Th  Th4  1  0.25000001  0.24648301  0.24648301  1
  Th  Th5  1  0.75000002  0.24648301  0.00000000  1
  La  La6  1  0.75000002  0.00000000  0.24648301  1
  La  La7  1  0.25000001  0.00000000  0.75351703  1
  La  La8  1  0.25000001  0.75351702  0.00000000  1
  La  La9  1  0.75000002  0.75351702  0.75351703  1
  Sn  Sn10  1  0.25000001  0.61109802  0.61109802  1
  Sn  Sn11  1  0.75000002  0.61109802  0.00000000  1
  Sn  Sn12  1  0.75000002  0.00000000  0.61109802  1
  Au  Au13  1  0.25000001  0.00000000  0.38890201  1
  Sn  Sn14  1  0.25000001  0.38890201  0.00000000  1
  Au  Au15  1  0.75000002  0.38890201  0.38890202  1
