# generated using pymatgen
data_Y2AlCoSi2Ni3Rh
_symmetry_space_group_name_H-M   'P 1'
_cell_length_a   3.99656105
_cell_length_b   3.99656105
_cell_length_c   10.58840275
_cell_angle_alpha   90.00000000
_cell_angle_beta   90.00000000
_cell_angle_gamma   90.00000000
_symmetry_Int_Tables_number   1
_chemical_formula_structural   Y2AlCoSi2Ni3Rh
_chemical_formula_sum   'Y2 Al1 Co1 Si2 Ni3 Rh1'
_cell_volume   169.12326533
_cell_formula_units_Z   1
loop_
 _symmetry_equiv_pos_site_id
 _symmetry_equiv_pos_as_xyz
  1  'x, y, z'
loop_
 _atom_site_type_symbol
 _atom_site_label
 _atom_site_symmetry_multiplicity
 _atom_site_fract_x
 _atom_site_fract_y
 _atom_site_fract_z
 _atom_site_occupancy
  Y  Y0  1  0.00000000  0.00000000  0.00000000  1
  Y  Y1  1  0.49999999  0.49999999  0.50000001  1
  Al  Al2  1  -0.00000000  0.49999999  0.25065201  1
  Co  Co3  1  0.49999999  0.00000000  0.74934802  1
  Ni  Ni4  1  0.49999999  0.00000000  0.25065201  1
  Ni  Ni5  1  -0.00000000  0.49999999  0.74934802  1
  Si  Si6  1  0.49999999  0.49999999  0.12856000  1
  Ni  Ni7  1  0.00000000  0.00000000  0.62637301  1
  Si  Si8  1  0.00000000  0.00000000  0.37362701  1
  Rh  Rh9  1  0.49999999  0.49999999  0.87144002  1
