# generated using pymatgen
data_ErSc2FeCo5Ni3
_symmetry_space_group_name_H-M   'P 1'
_cell_length_a   4.85162163
_cell_length_b   4.85162163
_cell_length_c   8.41397858
_cell_angle_alpha   73.24337006
_cell_angle_beta   73.24337006
_cell_angle_gamma   60.00000763
_symmetry_Int_Tables_number   1
_chemical_formula_structural   ErSc2FeCo5Ni3
_chemical_formula_sum   'Er1 Sc2 Fe1 Co5 Ni3'
_cell_volume   161.73306300
_cell_formula_units_Z   1
loop_
 _symmetry_equiv_pos_site_id
 _symmetry_equiv_pos_as_xyz
  1  'x, y, z'
loop_
 _atom_site_type_symbol
 _atom_site_label
 _atom_site_symmetry_multiplicity
 _atom_site_fract_x
 _atom_site_fract_y
 _atom_site_fract_z
 _atom_site_occupancy
  Er  Er0  1  0.37604896  0.37604898  0.87185299  1
  Sc  Sc1  1  0.99452090  0.99452095  0.01643706  1
  Sc  Sc2  1  0.50437195  0.50437198  0.48688401  1
  Co  Co3  1  0.87377591  0.87377596  0.37867204  1
  Ni  Ni4  1  0.93773892  0.43579298  0.19067504  1
  Co  Co5  1  0.44272294  0.93669896  0.68387902  1
  Ni  Ni6  1  0.43579296  0.43579298  0.19067502  1
  Co  Co7  1  0.93669891  0.93669896  0.68387903  1
  Fe  Fe8  1  0.18808998  0.18808999  0.43573000  1
  Co  Co9  1  0.68774593  0.68774597  0.93676201  1
  Ni  Ni10  1  0.43579294  0.93773896  0.19067504  1
  Co  Co11  1  0.93669892  0.44272298  0.68387902  1
