# generated using pymatgen
data_NaEuH3(NO4)2
_symmetry_space_group_name_H-M   'P 1'
_cell_length_a   4.27601337
_cell_length_b   7.90087795
_cell_length_c   8.44492054
_cell_angle_alpha   115.20069885
_cell_angle_beta   95.04882812
_cell_angle_gamma   92.13312531
_symmetry_Int_Tables_number   1
_chemical_formula_structural   NaEuH3(NO4)2
_chemical_formula_sum   'Na1 Eu1 H3 N2 O8'
_cell_volume   256.26441446
_cell_formula_units_Z   1
loop_
 _symmetry_equiv_pos_site_id
 _symmetry_equiv_pos_as_xyz
  1  'x, y, z'
loop_
 _atom_site_type_symbol
 _atom_site_label
 _atom_site_symmetry_multiplicity
 _atom_site_fract_x
 _atom_site_fract_y
 _atom_site_fract_z
 _atom_site_occupancy
  Na  Na0  1  0.50000001  0.49999999  0.49999999  1
  Eu  Eu1  1  0.63103801  0.36799199  0.03104400  1
  H  H2  1  0.36896200  0.63200799  0.96895597  1
  H  H3  1  0.77856601  0.15159400  0.90472201  1
  N  N4  1  0.22143400  0.84840598  0.09527797  1
  N  N5  1  0.70438101  0.18592800  0.64575701  1
  H  H6  1  0.29561900  0.81407198  0.35424297  1
  O  O7  1  0.63802101  0.29871199  0.76731200  1
  O  O8  1  0.36197900  0.70128798  0.23268798  1
  O  O9  1  0.95367401  0.21438599  0.33111102  1
  O  O10  1  0.04632600  0.78561398  0.66888896  1
  O  O11  1  0.68818601  0.27143799  0.91160300  1
  O  O12  1  0.31181400  0.72856198  0.08839697  1
  O  O13  1  0.52523801  0.44288499  0.76440999  1
  O  O14  1  0.47476200  0.55711499  0.23558999  1
