# generated using pymatgen
data_TbYFe17
_symmetry_space_group_name_H-M   'P 1'
_cell_length_a   6.31485796
_cell_length_b   6.31485796
_cell_length_c   6.31485796
_cell_angle_alpha   83.18297577
_cell_angle_beta   83.18296814
_cell_angle_gamma   83.18296814
_symmetry_Int_Tables_number   1
_chemical_formula_structural   TbYFe17
_chemical_formula_sum   'Tb1 Y1 Fe17'
_cell_volume   246.87079422
_cell_formula_units_Z   1
loop_
 _symmetry_equiv_pos_site_id
 _symmetry_equiv_pos_as_xyz
  1  'x, y, z'
loop_
 _atom_site_type_symbol
 _atom_site_label
 _atom_site_symmetry_multiplicity
 _atom_site_fract_x
 _atom_site_fract_y
 _atom_site_fract_z
 _atom_site_occupancy
  Y  Y0  1  0.34411400  0.34411399  0.34411398  1
  Tb  Tb1  1  0.65107999  0.65107998  0.65107997  1
  Fe  Fe2  1  0.00184799  0.29016299  0.71297199  1
  Fe  Fe3  1  0.71297201  0.00184800  0.29016297  1
  Fe  Fe4  1  0.29016299  0.71297198  0.00184800  1
  Fe  Fe5  1  0.29016301  0.00184800  0.71297197  1
  Fe  Fe6  1  0.71297201  0.29016299  0.00184798  1
  Fe  Fe7  1  0.00184798  0.71297198  0.29016300  1
  Fe  Fe8  1  0.14849798  0.65061298  0.65061299  1
  Fe  Fe9  1  0.65061301  0.14849800  0.65061297  1
  Fe  Fe10  1  0.65061299  0.65061298  0.14849798  1
  Fe  Fe11  1  0.84988401  0.34470599  0.34470597  1
  Fe  Fe12  1  0.34470598  0.84988398  0.34470599  1
  Fe  Fe13  1  0.34470600  0.34470599  0.84988397  1
  Fe  Fe14  1  0.49721101  0.00328500  0.00328498  1
  Fe  Fe15  1  0.00328499  0.49721099  0.00328501  1
  Fe  Fe16  1  0.00328500  0.00328500  0.49721099  1
  Fe  Fe17  1  0.09948700  0.09948700  0.09948700  1
  Fe  Fe18  1  0.90255399  0.90255398  0.90255396  1
