# generated using pymatgen
data_EuY2TaCN3
_symmetry_space_group_name_H-M   'P 1'
_cell_length_a   3.63798189
_cell_length_b   3.63798308
_cell_length_c   12.66618347
_cell_angle_alpha   90.00000000
_cell_angle_beta   90.00000000
_cell_angle_gamma   119.99999237
_symmetry_Int_Tables_number   1
_chemical_formula_structural   EuY2TaCN3
_chemical_formula_sum   'Eu1 Y2 Ta1 C1 N3'
_cell_volume   145.17694325
_cell_formula_units_Z   1
loop_
 _symmetry_equiv_pos_site_id
 _symmetry_equiv_pos_as_xyz
  1  'x, y, z'
loop_
 _atom_site_type_symbol
 _atom_site_label
 _atom_site_symmetry_multiplicity
 _atom_site_fract_x
 _atom_site_fract_y
 _atom_site_fract_z
 _atom_site_occupancy
  Eu  Eu0  1  0.33333336  0.66666666  0.39999999  1
  Y  Y1  1  0.66666670  0.33333333  0.59999998  1
  Y  Y2  1  0.66666670  0.33333333  0.89999997  1
  Ta  Ta3  1  0.33333336  0.66666666  0.10000000  1
  C  C4  1  0.33333336  0.66666666  0.74999997  1
  N  N5  1  0.66666670  0.33333333  0.24999999  1
  N  N6  1  0.00000000  0.00000000  0.49999998  1
  N  N7  1  0.00000000  0.00000000  0.00000000  1
