# generated using pymatgen
data_LiZnCu2Ge
_symmetry_space_group_name_H-M   'P 1'
_cell_length_a   4.08813381
_cell_length_b   4.08813381
_cell_length_c   6.15055990
_cell_angle_alpha   109.41076660
_cell_angle_beta   109.41076660
_cell_angle_gamma   90.00000000
_symmetry_Int_Tables_number   1
_chemical_formula_structural   LiZnCu2Ge
_chemical_formula_sum   'Li1 Zn1 Cu2 Ge1'
_cell_volume   90.73234457
_cell_formula_units_Z   1
loop_
 _symmetry_equiv_pos_site_id
 _symmetry_equiv_pos_as_xyz
  1  'x, y, z'
loop_
 _atom_site_type_symbol
 _atom_site_label
 _atom_site_symmetry_multiplicity
 _atom_site_fract_x
 _atom_site_fract_y
 _atom_site_fract_z
 _atom_site_occupancy
  Li  Li0  1  0.00000000  0.00000000  0.00000000  1
  Zn  Zn1  1  0.75000004  0.25000001  0.49999999  1
  Cu  Cu2  1  0.25000001  0.75000004  0.49999999  1
  Cu  Cu3  1  0.62555403  0.62555403  0.25110800  1
  Ge  Ge4  1  0.37444602  0.37444602  0.74889199  1
