# generated using pymatgen
data_K3EuCuNi2RhSeS6
_symmetry_space_group_name_H-M   'P 1'
_cell_length_a   6.86574793
_cell_length_b   6.86574793
_cell_length_c   8.79735661
_cell_angle_alpha   90.00000000
_cell_angle_beta   90.00000000
_cell_angle_gamma   120.00000000
_symmetry_Int_Tables_number   1
_chemical_formula_structural   K3EuCuNi2RhSeS6
_chemical_formula_sum   'K3 Eu1 Cu1 Ni2 Rh1 Se1 S6'
_cell_volume   359.13566612
_cell_formula_units_Z   1
loop_
 _symmetry_equiv_pos_site_id
 _symmetry_equiv_pos_as_xyz
  1  'x, y, z'
loop_
 _atom_site_type_symbol
 _atom_site_label
 _atom_site_symmetry_multiplicity
 _atom_site_fract_x
 _atom_site_fract_y
 _atom_site_fract_z
 _atom_site_occupancy
  Eu  Eu0  1  0.76372600  0.26270699  0.06961700  1
  K  K1  1  0.49898100  0.23627400  0.73628403  1
  K  K2  1  0.50101899  0.73729298  0.93038304  1
  K  K3  1  0.73729300  0.50101899  0.40295102  1
  Ni  Ni4  1  0.26270699  0.76372598  0.26371601  1
  Cu  Cu5  1  0.23627399  0.49898099  0.59704903  1
  S  S6  1  0.37012000  0.37011999  0.16666701  1
  Ni  Ni7  1  -0.00000001  0.62987999  0.83333304  1
  S  S8  1  0.62988001  0.00000000  0.50000002  1
  S  S9  1  0.90782600  0.90782598  0.16666701  1
  S  S10  1  -0.00000000  0.09217400  0.83333304  1
  S  S11  1  0.09217399  0.99999998  0.50000002  1
  S  S12  1  0.69014200  0.69014199  0.66666670  1
  Rh  Rh13  1  -0.00000000  0.30985799  0.33333335  1
  Se  Se14  1  0.30985800  0.00000000  0.00000000  1
