# generated using pymatgen
data_LiYFe2P3
_symmetry_space_group_name_H-M   'P 1'
_cell_length_a   4.03173208
_cell_length_b   5.89263868
_cell_length_c   6.08651447
_cell_angle_alpha   72.59197235
_cell_angle_beta   70.65824890
_cell_angle_gamma   69.99519348
_symmetry_Int_Tables_number   1
_chemical_formula_structural   LiYFe2P3
_chemical_formula_sum   'Li1 Y1 Fe2 P3'
_cell_volume   125.35825630
_cell_formula_units_Z   1
loop_
 _symmetry_equiv_pos_site_id
 _symmetry_equiv_pos_as_xyz
  1  'x, y, z'
loop_
 _atom_site_type_symbol
 _atom_site_label
 _atom_site_symmetry_multiplicity
 _atom_site_fract_x
 _atom_site_fract_y
 _atom_site_fract_z
 _atom_site_occupancy
  Y  Y0  1  0.42790810  0.84135602  0.30282792  1
  Li  Li1  1  0.57209201  0.15864400  0.69717198  1
  Fe  Fe2  1  0.79466503  0.32176401  0.08890597  1
  Fe  Fe3  1  0.20533508  0.67823601  0.91109394  1
  P  P4  1  0.85464006  0.60091001  0.68980994  1
  P  P5  1  0.14536005  0.39909001  0.31018996  1
  P  P6  1  0.00000000  0.00000000  0.00000000  1
