# generated using pymatgen
data_Na2Li3Mg
_symmetry_space_group_name_H-M   'P 1'
_cell_length_a   4.99508190
_cell_length_b   4.99508286
_cell_length_c   7.43690920
_cell_angle_alpha   90.00000000
_cell_angle_beta   90.00000000
_cell_angle_gamma   119.99999237
_symmetry_Int_Tables_number   1
_chemical_formula_structural   Na2Li3Mg
_chemical_formula_sum   'Na2 Li3 Mg1'
_cell_volume   160.69725341
_cell_formula_units_Z   1
loop_
 _symmetry_equiv_pos_site_id
 _symmetry_equiv_pos_as_xyz
  1  'x, y, z'
loop_
 _atom_site_type_symbol
 _atom_site_label
 _atom_site_symmetry_multiplicity
 _atom_site_fract_x
 _atom_site_fract_y
 _atom_site_fract_z
 _atom_site_occupancy
  Li  Li0  1  0.00000000  0.00000000  0.73996598  1
  Na  Na1  1  0.00000000  0.00000000  0.26003399  1
  Na  Na2  1  0.66666667  0.33333334  0.51847099  1
  Li  Li3  1  0.33333332  0.66666667  0.48152899  1
  Mg  Mg4  1  0.33333332  0.66666667  0.04087400  1
  Li  Li5  1  0.66666667  0.33333334  0.95912597  1
