# generated using pymatgen
data_Be7Tc
_symmetry_space_group_name_H-M   'P 1'
_cell_length_a   4.02522182
_cell_length_b   4.02522135
_cell_length_c   7.48202515
_cell_angle_alpha   90.00000000
_cell_angle_beta   90.00000000
_cell_angle_gamma   120.00000000
_symmetry_Int_Tables_number   1
_chemical_formula_structural   Be7Tc
_chemical_formula_sum   'Be7 Tc1'
_cell_volume   104.98551458
_cell_formula_units_Z   1
loop_
 _symmetry_equiv_pos_site_id
 _symmetry_equiv_pos_as_xyz
  1  'x, y, z'
loop_
 _atom_site_type_symbol
 _atom_site_label
 _atom_site_symmetry_multiplicity
 _atom_site_fract_x
 _atom_site_fract_y
 _atom_site_fract_z
 _atom_site_occupancy
  Be  Be0  1  0.66666667  0.33333334  0.09185400  1
  Be  Be1  1  0.33333330  0.66666668  0.90814598  1
  Be  Be2  1  0.33333330  0.66666668  0.56485499  1
  Be  Be3  1  0.66666667  0.33333334  0.43514499  1
  Be  Be4  1  0.00000000  0.00000000  0.27358599  1
  Be  Be5  1  0.00000000  0.00000000  0.72641399  1
  Tc  Tc6  1  0.66666667  0.33333334  0.74866499  1
  Be  Be7  1  0.33333330  0.66666668  0.25133500  1
