# generated using pymatgen
data_Er2Al4CoSi5
_symmetry_space_group_name_H-M   'P 1'
_cell_length_a   5.12526369
_cell_length_b   5.12631464
_cell_length_c   8.48619175
_cell_angle_alpha   90.00000000
_cell_angle_beta   90.00000000
_cell_angle_gamma   119.89974213
_symmetry_Int_Tables_number   1
_chemical_formula_structural   Er2Al4CoSi5
_chemical_formula_sum   'Er2 Al4 Co1 Si5'
_cell_volume   193.28707405
_cell_formula_units_Z   1
loop_
 _symmetry_equiv_pos_site_id
 _symmetry_equiv_pos_as_xyz
  1  'x, y, z'
loop_
 _atom_site_type_symbol
 _atom_site_label
 _atom_site_symmetry_multiplicity
 _atom_site_fract_x
 _atom_site_fract_y
 _atom_site_fract_z
 _atom_site_occupancy
  Er  Er0  1  0.33442799  0.66571501  0.55893702  1
  Er  Er1  1  0.67111100  0.32885201  0.42836401  1
  Al  Al2  1  0.67111100  0.32885201  0.07163600  1
  Al  Al3  1  0.33442799  0.66571501  0.94106303  1
  Co  Co4  1  0.99419900  0.00551600  0.48977701  1
  Al  Al5  1  0.99419900  0.00551600  0.01022300  1
  Al  Al6  1  0.34172300  0.16773800  0.75000002  1
  Si  Si7  1  0.83222999  0.65822001  0.75000002  1
  Si  Si8  1  0.83189400  0.16792000  0.75000002  1
  Si  Si9  1  0.63784599  0.82054601  0.25000001  1
  Si  Si10  1  0.17966099  0.36239901  0.25000001  1
  Si  Si11  1  0.17716998  0.82301001  0.25000001  1
