# generated using pymatgen
data_HfMn2Fe8Ir
_symmetry_space_group_name_H-M   'P 1'
_cell_length_a   4.95712996
_cell_length_b   4.95712996
_cell_length_c   9.19976521
_cell_angle_alpha   74.37047577
_cell_angle_beta   74.37047577
_cell_angle_gamma   60.00000000
_symmetry_Int_Tables_number   1
_chemical_formula_structural   HfMn2Fe8Ir
_chemical_formula_sum   'Hf1 Mn2 Fe8 Ir1'
_cell_volume   186.06502519
_cell_formula_units_Z   1
loop_
 _symmetry_equiv_pos_site_id
 _symmetry_equiv_pos_as_xyz
  1  'x, y, z'
loop_
 _atom_site_type_symbol
 _atom_site_label
 _atom_site_symmetry_multiplicity
 _atom_site_fract_x
 _atom_site_fract_y
 _atom_site_fract_z
 _atom_site_occupancy
  Mn  Mn0  1  0.83082301  0.83082301  0.50753097  1
  Hf  Hf1  1  0.25000001  0.90383901  0.24999997  1
  Mn  Mn2  1  0.75000001  0.09616100  0.75000000  1
  Fe  Fe3  1  0.66917701  0.66917701  0.99246899  1
  Fe  Fe4  1  0.09616100  0.40383900  0.75000001  1
  Fe  Fe5  1  0.16917700  0.16917700  0.49246901  1
  Fe  Fe6  1  0.90383901  0.59616101  0.24999996  1
  Fe  Fe7  1  0.33082300  0.33082300  0.00753098  1
  Fe  Fe8  1  0.40383901  0.75000001  0.74999999  1
  Fe  Fe9  1  0.59616101  0.25000000  0.24999998  1
  Ir  Ir10  1  0.00000000  0.00000000  0.00000000  1
  Fe  Fe11  1  0.50000001  0.50000000  0.49999999  1
