# generated using pymatgen
data_BaLaInCu(PdAu)2
_symmetry_space_group_name_H-M   'P 1'
_cell_length_a   4.89706898
_cell_length_b   6.49187994
_cell_length_c   6.49187994
_cell_angle_alpha   60.00000000
_cell_angle_beta   90.00000000
_cell_angle_gamma   90.00000000
_symmetry_Int_Tables_number   1
_chemical_formula_structural   BaLaInCu(PdAu)2
_chemical_formula_sum   'Ba1 La1 In1 Cu1 Pd2 Au2'
_cell_volume   178.73426218
_cell_formula_units_Z   1
loop_
 _symmetry_equiv_pos_site_id
 _symmetry_equiv_pos_as_xyz
  1  'x, y, z'
loop_
 _atom_site_type_symbol
 _atom_site_label
 _atom_site_symmetry_multiplicity
 _atom_site_fract_x
 _atom_site_fract_y
 _atom_site_fract_z
 _atom_site_occupancy
  Ba  Ba0  1  0.25000000  0.66666667  0.66666667  1
  La  La1  1  0.75000000  0.33333334  0.33333334  1
  In  In2  1  0.25000000  0.16963900  0.16963900  1
  Cu  Cu3  1  0.75000000  0.83036101  0.83036101  1
  Pd  Pd4  1  0.75000000  0.83036101  0.33927800  1
  Au  Au5  1  0.25000000  0.66072201  0.16963900  1
  Au  Au6  1  0.25000000  0.16963900  0.66072201  1
  Pd  Pd7  1  0.75000000  0.33927800  0.83036101  1
