# generated using pymatgen
data_DyYIn6
_symmetry_space_group_name_H-M   'P 1'
_cell_length_a   5.10823202
_cell_length_b   6.78572178
_cell_length_c   6.78572226
_cell_angle_alpha   60.00000000
_cell_angle_beta   90.00000000
_cell_angle_gamma   90.00000000
_symmetry_Int_Tables_number   1
_chemical_formula_structural   DyYIn6
_chemical_formula_sum   'Y1 Dy1 In6'
_cell_volume   203.70110071
_cell_formula_units_Z   1
loop_
 _symmetry_equiv_pos_site_id
 _symmetry_equiv_pos_as_xyz
  1  'x, y, z'
loop_
 _atom_site_type_symbol
 _atom_site_label
 _atom_site_symmetry_multiplicity
 _atom_site_fract_x
 _atom_site_fract_y
 _atom_site_fract_z
 _atom_site_occupancy
  Y  Y0  1  0.25000000  0.33333335  0.33333333  1
  Dy  Dy1  1  0.75000000  0.66666670  0.66666665  1
  In  In2  1  0.25000000  0.83591304  0.32817398  1
  In  In3  1  0.25000000  0.83591304  0.83591398  1
  In  In4  1  0.25000000  0.32817302  0.83591400  1
  In  In5  1  0.75000000  0.16408701  0.67182600  1
  In  In6  1  0.75000000  0.16408701  0.16408600  1
  In  In7  1  0.75000000  0.67182703  0.16408598  1
