# generated using pymatgen
data_K3RbTlBrCl4
_symmetry_space_group_name_H-M   'P 1'
_cell_length_a   8.29325390
_cell_length_b   8.29325390
_cell_length_c   8.29325390
_cell_angle_alpha   60.00000000
_cell_angle_beta   60.00000000
_cell_angle_gamma   60.00000000
_symmetry_Int_Tables_number   1
_chemical_formula_structural   K3RbTlBrCl4
_chemical_formula_sum   'K3 Rb1 Tl1 Br1 Cl4'
_cell_volume   403.32940603
_cell_formula_units_Z   1
loop_
 _symmetry_equiv_pos_site_id
 _symmetry_equiv_pos_as_xyz
  1  'x, y, z'
loop_
 _atom_site_type_symbol
 _atom_site_label
 _atom_site_symmetry_multiplicity
 _atom_site_fract_x
 _atom_site_fract_y
 _atom_site_fract_z
 _atom_site_occupancy
  K  K0  1  0.73242999  0.26757000  0.73242999  1
  Rb  Rb1  1  0.26757000  0.73242999  0.73242999  1
  K  K2  1  0.73242999  0.26757000  0.26757000  1
  K  K3  1  0.73242999  0.73242999  0.26757000  1
  Tl  Tl4  1  0.26757000  0.26757000  0.73242999  1
  Br  Br5  1  0.26757000  0.73242999  0.26757000  1
  Cl  Cl6  1  0.74999999  0.74999999  0.74999999  1
  Cl  Cl7  1  0.25000000  0.25000000  0.25000000  1
  Cl  Cl8  1  0.49999999  0.49999999  0.49999999  1
  Cl  Cl9  1  0.00000000  0.00000000  0.00000000  1
