# generated using pymatgen
data_LiCaCl2
_symmetry_space_group_name_H-M   'P 1'
_cell_length_a   4.19287300
_cell_length_b   4.19287300
_cell_length_c   7.26829147
_cell_angle_alpha   73.23565674
_cell_angle_beta   73.23565674
_cell_angle_gamma   60.00001144
_symmetry_Int_Tables_number   1
_chemical_formula_structural   LiCaCl2
_chemical_formula_sum   'Li1 Ca1 Cl2'
_cell_volume   104.34103029
_cell_formula_units_Z   1
loop_
 _symmetry_equiv_pos_site_id
 _symmetry_equiv_pos_as_xyz
  1  'x, y, z'
loop_
 _atom_site_type_symbol
 _atom_site_label
 _atom_site_symmetry_multiplicity
 _atom_site_fract_x
 _atom_site_fract_y
 _atom_site_fract_z
 _atom_site_occupancy
  Li  Li0  1  0.50000002  0.50000003  0.49999997  1
  Ca  Ca1  1  0.00000000  0.00000000  0.00000000  1
  Cl  Cl2  1  0.24720801  0.24720802  0.25837598  1
  Cl  Cl3  1  0.75279203  0.75279205  0.74162395  1
