# generated using pymatgen
data_DyErIn4
_symmetry_space_group_name_H-M   'P 1'
_cell_length_a   4.51672220
_cell_length_b   4.51672220
_cell_length_c   8.71845436
_cell_angle_alpha   105.01264954
_cell_angle_beta   105.01264954
_cell_angle_gamma   90.00000000
_symmetry_Int_Tables_number   1
_chemical_formula_structural   DyErIn4
_chemical_formula_sum   'Dy1 Er1 In4'
_cell_volume   165.49931079
_cell_formula_units_Z   1
loop_
 _symmetry_equiv_pos_site_id
 _symmetry_equiv_pos_as_xyz
  1  'x, y, z'
loop_
 _atom_site_type_symbol
 _atom_site_label
 _atom_site_symmetry_multiplicity
 _atom_site_fract_x
 _atom_site_fract_y
 _atom_site_fract_z
 _atom_site_occupancy
  Er  Er0  1  0.66435498  0.66435497  0.32870999  1
  Dy  Dy1  1  0.33564499  0.33564499  0.67128997  1
  In  In2  1  0.99999996  0.49999998  0.00000001  1
  In  In3  1  0.49999998  0.00000000  0.00000000  1
  In  In4  1  0.86687897  0.86687896  0.73375798  1
  In  In5  1  0.13312100  0.13312099  0.26624199  1
