# generated using pymatgen
data_MgMnGa5Cu4SiGe6
_symmetry_space_group_name_H-M   'P 1'
_cell_length_a   4.92185545
_cell_length_b   4.92185545
_cell_length_c   12.35815239
_cell_angle_alpha   78.51367950
_cell_angle_beta   78.51367950
_cell_angle_gamma   60.00000763
_symmetry_Int_Tables_number   1
_chemical_formula_structural   MgMnGa5Cu4SiGe6
_chemical_formula_sum   'Mg1 Mn1 Ga5 Cu4 Si1 Ge6'
_cell_volume   252.31679212
_cell_formula_units_Z   1
loop_
 _symmetry_equiv_pos_site_id
 _symmetry_equiv_pos_as_xyz
  1  'x, y, z'
loop_
 _atom_site_type_symbol
 _atom_site_label
 _atom_site_symmetry_multiplicity
 _atom_site_fract_x
 _atom_site_fract_y
 _atom_site_fract_z
 _atom_site_occupancy
  Mn  Mn0  1  0.94925193  0.94925199  0.15224405  1
  Mg  Mg1  1  0.85267994  0.85267999  0.44196003  1
  Ga  Ga2  1  0.14731999  0.14732000  0.55803999  1
  Ga  Ga3  1  0.05074800  0.05074800  0.84775598  1
  Ga  Ga4  1  -0.00000002  0.49999999  0.00000001  1
  Ga  Ga5  1  0.49999996  0.49999999  0.00000003  1
  Ga  Ga6  1  0.49999998  0.00000000  0.00000001  1
  Cu  Cu7  1  0.61165395  0.61165399  0.16503803  1
  Ge  Ge8  1  0.27809698  0.27809700  0.16570901  1
  Ge  Ge9  1  0.89107295  0.38981099  0.32930503  1
  Ge  Ge10  1  0.38981095  0.89107299  0.32930503  1
  Ge  Ge11  1  0.38981097  0.38981099  0.32930501  1
  Cu  Cu12  1  0.49999996  0.49999999  0.50000001  1
  Ge  Ge13  1  0.61018895  0.61018899  0.67069502  1
  Ge  Ge14  1  0.61018898  0.10892700  0.67069500  1
  Si  Si15  1  0.10892697  0.61018899  0.67069500  1
  Cu  Cu16  1  0.72190295  0.72190299  0.83429102  1
  Cu  Cu17  1  0.38834597  0.38834599  0.83496200  1
