# generated using pymatgen
data_LiLaCu4
_symmetry_space_group_name_H-M   'P 1'
_cell_length_a   4.11181879
_cell_length_b   4.11181879
_cell_length_c   6.59829187
_cell_angle_alpha   90.00000000
_cell_angle_beta   90.00000000
_cell_angle_gamma   90.00000000
_symmetry_Int_Tables_number   1
_chemical_formula_structural   LiLaCu4
_chemical_formula_sum   'Li1 La1 Cu4'
_cell_volume   111.55767547
_cell_formula_units_Z   1
loop_
 _symmetry_equiv_pos_site_id
 _symmetry_equiv_pos_as_xyz
  1  'x, y, z'
loop_
 _atom_site_type_symbol
 _atom_site_label
 _atom_site_symmetry_multiplicity
 _atom_site_fract_x
 _atom_site_fract_y
 _atom_site_fract_z
 _atom_site_occupancy
  Li  Li0  1  0.50000003  0.00000000  0.68957301  1
  La  La1  1  0.00000000  0.50000003  0.31042701  1
  Cu  Cu2  1  0.00000000  0.00000000  0.00000000  1
  Cu  Cu3  1  0.50000003  0.50000003  0.00000000  1
  Cu  Cu4  1  0.50000003  0.00000000  0.18488200  1
  Cu  Cu5  1  0.00000000  0.50000003  0.81511802  1
