# generated using pymatgen
data_Mn7Fe4Ni
_symmetry_space_group_name_H-M   'P 1'
_cell_length_a   4.77116394
_cell_length_b   4.77116394
_cell_length_c   7.87832403
_cell_angle_alpha   90.00000000
_cell_angle_beta   90.00000000
_cell_angle_gamma   120.00000000
_symmetry_Int_Tables_number   1
_chemical_formula_structural   Mn7Fe4Ni
_chemical_formula_sum   'Mn7 Fe4 Ni1'
_cell_volume   155.31491016
_cell_formula_units_Z   1
loop_
 _symmetry_equiv_pos_site_id
 _symmetry_equiv_pos_as_xyz
  1  'x, y, z'
loop_
 _atom_site_type_symbol
 _atom_site_label
 _atom_site_symmetry_multiplicity
 _atom_site_fract_x
 _atom_site_fract_y
 _atom_site_fract_z
 _atom_site_occupancy
  Mn  Mn0  1  0.66666667  0.33333332  0.49911600  1
  Mn  Mn1  1  0.66666667  0.33333332  0.99190500  1
  Mn  Mn2  1  0.49525799  0.50474298  0.25184200  1
  Fe  Fe3  1  0.49525798  0.99051596  0.25184200  1
  Fe  Fe4  1  0.00948499  0.50474298  0.25184200  1
  Mn  Mn5  1  0.84019401  0.15980699  0.74884400  1
  Mn  Mn6  1  0.84019399  0.68038797  0.74884400  1
  Mn  Mn7  1  0.31961300  0.15980699  0.74884400  1
  Mn  Mn8  1  0.33333332  0.66666664  0.55687300  1
  Ni  Ni9  1  0.33333332  0.66666664  0.93474600  1
  Fe  Fe10  1  0.00000000  0.00000000  0.07725900  1
  Fe  Fe11  1  0.00000000  0.00000000  0.43809300  1
