# generated using pymatgen
data_RbBeTlH
_symmetry_space_group_name_H-M   'P 1'
_cell_length_a   3.65600991
_cell_length_b   3.65600991
_cell_length_c   6.51450777
_cell_angle_alpha   90.00000000
_cell_angle_beta   90.00000000
_cell_angle_gamma   90.00000000
_symmetry_Int_Tables_number   1
_chemical_formula_structural   RbBeTlH
_chemical_formula_sum   'Rb1 Be1 Tl1 H1'
_cell_volume   87.07557191
_cell_formula_units_Z   1
loop_
 _symmetry_equiv_pos_site_id
 _symmetry_equiv_pos_as_xyz
  1  'x, y, z'
loop_
 _atom_site_type_symbol
 _atom_site_label
 _atom_site_symmetry_multiplicity
 _atom_site_fract_x
 _atom_site_fract_y
 _atom_site_fract_z
 _atom_site_occupancy
  Tl  Tl0  1  0.50000001  0.50000001  0.00000000  1
  Be  Be1  1  0.00000000  0.00000000  0.00000000  1
  Rb  Rb2  1  0.00000000  0.50000001  0.72030903  1
  H  H3  1  0.50000001  0.00000000  0.27969101  1
