# generated using pymatgen
data_K3Na4Li3CuAg
_symmetry_space_group_name_H-M   'P 1'
_cell_length_a   4.47214317
_cell_length_b   8.06966591
_cell_length_c   8.74549675
_cell_angle_alpha   90.00000000
_cell_angle_beta   90.00000000
_cell_angle_gamma   90.00000000
_symmetry_Int_Tables_number   1
_chemical_formula_structural   K3Na4Li3CuAg
_chemical_formula_sum   'K3 Na4 Li3 Cu1 Ag1'
_cell_volume   315.61361996
_cell_formula_units_Z   1
loop_
 _symmetry_equiv_pos_site_id
 _symmetry_equiv_pos_as_xyz
  1  'x, y, z'
loop_
 _atom_site_type_symbol
 _atom_site_label
 _atom_site_symmetry_multiplicity
 _atom_site_fract_x
 _atom_site_fract_y
 _atom_site_fract_z
 _atom_site_occupancy
  K  K0  1  0.00000000  0.60776701  0.25000001  1
  K  K1  1  0.00000000  0.39223300  0.75000002  1
  K  K2  1  0.49999998  0.94490901  0.25000001  1
  Na  Na3  1  0.49999998  0.05509100  0.75000002  1
  Li  Li4  1  0.49999998  0.70040701  0.56833702  1
  Na  Na5  1  0.49999998  0.29959300  0.43166301  1
  Na  Na6  1  0.00000000  0.00000000  0.00000000  1
  Na  Na7  1  0.49999998  0.70040701  0.93166303  1
  Li  Li8  1  0.49999998  0.29959300  0.06833700  1
  Li  Li9  1  0.00000000  0.00000000  0.50000001  1
  Ag  Ag10  1  0.00000000  0.81585801  0.75000002  1
  Cu  Cu11  1  0.00000000  0.18414200  0.25000001  1
