# generated using pymatgen
data_NaNb2Tl(CuS4)2
_symmetry_space_group_name_H-M   'P 1'
_cell_length_a   8.16061211
_cell_length_b   8.16061211
_cell_length_c   8.16061211
_cell_angle_alpha   60.00000000
_cell_angle_beta   60.00000000
_cell_angle_gamma   60.00000000
_symmetry_Int_Tables_number   1
_chemical_formula_structural   NaNb2Tl(CuS4)2
_chemical_formula_sum   'Na1 Nb2 Tl1 Cu2 S8'
_cell_volume   384.28480113
_cell_formula_units_Z   1
loop_
 _symmetry_equiv_pos_site_id
 _symmetry_equiv_pos_as_xyz
  1  'x, y, z'
loop_
 _atom_site_type_symbol
 _atom_site_label
 _atom_site_symmetry_multiplicity
 _atom_site_fract_x
 _atom_site_fract_y
 _atom_site_fract_z
 _atom_site_occupancy
  Na  Na0  1  0.37499999  0.37499999  0.87499998  1
  Tl  Tl1  1  0.37499999  0.37499999  0.37499999  1
  Nb  Nb2  1  0.37499999  0.87499998  0.37499999  1
  Nb  Nb3  1  0.87499998  0.37499999  0.37499999  1
  Cu  Cu4  1  0.74999998  0.74999998  0.74999998  1
  Cu  Cu5  1  0.00000000  0.00000000  0.00000000  1
  S  S6  1  0.61608098  0.61607998  0.15175900  1
  S  S7  1  0.61608098  0.61607998  0.61607998  1
  S  S8  1  0.61608098  0.15175900  0.61607998  1
  S  S9  1  0.15176000  0.61607998  0.61607998  1
  S  S10  1  0.13391900  0.13392000  0.59824098  1
  S  S11  1  0.13391900  0.13392000  0.13392000  1
  S  S12  1  0.13391900  0.59824098  0.13392000  1
  S  S13  1  0.59823998  0.13392000  0.13392000  1
