# generated using pymatgen
data_LaYErInSnPd3Au
_symmetry_space_group_name_H-M   'P 1'
_cell_length_a   4.06588888
_cell_length_b   6.95477200
_cell_length_c   6.95477200
_cell_angle_alpha   120.00000000
_cell_angle_beta   90.00000000
_cell_angle_gamma   90.00000000
_symmetry_Int_Tables_number   1
_chemical_formula_structural   LaYErInSnPd3Au
_chemical_formula_sum   'La1 Y1 Er1 In1 Sn1 Pd3 Au1'
_cell_volume   170.31462026
_cell_formula_units_Z   1
loop_
 _symmetry_equiv_pos_site_id
 _symmetry_equiv_pos_as_xyz
  1  'x, y, z'
loop_
 _atom_site_type_symbol
 _atom_site_label
 _atom_site_symmetry_multiplicity
 _atom_site_fract_x
 _atom_site_fract_y
 _atom_site_fract_z
 _atom_site_occupancy
  Er  Er0  1  -0.00000000  0.58234099  -0.00000001  1
  Y  Y1  1  -0.00000000  0.41765900  0.41765898  1
  La  La2  1  -0.00000000  0.99999999  0.58234096  1
  In  In3  1  0.50000001  0.25318000  -0.00000000  1
  Sn  Sn4  1  0.50000001  0.74681999  0.74681996  1
  Au  Au5  1  0.50000001  0.99999999  0.25317997  1
  Pd  Pd6  1  0.50000001  0.33333333  0.66666664  1
  Pd  Pd7  1  0.50000001  0.66666666  0.33333331  1
  Pd  Pd8  1  0.00000000  0.00000000  0.00000000  1
