# generated using pymatgen
data_InGaGePdAu
_symmetry_space_group_name_H-M   'P 1'
_cell_length_a   4.39060402
_cell_length_b   4.39060354
_cell_length_c   7.62054777
_cell_angle_alpha   90.00000000
_cell_angle_beta   90.00000000
_cell_angle_gamma   120.00000763
_symmetry_Int_Tables_number   1
_chemical_formula_structural   InGaGePdAu
_chemical_formula_sum   'In1 Ga1 Ge1 Pd1 Au1'
_cell_volume   127.22289747
_cell_formula_units_Z   1
loop_
 _symmetry_equiv_pos_site_id
 _symmetry_equiv_pos_as_xyz
  1  'x, y, z'
loop_
 _atom_site_type_symbol
 _atom_site_label
 _atom_site_symmetry_multiplicity
 _atom_site_fract_x
 _atom_site_fract_y
 _atom_site_fract_z
 _atom_site_occupancy
  In  In0  1  0.00000000  0.00000000  0.00000000  1
  Ga  Ga1  1  0.33333338  0.66666668  0.62307302  1
  Ge  Ge2  1  0.66666669  0.33333334  0.37692701  1
  Au  Au3  1  0.33333338  0.66666668  0.27675601  1
  Pd  Pd4  1  0.66666669  0.33333334  0.72324402  1
