# generated using pymatgen
data_Be
_symmetry_space_group_name_H-M   'P 1'
_cell_length_a   3.94046688
_cell_length_b   4.87334013
_cell_length_c   4.87334061
_cell_angle_alpha   60.00000381
_cell_angle_beta   90.00000000
_cell_angle_gamma   90.00000000
_symmetry_Int_Tables_number   1
_chemical_formula_structural   Be
_chemical_formula_sum   Be6
_cell_volume   81.04604375
_cell_formula_units_Z   6
loop_
 _symmetry_equiv_pos_site_id
 _symmetry_equiv_pos_as_xyz
  1  'x, y, z'
loop_
 _atom_site_type_symbol
 _atom_site_label
 _atom_site_symmetry_multiplicity
 _atom_site_fract_x
 _atom_site_fract_y
 _atom_site_fract_z
 _atom_site_occupancy
  Be  Be0  1  0.00000000  0.00000000  0.00000000  1
  Be  Be1  1  1.00000003  0.66666665  0.66666667  1
  Be  Be2  1  -0.00000000  0.33333333  0.33333333  1
  Be  Be3  1  0.50000002  0.49999999  -0.00000001  1
  Be  Be4  1  0.50000002  0.00000000  0.50000001  1
  Be  Be5  1  0.50000002  0.49999999  0.50000000  1
