# generated using pymatgen
data_NaLiZnCu4P5
_symmetry_space_group_name_H-M   'P 1'
_cell_length_a   5.48061800
_cell_length_b   5.48061752
_cell_length_c   7.73031092
_cell_angle_alpha   90.00000000
_cell_angle_beta   90.00000000
_cell_angle_gamma   120.00000000
_symmetry_Int_Tables_number   1
_chemical_formula_structural   NaLiZnCu4P5
_chemical_formula_sum   'Na1 Li1 Zn1 Cu4 P5'
_cell_volume   201.08821600
_cell_formula_units_Z   1
loop_
 _symmetry_equiv_pos_site_id
 _symmetry_equiv_pos_as_xyz
  1  'x, y, z'
loop_
 _atom_site_type_symbol
 _atom_site_label
 _atom_site_symmetry_multiplicity
 _atom_site_fract_x
 _atom_site_fract_y
 _atom_site_fract_z
 _atom_site_occupancy
  Na  Na0  1  0.00000000  0.00000000  0.50000001  1
  Li  Li1  1  0.00000000  0.00000000  0.00000000  1
  Cu  Cu2  1  0.33333330  0.66666667  0.50000001  1
  Cu  Cu3  1  0.66666665  0.33333333  0.50000001  1
  Zn  Zn4  1  0.33333330  0.66666667  -0.00000000  1
  Cu  Cu5  1  0.50000000  0.00000000  0.69992401  1
  P  P6  1  0.49999998  0.50000000  0.69992401  1
  P  P7  1  0.49999998  0.50000000  0.30007600  1
  P  P8  1  0.50000000  0.00000000  0.30007600  1
  P  P9  1  0.99999998  0.50000000  0.30007600  1
  Cu  Cu10  1  0.66666665  0.33333333  1.00000001  1
  P  P11  1  0.99999998  0.50000000  0.69992401  1
