# generated using pymatgen
data_Er5MgScAl
_symmetry_space_group_name_H-M   'P 1'
_cell_length_a   4.66217899
_cell_length_b   6.47285414
_cell_length_c   6.47285414
_cell_angle_alpha   90.00000000
_cell_angle_beta   90.00000000
_cell_angle_gamma   90.00000000
_symmetry_Int_Tables_number   1
_chemical_formula_structural   Er5MgScAl
_chemical_formula_sum   'Er5 Mg1 Sc1 Al1'
_cell_volume   195.33523270
_cell_formula_units_Z   1
loop_
 _symmetry_equiv_pos_site_id
 _symmetry_equiv_pos_as_xyz
  1  'x, y, z'
loop_
 _atom_site_type_symbol
 _atom_site_label
 _atom_site_symmetry_multiplicity
 _atom_site_fract_x
 _atom_site_fract_y
 _atom_site_fract_z
 _atom_site_occupancy
  Er  Er0  1  0.50000000  0.49999999  0.49999999  1
  Er  Er1  1  0.50000000  0.49999999  -0.00000000  1
  Er  Er2  1  0.50000000  0.00000000  0.49999999  1
  Er  Er3  1  1.00000000  0.23472900  0.76527098  1
  Er  Er4  1  1.00000000  0.76527098  0.23472900  1
  Mg  Mg5  1  0.00000000  0.23472900  0.23472900  1
  Al  Al6  1  1.00000000  0.76527098  0.76527098  1
  Sc  Sc7  1  0.50000000  0.00000000  -0.00000000  1
