# generated using pymatgen
data_ErIn4Au
_symmetry_space_group_name_H-M   'P 1'
_cell_length_a   4.05012798
_cell_length_b   5.65450382
_cell_length_c   7.51561642
_cell_angle_alpha   112.09748840
_cell_angle_beta   105.63139343
_cell_angle_gamma   90.00000000
_symmetry_Int_Tables_number   1
_chemical_formula_structural   ErIn4Au
_chemical_formula_sum   'Er1 In4 Au1'
_cell_volume   152.58331680
_cell_formula_units_Z   1
loop_
 _symmetry_equiv_pos_site_id
 _symmetry_equiv_pos_as_xyz
  1  'x, y, z'
loop_
 _atom_site_type_symbol
 _atom_site_label
 _atom_site_symmetry_multiplicity
 _atom_site_fract_x
 _atom_site_fract_y
 _atom_site_fract_z
 _atom_site_occupancy
  Er  Er0  1  0.15001800  0.15001800  0.30003600  1
  In  In1  1  0.84998202  0.84998203  0.69996401  1
  In  In2  1  0.79320201  0.29320201  0.58640401  1
  In  In3  1  0.20679801  0.70679802  0.41359600  1
  In  In4  1  0.50000001  0.21443101  0.00000001  1
  Au  Au5  1  0.50000002  0.78556903  0.00000001  1
