# generated using pymatgen
data_Pm
_symmetry_space_group_name_H-M   'P 1'
_cell_length_a   5.02092981
_cell_length_b   5.02092981
_cell_length_c   6.16784143
_cell_angle_alpha   114.01808167
_cell_angle_beta   114.01808167
_cell_angle_gamma   90.00000000
_symmetry_Int_Tables_number   1
_chemical_formula_structural   Pm
_chemical_formula_sum   Pm4
_cell_volume   127.14656603
_cell_formula_units_Z   4
loop_
 _symmetry_equiv_pos_site_id
 _symmetry_equiv_pos_as_xyz
  1  'x, y, z'
loop_
 _atom_site_type_symbol
 _atom_site_label
 _atom_site_symmetry_multiplicity
 _atom_site_fract_x
 _atom_site_fract_y
 _atom_site_fract_z
 _atom_site_occupancy
  Pm  Pm0  1  0.75000004  0.25000001  0.50000000  1
  Pm  Pm1  1  0.25000003  0.75000004  0.50000001  1
  Pm  Pm2  1  0.50000003  0.50000003  0.00000002  1
  Pm  Pm3  1  0.00000000  0.00000000  0.00000000  1
