# generated using pymatgen
data_ScTiSiNiPRh
_symmetry_space_group_name_H-M   'P 1'
_cell_length_a   5.03597927
_cell_length_b   5.03597927
_cell_length_c   5.03597927
_cell_angle_alpha   60.00000000
_cell_angle_beta   60.00000000
_cell_angle_gamma   60.00000000
_symmetry_Int_Tables_number   1
_chemical_formula_structural   ScTiSiNiPRh
_chemical_formula_sum   'Sc1 Ti1 Si1 Ni1 P1 Rh1'
_cell_volume   90.31019990
_cell_formula_units_Z   1
loop_
 _symmetry_equiv_pos_site_id
 _symmetry_equiv_pos_as_xyz
  1  'x, y, z'
loop_
 _atom_site_type_symbol
 _atom_site_label
 _atom_site_symmetry_multiplicity
 _atom_site_fract_x
 _atom_site_fract_y
 _atom_site_fract_z
 _atom_site_occupancy
  Ti  Ti0  1  0.00000000  0.00000000  0.00000000  1
  Sc  Sc1  1  0.74999998  0.74999998  0.74999998  1
  Ni  Ni2  1  0.87004398  0.37665199  0.37665199  1
  Si  Si3  1  0.37665099  0.87004498  0.37665199  1
  P  P4  1  0.37665099  0.37665199  0.87004498  1
  Rh  Rh5  1  0.37665099  0.37665199  0.37665199  1
