# generated using pymatgen
data_TaRu2
_symmetry_space_group_name_H-M   'P 1'
_cell_length_a   3.49145365
_cell_length_b   3.49145365
_cell_length_c   7.25321102
_cell_angle_alpha   76.07313538
_cell_angle_beta   76.07313538
_cell_angle_gamma   60.00000763
_symmetry_Int_Tables_number   1
_chemical_formula_structural   TaRu2
_chemical_formula_sum   'Ta1 Ru2'
_cell_volume   73.55605436
_cell_formula_units_Z   1
loop_
 _symmetry_equiv_pos_site_id
 _symmetry_equiv_pos_as_xyz
  1  'x, y, z'
loop_
 _atom_site_type_symbol
 _atom_site_label
 _atom_site_symmetry_multiplicity
 _atom_site_fract_x
 _atom_site_fract_y
 _atom_site_fract_z
 _atom_site_occupancy
  Ta  Ta0  1  0.66747401  0.66747399  0.99757806  1
  Ru  Ru1  1  0.41470901  0.41470900  0.75587304  1
  Ru  Ru2  1  0.25348400  0.25348400  0.23954802  1
