# generated using pymatgen
data_YErAl3(FeSi)2
_symmetry_space_group_name_H-M   'P 1'
_cell_length_a   4.00705481
_cell_length_b   4.07886887
_cell_length_c   10.93652344
_cell_angle_alpha   90.00000000
_cell_angle_beta   79.44403076
_cell_angle_gamma   90.00000000
_symmetry_Int_Tables_number   1
_chemical_formula_structural   YErAl3(FeSi)2
_chemical_formula_sum   'Y1 Er1 Al3 Fe2 Si2'
_cell_volume   175.72420769
_cell_formula_units_Z   1
loop_
 _symmetry_equiv_pos_site_id
 _symmetry_equiv_pos_as_xyz
  1  'x, y, z'
loop_
 _atom_site_type_symbol
 _atom_site_label
 _atom_site_symmetry_multiplicity
 _atom_site_fract_x
 _atom_site_fract_y
 _atom_site_fract_z
 _atom_site_occupancy
  Y  Y0  1  0.22264101  0.50000002  0.55471899  1
  Er  Er1  1  0.88613504  0.50000002  0.22773101  1
  Fe  Fe2  1  0.44554302  0.00000000  0.10891500  1
  Al  Al3  1  0.49990402  0.50000002  0.00019201  1
  Al  Al4  1  0.61653602  0.50000002  0.76692899  1
  Fe  Fe5  1  0.00090500  0.00000000  0.99818998  1
  Si  Si6  1  0.11852200  0.00000000  0.76295598  1
  Al  Al7  1  0.33896401  0.00000000  0.32207200  1
  Si  Si8  1  0.76385203  0.00000000  0.47229600  1
