# generated using pymatgen
data_LaYEr2Si3Ge5
_symmetry_space_group_name_H-M   'P 1'
_cell_length_a   4.24933100
_cell_length_b   6.88491392
_cell_length_c   7.41922188
_cell_angle_alpha   90.00000000
_cell_angle_beta   90.00000000
_cell_angle_gamma   90.00000000
_symmetry_Int_Tables_number   1
_chemical_formula_structural   LaYEr2Si3Ge5
_chemical_formula_sum   'La1 Y1 Er2 Si3 Ge5'
_cell_volume   217.05881885
_cell_formula_units_Z   1
loop_
 _symmetry_equiv_pos_site_id
 _symmetry_equiv_pos_as_xyz
  1  'x, y, z'
loop_
 _atom_site_type_symbol
 _atom_site_label
 _atom_site_symmetry_multiplicity
 _atom_site_fract_x
 _atom_site_fract_y
 _atom_site_fract_z
 _atom_site_occupancy
  Er  Er0  1  0.75000000  0.50028101  0.81296801  1
  La  La1  1  0.25000000  0.99971901  0.31296801  1
  Y  Y2  1  0.75000000  0.00028100  0.68703201  1
  Er  Er3  1  0.25000000  0.49971901  0.18703200  1
  Si  Si4  1  0.25000000  0.79851501  0.89184501  1
  Si  Si5  1  0.25000000  0.29851500  0.60815501  1
  Si  Si6  1  0.75000000  0.20148500  0.10815500  1
  Ge  Ge7  1  0.75000000  0.70148501  0.39184501  1
  Ge  Ge8  1  0.25000000  0.65683201  0.56957801  1
  Ge  Ge9  1  0.25000000  0.15683200  0.93042202  1
  Ge  Ge10  1  0.75000000  0.84316801  0.06957800  1
  Ge  Ge11  1  0.75000000  0.34316800  0.43042201  1
