# generated using pymatgen
data_Ta2Re2TcC2N
_symmetry_space_group_name_H-M   'P 1'
_cell_length_a   3.12913990
_cell_length_b   3.12914014
_cell_length_c   13.62534142
_cell_angle_alpha   90.00000000
_cell_angle_beta   90.00000000
_cell_angle_gamma   120.00000000
_symmetry_Int_Tables_number   1
_chemical_formula_structural   Ta2Re2TcC2N
_chemical_formula_sum   'Ta2 Re2 Tc1 C2 N1'
_cell_volume   115.53884425
_cell_formula_units_Z   1
loop_
 _symmetry_equiv_pos_site_id
 _symmetry_equiv_pos_as_xyz
  1  'x, y, z'
loop_
 _atom_site_type_symbol
 _atom_site_label
 _atom_site_symmetry_multiplicity
 _atom_site_fract_x
 _atom_site_fract_y
 _atom_site_fract_z
 _atom_site_occupancy
  Ta  Ta0  1  0.66666670  0.33333335  0.40990699  1
  Ta  Ta1  1  0.33333338  0.66666670  0.59009298  1
  Re  Re2  1  0.33333338  0.66666670  0.90990697  1
  Tc  Tc3  1  0.66666670  0.33333335  0.09009300  1
  Re  Re4  1  0.66666670  0.33333335  0.74999998  1
  C  C5  1  0.33333338  0.66666670  0.24999999  1
  C  C6  1  0.00000000  0.00000000  0.00000000  1
  N  N7  1  0.00000000  0.00000000  0.49999998  1
