# generated using pymatgen
data_K2NaClO7F
_symmetry_space_group_name_H-M   'P 1'
_cell_length_a   5.41925192
_cell_length_b   5.89219999
_cell_length_c   5.69613695
_cell_angle_alpha   90.00000000
_cell_angle_beta   88.01502991
_cell_angle_gamma   90.00000000
_symmetry_Int_Tables_number   1
_chemical_formula_structural   K2NaClO7F
_chemical_formula_sum   'K2 Na1 Cl1 O7 F1'
_cell_volume   181.77600902
_cell_formula_units_Z   1
loop_
 _symmetry_equiv_pos_site_id
 _symmetry_equiv_pos_as_xyz
  1  'x, y, z'
loop_
 _atom_site_type_symbol
 _atom_site_label
 _atom_site_symmetry_multiplicity
 _atom_site_fract_x
 _atom_site_fract_y
 _atom_site_fract_z
 _atom_site_occupancy
  Na  Na0  1  0.00000000  0.50000000  0.00000000  1
  K  K1  1  0.00000000  0.00000000  0.00000000  1
  K  K2  1  0.50188201  0.75000000  0.99284501  1
  F  F3  1  0.49811801  0.25000000  0.00715500  1
  O  O4  1  0.20726000  0.75000000  0.61366600  1
  O  O5  1  0.79274001  0.25000000  0.38633400  1
  O  O6  1  0.88840601  0.75000000  0.16261400  1
  O  O7  1  0.11159400  0.25000000  0.83738600  1
  O  O8  1  0.31592800  0.50725100  0.12952700  1
  Cl  Cl9  1  0.68407201  0.00725100  0.87047300  1
  O  O10  1  0.68407201  0.49274900  0.87047300  1
  O  O11  1  0.31592800  0.99274900  0.12952700  1
