# generated using pymatgen
data_KNaLi2PO
_symmetry_space_group_name_H-M   'P 1'
_cell_length_a   3.25707793
_cell_length_b   3.25759745
_cell_length_c   14.91631794
_cell_angle_alpha   90.00659943
_cell_angle_beta   90.00000000
_cell_angle_gamma   119.99472809
_symmetry_Int_Tables_number   1
_chemical_formula_structural   KNaLi2PO
_chemical_formula_sum   'K1 Na1 Li2 P1 O1'
_cell_volume   137.06952073
_cell_formula_units_Z   1
loop_
 _symmetry_equiv_pos_site_id
 _symmetry_equiv_pos_as_xyz
  1  'x, y, z'
loop_
 _atom_site_type_symbol
 _atom_site_label
 _atom_site_symmetry_multiplicity
 _atom_site_fract_x
 _atom_site_fract_y
 _atom_site_fract_z
 _atom_site_occupancy
  Li  Li0  1  0.66658436  0.33325100  0.25768600  1
  K  K1  1  0.33337403  0.66674900  0.74231400  1
  Na  Na2  1  0.66677936  0.33344600  0.85739800  1
  Li  Li3  1  0.33327703  0.66655400  0.14260199  1
  P  P4  1  0.33337070  0.66670400  0.36073199  1
  O  O5  1  0.66666669  0.33333333  0.63926800  1
