# generated using pymatgen
data_ErLuAlGePd2
_symmetry_space_group_name_H-M   'P 1'
_cell_length_a   5.51470470
_cell_length_b   5.51470470
_cell_length_c   5.51470470
_cell_angle_alpha   60.00000000
_cell_angle_beta   60.00000000
_cell_angle_gamma   60.00000000
_symmetry_Int_Tables_number   1
_chemical_formula_structural   ErLuAlGePd2
_chemical_formula_sum   'Er1 Lu1 Al1 Ge1 Pd2'
_cell_volume   118.59101576
_cell_formula_units_Z   1
loop_
 _symmetry_equiv_pos_site_id
 _symmetry_equiv_pos_as_xyz
  1  'x, y, z'
loop_
 _atom_site_type_symbol
 _atom_site_label
 _atom_site_symmetry_multiplicity
 _atom_site_fract_x
 _atom_site_fract_y
 _atom_site_fract_z
 _atom_site_occupancy
  Er  Er0  1  0.24999999  0.24999999  0.24999999  1
  Lu  Lu1  1  0.49999999  0.49999999  0.49999999  1
  Al  Al2  1  0.87499998  0.87499998  0.87499998  1
  Ge  Ge3  1  0.87499998  0.37499999  0.87499998  1
  Pd  Pd4  1  0.87499998  0.87499998  0.37499999  1
  Pd  Pd5  1  0.37499999  0.87499998  0.87499998  1
