# generated using pymatgen
data_LiMgCu3
_symmetry_space_group_name_H-M   'P 1'
_cell_length_a   4.09318018
_cell_length_b   4.09318018
_cell_length_c   5.74468374
_cell_angle_alpha   110.87056732
_cell_angle_beta   110.87056732
_cell_angle_gamma   90.00000000
_symmetry_Int_Tables_number   1
_chemical_formula_structural   LiMgCu3
_chemical_formula_sum   'Li1 Mg1 Cu3'
_cell_volume   83.13883746
_cell_formula_units_Z   1
loop_
 _symmetry_equiv_pos_site_id
 _symmetry_equiv_pos_as_xyz
  1  'x, y, z'
loop_
 _atom_site_type_symbol
 _atom_site_label
 _atom_site_symmetry_multiplicity
 _atom_site_fract_x
 _atom_site_fract_y
 _atom_site_fract_z
 _atom_site_occupancy
  Li  Li0  1  0.00000000  0.00000000  0.00000000  1
  Mg  Mg1  1  0.38928897  0.38928898  0.77857801  1
  Cu  Cu2  1  0.61071096  0.61071097  0.22142199  1
  Cu  Cu3  1  0.74999996  0.24999999  0.50000000  1
  Cu  Cu4  1  0.24999998  0.74999996  0.50000000  1
