# generated using pymatgen
data_PuBe6Tc
_symmetry_space_group_name_H-M   'P 1'
_cell_length_a   4.15561819
_cell_length_b   4.15561819
_cell_length_c   7.31918097
_cell_angle_alpha   90.00000000
_cell_angle_beta   90.00000000
_cell_angle_gamma   120.00000000
_symmetry_Int_Tables_number   1
_chemical_formula_structural   PuBe6Tc
_chemical_formula_sum   'Pu1 Be6 Tc1'
_cell_volume   109.46225589
_cell_formula_units_Z   1
loop_
 _symmetry_equiv_pos_site_id
 _symmetry_equiv_pos_as_xyz
  1  'x, y, z'
loop_
 _atom_site_type_symbol
 _atom_site_label
 _atom_site_symmetry_multiplicity
 _atom_site_fract_x
 _atom_site_fract_y
 _atom_site_fract_z
 _atom_site_occupancy
  Be  Be0  1  0.66666665  0.33333334  0.75000000  1
  Pu  Pu1  1  0.33333334  0.66666668  0.25000000  1
  Be  Be2  1  0.33333334  0.66666668  0.92165700  1
  Be  Be3  1  0.66666665  0.33333334  0.42165700  1
  Be  Be4  1  0.66666665  0.33333334  0.07834300  1
  Be  Be5  1  0.00000000  0.00000000  0.25000000  1
  Tc  Tc6  1  0.00000000  0.00000000  0.75000000  1
  Be  Be7  1  0.33333334  0.66666668  0.57834300  1
