# generated using pymatgen
data_Mn2Fe2P3
_symmetry_space_group_name_H-M   'P 1'
_cell_length_a   3.86681795
_cell_length_b   3.86681795
_cell_length_c   6.98422194
_cell_angle_alpha   106.07081604
_cell_angle_beta   106.07081604
_cell_angle_gamma   90.00000000
_symmetry_Int_Tables_number   1
_chemical_formula_structural   Mn2Fe2P3
_chemical_formula_sum   'Mn2 Fe2 P3'
_cell_volume   96.09468927
_cell_formula_units_Z   1
loop_
 _symmetry_equiv_pos_site_id
 _symmetry_equiv_pos_as_xyz
  1  'x, y, z'
loop_
 _atom_site_type_symbol
 _atom_site_label
 _atom_site_symmetry_multiplicity
 _atom_site_fract_x
 _atom_site_fract_y
 _atom_site_fract_z
 _atom_site_occupancy
  Mn  Mn0  1  0.64486601  0.64486601  0.28973201  1
  Mn  Mn1  1  0.35836600  0.35836600  0.71673202  1
  Fe  Fe2  1  0.00336500  0.00336500  0.00673000  1
  Fe  Fe3  1  0.83252201  0.83252201  0.66504402  1
  P  P4  1  0.17585600  0.17585600  0.35171201  1
  P  P5  1  0.99251201  0.49251201  0.98502403  1
  P  P6  1  0.49251200  0.99251201  0.98502403  1
