# generated using pymatgen
data_NaCu2AsP5S7O
_symmetry_space_group_name_H-M   'P 1'
_cell_length_a   6.76454163
_cell_length_b   6.76454163
_cell_length_c   6.76454163
_cell_angle_alpha   109.47122192
_cell_angle_beta   109.47122192
_cell_angle_gamma   109.47122192
_symmetry_Int_Tables_number   1
_chemical_formula_structural   NaCu2AsP5S7O
_chemical_formula_sum   'Na1 Cu2 As1 P5 S7 O1'
_cell_volume   238.28308230
_cell_formula_units_Z   1
loop_
 _symmetry_equiv_pos_site_id
 _symmetry_equiv_pos_as_xyz
  1  'x, y, z'
loop_
 _atom_site_type_symbol
 _atom_site_label
 _atom_site_symmetry_multiplicity
 _atom_site_fract_x
 _atom_site_fract_y
 _atom_site_fract_z
 _atom_site_occupancy
  Na  Na0  1  0.00000000  0.00000000  0.00000000  1
  Cu  Cu1  1  0.00000000  0.00000000  0.50000001  1
  As  As2  1  0.50000001  0.00000000  0.00000001  1
  Cu  Cu3  1  0.00000003  0.50000003  0.00000003  1
  P  P4  1  0.50000005  0.50000003  0.50000005  1
  S  S5  1  0.35314802  0.15158201  0.50473003  1
  P  P6  1  0.64685203  0.15158201  0.79843404  1
  P  P7  1  0.35314806  0.84841805  0.20156606  1
  P  P8  1  0.49527005  0.64685204  0.84841806  1
  O  O9  1  0.84841805  0.49527003  0.64685206  1
  S  S10  1  0.64685207  0.84841805  0.49527007  1
  S  S11  1  0.20156603  0.35314802  0.84841804  1
  P  P12  1  0.15158205  0.79843405  0.64685206  1
  S  S13  1  0.50473004  0.35314802  0.15158203  1
  S  S14  1  0.84841804  0.20156601  0.35314804  1
  S  S15  1  0.79843406  0.64685204  0.15158206  1
  S  S16  1  0.15158204  0.50473003  0.35314804  1
