# generated using pymatgen
data_Cu2AsPSe4
_symmetry_space_group_name_H-M   'P 1'
_cell_length_a   5.72125387
_cell_length_b   5.72125387
_cell_length_c   6.97961712
_cell_angle_alpha   114.19569397
_cell_angle_beta   114.19569397
_cell_angle_gamma   90.00000000
_symmetry_Int_Tables_number   1
_chemical_formula_structural   Cu2AsPSe4
_chemical_formula_sum   'Cu2 As1 P1 Se4'
_cell_volume   186.17043023
_cell_formula_units_Z   1
loop_
 _symmetry_equiv_pos_site_id
 _symmetry_equiv_pos_as_xyz
  1  'x, y, z'
loop_
 _atom_site_type_symbol
 _atom_site_label
 _atom_site_symmetry_multiplicity
 _atom_site_fract_x
 _atom_site_fract_y
 _atom_site_fract_z
 _atom_site_occupancy
  P  P0  1  0.75000005  0.25000001  0.50000004  1
  Cu  Cu1  1  0.50000005  0.50000003  0.00000006  1
  Cu  Cu2  1  0.25000005  0.75000004  0.50000005  1
  As  As3  1  0.00000000  0.00000000  0.00000000  1
  Se  Se4  1  0.13240101  0.13240101  0.73171600  1
  Se  Se5  1  0.59931506  0.59931503  0.73171606  1
  Se  Se6  1  0.86759906  0.40068402  0.26828306  1
  Se  Se7  1  0.40068507  0.86760005  0.26828507  1
