# generated using pymatgen
data_YIn3SnPd3
_symmetry_space_group_name_H-M   'P 1'
_cell_length_a   4.59203911
_cell_length_b   4.59203911
_cell_length_c   11.04825306
_cell_angle_alpha   90.00000000
_cell_angle_beta   90.00000000
_cell_angle_gamma   90.00000000
_symmetry_Int_Tables_number   1
_chemical_formula_structural   YIn3SnPd3
_chemical_formula_sum   'Y1 In3 Sn1 Pd3'
_cell_volume   232.97255862
_cell_formula_units_Z   1
loop_
 _symmetry_equiv_pos_site_id
 _symmetry_equiv_pos_as_xyz
  1  'x, y, z'
loop_
 _atom_site_type_symbol
 _atom_site_label
 _atom_site_symmetry_multiplicity
 _atom_site_fract_x
 _atom_site_fract_y
 _atom_site_fract_z
 _atom_site_occupancy
  Y  Y0  1  0.00000000  0.00000000  0.50000000  1
  In  In1  1  0.49999999  0.00000000  0.83835800  1
  In  In2  1  0.00000000  0.49999999  0.83835800  1
  In  In3  1  0.49999999  0.00000000  0.16164200  1
  Pd  Pd4  1  0.00000000  0.49999999  0.16164200  1
  Pd  Pd5  1  0.49999999  0.49999999  0.70205200  1
  Pd  Pd6  1  0.49999999  0.49999999  0.29794800  1
  Sn  Sn7  1  0.00000000  0.00000000  0.00000000  1
