# generated using pymatgen
data_La7In2Sn6Sb
_symmetry_space_group_name_H-M   'P 1'
_cell_length_a   6.65461540
_cell_length_b   6.65461540
_cell_length_c   10.55021858
_cell_angle_alpha   90.00000000
_cell_angle_beta   90.00000000
_cell_angle_gamma   103.00007629
_symmetry_Int_Tables_number   1
_chemical_formula_structural   La7In2Sn6Sb
_chemical_formula_sum   'La7 In2 Sn6 Sb1'
_cell_volume   455.23031857
_cell_formula_units_Z   1
loop_
 _symmetry_equiv_pos_site_id
 _symmetry_equiv_pos_as_xyz
  1  'x, y, z'
loop_
 _atom_site_type_symbol
 _atom_site_label
 _atom_site_symmetry_multiplicity
 _atom_site_fract_x
 _atom_site_fract_y
 _atom_site_fract_z
 _atom_site_occupancy
  La  La0  1  0.62528900  0.62528900  0.75000003  1
  La  La1  1  0.37471100  0.37471100  0.25000001  1
  La  La2  1  0.20204300  0.79795699  0.50000002  1
  La  La3  1  0.20204300  0.79795699  -0.00000000  1
  La  La4  1  0.79795699  0.20204300  0.50000002  1
  La  La5  1  0.79795699  0.20204300  -0.00000000  1
  La  La6  1  0.00269500  0.00269500  0.75000003  1
  In  In7  1  0.99730500  0.99730499  0.25000001  1
  In  In8  1  0.30583900  0.30583900  0.95024404  1
  Sn  Sn9  1  0.69416100  0.69416100  0.04975600  1
  Sn  Sn10  1  0.30583900  0.30583900  0.54975602  1
  Sn  Sn11  1  0.69416100  0.69416100  0.45024402  1
  Sn  Sn12  1  0.51131000  0.05864600  0.75000003  1
  Sn  Sn13  1  0.94135400  0.48869000  0.25000001  1
  Sb  Sb14  1  0.48869000  0.94135399  0.25000001  1
  Sn  Sn15  1  0.05864600  0.51131000  0.75000003  1
