# generated using pymatgen
data_ErHfInSnPd2Au11
_symmetry_space_group_name_H-M   'P 1'
_cell_length_a   7.50417948
_cell_length_b   7.50417948
_cell_length_c   7.50417948
_cell_angle_alpha   109.47122192
_cell_angle_beta   109.47122192
_cell_angle_gamma   109.47122192
_symmetry_Int_Tables_number   1
_chemical_formula_structural   ErHfInSnPd2Au11
_chemical_formula_sum   'Er1 Hf1 In1 Sn1 Pd2 Au11'
_cell_volume   325.30274358
_cell_formula_units_Z   1
loop_
 _symmetry_equiv_pos_site_id
 _symmetry_equiv_pos_as_xyz
  1  'x, y, z'
loop_
 _atom_site_type_symbol
 _atom_site_label
 _atom_site_symmetry_multiplicity
 _atom_site_fract_x
 _atom_site_fract_y
 _atom_site_fract_z
 _atom_site_occupancy
  Er  Er0  1  0.50000000  0.00000000  0.00000001  1
  Hf  Hf1  1  0.50000003  0.50000002  0.50000004  1
  In  In2  1  0.00000000  0.00000000  0.50000000  1
  Sn  Sn3  1  0.00000003  0.50000002  0.00000003  1
  Au  Au4  1  0.75000002  0.25000001  0.50000003  1
  Au  Au5  1  0.75000003  0.50000002  0.25000004  1
  Au  Au6  1  0.25000003  0.50000002  0.75000003  1
  Au  Au7  1  0.50000005  0.75000002  0.25000005  1
  Au  Au8  1  0.50000002  0.25000001  0.75000002  1
  Au  Au9  1  0.25000005  0.75000002  0.50000004  1
  Au  Au10  1  0.70325004  0.70325002  0.00000006  1
  Au  Au11  1  0.70325000  0.00000000  0.70325001  1
  Au  Au12  1  0.29675006  1.00000003  0.29675006  1
  Au  Au13  1  0.00000002  0.29675001  0.29675001  1
  Au  Au14  1  0.00000004  0.70325002  0.70325003  1
  Pd  Pd15  1  0.29675002  0.29675001  1.00000001  1
  Pd  Pd16  1  0.00000000  0.00000000  0.00000000  1
