# generated using pymatgen
data_YEr3Ga4SiGe3
_symmetry_space_group_name_H-M   'P 1'
_cell_length_a   4.35475206
_cell_length_b   6.74963093
_cell_length_c   7.77443695
_cell_angle_alpha   90.00000000
_cell_angle_beta   90.00000000
_cell_angle_gamma   90.00000000
_symmetry_Int_Tables_number   1
_chemical_formula_structural   YEr3Ga4SiGe3
_chemical_formula_sum   'Y1 Er3 Ga4 Si1 Ge3'
_cell_volume   228.51378594
_cell_formula_units_Z   1
loop_
 _symmetry_equiv_pos_site_id
 _symmetry_equiv_pos_as_xyz
  1  'x, y, z'
loop_
 _atom_site_type_symbol
 _atom_site_label
 _atom_site_symmetry_multiplicity
 _atom_site_fract_x
 _atom_site_fract_y
 _atom_site_fract_z
 _atom_site_occupancy
  Er  Er0  1  0.25000000  0.96699501  0.31942500  1
  Er  Er1  1  0.25000000  0.46699500  0.18057500  1
  Er  Er2  1  0.74999999  0.03300500  0.68057500  1
  Y  Y3  1  0.74999999  0.53300501  0.81942501  1
  Ga  Ga4  1  0.25000000  0.35246300  0.55839000  1
  Ga  Ga5  1  0.25000000  0.85246301  0.94161001  1
  Ga  Ga6  1  0.74999999  0.64753701  0.44161000  1
  Ga  Ga7  1  0.74999999  0.14753700  0.05839000  1
  Ge  Ge8  1  0.25000000  0.23652100  0.87584001  1
  Si  Si9  1  0.25000000  0.73652101  0.62416000  1
  Ge  Ge10  1  0.74999999  0.76347901  0.12416000  1
  Ge  Ge11  1  0.74999999  0.26347900  0.37584000  1
