# generated using pymatgen
data_LiFeNi2P
_symmetry_space_group_name_H-M   'P 1'
_cell_length_a   3.87065792
_cell_length_b   3.87065792
_cell_length_c   5.43082571
_cell_angle_alpha   110.87681580
_cell_angle_beta   110.87681580
_cell_angle_gamma   90.00000000
_symmetry_Int_Tables_number   1
_chemical_formula_structural   LiFeNi2P
_chemical_formula_sum   'Li1 Fe1 Ni2 P1'
_cell_volume   70.27636283
_cell_formula_units_Z   1
loop_
 _symmetry_equiv_pos_site_id
 _symmetry_equiv_pos_as_xyz
  1  'x, y, z'
loop_
 _atom_site_type_symbol
 _atom_site_label
 _atom_site_symmetry_multiplicity
 _atom_site_fract_x
 _atom_site_fract_y
 _atom_site_fract_z
 _atom_site_occupancy
  Li  Li0  1  0.00000000  0.00000000  0.00000000  1
  Ni  Ni1  1  0.24999998  0.75000000  0.49999999  1
  Ni  Ni2  1  0.75000000  0.25000000  0.49999999  1
  Fe  Fe3  1  0.62285399  0.62285400  0.24570797  1
  P  P4  1  0.37714599  0.37714600  0.75429200  1
