# generated using pymatgen
data_FeCuP3
_symmetry_space_group_name_H-M   'P 1'
_cell_length_a   3.55566192
_cell_length_b   4.41871452
_cell_length_c   4.41871357
_cell_angle_alpha   80.68405914
_cell_angle_beta   66.27537537
_cell_angle_gamma   66.27537537
_symmetry_Int_Tables_number   1
_chemical_formula_structural   FeCuP3
_chemical_formula_sum   'Fe1 Cu1 P3'
_cell_volume   58.18609831
_cell_formula_units_Z   1
loop_
 _symmetry_equiv_pos_site_id
 _symmetry_equiv_pos_as_xyz
  1  'x, y, z'
loop_
 _atom_site_type_symbol
 _atom_site_label
 _atom_site_symmetry_multiplicity
 _atom_site_fract_x
 _atom_site_fract_y
 _atom_site_fract_z
 _atom_site_occupancy
  Cu  Cu0  1  0.40066298  0.40092700  0.79774804  1
  Fe  Fe1  1  0.59933698  0.59907300  0.20225201  1
  P  P2  1  0.80158997  0.79774800  0.59907202  1
  P  P3  1  0.19840999  0.20225200  0.40092802  1
  P  P4  1  0.00000000  0.00000000  0.00000000  1
