# generated using pymatgen
data_DyErLu2In2SnPd2Au
_symmetry_space_group_name_H-M   'P 1'
_cell_length_a   3.83894396
_cell_length_b   7.51427507
_cell_length_c   7.51427507
_cell_angle_alpha   90.00000000
_cell_angle_beta   90.00000000
_cell_angle_gamma   90.00000000
_symmetry_Int_Tables_number   1
_chemical_formula_structural   DyErLu2In2SnPd2Au
_chemical_formula_sum   'Dy1 Er1 Lu2 In2 Sn1 Pd2 Au1'
_cell_volume   216.76339808
_cell_formula_units_Z   1
loop_
 _symmetry_equiv_pos_site_id
 _symmetry_equiv_pos_as_xyz
  1  'x, y, z'
loop_
 _atom_site_type_symbol
 _atom_site_label
 _atom_site_symmetry_multiplicity
 _atom_site_fract_x
 _atom_site_fract_y
 _atom_site_fract_z
 _atom_site_occupancy
  Er  Er0  1  0.50000001  0.32270500  0.82270499  1
  Dy  Dy1  1  0.50000001  0.82270499  0.67729499  1
  Lu  Lu2  1  0.50000001  0.17729500  0.32270500  1
  Lu  Lu3  1  0.50000001  0.67729499  0.17729500  1
  In  In4  1  0.00000000  0.00000000  0.00000000  1
  In  In5  1  0.00000000  0.50000000  0.50000000  1
  Pd  Pd6  1  0.00000000  0.38346800  0.11653200  1
  Sn  Sn7  1  0.00000000  0.88346799  0.38346800  1
  Pd  Pd8  1  -0.00000000  0.11653200  0.61653199  1
  Au  Au9  1  0.00000000  0.61653199  0.88346799  1
