# generated using pymatgen
data_K3BaNaSrCu4
_symmetry_space_group_name_H-M   'P 1'
_cell_length_a   6.67209578
_cell_length_b   7.09788179
_cell_length_c   8.33595562
_cell_angle_alpha   115.19744873
_cell_angle_beta   113.59067535
_cell_angle_gamma   90.00000000
_symmetry_Int_Tables_number   1
_chemical_formula_structural   K3BaNaSrCu4
_chemical_formula_sum   'K3 Ba1 Na1 Sr1 Cu4'
_cell_volume   320.37070005
_cell_formula_units_Z   1
loop_
 _symmetry_equiv_pos_site_id
 _symmetry_equiv_pos_as_xyz
  1  'x, y, z'
loop_
 _atom_site_type_symbol
 _atom_site_label
 _atom_site_symmetry_multiplicity
 _atom_site_fract_x
 _atom_site_fract_y
 _atom_site_fract_z
 _atom_site_occupancy
  Ba  Ba0  1  0.35789106  0.69220504  0.71578204  1
  K  K1  1  0.64210906  0.30779502  0.28421804  1
  K  K2  1  0.14210907  0.97642306  0.28421806  1
  Sr  Sr3  1  0.85789105  0.02357700  0.71578202  1
  K  K4  1  0.25000004  0.50000003  0.00000004  1
  Na  Na5  1  0.75000007  0.50000003  0.00000007  1
  Cu  Cu6  1  0.10384103  0.43315103  0.20768303  1
  Cu  Cu7  1  0.89615909  0.56684903  0.79231705  1
  Cu  Cu8  1  0.39615804  0.22546801  0.79231601  1
  Cu  Cu9  1  0.60384208  0.77453205  0.20768407  1
