# generated using pymatgen
data_MnAlFe2Si5
_symmetry_space_group_name_H-M   'P 1'
_cell_length_a   3.51761699
_cell_length_b   6.54286385
_cell_length_c   6.54286432
_cell_angle_alpha   120.00000000
_cell_angle_beta   90.00000000
_cell_angle_gamma   90.00000000
_symmetry_Int_Tables_number   1
_chemical_formula_structural   MnAlFe2Si5
_chemical_formula_sum   'Mn1 Al1 Fe2 Si5'
_cell_volume   130.41122640
_cell_formula_units_Z   1
loop_
 _symmetry_equiv_pos_site_id
 _symmetry_equiv_pos_as_xyz
  1  'x, y, z'
loop_
 _atom_site_type_symbol
 _atom_site_label
 _atom_site_symmetry_multiplicity
 _atom_site_fract_x
 _atom_site_fract_y
 _atom_site_fract_z
 _atom_site_occupancy
  Mn  Mn0  1  -0.00000000  0.33333335  0.66666670  1
  Fe  Fe1  1  -0.00000000  0.66666670  0.33333337  1
  Fe  Fe2  1  0.50000000  0.00000000  -0.00000000  1
  Al  Al3  1  -0.00000000  0.26535401  0.00000001  1
  Si  Si4  1  -0.00000000  0.73464604  0.73464606  1
  Si  Si5  1  1.00000000  0.00000000  0.26535401  1
  Si  Si6  1  0.50000000  0.60612003  0.00000003  1
  Si  Si7  1  0.50000000  0.39388002  0.39388003  1
  Si  Si8  1  0.50000000  0.00000000  0.60612002  1
