# generated using pymatgen
data_DyErGa5Pd
_symmetry_space_group_name_H-M   'P 1'
_cell_length_a   4.76531506
_cell_length_b   6.09106398
_cell_length_c   6.09106493
_cell_angle_alpha   60.00000381
_cell_angle_beta   90.00000000
_cell_angle_gamma   90.00000000
_symmetry_Int_Tables_number   1
_chemical_formula_structural   DyErGa5Pd
_chemical_formula_sum   'Dy1 Er1 Ga5 Pd1'
_cell_volume   153.11179837
_cell_formula_units_Z   1
loop_
 _symmetry_equiv_pos_site_id
 _symmetry_equiv_pos_as_xyz
  1  'x, y, z'
loop_
 _atom_site_type_symbol
 _atom_site_label
 _atom_site_symmetry_multiplicity
 _atom_site_fract_x
 _atom_site_fract_y
 _atom_site_fract_z
 _atom_site_occupancy
  Er  Er0  1  0.74999999  0.66666667  0.66666664  1
  Dy  Dy1  1  0.25000000  0.33333334  0.33333332  1
  Ga  Ga2  1  0.25000000  0.86437000  0.27125999  1
  Ga  Ga3  1  0.25000000  0.86437000  0.86436997  1
  Pd  Pd4  1  0.25000000  0.27126000  0.86436997  1
  Ga  Ga5  1  0.74999999  0.13563000  0.72873998  1
  Ga  Ga6  1  0.74999999  0.13563000  0.13563000  1
  Ga  Ga7  1  0.74999999  0.72874000  0.13562999  1
