# generated using pymatgen
data_BaTl2HgPb
_symmetry_space_group_name_H-M   'P 1'
_cell_length_a   4.07036781
_cell_length_b   7.10226345
_cell_length_c   7.10226345
_cell_angle_alpha   70.73725128
_cell_angle_beta   73.34822083
_cell_angle_gamma   73.34822083
_symmetry_Int_Tables_number   1
_chemical_formula_structural   BaTl2HgPb
_chemical_formula_sum   'Ba1 Tl2 Hg1 Pb1'
_cell_volume   181.46185279
_cell_formula_units_Z   1
loop_
 _symmetry_equiv_pos_site_id
 _symmetry_equiv_pos_as_xyz
  1  'x, y, z'
loop_
 _atom_site_type_symbol
 _atom_site_label
 _atom_site_symmetry_multiplicity
 _atom_site_fract_x
 _atom_site_fract_y
 _atom_site_fract_z
 _atom_site_occupancy
  Ba  Ba0  1  0.19893501  0.30106501  0.30106498  1
  Tl  Tl1  1  0.80106504  0.69893502  0.69893495  1
  Tl  Tl2  1  0.50000003  0.21099401  0.78900599  1
  Hg  Hg3  1  0.50000002  0.78900603  0.21099394  1
  Pb  Pb4  1  0.00000000  0.00000000  0.00000000  1
