# generated using pymatgen
data_BaNa2CaCuO9
_symmetry_space_group_name_H-M   'P 1'
_cell_length_a   3.86621809
_cell_length_b   3.86621809
_cell_length_c   12.95140743
_cell_angle_alpha   98.58396149
_cell_angle_beta   98.58396149
_cell_angle_gamma   90.00000000
_symmetry_Int_Tables_number   1
_chemical_formula_structural   BaNa2CaCuO9
_chemical_formula_sum   'Ba1 Na2 Ca1 Cu1 O9'
_cell_volume   189.23097551
_cell_formula_units_Z   1
loop_
 _symmetry_equiv_pos_site_id
 _symmetry_equiv_pos_as_xyz
  1  'x, y, z'
loop_
 _atom_site_type_symbol
 _atom_site_label
 _atom_site_symmetry_multiplicity
 _atom_site_fract_x
 _atom_site_fract_y
 _atom_site_fract_z
 _atom_site_occupancy
  Na  Na0  1  0.40942698  0.40942699  0.81885401  1
  Ba  Ba1  1  0.58907998  0.58907998  0.17815999  1
  Ca  Ca2  1  0.20074399  0.20074399  0.40148801  1
  Na  Na3  1  0.80046897  0.80046898  0.60093800  1
  Cu  Cu4  1  0.98678596  0.98678597  0.97357200  1
  O  O5  1  0.33897799  0.33897799  0.67795601  1
  O  O6  1  0.66489497  0.66489498  0.32978999  1
  O  O7  1  0.07901899  0.57901898  0.15803800  1
  O  O8  1  0.42452098  0.92452097  0.84904201  1
  O  O9  1  0.92452097  0.42452099  0.84904201  1
  O  O10  1  0.57901898  0.07901900  0.15803800  1
  O  O11  1  0.50013998  0.50013998  0.00027999  1
  O  O12  1  0.25120498  0.75120498  0.50241000  1
  O  O13  1  0.75120497  0.25120499  0.50241000  1
