# generated using pymatgen
data_ErNb2SnSb9Mo4PdRhAu
_symmetry_space_group_name_H-M   'P 1'
_cell_length_a   6.32268286
_cell_length_b   10.17320824
_cell_length_c   10.17447186
_cell_angle_alpha   119.99588776
_cell_angle_beta   90.00000000
_cell_angle_gamma   90.00000000
_symmetry_Int_Tables_number   1
_chemical_formula_structural   ErNb2SnSb9Mo4PdRhAu
_chemical_formula_sum   'Er1 Nb2 Sn1 Sb9 Mo4 Pd1 Rh1 Au1'
_cell_volume   566.78693885
_cell_formula_units_Z   1
loop_
 _symmetry_equiv_pos_site_id
 _symmetry_equiv_pos_as_xyz
  1  'x, y, z'
loop_
 _atom_site_type_symbol
 _atom_site_label
 _atom_site_symmetry_multiplicity
 _atom_site_fract_x
 _atom_site_fract_y
 _atom_site_fract_z
 _atom_site_occupancy
  Er  Er0  1  0.46499601  0.66666663  0.33333330  1
  Nb  Nb1  1  0.96499602  0.33333332  0.66666665  1
  Nb  Nb2  1  0.25197001  0.87441495  0.74882995  1
  Sb  Sb3  1  0.25204601  0.87441595  0.12557995  1
  Sb  Sb4  1  0.25204601  0.25116399  0.12557999  1
  Sb  Sb5  1  0.75197002  0.12558499  0.25116999  1
  Sb  Sb6  1  0.75204602  0.12558399  0.87442000  1
  Sb  Sb7  1  0.75204602  0.74883596  0.87441996  1
  Sn  Sn8  1  0.44193201  0.45817898  0.91635798  1
  Mo  Mo9  1  0.44184101  0.45823498  0.54184698  1
  Pd  Pd10  1  0.44184101  0.08361200  0.54184700  1
  Sb  Sb11  1  0.94193202  0.54182097  0.08364197  1
  Sb  Sb12  1  0.94184102  0.54176497  0.45815297  1
  Sb  Sb13  1  0.94184102  0.91638795  0.45815295  1
  Mo  Mo14  1  0.18202000  0.18867699  0.37735399  1
  Mo  Mo15  1  0.18215400  0.18872199  0.81132199  1
  Mo  Mo16  1  0.18215400  0.62259997  0.81132197  1
  Sb  Sb17  1  0.68202002  0.81132296  0.62264596  1
  Au  Au18  1  0.68215402  0.81127796  0.18867795  1
  Rh  Rh19  1  0.68215402  0.37739998  0.18867798  1
