# generated using pymatgen
data_KNaLiYCu3RhSe9O
_symmetry_space_group_name_H-M   'P 1'
_cell_length_a   6.21478796
_cell_length_b   8.38919735
_cell_length_c   8.38919735
_cell_angle_alpha   67.96037292
_cell_angle_beta   68.25945282
_cell_angle_gamma   68.25945282
_symmetry_Int_Tables_number   1
_chemical_formula_structural   KNaLiYCu3RhSe9O
_chemical_formula_sum   'K1 Na1 Li1 Y1 Cu3 Rh1 Se9 O1'
_cell_volume   362.73124647
_cell_formula_units_Z   1
loop_
 _symmetry_equiv_pos_site_id
 _symmetry_equiv_pos_as_xyz
  1  'x, y, z'
loop_
 _atom_site_type_symbol
 _atom_site_label
 _atom_site_symmetry_multiplicity
 _atom_site_fract_x
 _atom_site_fract_y
 _atom_site_fract_z
 _atom_site_occupancy
  Y  Y0  1  0.89081401  0.31288198  0.90548998  1
  K  K1  1  0.10918602  0.68711796  0.09451000  1
  Na  Na2  1  0.60918700  0.09450999  0.68711698  1
  Li  Li3  1  0.39081303  0.90548995  0.31288299  1
  Cu  Cu4  1  0.25000002  0.49999997  0.49999998  1
  Cu  Cu5  1  0.75000001  0.49999997  0.49999999  1
  Cu  Cu6  1  0.52916702  0.72083296  0.72083298  1
  Se  Se7  1  0.97083300  0.27916698  0.27916701  1
  Se  Se8  1  0.02916703  0.72083296  0.72083296  1
  Se  Se9  1  0.47083301  0.27916698  0.27916700  1
  Se  Se10  1  0.12152701  0.24621299  0.51073298  1
  O  O11  1  0.87847302  0.75378696  0.48926700  1
  Se  Se12  1  0.37847302  0.48926697  0.75378697  1
  Se  Se13  1  0.62152701  0.51073297  0.24621300  1
  Se  Se14  1  0.34042701  0.29186098  0.02728501  1
  Se  Se15  1  0.65957302  0.70813896  0.97271497  1
  Rh  Rh16  1  0.84042700  0.02728500  0.29186101  1
  Se  Se17  1  0.15957303  0.97271494  0.70813897  1
