# generated using pymatgen
data_Na3LiEuCuBiO9
_symmetry_space_group_name_H-M   'P 1'
_cell_length_a   6.71510506
_cell_length_b   6.71510506
_cell_length_c   6.71510506
_cell_angle_alpha   90.00000000
_cell_angle_beta   90.00000000
_cell_angle_gamma   90.00000000
_symmetry_Int_Tables_number   1
_chemical_formula_structural   Na3LiEuCuBiO9
_chemical_formula_sum   'Na3 Li1 Eu1 Cu1 Bi1 O9'
_cell_volume   302.80178751
_cell_formula_units_Z   1
loop_
 _symmetry_equiv_pos_site_id
 _symmetry_equiv_pos_as_xyz
  1  'x, y, z'
loop_
 _atom_site_type_symbol
 _atom_site_label
 _atom_site_symmetry_multiplicity
 _atom_site_fract_x
 _atom_site_fract_y
 _atom_site_fract_z
 _atom_site_occupancy
  Eu  Eu0  1  0.00000000  0.00000000  0.00000000  1
  Li  Li1  1  0.50000000  0.50000000  0.50000000  1
  Na  Na2  1  0.25000000  0.00000000  0.50000000  1
  Na  Na3  1  0.74999999  0.00000000  0.50000000  1
  Na  Na4  1  0.50000000  0.25000000  0.00000000  1
  Cu  Cu5  1  0.50000000  0.74999999  0.00000000  1
  Bi  Bi6  1  0.00000000  0.50000000  0.25000000  1
  O  O7  1  0.00000000  0.50000000  0.74999999  1
  O  O8  1  0.25000000  0.25000000  0.25000000  1
  O  O9  1  0.74999999  0.74999999  0.74999999  1
  O  O10  1  0.74999999  0.74999999  0.25000000  1
  O  O11  1  0.74999999  0.25000000  0.74999999  1
  O  O12  1  0.25000000  0.25000000  0.74999999  1
  O  O13  1  0.25000000  0.74999999  0.25000000  1
  O  O14  1  0.25000000  0.74999999  0.74999999  1
  O  O15  1  0.74999999  0.25000000  0.25000000  1
