# generated using pymatgen
data_ErZnInPdAu2
_symmetry_space_group_name_H-M   'P 1'
_cell_length_a   4.40313196
_cell_length_b   4.40313292
_cell_length_c   7.02178621
_cell_angle_alpha   90.00000000
_cell_angle_beta   90.00000000
_cell_angle_gamma   119.99999237
_symmetry_Int_Tables_number   1
_chemical_formula_structural   ErZnInPdAu2
_chemical_formula_sum   'Er1 Zn1 In1 Pd1 Au2'
_cell_volume   117.89673140
_cell_formula_units_Z   1
loop_
 _symmetry_equiv_pos_site_id
 _symmetry_equiv_pos_as_xyz
  1  'x, y, z'
loop_
 _atom_site_type_symbol
 _atom_site_label
 _atom_site_symmetry_multiplicity
 _atom_site_fract_x
 _atom_site_fract_y
 _atom_site_fract_z
 _atom_site_occupancy
  Er  Er0  1  0.00000000  0.00000000  0.49999998  1
  In  In1  1  0.00000000  0.00000000  0.00000000  1
  Zn  Zn2  1  0.66666666  0.33333331  0.24999999  1
  Au  Au3  1  0.33333331  0.66666662  0.74999998  1
  Pd  Pd4  1  0.66666666  0.33333331  0.74999998  1
  Au  Au5  1  0.33333331  0.66666662  0.24999999  1
