# generated using pymatgen
data_Er2AlGaCuSi3Ge4
_symmetry_space_group_name_H-M   'P 1'
_cell_length_a   4.03474903
_cell_length_b   6.66570282
_cell_length_c   7.63396311
_cell_angle_alpha   90.00000000
_cell_angle_beta   90.00000000
_cell_angle_gamma   90.00000000
_symmetry_Int_Tables_number   1
_chemical_formula_structural   Er2AlGaCuSi3Ge4
_chemical_formula_sum   'Er2 Al1 Ga1 Cu1 Si3 Ge4'
_cell_volume   205.31114746
_cell_formula_units_Z   1
loop_
 _symmetry_equiv_pos_site_id
 _symmetry_equiv_pos_as_xyz
  1  'x, y, z'
loop_
 _atom_site_type_symbol
 _atom_site_label
 _atom_site_symmetry_multiplicity
 _atom_site_fract_x
 _atom_site_fract_y
 _atom_site_fract_z
 _atom_site_occupancy
  Er  Er0  1  0.25000000  0.02219100  0.81249099  1
  Er  Er1  1  0.25000000  0.52219101  0.68750899  1
  Ga  Ga2  1  0.74999999  0.97780903  0.18750900  1
  Al  Al3  1  0.74999999  0.47780901  0.31249100  1
  Cu  Cu4  1  0.25000000  0.76801202  0.37952599  1
  Si  Si5  1  0.25000000  0.26801201  0.12047400  1
  Si  Si6  1  0.74999999  0.23198801  0.62047399  1
  Si  Si7  1  0.74999999  0.73198802  0.87952599  1
  Ge  Ge8  1  0.25000000  0.14681200  0.43784199  1
  Ge  Ge9  1  0.25000000  0.64681202  0.06215800  1
  Ge  Ge10  1  0.74999999  0.85318802  0.56215799  1
  Ge  Ge11  1  0.74999999  0.35318801  0.93784199  1
