# generated using pymatgen
data_CaLa4PrIn2
_symmetry_space_group_name_H-M   'P 1'
_cell_length_a   5.68424892
_cell_length_b   7.24664593
_cell_length_c   7.24664640
_cell_angle_alpha   60.00000000
_cell_angle_beta   90.00000000
_cell_angle_gamma   90.00000000
_symmetry_Int_Tables_number   1
_chemical_formula_structural   CaLa4PrIn2
_chemical_formula_sum   'Ca1 La4 Pr1 In2'
_cell_volume   258.51028876
_cell_formula_units_Z   1
loop_
 _symmetry_equiv_pos_site_id
 _symmetry_equiv_pos_as_xyz
  1  'x, y, z'
loop_
 _atom_site_type_symbol
 _atom_site_label
 _atom_site_symmetry_multiplicity
 _atom_site_fract_x
 _atom_site_fract_y
 _atom_site_fract_z
 _atom_site_occupancy
  La  La0  1  0.75000001  0.66760302  0.16619798  1
  La  La1  1  0.75000001  0.16619900  0.16619799  1
  La  La2  1  0.75000001  0.16619900  0.66760199  1
  La  La3  1  0.25000000  0.33239701  0.83380199  1
  Ca  Ca4  1  0.25000000  0.83380102  0.83380197  1
  Pr  Pr5  1  0.25000000  0.83380102  0.33239797  1
  In  In6  1  0.25000000  0.33333334  0.33333332  1
  In  In7  1  0.75000001  0.66666669  0.66666664  1
