# generated using pymatgen
data_K2BiIClO3
_symmetry_space_group_name_H-M   'P 1'
_cell_length_a   4.03742313
_cell_length_b   4.03742313
_cell_length_c   9.79025936
_cell_angle_alpha   90.00000000
_cell_angle_beta   90.00000000
_cell_angle_gamma   90.00000000
_symmetry_Int_Tables_number   1
_chemical_formula_structural   K2BiIClO3
_chemical_formula_sum   'K2 Bi1 I1 Cl1 O3'
_cell_volume   159.58891844
_cell_formula_units_Z   1
loop_
 _symmetry_equiv_pos_site_id
 _symmetry_equiv_pos_as_xyz
  1  'x, y, z'
loop_
 _atom_site_type_symbol
 _atom_site_label
 _atom_site_symmetry_multiplicity
 _atom_site_fract_x
 _atom_site_fract_y
 _atom_site_fract_z
 _atom_site_occupancy
  K  K0  1  0.00000000  0.00000000  0.00000000  1
  K  K1  1  0.49999998  0.49999998  0.73726797  1
  Bi  Bi2  1  0.49999998  0.49999998  0.26273199  1
  I  I3  1  0.00000000  0.00000000  0.49999998  1
  O  O4  1  0.00000000  0.49999998  0.15377599  1
  Cl  Cl5  1  0.00000000  0.49999998  0.84622397  1
  O  O6  1  0.49999998  0.00000000  0.84622397  1
  O  O7  1  0.49999998  0.00000000  0.15377599  1
