# generated using pymatgen
data_CsNa5YIO12
_symmetry_space_group_name_H-M   'P 1'
_cell_length_a   6.66332245
_cell_length_b   6.66332245
_cell_length_c   8.65100098
_cell_angle_alpha   90.00000000
_cell_angle_beta   90.00000000
_cell_angle_gamma   116.55188751
_symmetry_Int_Tables_number   1
_chemical_formula_structural   CsNa5YIO12
_chemical_formula_sum   'Cs1 Na5 Y1 I1 O12'
_cell_volume   343.59187830
_cell_formula_units_Z   1
loop_
 _symmetry_equiv_pos_site_id
 _symmetry_equiv_pos_as_xyz
  1  'x, y, z'
loop_
 _atom_site_type_symbol
 _atom_site_label
 _atom_site_symmetry_multiplicity
 _atom_site_fract_x
 _atom_site_fract_y
 _atom_site_fract_z
 _atom_site_occupancy
  Y  Y0  1  0.69123899  0.30876100  0.25000000  1
  Cs  Cs1  1  0.30876101  0.69123899  0.75000000  1
  Na  Na2  1  0.30737101  0.69262899  0.25000000  1
  Na  Na3  1  0.69262899  0.30737100  0.75000000  1
  Na  Na4  1  0.00000000  0.00000000  0.00000000  1
  Na  Na5  1  0.00000000  0.00000000  0.50000000  1
  O  O6  1  0.06463301  0.34854400  0.25000000  1
  Na  Na7  1  0.93536699  0.65145599  0.75000000  1
  O  O8  1  0.65145601  0.93536699  0.25000000  1
  O  O9  1  0.34854399  0.06463300  0.75000000  1
  O  O10  1  0.29894101  0.70105899  0.01323100  1
  O  O11  1  0.70105899  0.29894100  0.98676900  1
  O  O12  1  0.70105899  0.29894100  0.51323100  1
  I  I13  1  0.29894101  0.70105899  0.48676900  1
  O  O14  1  0.48977100  0.51022899  0.25000000  1
  O  O15  1  0.51022900  0.48977099  0.75000000  1
  O  O16  1  0.97747399  0.67168099  0.25000000  1
  O  O17  1  0.02252601  0.32831900  0.75000000  1
  O  O18  1  0.32831899  0.02252600  0.25000000  1
  O  O19  1  0.67168101  0.97747399  0.75000000  1
