# generated using pymatgen
data_Li2MnFe2Si2Ni2P
_symmetry_space_group_name_H-M   'P 1'
_cell_length_a   4.08373308
_cell_length_b   4.08373308
_cell_length_c   8.58059502
_cell_angle_alpha   90.00000000
_cell_angle_beta   90.00000000
_cell_angle_gamma   90.00000000
_symmetry_Int_Tables_number   1
_chemical_formula_structural   Li2MnFe2Si2Ni2P
_chemical_formula_sum   'Li2 Mn1 Fe2 Si2 Ni2 P1'
_cell_volume   143.09751810
_cell_formula_units_Z   1
loop_
 _symmetry_equiv_pos_site_id
 _symmetry_equiv_pos_as_xyz
  1  'x, y, z'
loop_
 _atom_site_type_symbol
 _atom_site_label
 _atom_site_symmetry_multiplicity
 _atom_site_fract_x
 _atom_site_fract_y
 _atom_site_fract_z
 _atom_site_occupancy
  Li  Li0  1  0.00000000  0.00000000  0.51758200  1
  Li  Li1  1  0.49999999  0.49999999  0.25224200  1
  Fe  Fe2  1  0.49999999  0.49999999  0.76764500  1
  Mn  Mn3  1  0.00000000  0.00000000  0.97670000  1
  Ni  Ni4  1  0.49999999  0.00000000  0.29912000  1
  Fe  Fe5  1  0.49999999  0.00000000  0.78694300  1
  Si  Si6  1  -0.00000000  0.49999999  0.29912000  1
  Ni  Ni7  1  -0.00000000  0.49999999  0.78694300  1
  Si  Si8  1  0.49999999  0.49999999  0.01704400  1
  P  P9  1  0.49999999  0.49999999  0.55666000  1
