# generated using pymatgen
data_Er2Al5FeNi4
_symmetry_space_group_name_H-M   'P 1'
_cell_length_a   4.98798132
_cell_length_b   5.03423643
_cell_length_c   8.09480381
_cell_angle_alpha   90.00000000
_cell_angle_beta   90.00000000
_cell_angle_gamma   119.69085693
_symmetry_Int_Tables_number   1
_chemical_formula_structural   Er2Al5FeNi4
_chemical_formula_sum   'Er2 Al5 Fe1 Ni4'
_cell_volume   176.57932740
_cell_formula_units_Z   1
loop_
 _symmetry_equiv_pos_site_id
 _symmetry_equiv_pos_as_xyz
  1  'x, y, z'
loop_
 _atom_site_type_symbol
 _atom_site_label
 _atom_site_symmetry_multiplicity
 _atom_site_fract_x
 _atom_site_fract_y
 _atom_site_fract_z
 _atom_site_occupancy
  Er  Er0  1  0.33354796  0.66707996  0.43915201  1
  Er  Er1  1  0.66590200  0.33176798  0.56344001  1
  Al  Al2  1  0.66590200  0.33176798  0.93656002  1
  Al  Al3  1  0.33354796  0.66707996  0.06084800  1
  Al  Al4  1  0.00019500  0.00044100  0.49659801  1
  Fe  Fe5  1  0.00019500  0.00044100  0.00340200  1
  Al  Al6  1  0.33898500  0.17033799  0.25000001  1
  Al  Al7  1  0.83135002  0.17035699  0.25000001  1
  Ni  Ni8  1  0.82893998  0.65786196  0.25000001  1
  Ni  Ni9  1  0.66512796  0.83243194  0.75000002  1
  Ni  Ni10  1  0.16730294  0.83242594  0.75000002  1
  Ni  Ni11  1  0.16900498  0.33800698  0.75000002  1
