# generated using pymatgen
data_Li8NiO7
_symmetry_space_group_name_H-M   'P 1'
_cell_length_a   5.15309286
_cell_length_b   5.40144777
_cell_length_c   6.40616035
_cell_angle_alpha   89.83242035
_cell_angle_beta   90.00000000
_cell_angle_gamma   90.00000000
_symmetry_Int_Tables_number   1
_chemical_formula_structural   Li8NiO7
_chemical_formula_sum   'Li8 Ni1 O7'
_cell_volume   178.30934216
_cell_formula_units_Z   1
loop_
 _symmetry_equiv_pos_site_id
 _symmetry_equiv_pos_as_xyz
  1  'x, y, z'
loop_
 _atom_site_type_symbol
 _atom_site_label
 _atom_site_symmetry_multiplicity
 _atom_site_fract_x
 _atom_site_fract_y
 _atom_site_fract_z
 _atom_site_occupancy
  Li  Li0  1  0.00445500  0.07861400  0.62677101  1
  Li  Li1  1  0.50445501  0.92138604  0.37322902  1
  Li  Li2  1  0.50535901  0.41156002  0.12141101  1
  Li  Li3  1  0.00535900  0.58844002  0.87858902  1
  Li  Li4  1  0.00462600  0.07241200  0.12075800  1
  Li  Li5  1  0.50462601  0.92758804  0.87924203  1
  Li  Li6  1  0.50708001  0.42562502  0.63014901  1
  Li  Li7  1  0.00708000  0.57437502  0.36985102  1
  O  O8  1  0.86915302  0.43576002  0.61193301  1
  Ni  Ni9  1  0.36915301  0.56424002  0.38806702  1
  O  O10  1  0.34731001  0.05757300  0.09647600  1
  O  O11  1  0.84731002  0.94242704  0.90352403  1
  O  O12  1  0.90420702  0.38370702  0.13931201  1
  O  O13  1  0.40420701  0.61629303  0.86068802  1
  O  O14  1  0.40581001  0.09201300  0.65361301  1
  O  O15  1  0.90581002  0.90798704  0.34638702  1
