# generated using pymatgen
data_K4TlAgHg2SeS3
_symmetry_space_group_name_H-M   'P 1'
_cell_length_a   4.98281622
_cell_length_b   7.18228579
_cell_length_c   8.99945736
_cell_angle_alpha   90.00000000
_cell_angle_beta   90.00000000
_cell_angle_gamma   90.00000000
_symmetry_Int_Tables_number   1
_chemical_formula_structural   K4TlAgHg2SeS3
_chemical_formula_sum   'K4 Tl1 Ag1 Hg2 Se1 S3'
_cell_volume   322.07267091
_cell_formula_units_Z   1
loop_
 _symmetry_equiv_pos_site_id
 _symmetry_equiv_pos_as_xyz
  1  'x, y, z'
loop_
 _atom_site_type_symbol
 _atom_site_label
 _atom_site_symmetry_multiplicity
 _atom_site_fract_x
 _atom_site_fract_y
 _atom_site_fract_z
 _atom_site_occupancy
  K  K0  1  0.24999999  0.14804700  0.58064298  1
  K  K1  1  0.74999997  0.48441101  0.67596197  1
  K  K2  1  0.74999997  0.98441103  0.82403797  1
  K  K3  1  0.24999999  0.64804702  0.91935696  1
  Ag  Ag4  1  0.74999997  0.35195301  0.08064300  1
  Tl  Tl5  1  0.24999999  0.01558900  0.17596199  1
  Hg  Hg6  1  0.24999999  0.51558902  0.32403799  1
  Hg  Hg7  1  0.74999997  0.85195303  0.41935698  1
  S  S8  1  0.24999999  0.74252402  0.60000398  1
  S  S9  1  0.24999999  0.24252401  0.89999596  1
  Se  Se10  1  0.74999997  0.75747602  0.10000400  1
  S  S11  1  0.74999997  0.25747601  0.39999598  1
