# generated using pymatgen
data_LaYZrIn3Sn3GeAu5
_symmetry_space_group_name_H-M   'P 1'
_cell_length_a   7.15090275
_cell_length_b   7.15090275
_cell_length_c   7.15090275
_cell_angle_alpha   72.63971710
_cell_angle_beta   72.63971710
_cell_angle_gamma   72.63971710
_symmetry_Int_Tables_number   1
_chemical_formula_structural   LaYZrIn3Sn3GeAu5
_chemical_formula_sum   'La1 Y1 Zr1 In3 Sn3 Ge1 Au5'
_cell_volume   324.19376580
_cell_formula_units_Z   1
loop_
 _symmetry_equiv_pos_site_id
 _symmetry_equiv_pos_as_xyz
  1  'x, y, z'
loop_
 _atom_site_type_symbol
 _atom_site_label
 _atom_site_symmetry_multiplicity
 _atom_site_fract_x
 _atom_site_fract_y
 _atom_site_fract_z
 _atom_site_occupancy
  Y  Y0  1  0.00000000  0.00000000  0.00000000  1
  In  In1  1  0.20738599  0.20738600  0.20738601  1
  In  In2  1  0.79261394  0.79261400  0.79261403  1
  Zr  Zr3  1  0.38770696  0.66296600  0.17108203  1
  In  In4  1  0.66296598  0.17108200  0.38770701  1
  La  La5  1  0.17108197  0.38770700  0.66296601  1
  Ge  Ge6  1  0.61229297  0.33703400  0.82891801  1
  Sn  Sn7  1  0.33703395  0.82891800  0.61229303  1
  Sn  Sn8  1  0.82891795  0.61229300  0.33703403  1
  Au  Au9  1  0.04070095  0.85729600  0.41359903  1
  Au  Au10  1  0.85729597  0.41359900  0.04070103  1
  Au  Au11  1  0.41359899  0.04070100  0.85729600  1
  Au  Au12  1  0.95929898  0.14270400  0.58640102  1
  Au  Au13  1  0.14270396  0.58640100  0.95929901  1
  Sn  Sn14  1  0.58640094  0.95929900  0.14270404  1
