# generated using pymatgen
data_LaYMgAlGaSn
_symmetry_space_group_name_H-M   'P 1'
_cell_length_a   3.72731304
_cell_length_b   4.71887016
_cell_length_c   8.49148464
_cell_angle_alpha   90.00000000
_cell_angle_beta   90.00000000
_cell_angle_gamma   90.00000000
_symmetry_Int_Tables_number   1
_chemical_formula_structural   LaYMgAlGaSn
_chemical_formula_sum   'La1 Y1 Mg1 Al1 Ga1 Sn1'
_cell_volume   149.35422942
_cell_formula_units_Z   1
loop_
 _symmetry_equiv_pos_site_id
 _symmetry_equiv_pos_as_xyz
  1  'x, y, z'
loop_
 _atom_site_type_symbol
 _atom_site_label
 _atom_site_symmetry_multiplicity
 _atom_site_fract_x
 _atom_site_fract_y
 _atom_site_fract_z
 _atom_site_occupancy
  Y  Y0  1  0.00000000  0.49999998  0.98833904  1
  La  La1  1  0.00000000  0.00000000  0.51303502  1
  Mg  Mg2  1  0.49999999  0.49999998  0.33547701  1
  Al  Al3  1  0.49999999  0.00000000  0.83419204  1
  Ga  Ga4  1  0.49999999  0.00000000  0.16000401  1
  Sn  Sn5  1  0.49999999  0.49999998  0.66895303  1
