# generated using pymatgen
data_K6HgSCl6
_symmetry_space_group_name_H-M   'P 1'
_cell_length_a   4.14931488
_cell_length_b   8.15012264
_cell_length_c   11.31062603
_cell_angle_alpha   104.19298553
_cell_angle_beta   90.00000000
_cell_angle_gamma   90.00000000
_symmetry_Int_Tables_number   1
_chemical_formula_structural   K6HgSCl6
_chemical_formula_sum   'K6 Hg1 S1 Cl6'
_cell_volume   370.82069449
_cell_formula_units_Z   1
loop_
 _symmetry_equiv_pos_site_id
 _symmetry_equiv_pos_as_xyz
  1  'x, y, z'
loop_
 _atom_site_type_symbol
 _atom_site_label
 _atom_site_symmetry_multiplicity
 _atom_site_fract_x
 _atom_site_fract_y
 _atom_site_fract_z
 _atom_site_occupancy
  K  K0  1  0.25000001  0.95288703  0.58705796  1
  K  K1  1  0.75000002  0.04711300  0.41294199  1
  K  K2  1  0.75000002  0.19099701  0.93425297  1
  K  K3  1  0.25000001  0.80900303  0.06574698  1
  K  K4  1  0.25000001  0.46734702  0.65627497  1
  K  K5  1  0.75000002  0.53265302  0.34372498  1
  Cl  Cl6  1  0.75000002  0.20408801  0.66550298  1
  Hg  Hg7  1  0.75000002  0.04444000  0.15013799  1
  Cl  Cl8  1  0.75000002  0.69023202  0.58788996  1
  Cl  Cl9  1  0.25000001  0.30976801  0.41210998  1
  Cl  Cl10  1  0.25000001  0.79591203  0.33449697  1
  S  S11  1  0.25000001  0.95556003  0.84986195  1
  Cl  Cl12  1  0.75000002  0.59663902  0.90206196  1
  Cl  Cl13  1  0.25000001  0.40336101  0.09793799  1
