# generated using pymatgen
data_Ta3VTcC2N
_symmetry_space_group_name_H-M   'P 1'
_cell_length_a   3.10442996
_cell_length_b   3.10443068
_cell_length_c   13.93107414
_cell_angle_alpha   90.00000000
_cell_angle_beta   90.00000000
_cell_angle_gamma   119.99999237
_symmetry_Int_Tables_number   1
_chemical_formula_structural   Ta3VTcC2N
_chemical_formula_sum   'Ta3 V1 Tc1 C2 N1'
_cell_volume   116.27305967
_cell_formula_units_Z   1
loop_
 _symmetry_equiv_pos_site_id
 _symmetry_equiv_pos_as_xyz
  1  'x, y, z'
loop_
 _atom_site_type_symbol
 _atom_site_label
 _atom_site_symmetry_multiplicity
 _atom_site_fract_x
 _atom_site_fract_y
 _atom_site_fract_z
 _atom_site_occupancy
  Ta  Ta0  1  0.66666667  0.33333333  0.58972999  1
  Ta  Ta1  1  0.33333333  0.66666666  0.41027000  1
  V  V2  1  0.33333333  0.66666666  0.08973000  1
  Ta  Ta3  1  0.66666667  0.33333333  0.91026999  1
  Tc  Tc4  1  0.66666667  0.33333333  0.25000000  1
  C  C5  1  0.33333333  0.66666666  0.74999999  1
  N  N6  1  0.00000000  0.00000000  0.49999999  1
  C  C7  1  0.00000000  0.00000000  0.00000000  1
