# generated using pymatgen
data_BaTl2AgBr4OF5
_symmetry_space_group_name_H-M   'P 1'
_cell_length_a   4.48141003
_cell_length_b   8.03820324
_cell_length_c   19.19137192
_cell_angle_alpha   90.00000000
_cell_angle_beta   90.00000000
_cell_angle_gamma   106.18602753
_symmetry_Int_Tables_number   1
_chemical_formula_structural   BaTl2AgBr4OF5
_chemical_formula_sum   'Ba1 Tl2 Ag1 Br4 O1 F5'
_cell_volume   663.91810951
_cell_formula_units_Z   1
loop_
 _symmetry_equiv_pos_site_id
 _symmetry_equiv_pos_as_xyz
  1  'x, y, z'
loop_
 _atom_site_type_symbol
 _atom_site_label
 _atom_site_symmetry_multiplicity
 _atom_site_fract_x
 _atom_site_fract_y
 _atom_site_fract_z
 _atom_site_occupancy
  F  F0  1  0.48999691  0.97999394  0.75000000  1
  Ba  Ba1  1  0.51000300  0.02000600  0.25000000  1
  Tl  Tl2  1  0.00000000  0.00000000  0.00000000  1
  Tl  Tl3  1  0.00000000  0.00000000  0.50000000  1
  F  F4  1  0.09486198  0.18972399  0.85192000  1
  Ag  Ag5  1  0.14723597  0.29447198  0.25000000  1
  F  F6  1  0.09486198  0.18972399  0.64808000  1
  F  F7  1  0.37265293  0.74530595  0.94304400  1
  Br  Br8  1  0.37265293  0.74530595  0.55695600  1
  Br  Br9  1  0.62734697  0.25469398  0.44304400  1
  O  O10  1  0.62734697  0.25469398  0.05695600  1
  F  F11  1  0.85276393  0.70552796  0.75000000  1
  Br  Br12  1  0.90513792  0.81027595  0.35192000  1
  Br  Br13  1  0.90513792  0.81027595  0.14808000  1
