# generated using pymatgen
data_ErTh4In(SnAu3)2
_symmetry_space_group_name_H-M   'P 1'
_cell_length_a   7.78363562
_cell_length_b   7.78363562
_cell_length_c   7.78363562
_cell_angle_alpha   109.47122192
_cell_angle_beta   109.47122192
_cell_angle_gamma   109.47122192
_symmetry_Int_Tables_number   1
_chemical_formula_structural   ErTh4In(SnAu3)2
_chemical_formula_sum   'Er1 Th4 In1 Sn2 Au6'
_cell_volume   363.01584233
_cell_formula_units_Z   1
loop_
 _symmetry_equiv_pos_site_id
 _symmetry_equiv_pos_as_xyz
  1  'x, y, z'
loop_
 _atom_site_type_symbol
 _atom_site_label
 _atom_site_symmetry_multiplicity
 _atom_site_fract_x
 _atom_site_fract_y
 _atom_site_fract_z
 _atom_site_occupancy
  Er  Er0  1  0.64366299  0.00000000  0.00000002  1
  Th  Th1  1  0.00000003  0.50000001  0.14366302  1
  Th  Th2  1  0.50000003  0.64366301  0.50000003  1
  Th  Th3  1  0.14366300  0.00000000  0.00000000  1
  Sn  Sn4  1  0.85633704  0.85633701  0.35633706  1
  Th  Th5  1  1.00000001  0.50000001  0.64366303  1
  Sn  Sn6  1  0.35633702  0.35633700  0.85633701  1
  In  In7  1  0.50000000  0.14366300  0.50000001  1
  Au  Au8  1  0.75000003  0.62500001  0.87500003  1
  Au  Au9  1  0.25000005  0.87500001  0.62500004  1
  Au  Au10  1  0.87499999  0.12500000  0.75000001  1
  Au  Au11  1  0.62500001  0.37500000  0.25000003  1
  Au  Au12  1  0.12500001  0.25000000  0.37500001  1
  Au  Au13  1  0.37500004  0.75000001  0.12500005  1
