# generated using pymatgen
data_BaLa2CeIn4PdAu3
_symmetry_space_group_name_H-M   'P 1'
_cell_length_a   4.57988405
_cell_length_b   7.59749603
_cell_length_c   8.62032509
_cell_angle_alpha   90.00000000
_cell_angle_beta   90.00000000
_cell_angle_gamma   90.00000000
_symmetry_Int_Tables_number   1
_chemical_formula_structural   BaLa2CeIn4PdAu3
_chemical_formula_sum   'Ba1 La2 Ce1 In4 Pd1 Au3'
_cell_volume   299.94982257
_cell_formula_units_Z   1
loop_
 _symmetry_equiv_pos_site_id
 _symmetry_equiv_pos_as_xyz
  1  'x, y, z'
loop_
 _atom_site_type_symbol
 _atom_site_label
 _atom_site_symmetry_multiplicity
 _atom_site_fract_x
 _atom_site_fract_y
 _atom_site_fract_z
 _atom_site_occupancy
  Ba  Ba0  1  0.25000000  0.01896500  0.31092800  1
  La  La1  1  0.25000000  0.51896500  0.18907200  1
  Ce  Ce2  1  0.74999999  0.98103500  0.68907199  1
  La  La3  1  0.74999999  0.48103500  0.81092799  1
  In  In4  1  0.25000000  0.14916900  0.93107299  1
  In  In5  1  0.25000000  0.64916900  0.56892699  1
  In  In6  1  0.74999999  0.85083100  0.06892700  1
  In  In7  1  0.74999999  0.35083100  0.43107300  1
  Pd  Pd8  1  0.25000000  0.26250500  0.60764399  1
  Au  Au9  1  0.25000000  0.76250500  0.89235599  1
  Au  Au10  1  0.74999999  0.73749500  0.39235600  1
  Au  Au11  1  0.74999999  0.23749500  0.10764400  1
