# generated using pymatgen
data_NaNb2MoS13
_symmetry_space_group_name_H-M   'P 1'
_cell_length_a   7.42484951
_cell_length_b   7.42484951
_cell_length_c   7.42484951
_cell_angle_alpha   69.37635803
_cell_angle_beta   69.37635803
_cell_angle_gamma   69.37635040
_symmetry_Int_Tables_number   1
_chemical_formula_structural   NaNb2MoS13
_chemical_formula_sum   'Na1 Nb2 Mo1 S13'
_cell_volume   346.16095051
_cell_formula_units_Z   1
loop_
 _symmetry_equiv_pos_site_id
 _symmetry_equiv_pos_as_xyz
  1  'x, y, z'
loop_
 _atom_site_type_symbol
 _atom_site_label
 _atom_site_symmetry_multiplicity
 _atom_site_fract_x
 _atom_site_fract_y
 _atom_site_fract_z
 _atom_site_occupancy
  Na  Na0  1  0.42001899  0.88038602  0.88038601  1
  Nb  Nb1  1  0.88038599  0.88038602  0.42001900  1
  Nb  Nb2  1  0.88038600  0.42001901  0.88038601  1
  Mo  Mo3  1  0.82452400  0.50687301  0.50687300  1
  S  S4  1  0.50687300  0.50687301  0.82452401  1
  S  S5  1  0.50687299  0.82452402  0.50687301  1
  S  S6  1  0.17476899  0.48734901  0.48734901  1
  S  S7  1  0.48734900  0.48734901  0.17476900  1
  S  S8  1  0.48734900  0.17476900  0.48734901  1
  S  S9  1  0.92462599  0.92462602  0.92462601  1
  S  S10  1  0.07928400  0.07928400  0.07928400  1
  S  S11  1  0.81748100  0.29754201  0.29754200  1
  S  S12  1  0.29754200  0.29754201  0.81748102  1
  S  S13  1  0.29754199  0.81748102  0.29754200  1
  S  S14  1  0.17675099  0.70612301  0.70612301  1
  S  S15  1  0.70612299  0.70612301  0.17675100  1
  S  S16  1  0.70612301  0.17675100  0.70612301  1
