# generated using pymatgen
data_Ta2MnNbCuPd3
_symmetry_space_group_name_H-M   'P 1'
_cell_length_a   5.03502893
_cell_length_b   5.03502893
_cell_length_c   5.03502893
_cell_angle_alpha   90.00000000
_cell_angle_beta   90.00000000
_cell_angle_gamma   90.00000000
_symmetry_Int_Tables_number   1
_chemical_formula_structural   Ta2MnNbCuPd3
_chemical_formula_sum   'Ta2 Mn1 Nb1 Cu1 Pd3'
_cell_volume   127.64561846
_cell_formula_units_Z   1
loop_
 _symmetry_equiv_pos_site_id
 _symmetry_equiv_pos_as_xyz
  1  'x, y, z'
loop_
 _atom_site_type_symbol
 _atom_site_label
 _atom_site_symmetry_multiplicity
 _atom_site_fract_x
 _atom_site_fract_y
 _atom_site_fract_z
 _atom_site_occupancy
  Ta  Ta0  1  0.24545700  0.00000000  0.50000001  1
  Ta  Ta1  1  0.75454301  0.00000000  0.50000001  1
  Nb  Nb2  1  0.50000001  0.24545700  0.00000000  1
  Mn  Mn3  1  0.50000001  0.75454301  0.00000000  1
  Cu  Cu4  1  0.00000000  0.50000001  0.24545700  1
  Pd  Pd5  1  0.00000000  0.50000001  0.75454301  1
  Pd  Pd6  1  0.50000001  0.50000001  0.50000001  1
  Pd  Pd7  1  0.00000000  0.00000000  0.00000000  1
