# generated using pymatgen
data_Sc2AlGa2GePd
_symmetry_space_group_name_H-M   'P 1'
_cell_length_a   5.52027798
_cell_length_b   5.52027798
_cell_length_c   6.73511076
_cell_angle_alpha   114.19311523
_cell_angle_beta   114.19311523
_cell_angle_gamma   90.00000000
_symmetry_Int_Tables_number   1
_chemical_formula_structural   Sc2AlGa2GePd
_chemical_formula_sum   'Sc2 Al1 Ga2 Ge1 Pd1'
_cell_volume   167.25738737
_cell_formula_units_Z   1
loop_
 _symmetry_equiv_pos_site_id
 _symmetry_equiv_pos_as_xyz
  1  'x, y, z'
loop_
 _atom_site_type_symbol
 _atom_site_label
 _atom_site_symmetry_multiplicity
 _atom_site_fract_x
 _atom_site_fract_y
 _atom_site_fract_z
 _atom_site_occupancy
  Al  Al0  1  0.74999999  0.25000000  0.49999997  1
  Sc  Sc1  1  0.24999998  0.74999999  0.49999997  1
  Sc  Sc2  1  0.49999998  0.49999999  -0.00000003  1
  Ga  Ga3  1  0.26257399  0.26257400  0.52514799  1
  Ga  Ga4  1  0.73742597  0.73742599  0.47485196  1
  Ge  Ge5  1  -0.00000001  0.49999999  -0.00000002  1
  Pd  Pd6  1  0.50000000  0.00000000  -0.00000001  1
