# generated using pymatgen
data_BaLa7Tl8
_symmetry_space_group_name_H-M   'P 1'
_cell_length_a   6.60120106
_cell_length_b   6.60120106
_cell_length_c   10.74087811
_cell_angle_alpha   90.00000000
_cell_angle_beta   90.00000000
_cell_angle_gamma   102.33248901
_symmetry_Int_Tables_number   1
_chemical_formula_structural   BaLa7Tl8
_chemical_formula_sum   'Ba1 La7 Tl8'
_cell_volume   457.24268249
_cell_formula_units_Z   1
loop_
 _symmetry_equiv_pos_site_id
 _symmetry_equiv_pos_as_xyz
  1  'x, y, z'
loop_
 _atom_site_type_symbol
 _atom_site_label
 _atom_site_symmetry_multiplicity
 _atom_site_fract_x
 _atom_site_fract_y
 _atom_site_fract_z
 _atom_site_occupancy
  La  La0  1  0.63666501  0.63666502  0.74999999  1
  La  La1  1  0.36333500  0.36333501  0.25000000  1
  La  La2  1  0.79808102  0.20191901  0.50000000  1
  La  La3  1  0.79808102  0.20191901  0.99999999  1
  Ba  Ba4  1  0.20191899  0.79808102  0.50000000  1
  La  La5  1  0.20191899  0.79808102  -0.00000000  1
  La  La6  1  0.02567800  0.02567800  0.74999999  1
  La  La7  1  0.97432201  0.97432203  0.25000000  1
  Tl  Tl8  1  0.32101200  0.32101201  0.95408799  1
  Tl  Tl9  1  0.67898801  0.67898802  0.04591200  1
  Tl  Tl10  1  0.32101200  0.32101201  0.54591199  1
  Tl  Tl11  1  0.67898801  0.67898802  0.45408800  1
  Tl  Tl12  1  0.08058199  0.50167801  0.74999999  1
  Tl  Tl13  1  0.49832200  0.91941802  0.25000000  1
  Tl  Tl14  1  0.91941802  0.49832201  0.25000000  1
  Tl  Tl15  1  0.50167801  0.08058200  0.74999999  1
