# generated using pymatgen
data_YZrInGa3Ge(Pd3Au)2
_symmetry_space_group_name_H-M   'P 1'
_cell_length_a   6.46352196
_cell_length_b   6.46352196
_cell_length_c   6.46352196
_cell_angle_alpha   90.00000000
_cell_angle_beta   90.00000000
_cell_angle_gamma   90.00000000
_symmetry_Int_Tables_number   1
_chemical_formula_structural   YZrInGa3Ge(Pd3Au)2
_chemical_formula_sum   'Y1 Zr1 In1 Ga3 Ge1 Pd6 Au2'
_cell_volume   270.02730719
_cell_formula_units_Z   1
loop_
 _symmetry_equiv_pos_site_id
 _symmetry_equiv_pos_as_xyz
  1  'x, y, z'
loop_
 _atom_site_type_symbol
 _atom_site_label
 _atom_site_symmetry_multiplicity
 _atom_site_fract_x
 _atom_site_fract_y
 _atom_site_fract_z
 _atom_site_occupancy
  Y  Y0  1  0.50000000  0.50000000  0.00000000  1
  In  In1  1  0.50000000  0.00000000  0.50000000  1
  Zr  Zr2  1  0.00000000  0.50000000  0.50000000  1
  Ga  Ga3  1  0.50000000  0.50000000  0.50000000  1
  Ga  Ga4  1  0.20878900  0.20878900  0.79121101  1
  Pd  Pd5  1  0.20878900  0.79121101  0.20878900  1
  Pd  Pd6  1  0.79121101  0.20878900  0.20878900  1
  Pd  Pd7  1  0.79121101  0.79121101  0.79121101  1
  Pd  Pd8  1  0.79121101  0.79121101  0.20878900  1
  Ga  Ga9  1  0.79121101  0.20878900  0.79121101  1
  Pd  Pd10  1  0.20878900  0.79121101  0.79121101  1
  Pd  Pd11  1  0.20878900  0.20878900  0.20878900  1
  Ge  Ge12  1  0.00000000  0.00000000  0.50000000  1
  Au  Au13  1  0.00000000  0.50000000  0.00000000  1
  Au  Au14  1  0.50000000  0.00000000  0.00000000  1
