# generated using pymatgen
data_LiMnFe17
_symmetry_space_group_name_H-M   'P 1'
_cell_length_a   5.97961569
_cell_length_b   5.97961569
_cell_length_c   5.97961569
_cell_angle_alpha   103.96244812
_cell_angle_beta   103.96244812
_cell_angle_gamma   103.96244812
_symmetry_Int_Tables_number   1
_chemical_formula_structural   LiMnFe17
_chemical_formula_sum   'Li1 Mn1 Fe17'
_cell_volume   190.90472753
_cell_formula_units_Z   1
loop_
 _symmetry_equiv_pos_site_id
 _symmetry_equiv_pos_as_xyz
  1  'x, y, z'
loop_
 _atom_site_type_symbol
 _atom_site_label
 _atom_site_symmetry_multiplicity
 _atom_site_fract_x
 _atom_site_fract_y
 _atom_site_fract_z
 _atom_site_occupancy
  Li  Li0  1  0.00000000  0.00000000  0.00000000  1
  Fe  Fe1  1  0.18660301  0.45850002  0.45850004  1
  Mn  Mn2  1  0.45850002  0.45850002  0.18660305  1
  Fe  Fe3  1  0.45850002  0.18660301  0.45850004  1
  Fe  Fe4  1  0.81339704  0.54150002  0.54150007  1
  Fe  Fe5  1  0.54150002  0.54150002  0.81339706  1
  Fe  Fe6  1  0.54150003  0.81339704  0.54150007  1
  Fe  Fe7  1  0.13294901  0.86705104  0.50000006  1
  Fe  Fe8  1  0.86705104  0.50000002  0.13294907  1
  Fe  Fe9  1  0.50000002  0.13294901  0.86705104  1
  Fe  Fe10  1  0.13294901  0.50000002  0.86705104  1
  Fe  Fe11  1  0.50000002  0.86705104  0.13294907  1
  Fe  Fe12  1  0.86705104  0.13294901  0.50000005  1
  Fe  Fe13  1  0.67394903  0.23177301  0.23177305  1
  Fe  Fe14  1  0.23177301  0.23177301  0.67394903  1
  Fe  Fe15  1  0.23177301  0.67394903  0.23177305  1
  Fe  Fe16  1  0.32605102  0.76822703  0.76822706  1
  Fe  Fe17  1  0.76822703  0.76822703  0.32605108  1
  Fe  Fe18  1  0.76822703  0.32605101  0.76822706  1
