# generated using pymatgen
data_SmGdThBe6
_symmetry_space_group_name_H-M   'P 1'
_cell_length_a   4.65186214
_cell_length_b   4.70323277
_cell_length_c   6.25100422
_cell_angle_alpha   82.10469055
_cell_angle_beta   73.87339020
_cell_angle_gamma   60.36066055
_symmetry_Int_Tables_number   1
_chemical_formula_structural   SmGdThBe6
_chemical_formula_sum   'Sm1 Gd1 Th1 Be6'
_cell_volume   114.19206550
_cell_formula_units_Z   1
loop_
 _symmetry_equiv_pos_site_id
 _symmetry_equiv_pos_as_xyz
  1  'x, y, z'
loop_
 _atom_site_type_symbol
 _atom_site_label
 _atom_site_symmetry_multiplicity
 _atom_site_fract_x
 _atom_site_fract_y
 _atom_site_fract_z
 _atom_site_occupancy
  Be  Be0  1  0.89413298  0.00000000  0.77073199  1
  Gd  Gd1  1  0.10586703  1.00000000  0.22926802  1
  Sm  Sm2  1  0.50000000  0.50000000  0.50000001  1
  Th  Th3  1  0.00000001  0.50000000  0.50000002  1
  Be  Be4  1  0.20734500  0.32989700  0.84479002  1
  Be  Be5  1  0.79265500  0.67010300  0.15521000  1
  Be  Be6  1  0.46275800  0.32989700  0.15521000  1
  Be  Be7  1  0.53724201  0.67010300  0.84479002  1
  Be  Be8  1  0.49999999  0.00000000  0.50000000  1
