# generated using pymatgen
data_K2Cu(TeSe2)2
_symmetry_space_group_name_H-M   'P 1'
_cell_length_a   7.42677784
_cell_length_b   7.42677784
_cell_length_c   10.30570793
_cell_angle_alpha   90.00000000
_cell_angle_beta   90.00000000
_cell_angle_gamma   90.00000000
_symmetry_Int_Tables_number   1
_chemical_formula_structural   K2Cu(TeSe2)2
_chemical_formula_sum   'K4 Cu2 Te4 Se8'
_cell_volume   568.43223207
_cell_formula_units_Z   2
loop_
 _symmetry_equiv_pos_site_id
 _symmetry_equiv_pos_as_xyz
  1  'x, y, z'
loop_
 _atom_site_type_symbol
 _atom_site_label
 _atom_site_symmetry_multiplicity
 _atom_site_fract_x
 _atom_site_fract_y
 _atom_site_fract_z
 _atom_site_occupancy
  K  K0  1  0.50000001  0.00000000  0.78070201  1
  K  K1  1  0.00000000  0.50000001  0.21929800  1
  K  K2  1  0.50000001  0.00000000  0.21929800  1
  K  K3  1  0.00000000  0.50000001  0.78070201  1
  Cu  Cu4  1  0.00000000  0.00000000  0.00000000  1
  Cu  Cu5  1  0.50000001  0.50000001  0.50000000  1
  Te  Te6  1  0.00000000  0.00000000  0.75137300  1
  Te  Te7  1  0.50000001  0.50000001  0.26602400  1
  Te  Te8  1  0.72966502  0.72966502  0.50000000  1
  Se  Se9  1  0.24309601  0.24309601  0.00000000  1
  Te  Te10  1  0.72966502  0.27033501  0.50000000  1
  Se  Se11  1  0.24309601  0.75690402  0.00000000  1
  Se  Se12  1  0.00000000  0.00000000  0.24862700  1
  Se  Se13  1  0.50000001  0.50000001  0.73397600  1
  Se  Se14  1  0.27033501  0.27033501  0.50000000  1
  Se  Se15  1  0.75690402  0.75690402  0.00000000  1
  Se  Se16  1  0.27033501  0.72966502  0.50000000  1
  Se  Se17  1  0.75690402  0.24309601  0.00000000  1
