# generated using pymatgen
data_Li3Mn(CoO4)2
_symmetry_space_group_name_H-M   'P 1'
_cell_length_a   6.02660751
_cell_length_b   6.02660751
_cell_length_c   6.02660751
_cell_angle_alpha   89.35881805
_cell_angle_beta   60.08077621
_cell_angle_gamma   119.34262085
_symmetry_Int_Tables_number   1
_chemical_formula_structural   Li3Mn(CoO4)2
_chemical_formula_sum   'Li3 Mn1 Co2 O8'
_cell_volume   155.62405629
_cell_formula_units_Z   1
loop_
 _symmetry_equiv_pos_site_id
 _symmetry_equiv_pos_as_xyz
  1  'x, y, z'
loop_
 _atom_site_type_symbol
 _atom_site_label
 _atom_site_symmetry_multiplicity
 _atom_site_fract_x
 _atom_site_fract_y
 _atom_site_fract_z
 _atom_site_occupancy
  Li  Li0  1  0.00000006  0.50000001  0.49999992  1
  Li  Li1  1  0.50000010  1.00000002  0.49999985  1
  Li  Li2  1  0.25000001  0.12289800  0.12710197  1
  Mn  Mn3  1  0.75000008  0.87710202  0.87289785  1
  Co  Co4  1  1.00000003  0.50000001  -0.00000009  1
  Co  Co5  1  0.50000005  0.50000001  0.49999991  1
  O  O6  1  0.48063707  0.74575201  0.27361089  1
  O  O7  1  0.01936309  0.74575201  0.73488489  1
  O  O8  1  0.49440108  0.75291701  0.74148287  1
  O  O9  1  0.00559903  0.26411501  0.74148394  1
  O  O10  1  0.51936302  0.25424800  0.72638893  1
  O  O11  1  0.98063701  0.25424800  0.26511493  1
  O  O12  1  0.50559902  0.24708300  0.25851695  1
  O  O13  1  0.99440106  0.73588501  0.25851588  1
