# generated using pymatgen
data_Li3CuNiO8F
_symmetry_space_group_name_H-M   'P 1'
_cell_length_a   5.86949253
_cell_length_b   5.86949253
_cell_length_c   5.86949253
_cell_angle_alpha   60.00000000
_cell_angle_beta   60.00000000
_cell_angle_gamma   60.00000000
_symmetry_Int_Tables_number   1
_chemical_formula_structural   Li3CuNiO8F
_chemical_formula_sum   'Li3 Cu1 Ni1 O8 F1'
_cell_volume   142.98374409
_cell_formula_units_Z   1
loop_
 _symmetry_equiv_pos_site_id
 _symmetry_equiv_pos_as_xyz
  1  'x, y, z'
loop_
 _atom_site_type_symbol
 _atom_site_label
 _atom_site_symmetry_multiplicity
 _atom_site_fract_x
 _atom_site_fract_y
 _atom_site_fract_z
 _atom_site_occupancy
  Li  Li0  1  0.25000000  0.25000000  0.25000000  1
  Cu  Cu1  1  0.50000000  0.50000000  0.50000000  1
  Li  Li2  1  0.37500000  0.87500001  0.87500001  1
  Li  Li3  1  0.87500001  0.37500000  0.87500001  1
  O  O4  1  0.87500001  0.87500001  0.87500001  1
  Ni  Ni5  1  0.87500001  0.87500001  0.37500000  1
  O  O6  1  0.63814500  0.63814400  0.08556700  1
  O  O7  1  0.08556800  0.63814400  0.63814400  1
  O  O8  1  0.11185600  0.11185600  0.66443200  1
  O  O9  1  0.11185500  0.66443300  0.11185600  1
  F  F10  1  0.66443200  0.11185600  0.11185600  1
  O  O11  1  0.11185500  0.11185600  0.11185600  1
  O  O12  1  0.63814500  0.08556700  0.63814400  1
  O  O13  1  0.63814500  0.63814400  0.63814400  1
