# generated using pymatgen
data_LaY6Tl4In(GaNi2)2
_symmetry_space_group_name_H-M   'P 1'
_cell_length_a   8.44702721
_cell_length_b   8.44702721
_cell_length_c   8.44702721
_cell_angle_alpha   72.99434662
_cell_angle_beta   70.01517487
_cell_angle_gamma   111.45452118
_symmetry_Int_Tables_number   1
_chemical_formula_structural   LaY6Tl4In(GaNi2)2
_chemical_formula_sum   'La1 Y6 Tl4 In1 Ga2 Ni4'
_cell_volume   463.24918733
_cell_formula_units_Z   1
loop_
 _symmetry_equiv_pos_site_id
 _symmetry_equiv_pos_as_xyz
  1  'x, y, z'
loop_
 _atom_site_type_symbol
 _atom_site_label
 _atom_site_symmetry_multiplicity
 _atom_site_fract_x
 _atom_site_fract_y
 _atom_site_fract_z
 _atom_site_occupancy
  Y  Y0  1  0.79113297  0.23251598  0.97635101  1
  La  La1  1  0.20886691  0.76748393  0.02364909  1
  Y  Y2  1  0.20886697  0.23251598  0.55861702  1
  Y  Y3  1  0.79113290  0.76748393  0.44138308  1
  Y  Y4  1  0.52760091  0.71310494  0.18550408  1
  Y  Y5  1  0.47239896  0.28689497  0.81449602  1
  Y  Y6  1  0.10138997  0.28689397  0.18550503  1
  Tl  Tl7  1  0.89860991  0.71310594  0.81449506  1
  Tl  Tl8  1  0.69439299  0.01131500  0.68307899  1
  Ga  Ga9  1  0.30560688  0.98868491  0.31692111  1
  Tl  Tl10  1  0.30560693  0.62252894  0.68307806  1
  Ga  Ga11  1  0.69439295  0.37747097  0.31692203  1
  Ni  Ni12  1  -0.00000006  0.49999996  0.50000005  1
  Ni  Ni13  1  0.00000000  0.00000000  0.00000000  1
  In  In14  1  0.62466699  0.00000000  0.37533299  1
  Ni  Ni15  1  0.37533300  0.00000000  0.62466699  1
  Ni  Ni16  1  0.49999993  0.61085695  0.88914306  1
  Tl  Tl17  1  0.49999995  0.38914297  0.11085704  1
