# generated using pymatgen
data_K2Ba2Nb2Tl2CuS11
_symmetry_space_group_name_H-M   'P 1'
_cell_length_a   7.19562292
_cell_length_b   7.20463324
_cell_length_c   10.18439770
_cell_angle_alpha   90.00000000
_cell_angle_beta   90.00000000
_cell_angle_gamma   90.00000000
_symmetry_Int_Tables_number   1
_chemical_formula_structural   K2Ba2Nb2Tl2CuS11
_chemical_formula_sum   'K2 Ba2 Nb2 Tl2 Cu1 S11'
_cell_volume   527.97775348
_cell_formula_units_Z   1
loop_
 _symmetry_equiv_pos_site_id
 _symmetry_equiv_pos_as_xyz
  1  'x, y, z'
loop_
 _atom_site_type_symbol
 _atom_site_label
 _atom_site_symmetry_multiplicity
 _atom_site_fract_x
 _atom_site_fract_y
 _atom_site_fract_z
 _atom_site_occupancy
  Ba  Ba0  1  0.22211400  0.77749297  0.96854403  1
  Ba  Ba1  1  0.27788600  0.27749299  0.53145602  1
  K  K2  1  0.72211401  0.72250698  0.03145600  1
  K  K3  1  0.77788601  0.22250699  0.46854401  1
  Nb  Nb4  1  0.22211400  0.77749297  0.53145602  1
  Tl  Tl5  1  0.27788600  0.27749299  0.96854403  1
  Nb  Nb6  1  0.72211401  0.72250698  0.46854401  1
  Tl  Tl7  1  0.77788601  0.22250699  0.03145600  1
  S  S8  1  0.93930301  0.49136198  0.75000002  1
  S  S9  1  0.56069701  0.99136197  0.75000002  1
  S  S10  1  0.43930300  0.00863800  0.25000001  1
  S  S11  1  0.06069700  0.50863798  0.25000001  1
  S  S12  1  0.00507200  0.02076900  0.75000002  1
  S  S13  1  0.49492801  0.52076898  0.75000002  1
  S  S14  1  0.50507201  0.47923098  0.25000001  1
  S  S15  1  0.99492801  0.97923097  0.25000001  1
  S  S16  1  0.50000001  0.00000000  0.50000001  1
  Cu  Cu17  1  0.00000000  0.49999998  0.00000000  1
  S  S18  1  0.00000000  0.49999998  0.50000001  1
  S  S19  1  0.50000001  0.00000000  -0.00000000  1
