# generated using pymatgen
data_La5ErSn5Au3
_symmetry_space_group_name_H-M   'P 1'
_cell_length_a   7.87751961
_cell_length_b   7.87751961
_cell_length_c   7.87751961
_cell_angle_alpha   109.47122192
_cell_angle_beta   109.47122192
_cell_angle_gamma   109.47122192
_symmetry_Int_Tables_number   1
_chemical_formula_structural   La5ErSn5Au3
_chemical_formula_sum   'La5 Er1 Sn5 Au3'
_cell_volume   376.31069983
_cell_formula_units_Z   1
loop_
 _symmetry_equiv_pos_site_id
 _symmetry_equiv_pos_as_xyz
  1  'x, y, z'
loop_
 _atom_site_type_symbol
 _atom_site_label
 _atom_site_symmetry_multiplicity
 _atom_site_fract_x
 _atom_site_fract_y
 _atom_site_fract_z
 _atom_site_occupancy
  Er  Er0  1  0.25000002  0.37500001  0.12500002  1
  La  La1  1  0.37500004  0.62500002  0.75000003  1
  La  La2  1  0.12500005  0.87500002  0.25000005  1
  La  La3  1  0.87500004  0.75000002  0.62500005  1
  La  La4  1  0.62500001  0.25000001  0.87500002  1
  La  La5  1  0.75000000  0.12500000  0.37500002  1
  Sn  Sn6  1  0.34912000  0.00000000  0.00000001  1
  Sn  Sn7  1  0.65088004  0.65088002  0.15088005  1
  Sn  Sn8  1  0.50000005  0.84912002  0.50000005  1
  Sn  Sn9  1  0.00000003  0.50000001  0.34912002  1
  Au  Au10  1  0.50000002  0.34912001  0.50000002  1
  Au  Au11  1  0.00000003  0.50000001  0.84912002  1
  Au  Au12  1  0.84911999  0.00000000  0.00000002  1
  Sn  Sn13  1  0.15088001  0.15088000  0.65088000  1
