# generated using pymatgen
data_ErInSn3Au
_symmetry_space_group_name_H-M   'P 1'
_cell_length_a   4.51117802
_cell_length_b   4.51117802
_cell_length_c   16.11918831
_cell_angle_alpha   90.00000000
_cell_angle_beta   90.00000000
_cell_angle_gamma   120.00000000
_symmetry_Int_Tables_number   1
_chemical_formula_structural   ErInSn3Au
_chemical_formula_sum   'Er2 In2 Sn6 Au2'
_cell_volume   284.08855059
_cell_formula_units_Z   2
loop_
 _symmetry_equiv_pos_site_id
 _symmetry_equiv_pos_as_xyz
  1  'x, y, z'
loop_
 _atom_site_type_symbol
 _atom_site_label
 _atom_site_symmetry_multiplicity
 _atom_site_fract_x
 _atom_site_fract_y
 _atom_site_fract_z
 _atom_site_occupancy
  Er  Er0  1  0.00000000  0.00000000  0.00000000  1
  Er  Er1  1  0.00000000  0.00000000  0.75000003  1
  In  In2  1  0.00000000  0.00000000  0.50000002  1
  In  In3  1  0.00000000  0.00000000  0.25000001  1
  Sn  Sn4  1  0.33333335  0.66666671  0.16122901  1
  Sn  Sn5  1  0.66666668  0.33333335  0.66122903  1
  Sn  Sn6  1  0.33333335  0.66666671  0.33877101  1
  Sn  Sn7  1  0.66666668  0.33333335  0.83877104  1
  Sn  Sn8  1  0.66666668  0.33333335  0.38621002  1
  Au  Au9  1  0.33333335  0.66666671  0.88621004  1
  Sn  Sn10  1  0.33333335  0.66666671  0.61379003  1
  Au  Au11  1  0.66666668  0.33333335  0.11379000  1
