# generated using pymatgen
data_KRb2CuCl4
_symmetry_space_group_name_H-M   'P 1'
_cell_length_a   7.52962828
_cell_length_b   7.52962828
_cell_length_c   7.52962828
_cell_angle_alpha   109.47122192
_cell_angle_beta   109.47122192
_cell_angle_gamma   109.47122192
_symmetry_Int_Tables_number   1
_chemical_formula_structural   KRb2CuCl4
_chemical_formula_sum   'K1 Rb2 Cu1 Cl4'
_cell_volume   328.62356136
_cell_formula_units_Z   1
loop_
 _symmetry_equiv_pos_site_id
 _symmetry_equiv_pos_as_xyz
  1  'x, y, z'
loop_
 _atom_site_type_symbol
 _atom_site_label
 _atom_site_symmetry_multiplicity
 _atom_site_fract_x
 _atom_site_fract_y
 _atom_site_fract_z
 _atom_site_occupancy
  K  K0  1  0.00000003  0.50000003  0.50000004  1
  Rb  Rb1  1  0.50000008  1.00000006  0.50000008  1
  Rb  Rb2  1  0.50000005  0.50000003  1.00000006  1
  Cu  Cu3  1  0.00000000  0.00000000  0.00000000  1
  Cl  Cl4  1  0.00000000  0.00000000  0.30720401  1
  Cl  Cl5  1  0.69279606  0.69279604  0.69279607  1
  Cl  Cl6  1  0.30720407  1.00000006  1.00000008  1
  Cl  Cl7  1  0.00000002  0.30720402  0.00000002  1
