# generated using pymatgen
data_MnFe7
_symmetry_space_group_name_H-M   'P 1'
_cell_length_a   3.94932389
_cell_length_b   3.94932389
_cell_length_c   13.13160133
_cell_angle_alpha   81.35135651
_cell_angle_beta   81.35135651
_cell_angle_gamma   60.00000381
_symmetry_Int_Tables_number   1
_chemical_formula_structural   MnFe7
_chemical_formula_sum   'Mn2 Fe14'
_cell_volume   174.68117712
_cell_formula_units_Z   2
loop_
 _symmetry_equiv_pos_site_id
 _symmetry_equiv_pos_as_xyz
  1  'x, y, z'
loop_
 _atom_site_type_symbol
 _atom_site_label
 _atom_site_symmetry_multiplicity
 _atom_site_fract_x
 _atom_site_fract_y
 _atom_site_fract_z
 _atom_site_occupancy
  Mn  Mn0  1  0.00000000  0.00000000  0.00000000  1
  Fe  Fe1  1  0.56276301  0.56276299  0.31171099  1
  Fe  Fe2  1  0.81239702  0.81239698  0.56280899  1
  Mn  Mn3  1  0.06148500  0.06148500  0.81554500  1
  Fe  Fe4  1  0.31332901  0.31332899  0.06001300  1
  Fe  Fe5  1  0.18760300  0.18760300  0.43719100  1
  Fe  Fe6  1  0.43723701  0.43723699  0.68828900  1
  Fe  Fe7  1  0.68667102  0.68667098  0.93998699  1
  Fe  Fe8  1  0.93851502  0.93851498  0.18445499  1
  Fe  Fe9  1  0.24945801  0.24945799  0.25162600  1
  Fe  Fe10  1  0.50000001  0.49999999  0.50000000  1
  Fe  Fe11  1  0.75054202  0.75054198  0.74837399  1
  Fe  Fe12  1  0.87489402  0.87489398  0.37531799  1
  Fe  Fe13  1  0.12510600  0.12510600  0.62468200  1
  Fe  Fe14  1  0.37530201  0.37530199  0.87409400  1
  Fe  Fe15  1  0.62469802  0.62469799  0.12590599  1
