# generated using pymatgen
data_MnVFe3SiNi2
_symmetry_space_group_name_H-M   'P 1'
_cell_length_a   3.11392403
_cell_length_b   3.21142697
_cell_length_c   8.59910202
_cell_angle_alpha   90.00000000
_cell_angle_beta   90.00000000
_cell_angle_gamma   90.00000000
_symmetry_Int_Tables_number   1
_chemical_formula_structural   MnVFe3SiNi2
_chemical_formula_sum   'Mn1 V1 Fe3 Si1 Ni2'
_cell_volume   85.99222074
_cell_formula_units_Z   1
loop_
 _symmetry_equiv_pos_site_id
 _symmetry_equiv_pos_as_xyz
  1  'x, y, z'
loop_
 _atom_site_type_symbol
 _atom_site_label
 _atom_site_symmetry_multiplicity
 _atom_site_fract_x
 _atom_site_fract_y
 _atom_site_fract_z
 _atom_site_occupancy
  Mn  Mn0  1  0.00000000  0.00000000  0.14561300  1
  Fe  Fe1  1  0.00000000  0.00000000  0.44040700  1
  Fe  Fe2  1  0.00000000  0.50000000  0.93893400  1
  Fe  Fe3  1  0.50000000  0.50000000  0.05667900  1
  V  V4  1  0.50000000  0.00000000  0.56207000  1
  Ni  Ni5  1  0.00000000  0.50000000  0.64466200  1
  Si  Si6  1  0.50000000  0.50000000  0.35890400  1
  Ni  Ni7  1  0.50000000  0.00000000  0.85273300  1
