# generated using pymatgen
data_ErZrAl4Ga2Fe2Si9Ge
_symmetry_space_group_name_H-M   'P 1'
_cell_length_a   3.01514006
_cell_length_b   9.46709919
_cell_length_c   9.46709919
_cell_angle_alpha   90.00000000
_cell_angle_beta   90.00000000
_cell_angle_gamma   90.00000000
_symmetry_Int_Tables_number   1
_chemical_formula_structural   ErZrAl4Ga2Fe2Si9Ge
_chemical_formula_sum   'Er1 Zr1 Al4 Ga2 Fe2 Si9 Ge1'
_cell_volume   270.23484342
_cell_formula_units_Z   1
loop_
 _symmetry_equiv_pos_site_id
 _symmetry_equiv_pos_as_xyz
  1  'x, y, z'
loop_
 _atom_site_type_symbol
 _atom_site_label
 _atom_site_symmetry_multiplicity
 _atom_site_fract_x
 _atom_site_fract_y
 _atom_site_fract_z
 _atom_site_occupancy
  Er  Er0  1  0.99999998  0.82390498  0.67609499  1
  Zr  Zr1  1  0.99999998  0.17609500  0.32390499  1
  Al  Al2  1  0.99999998  0.32390499  0.82390498  1
  Al  Al3  1  0.00000000  0.67609499  0.17609500  1
  Al  Al4  1  0.00000000  0.49999999  0.49999999  1
  Al  Al5  1  0.00000000  0.00000000  0.00000000  1
  Si  Si6  1  0.99999998  0.62151199  0.87848798  1
  Fe  Fe7  1  0.99999998  0.37848799  0.12151200  1
  Ga  Ga8  1  0.00000000  0.12151200  0.62151199  1
  Si  Si9  1  0.00000000  0.87848798  0.37848799  1
  Si  Si10  1  0.49999999  0.57130199  0.71839399  1
  Fe  Fe11  1  0.49999999  0.42869799  0.28160599  1
  Si  Si12  1  0.49999999  0.07130200  0.78160598  1
  Si  Si13  1  0.49999999  0.92869798  0.21839400  1
  Ga  Ga14  1  0.49999999  0.28160599  0.57130199  1
  Ge  Ge15  1  0.49999999  0.71839399  0.42869799  1
  Si  Si16  1  0.49999999  0.21839400  0.07130200  1
  Si  Si17  1  0.49999999  0.78160598  0.92869798  1
  Si  Si18  1  0.49999999  0.49999999  -0.00000000  1
  Si  Si19  1  0.49999999  0.00000000  0.49999999  1
