# generated using pymatgen
data_MnAlVCrNO3
_symmetry_space_group_name_H-M   'P 1'
_cell_length_a   2.95512009
_cell_length_b   2.95512009
_cell_length_c   12.33883667
_cell_angle_alpha   90.00000000
_cell_angle_beta   90.00000000
_cell_angle_gamma   120.00000000
_symmetry_Int_Tables_number   1
_chemical_formula_structural   MnAlVCrNO3
_chemical_formula_sum   'Mn1 Al1 V1 Cr1 N1 O3'
_cell_volume   93.31578526
_cell_formula_units_Z   1
loop_
 _symmetry_equiv_pos_site_id
 _symmetry_equiv_pos_as_xyz
  1  'x, y, z'
loop_
 _atom_site_type_symbol
 _atom_site_label
 _atom_site_symmetry_multiplicity
 _atom_site_fract_x
 _atom_site_fract_y
 _atom_site_fract_z
 _atom_site_occupancy
  Al  Al0  1  0.00000000  0.00000000  0.00000000  1
  Mn  Mn1  1  0.00000000  0.00000000  0.50000001  1
  Cr  Cr2  1  0.66666665  0.33333332  0.75000002  1
  V  V3  1  0.33333332  0.66666665  0.25000001  1
  N  N4  1  0.66666665  0.33333332  0.91650802  1
  O  O5  1  0.66666665  0.33333332  0.58349202  1
  O  O6  1  0.33333332  0.66666665  0.41650801  1
  O  O7  1  0.33333332  0.66666665  0.08349200  1
