# generated using pymatgen
data_La2YInSn(PdAu)2
_symmetry_space_group_name_H-M   'P 1'
_cell_length_a   4.13764715
_cell_length_b   7.30628586
_cell_length_c   7.30628586
_cell_angle_alpha   120.00000000
_cell_angle_beta   90.00000000
_cell_angle_gamma   90.00000000
_symmetry_Int_Tables_number   1
_chemical_formula_structural   La2YInSn(PdAu)2
_chemical_formula_sum   'La2 Y1 In1 Sn1 Pd2 Au2'
_cell_volume   191.28345346
_cell_formula_units_Z   1
loop_
 _symmetry_equiv_pos_site_id
 _symmetry_equiv_pos_as_xyz
  1  'x, y, z'
loop_
 _atom_site_type_symbol
 _atom_site_label
 _atom_site_symmetry_multiplicity
 _atom_site_fract_x
 _atom_site_fract_y
 _atom_site_fract_z
 _atom_site_occupancy
  Y  Y0  1  0.99999996  0.00000000  0.40926799  1
  La  La1  1  -0.00000000  0.40926800  0.99999998  1
  La  La2  1  -0.00000000  0.59073200  0.59073198  1
  In  In3  1  0.49999998  0.74225801  -0.00000002  1
  Au  Au4  1  0.49999998  0.00000000  0.74225799  1
  Sn  Sn5  1  0.49999998  0.25774200  0.25774199  1
  Pd  Pd6  1  0.49999998  0.33333334  0.66666665  1
  Pd  Pd7  1  0.49999998  0.66666667  0.33333331  1
  Au  Au8  1  0.00000000  0.00000000  0.00000000  1
