# generated using pymatgen
data_Er3Al4Fe2Si3
_symmetry_space_group_name_H-M   'P 1'
_cell_length_a   5.38701248
_cell_length_b   5.40844440
_cell_length_c   8.56881523
_cell_angle_alpha   90.00000000
_cell_angle_beta   90.00000000
_cell_angle_gamma   119.86714935
_symmetry_Int_Tables_number   1
_chemical_formula_structural   Er3Al4Fe2Si3
_chemical_formula_sum   'Er3 Al4 Fe2 Si3'
_cell_volume   216.49685536
_cell_formula_units_Z   1
loop_
 _symmetry_equiv_pos_site_id
 _symmetry_equiv_pos_as_xyz
  1  'x, y, z'
loop_
 _atom_site_type_symbol
 _atom_site_label
 _atom_site_symmetry_multiplicity
 _atom_site_fract_x
 _atom_site_fract_y
 _atom_site_fract_z
 _atom_site_occupancy
  Er  Er0  1  0.33297196  0.66593897  0.56468298  1
  Er  Er1  1  0.66285297  0.32569199  0.44903399  1
  Al  Al2  1  0.66285297  0.32569199  0.05096600  1
  Er  Er3  1  0.33297196  0.66593897  0.93531697  1
  Al  Al4  1  0.83621895  0.67243897  0.74999998  1
  Al  Al5  1  0.16257095  0.83670497  0.24999999  1
  Si  Si6  1  0.67411594  0.83671297  0.24999999  1
  Al  Al7  1  0.16387898  0.32777699  0.24999999  1
  Fe  Fe8  1  0.00690000  0.01382900  0.51252799  1
  Fe  Fe9  1  0.00690000  0.01382900  0.98747197  1
  Si  Si10  1  0.83209598  0.15771099  0.74999998  1
  Si  Si11  1  0.32566999  0.15773599  0.74999998  1
