# generated using pymatgen
data_ZrVTcNiN4
_symmetry_space_group_name_H-M   'P 1'
_cell_length_a   5.11026573
_cell_length_b   5.11026573
_cell_length_c   5.37839174
_cell_angle_alpha   61.63584900
_cell_angle_beta   61.63584900
_cell_angle_gamma   60.00000381
_symmetry_Int_Tables_number   1
_chemical_formula_structural   ZrVTcNiN4
_chemical_formula_sum   'Zr1 V1 Tc1 Ni1 N4'
_cell_volume   101.70244407
_cell_formula_units_Z   1
loop_
 _symmetry_equiv_pos_site_id
 _symmetry_equiv_pos_as_xyz
  1  'x, y, z'
loop_
 _atom_site_type_symbol
 _atom_site_label
 _atom_site_symmetry_multiplicity
 _atom_site_fract_x
 _atom_site_fract_y
 _atom_site_fract_z
 _atom_site_occupancy
  N  N0  1  0.49999998  0.49999999  0.50000001  1
  Zr  Zr1  1  0.00000000  0.00000000  0.00000000  1
  V  V2  1  0.62926397  0.84801899  0.26077004  1
  Ni  Ni3  1  0.26194698  0.62926399  0.26077002  1
  Tc  Tc4  1  0.84801898  0.26194700  0.26077002  1
  N  N5  1  0.15198098  0.73805299  0.73923000  1
  N  N6  1  0.73805298  0.37073600  0.73923000  1
  N  N7  1  0.37073599  0.15198100  0.73922999  1
