# generated using pymatgen
data_YEr2AlGa5Ge2Pd2Au
_symmetry_space_group_name_H-M   'P 1'
_cell_length_a   3.97592592
_cell_length_b   7.08499193
_cell_length_c   11.51915359
_cell_angle_alpha   90.00000000
_cell_angle_beta   90.00000000
_cell_angle_gamma   90.00000000
_symmetry_Int_Tables_number   1
_chemical_formula_structural   YEr2AlGa5Ge2Pd2Au
_chemical_formula_sum   'Y1 Er2 Al1 Ga5 Ge2 Pd2 Au1'
_cell_volume   324.48768078
_cell_formula_units_Z   1
loop_
 _symmetry_equiv_pos_site_id
 _symmetry_equiv_pos_as_xyz
  1  'x, y, z'
loop_
 _atom_site_type_symbol
 _atom_site_label
 _atom_site_symmetry_multiplicity
 _atom_site_fract_x
 _atom_site_fract_y
 _atom_site_fract_z
 _atom_site_occupancy
  Y  Y0  1  0.50000001  0.41463800  0.81489903  1
  Er  Er1  1  0.50000001  0.58536201  0.18510101  1
  Er  Er2  1  0.50000001  0.91463801  0.68510102  1
  Ga  Ga3  1  0.50000001  0.08536200  0.31489901  1
  Ga  Ga4  1  0.00000000  0.50000000  0.50000002  1
  Ga  Ga5  1  0.00000000  0.00000000  0.00000000  1
  Ga  Ga6  1  0.50000001  0.26477100  0.55236002  1
  Al  Al7  1  0.50000001  0.73522901  0.44764002  1
  Au  Au8  1  0.50000001  0.76477101  0.94764003  1
  Ga  Ga9  1  0.50000001  0.23522900  0.05236000  1
  Pd  Pd10  1  0.00000000  0.13228700  0.79795703  1
  Ge  Ge11  1  0.00000000  0.86771301  0.20204301  1
  Pd  Pd12  1  0.00000000  0.63228701  0.70204302  1
  Ge  Ge13  1  0.00000000  0.36771300  0.29795701  1
