# generated using pymatgen
data_BaLaInCuAu4
_symmetry_space_group_name_H-M   'P 1'
_cell_length_a   5.25112200
_cell_length_b   6.38906193
_cell_length_c   6.38906288
_cell_angle_alpha   60.00000381
_cell_angle_beta   90.00000000
_cell_angle_gamma   90.00000000
_symmetry_Int_Tables_number   1
_chemical_formula_structural   BaLaInCuAu4
_chemical_formula_sum   'Ba1 La1 In1 Cu1 Au4'
_cell_volume   185.63378370
_cell_formula_units_Z   1
loop_
 _symmetry_equiv_pos_site_id
 _symmetry_equiv_pos_as_xyz
  1  'x, y, z'
loop_
 _atom_site_type_symbol
 _atom_site_label
 _atom_site_symmetry_multiplicity
 _atom_site_fract_x
 _atom_site_fract_y
 _atom_site_fract_z
 _atom_site_occupancy
  Ba  Ba0  1  0.75000000  0.33333334  0.33333333  1
  La  La1  1  0.25000000  0.66666668  0.66666666  1
  Cu  Cu2  1  0.75000000  0.83040202  0.33919599  1
  In  In3  1  0.75000000  0.33919501  0.83040299  1
  Au  Au4  1  0.75000000  0.83040202  0.83040299  1
  Au  Au5  1  0.25000000  0.16959800  0.66080400  1
  Au  Au6  1  0.25000000  0.66080501  0.16959699  1
  Au  Au7  1  0.25000000  0.16959800  0.16959700  1
