# generated using pymatgen
data_HoErSn3Pd2Au
_symmetry_space_group_name_H-M   'P 1'
_cell_length_a   4.59027576
_cell_length_b   4.59027624
_cell_length_c   9.14543056
_cell_angle_alpha   90.00000000
_cell_angle_beta   90.00000000
_cell_angle_gamma   120.00000000
_symmetry_Int_Tables_number   1
_chemical_formula_structural   HoErSn3Pd2Au
_chemical_formula_sum   'Ho1 Er1 Sn3 Pd2 Au1'
_cell_volume   166.88311109
_cell_formula_units_Z   1
loop_
 _symmetry_equiv_pos_site_id
 _symmetry_equiv_pos_as_xyz
  1  'x, y, z'
loop_
 _atom_site_type_symbol
 _atom_site_label
 _atom_site_symmetry_multiplicity
 _atom_site_fract_x
 _atom_site_fract_y
 _atom_site_fract_z
 _atom_site_occupancy
  Er  Er0  1  0.66666672  0.33333335  0.75000004  1
  Ho  Ho1  1  0.33333338  0.66666669  0.25000001  1
  Sn  Sn2  1  0.00000000  0.00000000  0.50000002  1
  Sn  Sn3  1  0.00000000  0.00000000  0.00000000  1
  Sn  Sn4  1  0.66666672  0.33333335  0.09218800  1
  Pd  Pd5  1  0.33333338  0.66666669  0.90781204  1
  Pd  Pd6  1  0.33333338  0.66666669  0.59218803  1
  Au  Au7  1  0.66666672  0.33333335  0.40781202  1
