# generated using pymatgen
data_BaLa3In2(SnAu)3
_symmetry_space_group_name_H-M   'P 1'
_cell_length_a   4.80035019
_cell_length_b   7.81925678
_cell_length_c   8.11515617
_cell_angle_alpha   90.00000000
_cell_angle_beta   90.00000000
_cell_angle_gamma   90.00000000
_symmetry_Int_Tables_number   1
_chemical_formula_structural   BaLa3In2(SnAu)3
_chemical_formula_sum   'Ba1 La3 In2 Sn3 Au3'
_cell_volume   304.60377285
_cell_formula_units_Z   1
loop_
 _symmetry_equiv_pos_site_id
 _symmetry_equiv_pos_as_xyz
  1  'x, y, z'
loop_
 _atom_site_type_symbol
 _atom_site_label
 _atom_site_symmetry_multiplicity
 _atom_site_fract_x
 _atom_site_fract_y
 _atom_site_fract_z
 _atom_site_occupancy
  Ba  Ba0  1  0.24999999  0.49661001  0.21128200  1
  La  La1  1  0.74999997  0.50339001  0.78871798  1
  La  La2  1  0.24999999  0.99661003  0.28871799  1
  La  La3  1  0.74999997  0.00339000  0.71128198  1
  In  In4  1  0.74999997  0.32075601  0.41687699  1
  In  In5  1  0.24999999  0.17924400  0.91687698  1
  Sn  Sn6  1  0.74999997  0.82075602  0.08312300  1
  Sn  Sn7  1  0.24999999  0.67924402  0.58312299  1
  Sn  Sn8  1  0.24999999  0.29186201  0.59082199  1
  Au  Au9  1  0.74999997  0.20813801  0.09082200  1
  Au  Au10  1  0.24999999  0.79186202  0.90917798  1
  Au  Au11  1  0.74999997  0.70813802  0.40917799  1
