# generated using pymatgen
data_YErGa2SiGe7
_symmetry_space_group_name_H-M   'P 1'
_cell_length_a   5.27714205
_cell_length_b   6.26967764
_cell_length_c   6.26967764
_cell_angle_alpha   103.90009308
_cell_angle_beta   90.00000000
_cell_angle_gamma   90.00000000
_symmetry_Int_Tables_number   1
_chemical_formula_structural   YErGa2SiGe7
_chemical_formula_sum   'Y1 Er1 Ga2 Si1 Ge7'
_cell_volume   201.36381789
_cell_formula_units_Z   1
loop_
 _symmetry_equiv_pos_site_id
 _symmetry_equiv_pos_as_xyz
  1  'x, y, z'
loop_
 _atom_site_type_symbol
 _atom_site_label
 _atom_site_symmetry_multiplicity
 _atom_site_fract_x
 _atom_site_fract_y
 _atom_site_fract_z
 _atom_site_occupancy
  Y  Y0  1  0.74999999  0.34518100  0.34518101  1
  Er  Er1  1  0.25000000  0.65481899  0.65481902  1
  Ga  Ga2  1  0.74999999  0.52754100  0.91552701  1
  Ga  Ga3  1  0.25000000  0.47245900  0.08447302  1
  Ge  Ge4  1  0.25000000  0.05152000  0.05152000  1
  Si  Si5  1  0.74999999  0.94847999  0.94848002  1
  Ge  Ge6  1  0.25000000  0.08447300  0.47245899  1
  Ge  Ge7  1  0.74999999  0.91552699  0.52754103  1
  Ge  Ge8  1  -0.00000000  0.79616699  0.20383303  1
  Ge  Ge9  1  0.50000000  0.20383300  0.79616699  1
  Ge  Ge10  1  -0.00000000  0.20383300  0.79616699  1
  Ge  Ge11  1  0.50000000  0.79616699  0.20383303  1
