# generated using pymatgen
data_YErLuGa4SiSnGe3
_symmetry_space_group_name_H-M   'P 1'
_cell_length_a   5.66503811
_cell_length_b   5.66503811
_cell_length_c   9.28416061
_cell_angle_alpha   90.00000000
_cell_angle_beta   90.00000000
_cell_angle_gamma   120.00000000
_symmetry_Int_Tables_number   1
_chemical_formula_structural   YErLuGa4SiSnGe3
_chemical_formula_sum   'Y1 Er1 Lu1 Ga4 Si1 Sn1 Ge3'
_cell_volume   258.03519624
_cell_formula_units_Z   1
loop_
 _symmetry_equiv_pos_site_id
 _symmetry_equiv_pos_as_xyz
  1  'x, y, z'
loop_
 _atom_site_type_symbol
 _atom_site_label
 _atom_site_symmetry_multiplicity
 _atom_site_fract_x
 _atom_site_fract_y
 _atom_site_fract_z
 _atom_site_occupancy
  Y  Y0  1  0.33333334  0.66666668  0.08971100  1
  Er  Er1  1  0.66666666  0.33333334  0.91028904  1
  Lu  Lu2  1  0.00000000  0.00000000  0.50000002  1
  Ga  Ga3  1  0.00000000  0.00000000  0.00000000  1
  Ga  Ga4  1  0.17017200  0.34034401  0.73841303  1
  Ga  Ga5  1  0.17017201  0.82982801  0.73841303  1
  Ga  Ga6  1  0.65965600  0.82982801  0.73841303  1
  Si  Si7  1  0.82982800  0.65965601  0.26158701  1
  Ge  Ge8  1  0.82982799  0.17017200  0.26158701  1
  Ge  Ge9  1  0.34034400  0.17017200  0.26158701  1
  Sn  Sn10  1  0.66666666  0.33333334  0.55135802  1
  Ge  Ge11  1  0.33333334  0.66666668  0.44864202  1
