# generated using pymatgen
data_LiFeNi2P
_symmetry_space_group_name_H-M   'P 1'
_cell_length_a   3.73533607
_cell_length_b   3.73533607
_cell_length_c   5.47496128
_cell_angle_alpha   109.94567108
_cell_angle_beta   109.94567108
_cell_angle_gamma   90.00000000
_symmetry_Int_Tables_number   1
_chemical_formula_structural   LiFeNi2P
_chemical_formula_sum   'Li1 Fe1 Ni2 P1'
_cell_volume   66.91327387
_cell_formula_units_Z   1
loop_
 _symmetry_equiv_pos_site_id
 _symmetry_equiv_pos_as_xyz
  1  'x, y, z'
loop_
 _atom_site_type_symbol
 _atom_site_label
 _atom_site_symmetry_multiplicity
 _atom_site_fract_x
 _atom_site_fract_y
 _atom_site_fract_z
 _atom_site_occupancy
  Li  Li0  1  0.00000000  0.00000000  0.00000000  1
  Ni  Ni1  1  0.74999997  0.24999999  0.49999998  1
  Ni  Ni2  1  0.24999997  0.74999998  0.49999998  1
  Fe  Fe3  1  0.37853198  0.37853199  0.75706399  1
  P  P4  1  0.62146797  0.62146798  0.24293597  1
