# generated using pymatgen
data_MoW3SeS4
_symmetry_space_group_name_H-M   'P 1'
_cell_length_a   3.23062992
_cell_length_b   3.23063040
_cell_length_c   29.69340515
_cell_angle_alpha   90.00000000
_cell_angle_beta   90.00000000
_cell_angle_gamma   120.00000000
_symmetry_Int_Tables_number   1
_chemical_formula_structural   MoW3SeS4
_chemical_formula_sum   'Mo1 W3 Se1 S4'
_cell_volume   268.38925322
_cell_formula_units_Z   1
loop_
 _symmetry_equiv_pos_site_id
 _symmetry_equiv_pos_as_xyz
  1  'x, y, z'
loop_
 _atom_site_type_symbol
 _atom_site_label
 _atom_site_symmetry_multiplicity
 _atom_site_fract_x
 _atom_site_fract_y
 _atom_site_fract_z
 _atom_site_occupancy
  W  W0  1  0.00000000  0.00000000  0.88436303  1
  Mo  Mo1  1  0.66666670  0.33333333  0.65302702  1
  W  W2  1  0.00000000  0.00000000  0.42166401  1
  W  W3  1  0.00000000  0.00000000  0.59550902  1
  S  S4  1  0.00000000  0.00000000  0.71054402  1
  Se  Se5  1  0.66666670  0.33333333  0.93667803  1
  S  S6  1  0.66666670  0.33333333  0.47414801  1
  S  S7  1  0.66666670  0.33333333  0.83203402  1
  S  S8  1  0.66666670  0.33333333  0.36919201  1
