# generated using pymatgen
data_Mn3Fe2SiP2
_symmetry_space_group_name_H-M   'P 1'
_cell_length_a   5.38419104
_cell_length_b   5.46691799
_cell_length_c   5.46691799
_cell_angle_alpha   90.00000000
_cell_angle_beta   90.00000000
_cell_angle_gamma   90.00000000
_symmetry_Int_Tables_number   1
_chemical_formula_structural   Mn3Fe2SiP2
_chemical_formula_sum   'Mn3 Fe2 Si1 P2'
_cell_volume   160.91835303
_cell_formula_units_Z   1
loop_
 _symmetry_equiv_pos_site_id
 _symmetry_equiv_pos_as_xyz
  1  'x, y, z'
loop_
 _atom_site_type_symbol
 _atom_site_label
 _atom_site_symmetry_multiplicity
 _atom_site_fract_x
 _atom_site_fract_y
 _atom_site_fract_z
 _atom_site_occupancy
  Mn  Mn0  1  0.00000000  0.50000000  0.50000000  1
  Mn  Mn1  1  0.50000000  0.50000000  -0.00000000  1
  Fe  Fe2  1  0.50000000  0.00000000  0.50000000  1
  Mn  Mn3  1  0.00000000  0.00000000  0.00000000  1
  Si  Si4  1  0.26367700  0.26447200  0.26447200  1
  P  P5  1  0.73632300  0.73552800  0.26447200  1
  P  P6  1  0.73632300  0.26447200  0.73552800  1
  Fe  Fe7  1  0.26367700  0.73552800  0.73552800  1
