# generated using pymatgen
data_TiCu5SeS10
_symmetry_space_group_name_H-M   'P 1'
_cell_length_a   7.28747511
_cell_length_b   7.28747511
_cell_length_c   7.28747511
_cell_angle_alpha   60.00000000
_cell_angle_beta   60.00000000
_cell_angle_gamma   60.00000000
_symmetry_Int_Tables_number   1
_chemical_formula_structural   TiCu5SeS10
_chemical_formula_sum   'Ti1 Cu5 Se1 S10'
_cell_volume   273.66310827
_cell_formula_units_Z   1
loop_
 _symmetry_equiv_pos_site_id
 _symmetry_equiv_pos_as_xyz
  1  'x, y, z'
loop_
 _atom_site_type_symbol
 _atom_site_label
 _atom_site_symmetry_multiplicity
 _atom_site_fract_x
 _atom_site_fract_y
 _atom_site_fract_z
 _atom_site_occupancy
  Cu  Cu0  1  0.74996599  0.25003400  0.74996599  1
  Ti  Ti1  1  0.25003400  0.74996599  0.25003400  1
  Cu  Cu2  1  0.25003400  0.25003400  0.74996599  1
  Cu  Cu3  1  0.25003400  0.74996599  0.74996599  1
  Cu  Cu4  1  0.74996599  0.74996599  0.25003400  1
  Cu  Cu5  1  0.74996599  0.25003400  0.25003400  1
  Se  Se6  1  0.25000000  0.25000000  0.25000000  1
  S  S7  1  0.74999999  0.74999999  0.74999999  1
  S  S8  1  0.00000000  0.00000000  0.00000000  1
  S  S9  1  0.64897499  0.64897499  0.64897499  1
  S  S10  1  0.88910299  0.37029899  0.37029899  1
  S  S11  1  0.64897499  0.64897499  0.05307500  1
  S  S12  1  0.37029999  0.37029899  0.37029899  1
  S  S13  1  0.05307500  0.64897499  0.64897499  1
  S  S14  1  0.37029999  0.37029899  0.88910199  1
  S  S15  1  0.64897499  0.05307500  0.64897499  1
  S  S16  1  0.37029999  0.88910199  0.37029899  1
