# generated using pymatgen
data_Li2O2
_symmetry_space_group_name_H-M   'P 1'
_cell_length_a   3.53841066
_cell_length_b   3.54216647
_cell_length_c   16.96264267
_cell_angle_alpha   89.93600464
_cell_angle_beta   84.01857758
_cell_angle_gamma   60.07499313
_symmetry_Int_Tables_number   1
_chemical_formula_structural   Li2O2
_chemical_formula_sum   'Li7 O7'
_cell_volume   182.93659600
_cell_formula_units_Z   3
loop_
 _symmetry_equiv_pos_site_id
 _symmetry_equiv_pos_as_xyz
  1  'x, y, z'
loop_
 _atom_site_type_symbol
 _atom_site_label
 _atom_site_symmetry_multiplicity
 _atom_site_fract_x
 _atom_site_fract_y
 _atom_site_fract_z
 _atom_site_occupancy
  Li  Li0  1  0.00035799  0.49961202  0.49978502  1
  Li  Li1  1  0.00040898  0.99933104  0.00007299  1
  Li  Li2  1  0.21433299  0.89116503  0.68025803  1
  Li  Li3  1  0.78847201  0.60570602  0.81974304  1
  Li  Li4  1  0.21393100  0.39146602  0.18042001  1
  Li  Li5  1  0.78574701  0.10873000  0.31955402  1
  Li  Li6  1  0.12534999  0.93947504  0.80688904  1
  O  O7  1  0.13033700  0.43194402  0.30744201  1
  O  O8  1  0.86954101  0.56804202  0.69268903  1
  O  O9  1  0.86918702  0.06802000  0.19313001  1
  O  O10  1  0.29228499  0.85296703  0.56255302  1
  O  O11  1  0.29219800  0.35303601  0.06265300  1
  O  O12  1  0.70945800  0.64443003  0.93744905  1
  O  O13  1  0.70839301  0.14607801  0.43736302  1
