# generated using pymatgen
data_La2ErIn6Pd3Au4
_symmetry_space_group_name_H-M   'P 1'
_cell_length_a   6.13557911
_cell_length_b   7.22038412
_cell_length_c   8.91286755
_cell_angle_alpha   90.00000000
_cell_angle_beta   90.00000000
_cell_angle_gamma   90.00000000
_symmetry_Int_Tables_number   1
_chemical_formula_structural   La2ErIn6Pd3Au4
_chemical_formula_sum   'La2 Er1 In6 Pd3 Au4'
_cell_volume   394.85106618
_cell_formula_units_Z   1
loop_
 _symmetry_equiv_pos_site_id
 _symmetry_equiv_pos_as_xyz
  1  'x, y, z'
loop_
 _atom_site_type_symbol
 _atom_site_label
 _atom_site_symmetry_multiplicity
 _atom_site_fract_x
 _atom_site_fract_y
 _atom_site_fract_z
 _atom_site_occupancy
  Er  Er0  1  0.33339799  0.67654999  0.06324100  1
  La  La1  1  0.16660200  0.17655000  0.43675902  1
  La  La2  1  0.66666665  0.32344999  0.56324103  1
  In  In3  1  0.83339799  0.82344999  0.93675905  1
  In  In4  1  0.66666665  0.32344999  0.93675905  1
  In  In5  1  0.83339799  0.82344999  0.56324103  1
  In  In6  1  0.33339799  0.67654999  0.43675902  1
  In  In7  1  0.16660200  0.17655000  0.06324100  1
  In  In8  1  0.86870298  0.54052799  0.25000001  1
  Au  Au9  1  0.63129699  0.04052800  0.25000001  1
  Au  Au10  1  0.13129700  0.45947199  0.75000004  1
  Au  Au11  1  0.36870299  0.95947198  0.75000004  1
  Pd  Pd12  1  0.03984600  0.88408499  0.25000001  1
  Au  Au13  1  0.46015399  0.38408499  0.25000001  1
  Pd  Pd14  1  0.96015398  0.11591500  0.75000004  1
  Pd  Pd15  1  0.53984599  0.61591499  0.75000004  1
