# generated using pymatgen
data_KNaTeSe2
_symmetry_space_group_name_H-M   'P 1'
_cell_length_a   7.10440493
_cell_length_b   7.10440493
_cell_length_c   8.12243938
_cell_angle_alpha   100.62583160
_cell_angle_beta   100.62583160
_cell_angle_gamma   118.39342499
_symmetry_Int_Tables_number   1
_chemical_formula_structural   KNaTeSe2
_chemical_formula_sum   'K2 Na2 Te2 Se4'
_cell_volume   336.45190129
_cell_formula_units_Z   2
loop_
 _symmetry_equiv_pos_site_id
 _symmetry_equiv_pos_as_xyz
  1  'x, y, z'
loop_
 _atom_site_type_symbol
 _atom_site_label
 _atom_site_symmetry_multiplicity
 _atom_site_fract_x
 _atom_site_fract_y
 _atom_site_fract_z
 _atom_site_occupancy
  Na  Na0  1  0.12172299  0.87827697  -0.00000005  1
  Na  Na1  1  0.87827697  0.12172300  -0.00000005  1
  K  K2  1  0.12917800  0.12917800  0.29160997  1
  K  K3  1  0.87082197  0.87082197  0.70838989  1
  Te  Te4  1  0.32073199  0.32073199  0.11711696  1
  Te  Te5  1  0.67926798  0.67926798  0.88288289  1
  Se  Se6  1  0.56937998  0.97772297  0.21889992  1
  Se  Se7  1  0.43061999  0.02227700  0.78109994  1
  Se  Se8  1  0.02227700  0.43061999  0.78109994  1
  Se  Se9  1  0.97772297  0.56937998  0.21889992  1
