# generated using pymatgen
data_La7YSn6
_symmetry_space_group_name_H-M   'P 1'
_cell_length_a   8.35004520
_cell_length_b   8.35004520
_cell_length_c   8.35004520
_cell_angle_alpha   109.47122192
_cell_angle_beta   109.47122192
_cell_angle_gamma   109.47122192
_symmetry_Int_Tables_number   1
_chemical_formula_structural   La7YSn6
_chemical_formula_sum   'La7 Y1 Sn6'
_cell_volume   448.17184343
_cell_formula_units_Z   1
loop_
 _symmetry_equiv_pos_site_id
 _symmetry_equiv_pos_as_xyz
  1  'x, y, z'
loop_
 _atom_site_type_symbol
 _atom_site_label
 _atom_site_symmetry_multiplicity
 _atom_site_fract_x
 _atom_site_fract_y
 _atom_site_fract_z
 _atom_site_occupancy
  Y  Y0  1  0.00000003  0.50000004  0.14917903  1
  La  La1  1  0.00000003  0.50000004  0.64917905  1
  La  La2  1  0.35082104  0.35082103  0.85082105  1
  La  La3  1  0.64917903  0.00000000  0.00000002  1
  La  La4  1  0.85082109  0.85082106  0.35082108  1
  La  La5  1  0.50000003  0.14917901  0.50000004  1
  La  La6  1  0.14917901  0.00000000  0.00000000  1
  La  La7  1  0.50000006  0.64917905  0.50000006  1
  Sn  Sn8  1  0.25000007  0.87500006  0.62500007  1
  Sn  Sn9  1  0.87500004  0.12500001  0.75000005  1
  Sn  Sn10  1  0.62500005  0.37500003  0.25000004  1
  Sn  Sn11  1  0.75000007  0.62500004  0.87500008  1
  Sn  Sn12  1  0.12500002  0.25000002  0.37500003  1
  Sn  Sn13  1  0.37500006  0.75000005  0.12500005  1
