# generated using pymatgen
data_LaYIn2SnGeAu
_symmetry_space_group_name_H-M   'P 1'
_cell_length_a   4.61646986
_cell_length_b   4.61646986
_cell_length_c   10.09651470
_cell_angle_alpha   90.00000000
_cell_angle_beta   90.00000000
_cell_angle_gamma   90.00000000
_symmetry_Int_Tables_number   1
_chemical_formula_structural   LaYIn2SnGeAu
_chemical_formula_sum   'La1 Y1 In2 Sn1 Ge1 Au1'
_cell_volume   215.17484113
_cell_formula_units_Z   1
loop_
 _symmetry_equiv_pos_site_id
 _symmetry_equiv_pos_as_xyz
  1  'x, y, z'
loop_
 _atom_site_type_symbol
 _atom_site_label
 _atom_site_symmetry_multiplicity
 _atom_site_fract_x
 _atom_site_fract_y
 _atom_site_fract_z
 _atom_site_occupancy
  Y  Y0  1  0.50000002  0.00000000  0.73976202  1
  La  La1  1  0.00000000  0.50000002  0.26023801  1
  In  In2  1  0.50000002  0.50000002  0.50000001  1
  In  In3  1  0.50000002  0.50000002  0.00000000  1
  Sn  Sn4  1  0.00000000  0.00000000  0.00000000  1
  Ge  Ge5  1  0.50000002  0.00000000  0.34036901  1
  Au  Au6  1  0.00000000  0.50000002  0.65963102  1
