# generated using pymatgen
data_LaYIn2SnAu7
_symmetry_space_group_name_H-M   'P 1'
_cell_length_a   4.50734377
_cell_length_b   7.17315912
_cell_length_c   7.89480495
_cell_angle_alpha   90.00000000
_cell_angle_beta   90.00000000
_cell_angle_gamma   90.00000000
_symmetry_Int_Tables_number   1
_chemical_formula_structural   LaYIn2SnAu7
_chemical_formula_sum   'La1 Y1 In2 Sn1 Au7'
_cell_volume   255.25399753
_cell_formula_units_Z   1
loop_
 _symmetry_equiv_pos_site_id
 _symmetry_equiv_pos_as_xyz
  1  'x, y, z'
loop_
 _atom_site_type_symbol
 _atom_site_label
 _atom_site_symmetry_multiplicity
 _atom_site_fract_x
 _atom_site_fract_y
 _atom_site_fract_z
 _atom_site_occupancy
  Y  Y0  1  0.25000001  0.51251699  0.19377700  1
  La  La1  1  0.75000004  0.48748299  0.80622300  1
  In  In2  1  0.75000004  0.98748298  0.69377700  1
  In  In3  1  0.25000001  0.01251700  0.30622300  1
  Sn  Sn4  1  0.25000001  0.68286899  0.58935700  1
  Au  Au5  1  0.75000004  0.31713099  0.41064300  1
  Au  Au6  1  0.75000004  0.81713099  0.08935700  1
  Au  Au7  1  0.25000001  0.18286900  0.91064301  1
  Au  Au8  1  0.25000001  0.79553499  0.91162901  1
  Au  Au9  1  0.75000004  0.20446500  0.08837100  1
  Au  Au10  1  0.75000004  0.70446499  0.41162900  1
  Au  Au11  1  0.25000001  0.29553499  0.58837100  1
