# generated using pymatgen
data_La7Y2In3Sn4
_symmetry_space_group_name_H-M   'P 1'
_cell_length_a   6.79056787
_cell_length_b   6.86700821
_cell_length_c   9.93121815
_cell_angle_alpha   90.00000000
_cell_angle_beta   90.00000000
_cell_angle_gamma   90.00000000
_symmetry_Int_Tables_number   1
_chemical_formula_structural   La7Y2In3Sn4
_chemical_formula_sum   'La7 Y2 In3 Sn4'
_cell_volume   463.10149474
_cell_formula_units_Z   1
loop_
 _symmetry_equiv_pos_site_id
 _symmetry_equiv_pos_as_xyz
  1  'x, y, z'
loop_
 _atom_site_type_symbol
 _atom_site_label
 _atom_site_symmetry_multiplicity
 _atom_site_fract_x
 _atom_site_fract_y
 _atom_site_fract_z
 _atom_site_occupancy
  Y  Y0  1  0.99110902  0.96690497  0.74999999  1
  La  La1  1  0.49110901  0.53309498  0.74999999  1
  La  La2  1  0.00889100  0.03309500  0.25000000  1
  La  La3  1  0.50889101  0.46690499  0.25000000  1
  La  La4  1  0.26763400  0.76954998  0.00983600  1
  Y  Y5  1  0.76763401  0.73044998  0.49016399  1
  La  La6  1  0.73236601  0.23044999  0.50983599  1
  La  La7  1  0.23236600  0.26954999  0.99016399  1
  La  La8  1  0.73236601  0.23044999  0.99016399  1
  In  In9  1  0.23236600  0.26954999  0.50983599  1
  In  In10  1  0.26763400  0.76954998  0.49016399  1
  Sn  Sn11  1  0.76763401  0.73044998  0.00983600  1
  Sn  Sn12  1  0.48701001  0.02842400  0.74999999  1
  In  In13  1  0.98701002  0.47157599  0.74999999  1
  Sn  Sn14  1  0.51299001  0.97157597  0.25000000  1
  Sn  Sn15  1  0.01299000  0.52842398  0.25000000  1
