# generated using pymatgen
data_K3Na(CuS3)4
_symmetry_space_group_name_H-M   'P 1'
_cell_length_a   7.30872917
_cell_length_b   7.57775116
_cell_length_c   9.99831104
_cell_angle_alpha   85.75389862
_cell_angle_beta   70.41143799
_cell_angle_gamma   61.35979843
_symmetry_Int_Tables_number   1
_chemical_formula_structural   K3Na(CuS3)4
_chemical_formula_sum   'K3 Na1 Cu4 S12'
_cell_volume   455.34315309
_cell_formula_units_Z   1
loop_
 _symmetry_equiv_pos_site_id
 _symmetry_equiv_pos_as_xyz
  1  'x, y, z'
loop_
 _atom_site_type_symbol
 _atom_site_label
 _atom_site_symmetry_multiplicity
 _atom_site_fract_x
 _atom_site_fract_y
 _atom_site_fract_z
 _atom_site_occupancy
  Na  Na0  1  0.39449696  0.57233503  0.85924902  1
  K  K1  1  0.93708894  0.54659403  0.82736303  1
  K  K2  1  0.92738196  0.06739100  0.81657001  1
  K  K3  1  0.24154298  0.26042601  0.49229101  1
  Cu  Cu4  1  0.75845694  0.73957404  0.50770904  1
  Cu  Cu5  1  0.07261796  0.93260904  0.18343003  1
  Cu  Cu6  1  0.06291098  0.45340602  0.17263701  1
  Cu  Cu7  1  0.60550296  0.42766502  0.14075103  1
  S  S8  1  0.39829798  0.05606500  0.87482700  1
  S  S9  1  0.69499096  0.29548901  0.52557002  1
  S  S10  1  0.30500896  0.70451103  0.47443002  1
  S  S11  1  0.60170194  0.94393504  0.12517305  1
  S  S12  1  0.06758899  0.21459401  0.97954399  1
  S  S13  1  0.50386197  0.19029401  0.99271600  1
  S  S14  1  0.34228697  0.48520102  0.62523702  1
  S  S15  1  0.80456595  0.39866502  0.64780902  1
  S  S16  1  0.19543397  0.60133503  0.35219102  1
  S  S17  1  0.65771295  0.51479902  0.37476303  1
  S  S18  1  0.49613795  0.80970604  0.00728404  1
  S  S19  1  0.93241093  0.78540604  0.02045605  1
