# generated using pymatgen
data_ScAlVB2Rh2C
_symmetry_space_group_name_H-M   'P 1'
_cell_length_a   2.90959001
_cell_length_b   2.90959024
_cell_length_c   13.09717178
_cell_angle_alpha   90.00000000
_cell_angle_beta   90.00000000
_cell_angle_gamma   120.00000000
_symmetry_Int_Tables_number   1
_chemical_formula_structural   ScAlVB2Rh2C
_chemical_formula_sum   'Sc1 Al1 V1 B2 Rh2 C1'
_cell_volume   96.02222910
_cell_formula_units_Z   1
loop_
 _symmetry_equiv_pos_site_id
 _symmetry_equiv_pos_as_xyz
  1  'x, y, z'
loop_
 _atom_site_type_symbol
 _atom_site_label
 _atom_site_symmetry_multiplicity
 _atom_site_fract_x
 _atom_site_fract_y
 _atom_site_fract_z
 _atom_site_occupancy
  V  V0  1  0.66666668  0.33333333  0.25000000  1
  Sc  Sc1  1  0.33333335  0.66666665  0.75000001  1
  Al  Al2  1  0.66666668  0.33333333  0.58557101  1
  B  B3  1  0.33333335  0.66666665  0.41442901  1
  C  C4  1  0.33333335  0.66666665  0.08557100  1
  B  B5  1  0.66666668  0.33333333  0.91442902  1
  Rh  Rh6  1  0.00000000  0.00000000  0.50000001  1
  Rh  Rh7  1  0.00000000  0.00000000  0.00000000  1
