# generated using pymatgen
data_Li2V3CuF8
_symmetry_space_group_name_H-M   'P 1'
_cell_length_a   6.09813976
_cell_length_b   6.09813976
_cell_length_c   6.09813976
_cell_angle_alpha   60.00000000
_cell_angle_beta   60.00000000
_cell_angle_gamma   60.00000000
_symmetry_Int_Tables_number   1
_chemical_formula_structural   Li2V3CuF8
_chemical_formula_sum   'Li2 V3 Cu1 F8'
_cell_volume   160.35301250
_cell_formula_units_Z   1
loop_
 _symmetry_equiv_pos_site_id
 _symmetry_equiv_pos_as_xyz
  1  'x, y, z'
loop_
 _atom_site_type_symbol
 _atom_site_label
 _atom_site_symmetry_multiplicity
 _atom_site_fract_x
 _atom_site_fract_y
 _atom_site_fract_z
 _atom_site_occupancy
  Li  Li0  1  0.25000000  0.25000000  0.25000000  1
  Cu  Cu1  1  0.50000000  0.50000000  0.50000000  1
  Li  Li2  1  0.37500000  0.87500000  0.87500000  1
  V  V3  1  0.87500000  0.87500000  0.37500000  1
  V  V4  1  0.87500000  0.87500000  0.87500000  1
  V  V5  1  0.87500000  0.37500000  0.87500000  1
  F  F6  1  0.63596700  0.63596800  0.09209700  1
  F  F7  1  0.63596700  0.09209700  0.63596800  1
  F  F8  1  0.11403300  0.11403200  0.11403200  1
  F  F9  1  0.63596700  0.63596800  0.63596800  1
  F  F10  1  0.09209600  0.63596800  0.63596800  1
  F  F11  1  0.11403300  0.11403200  0.65790300  1
  F  F12  1  0.65790400  0.11403200  0.11403200  1
  F  F13  1  0.11403300  0.65790300  0.11403200  1
