# generated using pymatgen
data_LiYCu3GeP7
_symmetry_space_group_name_H-M   'P 1'
_cell_length_a   4.00764418
_cell_length_b   4.00764418
_cell_length_c   12.64465904
_cell_angle_alpha   99.11820221
_cell_angle_beta   99.11820221
_cell_angle_gamma   90.00000000
_symmetry_Int_Tables_number   1
_chemical_formula_structural   LiYCu3GeP7
_chemical_formula_sum   'Li1 Y1 Cu3 Ge1 P7'
_cell_volume   197.92262259
_cell_formula_units_Z   1
loop_
 _symmetry_equiv_pos_site_id
 _symmetry_equiv_pos_as_xyz
  1  'x, y, z'
loop_
 _atom_site_type_symbol
 _atom_site_label
 _atom_site_symmetry_multiplicity
 _atom_site_fract_x
 _atom_site_fract_y
 _atom_site_fract_z
 _atom_site_occupancy
  Y  Y0  1  0.64905995  0.64905996  0.29811997  1
  Li  Li1  1  0.35093897  0.35093898  0.70187799  1
  Cu  Cu2  1  0.74999995  0.24999999  0.49999998  1
  Cu  Cu3  1  0.94622794  0.44622798  0.89245597  1
  Cu  Cu4  1  0.44622796  0.94622795  0.89245597  1
  P  P5  1  0.05377199  0.55377197  0.10754399  1
  P  P6  1  0.55377197  0.05377200  0.10754399  1
  P  P7  1  0.24999997  0.74999996  0.49999998  1
  P  P8  1  0.80240094  0.80240096  0.60480197  1
  P  P9  1  0.49999996  0.49999997  -0.00000002  1
  P  P10  1  0.19759899  0.19759899  0.39519799  1
  Ge  Ge11  1  0.89425293  0.89425295  0.78850596  1
  P  P12  1  0.10574699  0.10574699  0.21149400  1
