# generated using pymatgen
data_YErThUInSn8Au3
_symmetry_space_group_name_H-M   'P 1'
_cell_length_a   6.20637417
_cell_length_b   8.51170635
_cell_length_c   8.51170635
_cell_angle_alpha   120.00000000
_cell_angle_beta   90.00000000
_cell_angle_gamma   90.00000000
_symmetry_Int_Tables_number   1
_chemical_formula_structural   YErThUInSn8Au3
_chemical_formula_sum   'Y1 Er1 Th1 U1 In1 Sn8 Au3'
_cell_volume   389.40529364
_cell_formula_units_Z   1
loop_
 _symmetry_equiv_pos_site_id
 _symmetry_equiv_pos_as_xyz
  1  'x, y, z'
loop_
 _atom_site_type_symbol
 _atom_site_label
 _atom_site_symmetry_multiplicity
 _atom_site_fract_x
 _atom_site_fract_y
 _atom_site_fract_z
 _atom_site_occupancy
  Er  Er0  1  -0.00000000  0.33333332  0.66666667  1
  Y  Y1  1  -0.00000000  0.66666665  0.33333335  1
  U  U2  1  0.49999999  0.66666665  0.33333335  1
  Th  Th3  1  0.49999999  0.33333332  0.66666667  1
  In  In4  1  0.24999999  0.24746599  0.00000001  1
  Sn  Sn5  1  0.24999999  0.75253398  0.75253402  1
  Sn  Sn6  1  0.24999999  0.00000000  0.24746600  1
  Sn  Sn7  1  0.74999998  0.75253398  0.00000002  1
  Sn  Sn8  1  0.74999998  0.24746599  0.24746601  1
  Sn  Sn9  1  0.74999998  0.99999997  0.75253402  1
  Sn  Sn10  1  0.24999999  0.60506798  0.00000002  1
  Sn  Sn11  1  0.24999999  0.39493199  0.39493201  1
  Au  Au12  1  0.24999999  0.00000000  0.60506800  1
  Sn  Sn13  1  0.74999998  0.39493199  0.00000001  1
  Au  Au14  1  0.74999998  0.60506798  0.60506801  1
  Au  Au15  1  0.74999998  0.99999997  0.39493202  1
