# generated using pymatgen
data_Nb4VCuS8
_symmetry_space_group_name_H-M   'P 1'
_cell_length_a   6.94402599
_cell_length_b   6.96446228
_cell_length_c   6.96446228
_cell_angle_alpha   60.54848480
_cell_angle_beta   60.09701920
_cell_angle_gamma   60.09701920
_symmetry_Int_Tables_number   1
_chemical_formula_structural   Nb4VCuS8
_chemical_formula_sum   'Nb4 V1 Cu1 S8'
_cell_volume   239.48598149
_cell_formula_units_Z   1
loop_
 _symmetry_equiv_pos_site_id
 _symmetry_equiv_pos_as_xyz
  1  'x, y, z'
loop_
 _atom_site_type_symbol
 _atom_site_label
 _atom_site_symmetry_multiplicity
 _atom_site_fract_x
 _atom_site_fract_y
 _atom_site_fract_z
 _atom_site_occupancy
  Cu  Cu0  1  0.01624799  0.25269400  0.25269401  1
  V  V1  1  0.47836500  0.25269400  0.25269400  1
  Nb  Nb2  1  0.50626900  0.23061600  0.75684600  1
  Nb  Nb3  1  0.50626898  0.75684601  0.23061602  1
  Nb  Nb4  1  0.12572897  0.87427101  0.87427105  1
  Nb  Nb5  1  0.87412799  0.62587201  0.62587200  1
  S  S6  1  0.25390800  0.00591600  0.00591599  1
  S  S7  1  0.73426001  0.00591600  0.00591597  1
  S  S8  1  0.73996999  0.49345101  0.49345100  1
  S  S9  1  0.27312799  0.49345101  0.49345102  1
  S  S10  1  0.74548901  0.02269300  0.48632798  1
  S  S11  1  0.74548899  0.48632801  0.02269299  1
  S  S12  1  0.25637401  0.00076000  0.48649200  1
  S  S13  1  0.25637398  0.48649201  0.00076001  1
