# generated using pymatgen
data_KBaLiRuN6
_symmetry_space_group_name_H-M   'P 1'
_cell_length_a   5.74650669
_cell_length_b   5.74650669
_cell_length_c   5.74650669
_cell_angle_alpha   60.00000000
_cell_angle_beta   60.00000000
_cell_angle_gamma   60.00000000
_symmetry_Int_Tables_number   1
_chemical_formula_structural   KBaLiRuN6
_chemical_formula_sum   'K1 Ba1 Li1 Ru1 N6'
_cell_volume   134.18276979
_cell_formula_units_Z   1
loop_
 _symmetry_equiv_pos_site_id
 _symmetry_equiv_pos_as_xyz
  1  'x, y, z'
loop_
 _atom_site_type_symbol
 _atom_site_label
 _atom_site_symmetry_multiplicity
 _atom_site_fract_x
 _atom_site_fract_y
 _atom_site_fract_z
 _atom_site_occupancy
  K  K0  1  0.75000003  0.75000003  0.75000003  1
  Ba  Ba1  1  0.25000001  0.25000001  0.25000001  1
  Li  Li2  1  0.50000002  0.50000002  0.50000002  1
  Ru  Ru3  1  0.00000000  0.00000000  0.00000000  1
  N  N4  1  0.21832601  0.78167403  0.78167403  1
  N  N5  1  0.78167403  0.21832601  0.78167403  1
  N  N6  1  0.78167403  0.21832601  0.21832601  1
  N  N7  1  0.21832601  0.78167403  0.21832601  1
  N  N8  1  0.78167403  0.78167403  0.21832601  1
  N  N9  1  0.21832601  0.21832601  0.78167403  1
