# generated using pymatgen
data_NaH5ClO7
_symmetry_space_group_name_H-M   'P 1'
_cell_length_a   3.70944190
_cell_length_b   6.52242088
_cell_length_c   6.54571295
_cell_angle_alpha   118.99497223
_cell_angle_beta   90.00000000
_cell_angle_gamma   90.00000000
_symmetry_Int_Tables_number   1
_chemical_formula_structural   NaH5ClO7
_chemical_formula_sum   'Na1 H5 Cl1 O7'
_cell_volume   138.52071684
_cell_formula_units_Z   1
loop_
 _symmetry_equiv_pos_site_id
 _symmetry_equiv_pos_as_xyz
  1  'x, y, z'
loop_
 _atom_site_type_symbol
 _atom_site_label
 _atom_site_symmetry_multiplicity
 _atom_site_fract_x
 _atom_site_fract_y
 _atom_site_fract_z
 _atom_site_occupancy
  Na  Na0  1  0.75000002  0.32917501  0.66734200  1
  H  H1  1  0.25000001  0.67082502  0.33265802  1
  O  O2  1  0.75000002  0.28509501  0.15113901  1
  H  H3  1  0.75000002  0.85236503  0.71101302  1
  H  H4  1  0.75000002  0.85326803  0.11499703  1
  H  H5  1  0.25000001  0.71490502  0.84886101  1
  H  H6  1  0.25000001  0.14763501  0.28898700  1
  Cl  Cl7  1  0.25000001  0.14673201  0.88500299  1
  O  O8  1  0.75000002  0.40010801  0.31597701  1
  O  O9  1  0.75000002  0.91348503  0.60159002  1
  O  O10  1  0.75000002  0.68955602  0.07678802  1
  O  O11  1  0.25000001  0.59989202  0.68402301  1
  O  O12  1  0.25000001  0.08651500  0.39841000  1
  O  O13  1  0.25000001  0.31044401  0.92321200  1
