# generated using pymatgen
data_HfGa5Pd7
_symmetry_space_group_name_H-M   'P 1'
_cell_length_a   5.45538998
_cell_length_b   5.45538950
_cell_length_c   8.99316216
_cell_angle_alpha   90.00000000
_cell_angle_beta   90.00000000
_cell_angle_gamma   120.00000000
_symmetry_Int_Tables_number   1
_chemical_formula_structural   HfGa5Pd7
_chemical_formula_sum   'Hf1 Ga5 Pd7'
_cell_volume   231.78996013
_cell_formula_units_Z   1
loop_
 _symmetry_equiv_pos_site_id
 _symmetry_equiv_pos_as_xyz
  1  'x, y, z'
loop_
 _atom_site_type_symbol
 _atom_site_label
 _atom_site_symmetry_multiplicity
 _atom_site_fract_x
 _atom_site_fract_y
 _atom_site_fract_z
 _atom_site_occupancy
  Hf  Hf0  1  0.00000000  0.00000000  0.00000000  1
  Ga  Ga1  1  0.99999999  0.50000001  0.24856800  1
  Ga  Ga2  1  0.99999999  0.50000001  0.75143199  1
  Ga  Ga3  1  0.50000000  0.00000000  0.75143199  1
  Ga  Ga4  1  0.49999999  0.50000001  0.75143199  1
  Ga  Ga5  1  0.50000000  0.00000000  0.24856800  1
  Pd  Pd6  1  0.49999999  0.50000001  0.24856800  1
  Pd  Pd7  1  0.00000000  0.00000000  0.33344099  1
  Pd  Pd8  1  0.66666666  0.33333334  0.49999999  1
  Pd  Pd9  1  0.33333331  0.66666668  -0.00000000  1
  Pd  Pd10  1  0.66666666  0.33333334  -0.00000000  1
  Pd  Pd11  1  0.00000000  0.00000000  0.66655899  1
  Pd  Pd12  1  0.33333331  0.66666668  0.49999999  1
