# generated using pymatgen
data_K4YInSn(TeSe4)2
_symmetry_space_group_name_H-M   'P 1'
_cell_length_a   7.38210917
_cell_length_b   9.23488045
_cell_length_c   9.28342438
_cell_angle_alpha   108.83180237
_cell_angle_beta   97.11563873
_cell_angle_gamma   105.91514587
_symmetry_Int_Tables_number   1
_chemical_formula_structural   K4YInSn(TeSe4)2
_chemical_formula_sum   'K4 Y1 In1 Sn1 Te2 Se8'
_cell_volume   560.13799307
_cell_formula_units_Z   1
loop_
 _symmetry_equiv_pos_site_id
 _symmetry_equiv_pos_as_xyz
  1  'x, y, z'
loop_
 _atom_site_type_symbol
 _atom_site_label
 _atom_site_symmetry_multiplicity
 _atom_site_fract_x
 _atom_site_fract_y
 _atom_site_fract_z
 _atom_site_occupancy
  Y  Y0  1  0.12218100  0.04382200  0.74985100  1
  K  K1  1  0.87781903  0.95617799  0.25014897  1
  K  K2  1  0.97697400  0.29931400  0.09405801  1
  K  K3  1  0.02302604  0.70068599  0.90594196  1
  K  K4  1  0.36493300  0.14068800  0.18230400  1
  In  In5  1  0.63506703  0.85931199  0.81769597  1
  Sn  Sn6  1  0.00000000  0.00000000  0.00000000  1
  Te  Te7  1  0.55012200  0.17825900  0.91538401  1
  Se  Se8  1  0.44987804  0.82174099  0.08461597  1
  Se  Se9  1  0.36251102  0.46287700  0.27759398  1
  Se  Se10  1  0.63748902  0.53712299  0.72240599  1
  Te  Te11  1  0.25888700  0.08615900  0.46101800  1
  Se  Se12  1  0.74111303  0.91384099  0.53898197  1
  Se  Se13  1  0.79947000  0.26438400  0.35479401  1
  Se  Se14  1  0.20053004  0.73561599  0.64520596  1
  Se  Se15  1  0.08881302  0.36967700  0.82593398  1
  Se  Se16  1  0.91118702  0.63032299  0.17406599  1
