# generated using pymatgen
data_YGa5SnPd3
_symmetry_space_group_name_H-M   'P 1'
_cell_length_a   4.21266985
_cell_length_b   7.08801222
_cell_length_c   8.33351040
_cell_angle_alpha   90.00000000
_cell_angle_beta   104.64058685
_cell_angle_gamma   90.00000000
_symmetry_Int_Tables_number   1
_chemical_formula_structural   YGa5SnPd3
_chemical_formula_sum   'Y1 Ga5 Sn1 Pd3'
_cell_volume   240.75453079
_cell_formula_units_Z   1
loop_
 _symmetry_equiv_pos_site_id
 _symmetry_equiv_pos_as_xyz
  1  'x, y, z'
loop_
 _atom_site_type_symbol
 _atom_site_label
 _atom_site_symmetry_multiplicity
 _atom_site_fract_x
 _atom_site_fract_y
 _atom_site_fract_z
 _atom_site_occupancy
  Y  Y0  1  0.29887001  0.92628997  0.59773997  1
  Ga  Ga1  1  0.70113002  0.42628999  0.40225997  1
  Ga  Ga2  1  0.46483901  0.26987199  0.92967796  1
  Ga  Ga3  1  0.53516101  0.76987198  0.07032198  1
  Ga  Ga4  1  0.09919800  0.10824900  0.19839599  1
  Ga  Ga5  1  0.90080202  0.60824898  0.80160395  1
  Sn  Sn6  1  0.06284200  0.47976299  0.12568399  1
  Pd  Pd7  1  0.93715802  0.97976297  0.87431595  1
  Pd  Pd8  1  0.31924601  0.50449498  0.63849197  1
  Pd  Pd9  1  0.68075402  0.00449500  0.36150797  1
