# generated using pymatgen
data_NaSr3Cu(RuO4)3
_symmetry_space_group_name_H-M   'P 1'
_cell_length_a   5.63533926
_cell_length_b   5.63609934
_cell_length_c   9.72486687
_cell_angle_alpha   74.66793060
_cell_angle_beta   74.66676331
_cell_angle_gamma   61.02418137
_symmetry_Int_Tables_number   1
_chemical_formula_structural   NaSr3Cu(RuO4)3
_chemical_formula_sum   'Na1 Sr3 Cu1 Ru3 O12'
_cell_volume   257.16900118
_cell_formula_units_Z   1
loop_
 _symmetry_equiv_pos_site_id
 _symmetry_equiv_pos_as_xyz
  1  'x, y, z'
loop_
 _atom_site_type_symbol
 _atom_site_label
 _atom_site_symmetry_multiplicity
 _atom_site_fract_x
 _atom_site_fract_y
 _atom_site_fract_z
 _atom_site_occupancy
  Na  Na0  1  0.99987095  0.99990002  0.00045296  1
  Sr  Sr1  1  0.50022298  0.50021601  0.49946797  1
  Sr  Sr2  1  0.24978099  0.24978801  0.25053499  1
  Sr  Sr3  1  0.75013297  0.75010302  0.74955096  1
  Cu  Cu4  1  0.62498297  0.62498402  0.12521897  1
  Ru  Ru5  1  0.12502799  0.12502800  0.62477399  1
  Ru  Ru6  1  0.37500298  0.37500301  0.87500097  1
  Ru  Ru7  1  0.87500296  0.87500302  0.37500096  1
  O  O8  1  0.75316697  0.75319002  0.25399097  1
  O  O9  1  0.25392799  0.25384701  0.75276198  1
  O  O10  1  0.49605998  0.49614101  0.99724497  1
  O  O11  1  0.99682296  0.99680002  0.49601595  1
  O  O12  1  0.50199697  0.99557502  0.00187497  1
  O  O13  1  0.00149399  0.49501701  0.50130198  1
  O  O14  1  0.74852697  0.25495801  0.24869398  1
  O  O15  1  0.24802598  0.75440202  0.74812197  1
  O  O16  1  0.99564696  0.50200001  0.00189197  1
  O  O17  1  0.49502598  0.00148700  0.50128298  1
  O  O18  1  0.25494998  0.74853302  0.24871298  1
  O  O19  1  0.75432897  0.24802401  0.74810497  1
