# generated using pymatgen
data_ErAl6Fe5Si8
_symmetry_space_group_name_H-M   'P 1'
_cell_length_a   3.17039609
_cell_length_b   9.28116894
_cell_length_c   9.28116894
_cell_angle_alpha   90.00000000
_cell_angle_beta   90.00000000
_cell_angle_gamma   90.00000000
_symmetry_Int_Tables_number   1
_chemical_formula_structural   ErAl6Fe5Si8
_chemical_formula_sum   'Er1 Al6 Fe5 Si8'
_cell_volume   273.09822621
_cell_formula_units_Z   1
loop_
 _symmetry_equiv_pos_site_id
 _symmetry_equiv_pos_as_xyz
  1  'x, y, z'
loop_
 _atom_site_type_symbol
 _atom_site_label
 _atom_site_symmetry_multiplicity
 _atom_site_fract_x
 _atom_site_fract_y
 _atom_site_fract_z
 _atom_site_occupancy
  Er  Er0  1  0.00000000  0.67491100  0.17491100  1
  Al  Al1  1  0.00000000  0.32508900  0.82508901  1
  Al  Al2  1  0.00000000  0.17491100  0.32508900  1
  Al  Al3  1  0.00000000  0.82508901  0.67491100  1
  Al  Al4  1  0.00000000  0.00000000  0.00000000  1
  Al  Al5  1  0.00000000  0.50000000  0.50000000  1
  Fe  Fe6  1  0.00000000  0.12464600  0.62464600  1
  Si  Si7  1  0.00000000  0.87535401  0.37535400  1
  Al  Al8  1  0.00000000  0.62464600  0.87535401  1
  Si  Si9  1  0.00000000  0.37535400  0.12464600  1
  Fe  Fe10  1  0.49999999  0.21534300  0.07189800  1
  Si  Si11  1  0.49999999  0.78465701  0.92810201  1
  Si  Si12  1  0.49999999  0.07189800  0.78465701  1
  Si  Si13  1  0.49999999  0.71534300  0.42810200  1
  Si  Si14  1  0.49999999  0.92810201  0.21534300  1
  Fe  Fe15  1  0.49999999  0.28465700  0.57189800  1
  Fe  Fe16  1  0.49999999  0.57189800  0.71534300  1
  Si  Si17  1  0.49999999  0.42810200  0.28465700  1
  Si  Si18  1  0.49999999  0.50000000  -0.00000000  1
  Fe  Fe19  1  0.49999999  0.00000000  0.50000000  1
