# generated using pymatgen
data_LiCu5PO9
_symmetry_space_group_name_H-M   'P 1'
_cell_length_a   5.42146206
_cell_length_b   6.40890789
_cell_length_c   6.87713289
_cell_angle_alpha   62.24233246
_cell_angle_beta   74.55489349
_cell_angle_gamma   89.99019623
_symmetry_Int_Tables_number   1
_chemical_formula_structural   LiCu5PO9
_chemical_formula_sum   'Li1 Cu5 P1 O9'
_cell_volume   201.65656894
_cell_formula_units_Z   1
loop_
 _symmetry_equiv_pos_site_id
 _symmetry_equiv_pos_as_xyz
  1  'x, y, z'
loop_
 _atom_site_type_symbol
 _atom_site_label
 _atom_site_symmetry_multiplicity
 _atom_site_fract_x
 _atom_site_fract_y
 _atom_site_fract_z
 _atom_site_occupancy
  Li  Li0  1  0.99994896  0.49991999  0.00001503  1
  Cu  Cu1  1  0.00005100  0.00008300  0.99998399  1
  Cu  Cu2  1  0.49999998  0.24999999  0.00000002  1
  Cu  Cu3  1  0.49999998  0.74999998  0.00000001  1
  Cu  Cu4  1  0.49999998  0.24999999  0.50000001  1
  Cu  Cu5  1  0.49999998  0.74999898  0.50000100  1
  O  O6  1  0.99999896  0.99999397  0.50001602  1
  P  P7  1  0.00000100  0.50000599  0.49998399  1
  O  O8  1  0.61066198  0.91065997  0.67875300  1
  O  O9  1  0.61067497  0.41066199  0.67873101  1
  O  O10  1  0.38932498  0.08933800  0.32126901  1
  O  O11  1  0.38933898  0.58933898  0.32124700  1
  O  O12  1  0.10544700  0.65893198  0.68223599  1
  O  O13  1  0.10547600  0.15895800  0.68222299  1
  O  O14  1  0.89452396  0.34104199  0.31777703  1
  O  O15  1  0.89455296  0.84106798  0.31776402  1
