# generated using pymatgen
data_ErAl4Fe7Co
_symmetry_space_group_name_H-M   'P 1'
_cell_length_a   5.09170818
_cell_length_b   6.66892529
_cell_length_c   6.66892529
_cell_angle_alpha   81.04344940
_cell_angle_beta   67.55795288
_cell_angle_gamma   67.55795288
_symmetry_Int_Tables_number   1
_chemical_formula_structural   ErAl4Fe7Co
_chemical_formula_sum   'Er1 Al4 Fe7 Co1'
_cell_volume   193.43711568
_cell_formula_units_Z   1
loop_
 _symmetry_equiv_pos_site_id
 _symmetry_equiv_pos_as_xyz
  1  'x, y, z'
loop_
 _atom_site_type_symbol
 _atom_site_label
 _atom_site_symmetry_multiplicity
 _atom_site_fract_x
 _atom_site_fract_y
 _atom_site_fract_z
 _atom_site_occupancy
  Er  Er0  1  0.99999996  0.00050400  0.99949601  1
  Al  Al1  1  0.99999996  0.35023100  0.64976900  1
  Al  Al2  1  0.00000000  0.65565800  0.34434200  1
  Al  Al3  1  0.65133798  0.35600000  0.34132400  1
  Al  Al4  1  0.34866099  0.65867600  0.64400100  1
  Fe  Fe5  1  0.49999998  0.22344800  0.77655200  1
  Fe  Fe6  1  0.71170098  0.78147500  0.79512300  1
  Co  Co7  1  0.28829899  0.20487700  0.21852500  1
  Fe  Fe8  1  0.49916298  0.00031800  0.50433700  1
  Fe  Fe9  1  0.99618196  0.00031800  0.50433700  1
  Fe  Fe10  1  0.00381800  0.49566300  0.99968200  1
  Fe  Fe11  1  0.50083698  0.49566300  0.99968200  1
  Fe  Fe12  1  0.49999999  0.77717000  0.22283000  1
