# generated using pymatgen
data_LaErIn2Au
_symmetry_space_group_name_H-M   'P 1'
_cell_length_a   3.72578192
_cell_length_b   4.27323818
_cell_length_c   7.62347412
_cell_angle_alpha   106.27622223
_cell_angle_beta   90.00000000
_cell_angle_gamma   90.00000000
_symmetry_Int_Tables_number   1
_chemical_formula_structural   LaErIn2Au
_chemical_formula_sum   'La1 Er1 In2 Au1'
_cell_volume   116.51001666
_cell_formula_units_Z   1
loop_
 _symmetry_equiv_pos_site_id
 _symmetry_equiv_pos_as_xyz
  1  'x, y, z'
loop_
 _atom_site_type_symbol
 _atom_site_label
 _atom_site_symmetry_multiplicity
 _atom_site_fract_x
 _atom_site_fract_y
 _atom_site_fract_z
 _atom_site_occupancy
  Er  Er0  1  0.00000000  0.63028496  0.26056998  1
  La  La1  1  0.00000000  0.36971498  0.73942999  1
  In  In2  1  0.50000001  0.00000000  -0.00000000  1
  In  In3  1  0.50000001  0.79784795  0.59569597  1
  Au  Au4  1  0.50000001  0.20215199  0.40430399  1
