# generated using pymatgen
data_CaYEr2FeSi5Ni2
_symmetry_space_group_name_H-M   'P 1'
_cell_length_a   5.55190992
_cell_length_b   6.61361647
_cell_length_c   6.61361647
_cell_angle_alpha   65.82772827
_cell_angle_beta   65.18225098
_cell_angle_gamma   65.18225098
_symmetry_Int_Tables_number   1
_chemical_formula_structural   CaYEr2FeSi5Ni2
_chemical_formula_sum   'Ca1 Y1 Er2 Fe1 Si5 Ni2'
_cell_volume   191.86742823
_cell_formula_units_Z   1
loop_
 _symmetry_equiv_pos_site_id
 _symmetry_equiv_pos_as_xyz
  1  'x, y, z'
loop_
 _atom_site_type_symbol
 _atom_site_label
 _atom_site_symmetry_multiplicity
 _atom_site_fract_x
 _atom_site_fract_y
 _atom_site_fract_z
 _atom_site_occupancy
  Y  Y0  1  0.45217500  0.25000000  0.25000002  1
  Ca  Ca1  1  0.54782500  0.75000000  0.75000006  1
  Er  Er2  1  0.77151700  0.42157900  0.42157904  1
  Er  Er3  1  0.11467500  0.07842100  0.07842101  1
  Ni  Ni4  1  0.22848300  0.57842100  0.57842104  1
  Fe  Fe5  1  0.88532500  0.92157900  0.92157908  1
  Si  Si6  1  0.50000000  0.21366800  0.78633203  1
  Si  Si7  1  0.50000000  0.78633200  0.21366805  1
  Ni  Ni8  1  1.00000001  0.00000000  0.50000002  1
  Si  Si9  1  -0.00000000  0.50000000  0.00000003  1
  Si  Si10  1  1.00000000  0.71366800  0.28633205  1
  Si  Si11  1  1.00000001  0.28633200  0.71366804  1
