# generated using pymatgen
data_MnCu3(TeSe)3
_symmetry_space_group_name_H-M   'P 1'
_cell_length_a   6.75765610
_cell_length_b   6.75765610
_cell_length_c   7.34034061
_cell_angle_alpha   62.59292221
_cell_angle_beta   62.59292221
_cell_angle_gamma   59.99999619
_symmetry_Int_Tables_number   1
_chemical_formula_structural   MnCu3(TeSe)3
_chemical_formula_sum   'Mn1 Cu3 Te3 Se3'
_cell_volume   245.89290905
_cell_formula_units_Z   1
loop_
 _symmetry_equiv_pos_site_id
 _symmetry_equiv_pos_as_xyz
  1  'x, y, z'
loop_
 _atom_site_type_symbol
 _atom_site_label
 _atom_site_symmetry_multiplicity
 _atom_site_fract_x
 _atom_site_fract_y
 _atom_site_fract_z
 _atom_site_occupancy
  Mn  Mn0  1  0.63973501  0.63973502  0.08079498  1
  Cu  Cu1  1  0.36026501  0.36026501  0.91920496  1
  Cu  Cu2  1  0.84433702  0.84433703  0.46698896  1
  Cu  Cu3  1  0.15566300  0.15566301  0.53301098  1
  Te  Te4  1  0.78611102  0.44133802  0.73883996  1
  Te  Te5  1  0.03371099  0.78611103  0.73883997  1
  Te  Te6  1  0.44133801  0.03371100  0.73883997  1
  Se  Se7  1  0.21388900  0.55866202  0.26115998  1
  Se  Se8  1  0.96628903  0.21388901  0.26115998  1
  Se  Se9  1  0.55866201  0.96628904  0.26115997  1
