# generated using pymatgen
data_CaAc
_symmetry_space_group_name_H-M   'P 1'
_cell_length_a   4.38395929
_cell_length_b   4.38395929
_cell_length_c   7.27813387
_cell_angle_alpha   90.00000000
_cell_angle_beta   90.00000000
_cell_angle_gamma   111.90960693
_symmetry_Int_Tables_number   1
_chemical_formula_structural   CaAc
_chemical_formula_sum   'Ca1 Ac1'
_cell_volume   129.77622081
_cell_formula_units_Z   1
loop_
 _symmetry_equiv_pos_site_id
 _symmetry_equiv_pos_as_xyz
  1  'x, y, z'
loop_
 _atom_site_type_symbol
 _atom_site_label
 _atom_site_symmetry_multiplicity
 _atom_site_fract_x
 _atom_site_fract_y
 _atom_site_fract_z
 _atom_site_occupancy
  Ac  Ac0  1  0.25586998  0.25586999  0.75000001  1
  Ca  Ca1  1  0.74412995  0.74412997  0.25000000  1
