# generated using pymatgen
data_HfZrZnGaCuPd2
_symmetry_space_group_name_H-M   'P 1'
_cell_length_a   5.44732189
_cell_length_b   5.51695538
_cell_length_c   5.51695538
_cell_angle_alpha   75.89326477
_cell_angle_beta   60.41664886
_cell_angle_gamma   60.41664886
_symmetry_Int_Tables_number   1
_chemical_formula_structural   HfZrZnGaCuPd2
_chemical_formula_sum   'Hf1 Zr1 Zn1 Ga1 Cu1 Pd2'
_cell_volume   125.38899439
_cell_formula_units_Z   1
loop_
 _symmetry_equiv_pos_site_id
 _symmetry_equiv_pos_as_xyz
  1  'x, y, z'
loop_
 _atom_site_type_symbol
 _atom_site_label
 _atom_site_symmetry_multiplicity
 _atom_site_fract_x
 _atom_site_fract_y
 _atom_site_fract_z
 _atom_site_occupancy
  Hf  Hf0  1  0.00000000  0.00000000  0.00000000  1
  Zr  Zr1  1  0.25000000  0.49999999  0.49999996  1
  Ga  Ga2  1  0.75000002  0.49999999  0.49999995  1
  Zn  Zn3  1  0.69727801  0.60544499  -0.00000004  1
  Cu  Cu4  1  0.30272200  0.39455499  -0.00000002  1
  Pd  Pd5  1  0.30272301  0.00000000  0.39455398  1
  Pd  Pd6  1  0.69727700  0.99999998  0.60544593  1
