# generated using pymatgen
data_K3BaTlSe3SCl
_symmetry_space_group_name_H-M   'P 1'
_cell_length_a   4.51600790
_cell_length_b   7.86518431
_cell_length_c   11.34292316
_cell_angle_alpha   90.00000000
_cell_angle_beta   90.00000000
_cell_angle_gamma   106.68373108
_symmetry_Int_Tables_number   1
_chemical_formula_structural   K3BaTlSe3SCl
_chemical_formula_sum   'K3 Ba1 Tl1 Se3 S1 Cl1'
_cell_volume   385.93182862
_cell_formula_units_Z   1
loop_
 _symmetry_equiv_pos_site_id
 _symmetry_equiv_pos_as_xyz
  1  'x, y, z'
loop_
 _atom_site_type_symbol
 _atom_site_label
 _atom_site_symmetry_multiplicity
 _atom_site_fract_x
 _atom_site_fract_y
 _atom_site_fract_z
 _atom_site_occupancy
  Ba  Ba0  1  0.25434104  0.50868201  0.25000000  1
  K  K1  1  0.74565905  0.49131801  0.74999999  1
  K  K2  1  0.00000000  0.00000000  0.49999999  1
  K  K3  1  0.00000000  0.00000000  0.00000000  1
  Tl  Tl4  1  0.36679406  0.73358801  0.55524099  1
  Cl  Cl5  1  0.63320603  0.26641200  0.05524100  1
  Se  Se6  1  0.36679406  0.73358801  0.94475899  1
  Se  Se7  1  0.63320603  0.26641200  0.44475899  1
  Se  Se8  1  0.92829908  0.85659801  0.25000000  1
  S  S9  1  0.07170101  0.14340200  0.74999999  1
