# generated using pymatgen
data_Y4ErInGa2(SnGe)4
_symmetry_space_group_name_H-M   'P 1'
_cell_length_a   6.55262423
_cell_length_b   7.47202015
_cell_length_c   9.83977604
_cell_angle_alpha   90.00000000
_cell_angle_beta   90.00000000
_cell_angle_gamma   90.00000000
_symmetry_Int_Tables_number   1
_chemical_formula_structural   Y4ErInGa2(SnGe)4
_chemical_formula_sum   'Y4 Er1 In1 Ga2 Sn4 Ge4'
_cell_volume   481.76862258
_cell_formula_units_Z   1
loop_
 _symmetry_equiv_pos_site_id
 _symmetry_equiv_pos_as_xyz
  1  'x, y, z'
loop_
 _atom_site_type_symbol
 _atom_site_label
 _atom_site_symmetry_multiplicity
 _atom_site_fract_x
 _atom_site_fract_y
 _atom_site_fract_z
 _atom_site_occupancy
  Y  Y0  1  0.32631399  0.67473499  0.06855300  1
  Y  Y1  1  0.17368599  0.17473500  0.43144700  1
  Er  Er2  1  0.67368598  0.32526499  0.56855300  1
  Y  Y3  1  0.82631397  0.82526498  0.93144700  1
  In  In4  1  0.67368598  0.32526499  0.93144700  1
  Y  Y5  1  0.82631397  0.82526498  0.56855300  1
  Ga  Ga6  1  0.32631399  0.67473499  0.43144700  1
  Ga  Ga7  1  0.17368599  0.17473500  0.06855300  1
  Ge  Ge8  1  0.85421697  0.54087799  0.25000000  1
  Ge  Ge9  1  0.64578298  0.04087800  0.25000000  1
  Sn  Sn10  1  0.14578299  0.45912199  0.75000000  1
  Ge  Ge11  1  0.35421699  0.95912198  0.75000000  1
  Sn  Sn12  1  0.05143400  0.88453698  0.25000000  1
  Sn  Sn13  1  0.44856598  0.38453699  0.25000000  1
  Ge  Ge14  1  0.94856597  0.11546300  0.75000000  1
  Sn  Sn15  1  0.55143398  0.61546299  0.75000000  1
