# generated using pymatgen
data_ErLuMgAlInSnPd4
_symmetry_space_group_name_H-M   'P 1'
_cell_length_a   3.73880911
_cell_length_b   7.36621714
_cell_length_c   7.36621714
_cell_angle_alpha   90.00000000
_cell_angle_beta   90.00000000
_cell_angle_gamma   90.00000000
_symmetry_Int_Tables_number   1
_chemical_formula_structural   ErLuMgAlInSnPd4
_chemical_formula_sum   'Er1 Lu1 Mg1 Al1 In1 Sn1 Pd4'
_cell_volume   202.87210019
_cell_formula_units_Z   1
loop_
 _symmetry_equiv_pos_site_id
 _symmetry_equiv_pos_as_xyz
  1  'x, y, z'
loop_
 _atom_site_type_symbol
 _atom_site_label
 _atom_site_symmetry_multiplicity
 _atom_site_fract_x
 _atom_site_fract_y
 _atom_site_fract_z
 _atom_site_occupancy
  Al  Al0  1  0.49999999  0.17312500  0.67312499  1
  Er  Er1  1  0.49999999  0.67312499  0.82687498  1
  Lu  Lu2  1  0.49999999  0.32687499  0.17312500  1
  Mg  Mg3  1  0.49999999  0.82687498  0.32687499  1
  In  In4  1  -0.00000000  0.49999999  0.49999999  1
  Sn  Sn5  1  0.00000000  0.00000000  0.00000000  1
  Pd  Pd6  1  0.00000000  0.87957998  0.62041999  1
  Pd  Pd7  1  0.00000000  0.37957999  0.87957998  1
  Pd  Pd8  1  0.00000000  0.62041999  0.12042000  1
  Pd  Pd9  1  0.00000000  0.12042000  0.37957999  1
