# generated using pymatgen
data_HoErSn3Pd2Au
_symmetry_space_group_name_H-M   'P 1'
_cell_length_a   4.61385202
_cell_length_b   4.61385298
_cell_length_c   9.10858727
_cell_angle_alpha   90.00000000
_cell_angle_beta   90.00000000
_cell_angle_gamma   119.99999237
_symmetry_Int_Tables_number   1
_chemical_formula_structural   HoErSn3Pd2Au
_chemical_formula_sum   'Ho1 Er1 Sn3 Pd2 Au1'
_cell_volume   167.92258132
_cell_formula_units_Z   1
loop_
 _symmetry_equiv_pos_site_id
 _symmetry_equiv_pos_as_xyz
  1  'x, y, z'
loop_
 _atom_site_type_symbol
 _atom_site_label
 _atom_site_symmetry_multiplicity
 _atom_site_fract_x
 _atom_site_fract_y
 _atom_site_fract_z
 _atom_site_occupancy
  Er  Er0  1  0.33333331  0.66666663  0.24999999  1
  Ho  Ho1  1  0.66666665  0.33333332  0.74999998  1
  Sn  Sn2  1  0.00000000  0.00000000  0.49999999  1
  Sn  Sn3  1  0.00000000  0.00000000  0.00000000  1
  Sn  Sn4  1  0.33333331  0.66666663  0.90972397  1
  Pd  Pd5  1  0.66666665  0.33333332  0.09027600  1
  Pd  Pd6  1  0.66666665  0.33333332  0.40972399  1
  Au  Au7  1  0.33333331  0.66666663  0.59027598  1
