# generated using pymatgen
data_Na2Li3CuO7
_symmetry_space_group_name_H-M   'P 1'
_cell_length_a   3.73095012
_cell_length_b   3.89694691
_cell_length_c   11.54373264
_cell_angle_alpha   90.00000000
_cell_angle_beta   90.00000000
_cell_angle_gamma   90.00000000
_symmetry_Int_Tables_number   1
_chemical_formula_structural   Na2Li3CuO7
_chemical_formula_sum   'Na2 Li3 Cu1 O7'
_cell_volume   167.83795962
_cell_formula_units_Z   1
loop_
 _symmetry_equiv_pos_site_id
 _symmetry_equiv_pos_as_xyz
  1  'x, y, z'
loop_
 _atom_site_type_symbol
 _atom_site_label
 _atom_site_symmetry_multiplicity
 _atom_site_fract_x
 _atom_site_fract_y
 _atom_site_fract_z
 _atom_site_occupancy
  Na  Na0  1  0.49999998  0.00000000  0.82128403  1
  Na  Na1  1  0.49999998  0.00000000  0.17871601  1
  Li  Li2  1  0.49999998  0.00000000  0.50000002  1
  Li  Li3  1  -0.00000000  0.50000001  0.00000000  1
  Cu  Cu4  1  -0.00000000  0.50000001  0.65282302  1
  Li  Li5  1  -0.00000000  0.50000001  0.34717701  1
  O  O6  1  0.49999998  0.50000001  0.62260702  1
  O  O7  1  0.49999998  0.50000001  0.37739301  1
  O  O8  1  -0.00000000  0.50000001  0.83745603  1
  O  O9  1  -0.00000000  0.50000001  0.16254401  1
  O  O10  1  0.00000000  0.00000000  0.00000000  1
  O  O11  1  0.00000000  0.00000000  0.62853302  1
  O  O12  1  0.00000000  0.00000000  0.37146701  1
