# generated using pymatgen
data_CaCeEuZrN7O
_symmetry_space_group_name_H-M   'P 1'
_cell_length_a   3.47221208
_cell_length_b   5.99509811
_cell_length_c   5.99509811
_cell_angle_alpha   103.97212982
_cell_angle_beta   90.00000000
_cell_angle_gamma   90.00000000
_symmetry_Int_Tables_number   1
_chemical_formula_structural   CaCeEuZrN7O
_chemical_formula_sum   'Ca1 Ce1 Eu1 Zr1 N7 O1'
_cell_volume   121.10318587
_cell_formula_units_Z   1
loop_
 _symmetry_equiv_pos_site_id
 _symmetry_equiv_pos_as_xyz
  1  'x, y, z'
loop_
 _atom_site_type_symbol
 _atom_site_label
 _atom_site_symmetry_multiplicity
 _atom_site_fract_x
 _atom_site_fract_y
 _atom_site_fract_z
 _atom_site_occupancy
  Eu  Eu0  1  -0.00000000  0.69933302  0.30066703  1
  Ca  Ca1  1  -0.00000000  0.30066701  0.69933303  1
  Ce  Ce2  1  -0.00000000  0.18318601  0.18318601  1
  Zr  Zr3  1  -0.00000000  0.81681403  0.81681405  1
  N  N4  1  0.49999999  0.06331500  0.38111201  1
  N  N5  1  0.49999999  0.93668503  0.61888805  1
  N  N6  1  0.49999999  0.38111201  0.06331502  1
  N  N7  1  0.49999999  0.61888802  0.93668504  1
  N  N8  1  0.49999999  0.62153902  0.62153904  1
  N  N9  1  0.49999999  0.37846101  0.37846102  1
  N  N10  1  0.49999999  0.90808203  0.09191804  1
  O  O11  1  0.49999999  0.09191800  0.90808202  1
