# generated using pymatgen
data_La3ErTh6Sn5Au
_symmetry_space_group_name_H-M   'P 1'
_cell_length_a   6.33446503
_cell_length_b   9.03629780
_cell_length_c   9.03629780
_cell_angle_alpha   120.00000000
_cell_angle_beta   90.00000000
_cell_angle_gamma   90.00000000
_symmetry_Int_Tables_number   1
_chemical_formula_structural   La3ErTh6Sn5Au
_chemical_formula_sum   'La3 Er1 Th6 Sn5 Au1'
_cell_volume   447.94185525
_cell_formula_units_Z   1
loop_
 _symmetry_equiv_pos_site_id
 _symmetry_equiv_pos_as_xyz
  1  'x, y, z'
loop_
 _atom_site_type_symbol
 _atom_site_label
 _atom_site_symmetry_multiplicity
 _atom_site_fract_x
 _atom_site_fract_y
 _atom_site_fract_z
 _atom_site_occupancy
  Er  Er0  1  0.25000000  1.00000000  0.75272793  1
  La  La1  1  0.75000000  1.00000000  0.24727195  1
  Th  Th2  1  0.75000000  0.24727200  0.99999995  1
  Th  Th3  1  0.25000000  0.24727200  0.24727198  1
  Th  Th4  1  0.25000000  0.75272800  -0.00000003  1
  Th  Th5  1  0.75000000  0.75272800  0.75272794  1
  Th  Th6  1  0.50000000  0.66666667  0.33333329  1
  La  La7  1  1.00000000  0.33333333  0.66666663  1
  La  La8  1  0.50000000  0.33333333  0.66666663  1
  Th  Th9  1  1.00000000  0.66666667  0.33333329  1
  Sn  Sn10  1  0.25000000  0.61168100  0.61168095  1
  Sn  Sn11  1  0.75000000  0.61168100  -0.00000002  1
  Sn  Sn12  1  0.75000000  1.00000000  0.61168094  1
  Sn  Sn13  1  0.25000000  1.00000000  0.38831895  1
  Au  Au14  1  0.25000000  0.38831900  -0.00000002  1
  Sn  Sn15  1  0.75000000  0.38831900  0.38831897  1
