# generated using pymatgen
data_Na2O2
_symmetry_space_group_name_H-M   'P 1'
_cell_length_a   6.94323778
_cell_length_b   6.96286345
_cell_length_c   10.08284473
_cell_angle_alpha   71.72494507
_cell_angle_beta   79.12361145
_cell_angle_gamma   65.87036133
_symmetry_Int_Tables_number   1
_chemical_formula_structural   Na2O2
_chemical_formula_sum   'Na9 O9'
_cell_volume   421.39247994
_cell_formula_units_Z   4
loop_
 _symmetry_equiv_pos_site_id
 _symmetry_equiv_pos_as_xyz
  1  'x, y, z'
loop_
 _atom_site_type_symbol
 _atom_site_label
 _atom_site_symmetry_multiplicity
 _atom_site_fract_x
 _atom_site_fract_y
 _atom_site_fract_z
 _atom_site_occupancy
  Na  Na0  1  0.76909093  0.57778702  0.16228104  1
  Na  Na1  1  0.23090896  0.42221302  0.83771900  1
  Na  Na2  1  0.74928396  0.23463301  0.96805902  1
  Na  Na3  1  0.25071593  0.76536703  0.03194101  1
  Na  Na4  1  0.72053494  0.49065002  0.56466103  1
  Na  Na5  1  0.27946495  0.50935002  0.43533901  1
  Na  Na6  1  0.21956192  0.97160804  0.61633801  1
  Na  Na7  1  0.78043798  0.02839200  0.38366203  1
  Na  Na8  1  0.72003491  0.84403403  0.75768603  1
  O  O9  1  0.27996498  0.15596601  0.24231401  1
  O  O10  1  0.96028392  0.68337303  0.62402204  1
  O  O11  1  0.03971597  0.31662701  0.37597800  1
  O  O12  1  0.89250991  0.81980003  0.92111303  1
  O  O13  1  0.10748998  0.18020001  0.07888700  1
  O  O14  1  0.51991193  0.66421603  0.81261201  1
  O  O15  1  0.48008796  0.33578401  0.18738802  1
  O  O16  1  0.45491292  0.84317103  0.37217002  1
  O  O17  1  0.54508697  0.15682901  0.62783002  1
