# generated using pymatgen
data_NaLiVCrO6
_symmetry_space_group_name_H-M   'P 1'
_cell_length_a   5.70639944
_cell_length_b   5.70639944
_cell_length_c   5.70699883
_cell_angle_alpha   90.06396484
_cell_angle_beta   119.96463776
_cell_angle_gamma   119.95804596
_symmetry_Int_Tables_number   1
_chemical_formula_structural   NaLiVCrO6
_chemical_formula_sum   'Na1 Li1 V1 Cr1 O6'
_cell_volume   131.48672122
_cell_formula_units_Z   1
loop_
 _symmetry_equiv_pos_site_id
 _symmetry_equiv_pos_as_xyz
  1  'x, y, z'
loop_
 _atom_site_type_symbol
 _atom_site_label
 _atom_site_symmetry_multiplicity
 _atom_site_fract_x
 _atom_site_fract_y
 _atom_site_fract_z
 _atom_site_occupancy
  Li  Li0  1  0.99925208  0.24998402  0.24923607  1
  Na  Na1  1  0.00074809  0.75001606  0.75076407  1
  Cr  Cr2  1  0.50000002  0.00000000  0.50000002  1
  V  V3  1  0.50000008  0.50000004  0.00000007  1
  O  O4  1  0.98771013  0.73273306  0.23253911  1
  O  O5  1  0.50019411  0.75517106  0.76746109  1
  O  O6  1  0.01229003  0.26726702  0.76746102  1
  O  O7  1  0.49980605  0.24482902  0.23253905  1
  O  O8  1  0.52335711  0.74379606  0.26715309  1
  O  O9  1  0.47664305  0.25620402  0.73284705  1
