# generated using pymatgen
data_YUIn4Ga(Sn2Au)2
_symmetry_space_group_name_H-M   'P 1'
_cell_length_a   3.80910993
_cell_length_b   10.82508945
_cell_length_c   10.91834450
_cell_angle_alpha   65.40578461
_cell_angle_beta   79.95414734
_cell_angle_gamma   79.86669922
_symmetry_Int_Tables_number   1
_chemical_formula_structural   YUIn4Ga(Sn2Au)2
_chemical_formula_sum   'Y1 U1 In4 Ga1 Sn4 Au2'
_cell_volume   400.39284611
_cell_formula_units_Z   1
loop_
 _symmetry_equiv_pos_site_id
 _symmetry_equiv_pos_as_xyz
  1  'x, y, z'
loop_
 _atom_site_type_symbol
 _atom_site_label
 _atom_site_symmetry_multiplicity
 _atom_site_fract_x
 _atom_site_fract_y
 _atom_site_fract_z
 _atom_site_occupancy
  Y  Y0  1  0.87222714  0.69770601  0.55784001  1
  U  U1  1  0.12777306  0.30229400  0.44216001  1
  In  In2  1  0.68206919  0.99891101  0.63695102  1
  In  In3  1  0.31793101  0.00108900  0.36304900  1
  In  In4  1  0.22808613  0.70230601  0.84152202  1
  In  In5  1  0.77191407  0.29769400  0.15847800  1
  Au  Au6  1  0.50000010  0.50000001  0.50000001  1
  Ga  Ga7  1  0.94662216  0.83360401  0.27315201  1
  Sn  Sn8  1  0.05337803  0.16639600  0.72684801  1
  Au  Au9  1  0.83334610  0.48840101  0.84490701  1
  Sn  Sn10  1  0.16665409  0.51159901  0.15509301  1
  Sn  Sn11  1  0.60811216  0.84474701  0.93902902  1
  Sn  Sn12  1  0.39188804  0.15525300  0.06097100  1
