# generated using pymatgen
data_ErScIn2Sn2PdAu2
_symmetry_space_group_name_H-M   'P 1'
_cell_length_a   3.57402301
_cell_length_b   7.73402405
_cell_length_c   7.73402452
_cell_angle_alpha   120.00000000
_cell_angle_beta   90.00000000
_cell_angle_gamma   90.00000000
_symmetry_Int_Tables_number   1
_chemical_formula_structural   ErScIn2Sn2PdAu2
_chemical_formula_sum   'Er1 Sc1 In2 Sn2 Pd1 Au2'
_cell_volume   185.13947963
_cell_formula_units_Z   1
loop_
 _symmetry_equiv_pos_site_id
 _symmetry_equiv_pos_as_xyz
  1  'x, y, z'
loop_
 _atom_site_type_symbol
 _atom_site_label
 _atom_site_symmetry_multiplicity
 _atom_site_fract_x
 _atom_site_fract_y
 _atom_site_fract_z
 _atom_site_occupancy
  Er  Er0  1  0.50000000  0.76057902  0.76057905  1
  Sc  Sc1  1  0.50000000  0.00000000  0.23942100  1
  In  In2  1  0.50000000  0.23942101  1.00000003  1
  In  In3  1  -0.00000000  0.39437701  0.39437703  1
  Sn  Sn4  1  0.00000000  0.00000000  0.60562301  1
  Sn  Sn5  1  -0.00000000  0.60562301  1.00000005  1
  Pd  Pd6  1  0.00000000  0.00000000  0.00000000  1
  Au  Au7  1  0.50000000  0.66666668  0.33333338  1
  Au  Au8  1  0.50000000  0.33333334  0.66666670  1
