# generated using pymatgen
data_HfZnInCu2PdAu
_symmetry_space_group_name_H-M   'P 1'
_cell_length_a   5.45404005
_cell_length_b   5.47021866
_cell_length_c   5.47021866
_cell_angle_alpha   75.60984802
_cell_angle_beta   60.09778595
_cell_angle_gamma   60.09778595
_symmetry_Int_Tables_number   1
_chemical_formula_structural   HfZnInCu2PdAu
_chemical_formula_sum   'Hf1 Zn1 In1 Cu2 Pd1 Au1'
_cell_volume   122.64310666
_cell_formula_units_Z   1
loop_
 _symmetry_equiv_pos_site_id
 _symmetry_equiv_pos_as_xyz
  1  'x, y, z'
loop_
 _atom_site_type_symbol
 _atom_site_label
 _atom_site_symmetry_multiplicity
 _atom_site_fract_x
 _atom_site_fract_y
 _atom_site_fract_z
 _atom_site_occupancy
  Hf  Hf0  1  0.00000000  0.00000000  0.00000000  1
  In  In1  1  0.24999998  0.50000000  0.49999999  1
  Zn  Zn2  1  0.74999999  0.50000000  0.49999997  1
  Cu  Cu3  1  0.69824398  0.60351200  -0.00000002  1
  Cu  Cu4  1  0.30175599  0.39648800  -0.00000000  1
  Au  Au5  1  0.30175600  0.00000000  0.39648798  1
  Pd  Pd6  1  0.69824401  0.00000000  0.60351197  1
