# generated using pymatgen
data_LiCuP5
_symmetry_space_group_name_H-M   'P 1'
_cell_length_a   5.47599125
_cell_length_b   5.47599125
_cell_length_c   5.47599125
_cell_angle_alpha   106.17626190
_cell_angle_beta   106.17626190
_cell_angle_gamma   116.28353119
_symmetry_Int_Tables_number   1
_chemical_formula_structural   LiCuP5
_chemical_formula_sum   'Li1 Cu1 P5'
_cell_volume   125.05001470
_cell_formula_units_Z   1
loop_
 _symmetry_equiv_pos_site_id
 _symmetry_equiv_pos_as_xyz
  1  'x, y, z'
loop_
 _atom_site_type_symbol
 _atom_site_label
 _atom_site_symmetry_multiplicity
 _atom_site_fract_x
 _atom_site_fract_y
 _atom_site_fract_z
 _atom_site_occupancy
  Li  Li0  1  0.00000000  0.00000000  0.00000000  1
  Cu  Cu1  1  0.24999994  0.74999997  0.49999997  1
  P  P2  1  0.74999999  0.24999999  0.49999999  1
  P  P3  1  0.49999994  0.74194197  0.24194197  1
  P  P4  1  0.25805796  0.49999998  0.75805799  1
  P  P5  1  0.74194197  0.49999998  0.24194198  1
  P  P6  1  0.49999998  0.25805799  0.75805800  1
