# generated using pymatgen
data_KSrLiH4
_symmetry_space_group_name_H-M   'P 1'
_cell_length_a   4.24559593
_cell_length_b   4.24559593
_cell_length_c   7.43652630
_cell_angle_alpha   106.58608246
_cell_angle_beta   106.58608246
_cell_angle_gamma   90.00000000
_symmetry_Int_Tables_number   1
_chemical_formula_structural   KSrLiH4
_chemical_formula_sum   'K1 Sr1 Li1 H4'
_cell_volume   122.63600834
_cell_formula_units_Z   1
loop_
 _symmetry_equiv_pos_site_id
 _symmetry_equiv_pos_as_xyz
  1  'x, y, z'
loop_
 _atom_site_type_symbol
 _atom_site_label
 _atom_site_symmetry_multiplicity
 _atom_site_fract_x
 _atom_site_fract_y
 _atom_site_fract_z
 _atom_site_occupancy
  Sr  Sr0  1  0.35624800  0.35624800  0.71249600  1
  K  K1  1  0.64375200  0.64375201  0.28750399  1
  Li  Li2  1  0.00000000  0.00000000  0.00000000  1
  H  H3  1  0.14523700  0.14523700  0.29047400  1
  H  H4  1  0.85476300  0.85476301  0.70952599  1
  H  H5  1  0.50000001  0.00000000  -0.00000000  1
  H  H6  1  -0.00000000  0.50000001  -0.00000000  1
