# generated using pymatgen
data_KEuHgBr(ClO2)2
_symmetry_space_group_name_H-M   'P 1'
_cell_length_a   5.30549383
_cell_length_b   5.30549335
_cell_length_c   7.70010090
_cell_angle_alpha   90.00000000
_cell_angle_beta   90.00000000
_cell_angle_gamma   120.00000000
_symmetry_Int_Tables_number   1
_chemical_formula_structural   KEuHgBr(ClO2)2
_chemical_formula_sum   'K1 Eu1 Hg1 Br1 Cl2 O4'
_cell_volume   187.70620813
_cell_formula_units_Z   1
loop_
 _symmetry_equiv_pos_site_id
 _symmetry_equiv_pos_as_xyz
  1  'x, y, z'
loop_
 _atom_site_type_symbol
 _atom_site_label
 _atom_site_symmetry_multiplicity
 _atom_site_fract_x
 _atom_site_fract_y
 _atom_site_fract_z
 _atom_site_occupancy
  Eu  Eu0  1  0.00000000  0.00000000  0.50000001  1
  K  K1  1  0.33333330  0.66666666  1.00000001  1
  Hg  Hg2  1  0.66666667  0.33333333  -0.00000000  1
  Br  Br3  1  0.00000000  0.00000000  0.00000000  1
  Cl  Cl4  1  0.70762402  0.00000000  0.64958401  1
  Cl  Cl5  1  0.29237595  0.99999999  0.35041600  1
  O  O6  1  0.29237599  0.29237600  0.64958401  1
  O  O7  1  0.70762398  0.70762400  0.35041600  1
  O  O8  1  -0.00000004  0.70762400  0.64958401  1
  O  O9  1  -0.00000002  0.29237600  0.35041600  1
