# generated using pymatgen
data_Al3SiNiRh
_symmetry_space_group_name_H-M   'P 1'
_cell_length_a   4.37294292
_cell_length_b   5.27213812
_cell_length_c   5.27213764
_cell_angle_alpha   120.00000000
_cell_angle_beta   90.00000000
_cell_angle_gamma   90.00000000
_symmetry_Int_Tables_number   1
_chemical_formula_structural   Al3SiNiRh
_chemical_formula_sum   'Al3 Si1 Ni1 Rh1'
_cell_volume   105.26353730
_cell_formula_units_Z   1
loop_
 _symmetry_equiv_pos_site_id
 _symmetry_equiv_pos_as_xyz
  1  'x, y, z'
loop_
 _atom_site_type_symbol
 _atom_site_label
 _atom_site_symmetry_multiplicity
 _atom_site_fract_x
 _atom_site_fract_y
 _atom_site_fract_z
 _atom_site_occupancy
  Al  Al0  1  0.00000000  0.00000000  0.00000000  1
  Al  Al1  1  0.50000001  0.33333332  0.66666665  1
  Al  Al2  1  0.50000001  0.66666664  0.33333330  1
  Si  Si3  1  -0.00000000  0.49999998  -0.00000002  1
  Ni  Ni4  1  1.00000002  0.49999998  0.49999997  1
  Rh  Rh5  1  0.00000000  0.00000000  0.50000000  1
