# generated using pymatgen
data_Na2H6O7F
_symmetry_space_group_name_H-M   'P 1'
_cell_length_a   3.80325890
_cell_length_b   5.78690434
_cell_length_c   7.18975210
_cell_angle_alpha   82.98054504
_cell_angle_beta   89.02859497
_cell_angle_gamma   82.06588745
_symmetry_Int_Tables_number   1
_chemical_formula_structural   Na2H6O7F
_chemical_formula_sum   'Na2 H6 O7 F1'
_cell_volume   155.55048040
_cell_formula_units_Z   1
loop_
 _symmetry_equiv_pos_site_id
 _symmetry_equiv_pos_as_xyz
  1  'x, y, z'
loop_
 _atom_site_type_symbol
 _atom_site_label
 _atom_site_symmetry_multiplicity
 _atom_site_fract_x
 _atom_site_fract_y
 _atom_site_fract_z
 _atom_site_occupancy
  Na  Na0  1  0.05082200  0.62065500  0.27758103  1
  Na  Na1  1  0.03869900  0.37049200  0.76459603  1
  H  H2  1  0.76822902  0.11472900  0.17321102  1
  H  H3  1  0.18943100  0.11069600  0.17985201  1
  H  H4  1  0.18381700  0.84271501  0.63694305  1
  H  H5  1  0.70768402  0.91550801  0.70382106  1
  H  H6  1  0.51631901  0.93586101  0.39047405  1
  H  H7  1  0.61483802  0.23990800  0.46233303  1
  O  O8  1  0.48662901  0.85411201  0.88498206  1
  O  O9  1  0.58722501  0.44617500  0.04101002  1
  O  O10  1  0.95971902  0.21675000  0.13066003  1
  O  O11  1  0.97328802  0.78794901  0.59000606  1
  O  O12  1  0.50020601  0.93054101  0.25578704  1
  F  F13  1  0.51931801  0.99634401  0.79491506  1
  O  O14  1  0.56267601  0.40077300  0.49354804  1
  O  O15  1  0.42401301  0.56519200  0.96550205  1
