# generated using pymatgen
data_K6RbBa(TlSe)3
_symmetry_space_group_name_H-M   'P 1'
_cell_length_a   7.91805506
_cell_length_b   7.91805506
_cell_length_c   10.35716057
_cell_angle_alpha   90.00000000
_cell_angle_beta   90.00000000
_cell_angle_gamma   104.31667328
_symmetry_Int_Tables_number   1
_chemical_formula_structural   K6RbBa(TlSe)3
_chemical_formula_sum   'K6 Rb1 Ba1 Tl3 Se3'
_cell_volume   629.18206955
_cell_formula_units_Z   1
loop_
 _symmetry_equiv_pos_site_id
 _symmetry_equiv_pos_as_xyz
  1  'x, y, z'
loop_
 _atom_site_type_symbol
 _atom_site_label
 _atom_site_symmetry_multiplicity
 _atom_site_fract_x
 _atom_site_fract_y
 _atom_site_fract_z
 _atom_site_occupancy
  K  K0  1  0.57022700  0.42977299  0.75000003  1
  K  K1  1  0.42977301  0.57022699  0.25000001  1
  Rb  Rb2  1  0.20825203  0.79174799  0.75000003  1
  Ba  Ba3  1  0.79174799  0.20825200  0.25000001  1
  K  K4  1  0.33265000  0.12019100  0.45809702  1
  K  K5  1  0.12019101  0.33264999  0.54190302  1
  K  K6  1  0.33265000  0.12019100  0.04190300  1
  K  K7  1  0.12019101  0.33264999  0.95809704  1
  Tl  Tl8  1  0.66735002  0.87980898  0.54190302  1
  Tl  Tl9  1  0.87980901  0.66734999  0.45809702  1
  Tl  Tl10  1  0.66735002  0.87980898  0.95809704  1
  Se  Se11  1  0.87980901  0.66734999  0.04190300  1
  Se  Se12  1  0.89047698  0.10952300  0.75000003  1
  Se  Se13  1  0.10952304  0.89047698  0.25000001  1
