# generated using pymatgen
data_ErSc3BeB6Ir2Os3Ru2
_symmetry_space_group_name_H-M   'P 1'
_cell_length_a   3.88581395
_cell_length_b   8.88329029
_cell_length_c   8.88329029
_cell_angle_alpha   120.00000000
_cell_angle_beta   90.00000000
_cell_angle_gamma   90.00000000
_symmetry_Int_Tables_number   1
_chemical_formula_structural   ErSc3BeB6Ir2Os3Ru2
_chemical_formula_sum   'Er1 Sc3 Be1 B6 Ir2 Ru2 Os3'
_cell_volume   265.55858360
_cell_formula_units_Z   1
loop_
 _symmetry_equiv_pos_site_id
 _symmetry_equiv_pos_as_xyz
  1  'x, y, z'
loop_
 _atom_site_type_symbol
 _atom_site_label
 _atom_site_symmetry_multiplicity
 _atom_site_fract_x
 _atom_site_fract_y
 _atom_site_fract_z
 _atom_site_occupancy
  Er  Er0  1  0.00000000  0.00000000  0.00000000  1
  Sc  Sc1  1  0.50000001  0.33333332  0.66666665  1
  Sc  Sc2  1  0.50000001  0.66666665  0.33333331  1
  Be  Be3  1  0.50000001  0.31697599  0.99999998  1
  Sc  Sc4  1  0.50000001  0.68302398  0.68302397  1
  Ir  Ir5  1  0.50000001  0.00000000  0.31697600  1
  B  B6  1  0.50000001  0.68302398  0.99999997  1
  Ru  Ru7  1  0.50000001  0.31697599  0.31697599  1
  B  B8  1  0.50000001  0.00000000  0.68302399  1
  B  B9  1  1.00000001  0.49999999  0.99999997  1
  Os  Os10  1  1.00000001  0.49999999  0.49999998  1
  Ru  Ru11  1  0.00000000  0.00000000  0.49999999  1
  B  B12  1  1.00000001  0.18088600  0.36177199  1
  Os  Os13  1  1.00000001  0.18088600  0.81911298  1
  B  B14  1  1.00000001  0.63822698  0.81911297  1
  B  B15  1  1.00000001  0.81911398  0.63822797  1
  Ir  Ir16  1  1.00000001  0.36177299  0.18088699  1
  Os  Os17  1  1.00000001  0.81911398  0.18088698  1
