# generated using pymatgen
data_Er2Al9Ga5
_symmetry_space_group_name_H-M   'P 1'
_cell_length_a   5.19889498
_cell_length_b   5.20215321
_cell_length_c   10.39360809
_cell_angle_alpha   90.00000000
_cell_angle_beta   90.00000000
_cell_angle_gamma   90.00000000
_symmetry_Int_Tables_number   1
_chemical_formula_structural   Er2Al9Ga5
_chemical_formula_sum   'Er2 Al9 Ga5'
_cell_volume   281.09978903
_cell_formula_units_Z   1
loop_
 _symmetry_equiv_pos_site_id
 _symmetry_equiv_pos_as_xyz
  1  'x, y, z'
loop_
 _atom_site_type_symbol
 _atom_site_label
 _atom_site_symmetry_multiplicity
 _atom_site_fract_x
 _atom_site_fract_y
 _atom_site_fract_z
 _atom_site_occupancy
  Er  Er0  1  0.50000000  0.00000000  0.37510100  1
  Er  Er1  1  0.50000000  0.00000000  0.87495899  1
  Al  Al2  1  0.75068400  0.49999998  0.00000000  1
  Al  Al3  1  0.75006400  0.49999998  0.50000000  1
  Al  Al4  1  0.00000000  0.74969597  0.25022800  1
  Al  Al5  1  0.00000000  0.74969597  0.74977199  1
  Ga  Ga6  1  0.50000000  0.00000000  0.12504100  1
  Ga  Ga7  1  0.50000000  0.00000000  0.62489899  1
  Al  Al8  1  0.24931600  0.49999998  0.00000000  1
  Al  Al9  1  0.24993600  0.49999998  0.50000000  1
  Ga  Ga10  1  0.00000000  0.25030399  0.25022800  1
  Al  Al11  1  0.00000000  0.25030399  0.74977199  1
  Ga  Ga12  1  0.50000000  0.49999998  0.25013700  1
  Al  Al13  1  0.50000000  0.49999998  0.74986299  1
  Al  Al14  1  0.00000000  0.00000000  0.00000000  1
  Ga  Ga15  1  0.00000000  0.00000000  0.50000000  1
