# generated using pymatgen
data_NaLi2Cu3PO11
_symmetry_space_group_name_H-M   'P 1'
_cell_length_a   4.65269709
_cell_length_b   4.65269709
_cell_length_c   9.03835201
_cell_angle_alpha   90.00000000
_cell_angle_beta   90.00000000
_cell_angle_gamma   90.00000000
_symmetry_Int_Tables_number   1
_chemical_formula_structural   NaLi2Cu3PO11
_chemical_formula_sum   'Na1 Li2 Cu3 P1 O11'
_cell_volume   195.65854025
_cell_formula_units_Z   1
loop_
 _symmetry_equiv_pos_site_id
 _symmetry_equiv_pos_as_xyz
  1  'x, y, z'
loop_
 _atom_site_type_symbol
 _atom_site_label
 _atom_site_symmetry_multiplicity
 _atom_site_fract_x
 _atom_site_fract_y
 _atom_site_fract_z
 _atom_site_occupancy
  Li  Li0  1  0.49999999  0.49999999  0.33648500  1
  Na  Na1  1  0.49999999  0.49999999  0.66351500  1
  Cu  Cu2  1  0.00000000  0.00000000  0.16351500  1
  Li  Li3  1  0.00000000  0.00000000  0.83648500  1
  Cu  Cu4  1  0.49999999  0.49999999  0.00000000  1
  Cu  Cu5  1  0.00000000  0.00000000  0.50000000  1
  P  P6  1  0.69564099  0.69564099  0.16132000  1
  O  O7  1  0.69564099  0.69564099  0.83868000  1
  O  O8  1  0.70044899  0.70044899  0.50000000  1
  O  O9  1  0.79955099  0.20044900  0.00000000  1
  O  O10  1  0.80435899  0.19564100  0.33868000  1
  O  O11  1  0.80435899  0.19564100  0.66132000  1
  O  O12  1  0.19564100  0.80435899  0.33868000  1
  O  O13  1  0.19564100  0.80435899  0.66132000  1
  O  O14  1  0.20044900  0.79955099  0.00000000  1
  O  O15  1  0.29955099  0.29955099  0.50000000  1
  O  O16  1  0.30435899  0.30435899  0.16132000  1
  O  O17  1  0.30435899  0.30435899  0.83868000  1
