# generated using pymatgen
data_MnZnCu2PdAu
_symmetry_space_group_name_H-M   'P 1'
_cell_length_a   5.13908720
_cell_length_b   5.13908720
_cell_length_c   5.13908768
_cell_angle_alpha   66.28515625
_cell_angle_beta   66.28515625
_cell_angle_gamma   66.28514862
_symmetry_Int_Tables_number   1
_chemical_formula_structural   MnZnCu2PdAu
_chemical_formula_sum   'Mn1 Zn1 Cu2 Pd1 Au1'
_cell_volume   108.99023644
_cell_formula_units_Z   1
loop_
 _symmetry_equiv_pos_site_id
 _symmetry_equiv_pos_as_xyz
  1  'x, y, z'
loop_
 _atom_site_type_symbol
 _atom_site_label
 _atom_site_symmetry_multiplicity
 _atom_site_fract_x
 _atom_site_fract_y
 _atom_site_fract_z
 _atom_site_occupancy
  Mn  Mn0  1  0.37073100  0.37073102  0.37073096  1
  Zn  Zn1  1  0.62926899  0.62926904  0.62926893  1
  Cu  Cu2  1  0.00000000  0.00000000  0.00000000  1
  Au  Au3  1  0.00000000  0.00000000  0.49999998  1
  Pd  Pd4  1  -0.00000003  0.50000003  -0.00000001  1
  Cu  Cu5  1  0.50000002  0.00000000  -0.00000002  1
