# generated using pymatgen
data_HfMn5(Fe4Si)2
_symmetry_space_group_name_H-M   'P 1'
_cell_length_a   5.51826382
_cell_length_b   5.51826382
_cell_length_c   7.94835377
_cell_angle_alpha   90.00000000
_cell_angle_beta   90.00000000
_cell_angle_gamma   90.00000000
_symmetry_Int_Tables_number   1
_chemical_formula_structural   HfMn5(Fe4Si)2
_chemical_formula_sum   'Hf1 Mn5 Fe8 Si2'
_cell_volume   242.03719282
_cell_formula_units_Z   1
loop_
 _symmetry_equiv_pos_site_id
 _symmetry_equiv_pos_as_xyz
  1  'x, y, z'
loop_
 _atom_site_type_symbol
 _atom_site_label
 _atom_site_symmetry_multiplicity
 _atom_site_fract_x
 _atom_site_fract_y
 _atom_site_fract_z
 _atom_site_occupancy
  Mn  Mn0  1  0.50000002  0.00000000  0.24206601  1
  Hf  Hf1  1  0.00000000  0.50000002  0.24206601  1
  Mn  Mn2  1  0.50000002  0.00000000  0.75793402  1
  Mn  Mn3  1  0.00000000  0.50000002  0.75793402  1
  Mn  Mn4  1  0.27816201  0.22183801  0.00000000  1
  Mn  Mn5  1  0.77816203  0.27816201  0.00000000  1
  Fe  Fe6  1  0.22183801  0.72183802  0.00000000  1
  Fe  Fe7  1  0.72183802  0.77816203  0.00000000  1
  Fe  Fe8  1  0.00000000  0.00000000  0.25215801  1
  Fe  Fe9  1  0.50000002  0.50000002  0.25215801  1
  Si  Si10  1  0.69628702  0.19628701  0.50000001  1
  Fe  Fe11  1  0.19628701  0.30371301  0.50000001  1
  Fe  Fe12  1  0.80371303  0.69628702  0.50000001  1
  Si  Si13  1  0.30371301  0.80371303  0.50000001  1
  Fe  Fe14  1  0.00000000  0.00000000  0.74784202  1
  Fe  Fe15  1  0.50000002  0.50000002  0.74784202  1
