# generated using pymatgen
data_HoEr2Al(SiNi)4
_symmetry_space_group_name_H-M   'P 1'
_cell_length_a   4.10328102
_cell_length_b   6.69650316
_cell_length_c   6.95861912
_cell_angle_alpha   90.00000000
_cell_angle_beta   90.00000000
_cell_angle_gamma   90.00000000
_symmetry_Int_Tables_number   1
_chemical_formula_structural   HoEr2Al(SiNi)4
_chemical_formula_sum   'Ho1 Er2 Al1 Si4 Ni4'
_cell_volume   191.20639159
_cell_formula_units_Z   1
loop_
 _symmetry_equiv_pos_site_id
 _symmetry_equiv_pos_as_xyz
  1  'x, y, z'
loop_
 _atom_site_type_symbol
 _atom_site_label
 _atom_site_symmetry_multiplicity
 _atom_site_fract_x
 _atom_site_fract_y
 _atom_site_fract_z
 _atom_site_occupancy
  Er  Er0  1  0.75000000  0.51356799  0.80734199  1
  Er  Er1  1  0.75000000  0.01356800  0.69265799  1
  Al  Al2  1  0.25000000  0.48643199  0.19265800  1
  Ho  Ho3  1  0.25000000  0.98643198  0.30734199  1
  Ni  Ni4  1  0.75000000  0.35236099  0.44045799  1
  Si  Si5  1  0.75000000  0.85236098  0.05954200  1
  Ni  Ni6  1  0.25000000  0.64763898  0.55954299  1
  Ni  Ni7  1  0.25000000  0.14763900  0.94045698  1
  Si  Si8  1  0.75000000  0.19939400  0.10792000  1
  Ni  Ni9  1  0.75000000  0.69939398  0.39207999  1
  Si  Si10  1  0.25000000  0.80060598  0.89207998  1
  Si  Si11  1  0.25000000  0.30060599  0.60791999  1
