# generated using pymatgen
data_Er2Al3Ga2Si2Ge3
_symmetry_space_group_name_H-M   'P 1'
_cell_length_a   5.30625200
_cell_length_b   5.30625200
_cell_length_c   9.12070560
_cell_angle_alpha   90.00000000
_cell_angle_beta   90.00000000
_cell_angle_gamma   120.00000000
_symmetry_Int_Tables_number   1
_chemical_formula_structural   Er2Al3Ga2Si2Ge3
_chemical_formula_sum   'Er2 Al3 Ga2 Si2 Ge3'
_cell_volume   222.40001522
_cell_formula_units_Z   1
loop_
 _symmetry_equiv_pos_site_id
 _symmetry_equiv_pos_as_xyz
  1  'x, y, z'
loop_
 _atom_site_type_symbol
 _atom_site_label
 _atom_site_symmetry_multiplicity
 _atom_site_fract_x
 _atom_site_fract_y
 _atom_site_fract_z
 _atom_site_occupancy
  Er  Er0  1  0.66666666  0.33333333  0.56767902  1
  Er  Er1  1  0.33333333  0.66666666  0.43232102  1
  Al  Al2  1  0.33333333  0.66666666  0.06767900  1
  Al  Al3  1  0.66666666  0.33333333  0.93232104  1
  Al  Al4  1  0.00000000  0.00000000  0.50000002  1
  Ga  Ga5  1  0.00000000  0.00000000  0.00000000  1
  Ga  Ga6  1  0.17103600  0.34207200  0.75000003  1
  Si  Si7  1  0.17103600  0.82896399  0.75000003  1
  Si  Si8  1  0.65792800  0.82896399  0.75000003  1
  Ge  Ge9  1  0.82896400  0.65792799  0.25000001  1
  Ge  Ge10  1  0.82896400  0.17103600  0.25000001  1
  Ge  Ge11  1  0.34207200  0.17103600  0.25000001  1
