# generated using pymatgen
data_Mn(Fe3Si)4
_symmetry_space_group_name_H-M   'P 1'
_cell_length_a   5.31570196
_cell_length_b   7.60868692
_cell_length_c   7.60868692
_cell_angle_alpha   90.00000000
_cell_angle_beta   90.00000000
_cell_angle_gamma   90.00000000
_symmetry_Int_Tables_number   1
_chemical_formula_structural   Mn(Fe3Si)4
_chemical_formula_sum   'Mn1 Fe12 Si4'
_cell_volume   307.73723834
_cell_formula_units_Z   1
loop_
 _symmetry_equiv_pos_site_id
 _symmetry_equiv_pos_as_xyz
  1  'x, y, z'
loop_
 _atom_site_type_symbol
 _atom_site_label
 _atom_site_symmetry_multiplicity
 _atom_site_fract_x
 _atom_site_fract_y
 _atom_site_fract_z
 _atom_site_occupancy
  Mn  Mn0  1  0.50000000  0.50000000  0.50000000  1
  Fe  Fe1  1  0.00000000  0.50000000  0.50000000  1
  Fe  Fe2  1  0.50000000  0.75121001  0.24879000  1
  Fe  Fe3  1  0.00961900  0.00000000  0.50000000  1
  Fe  Fe4  1  0.50000000  0.75121001  0.75121001  1
  Fe  Fe5  1  0.50000000  0.24879000  0.75121001  1
  Fe  Fe6  1  0.50000000  0.24879000  0.24879000  1
  Fe  Fe7  1  0.99038101  0.50000000  -0.00000000  1
  Fe  Fe8  1  0.00000000  0.00000000  0.00000000  1
  Fe  Fe9  1  0.73933101  1.00000001  0.26621000  1
  Fe  Fe10  1  0.73933101  0.00000000  0.73379001  1
  Fe  Fe11  1  0.26066900  0.26621000  0.00000000  1
  Si  Si12  1  0.75421201  0.50000000  0.74196401  1
  Si  Si13  1  0.24578800  0.74196401  0.50000000  1
  Si  Si14  1  0.24578800  0.25803600  0.50000000  1
  Fe  Fe15  1  0.26066900  0.73379001  0.00000000  1
  Si  Si16  1  0.75421201  0.50000000  0.25803600  1
