# generated using pymatgen
data_KCa2Y2C6O
_symmetry_space_group_name_H-M   'P 1'
_cell_length_a   5.36329603
_cell_length_b   5.36329651
_cell_length_c   9.56356335
_cell_angle_alpha   90.00000000
_cell_angle_beta   90.00000000
_cell_angle_gamma   120.00000000
_symmetry_Int_Tables_number   1
_chemical_formula_structural   KCa2Y2C6O
_chemical_formula_sum   'K1 Ca2 Y2 C6 O1'
_cell_volume   238.23959767
_cell_formula_units_Z   1
loop_
 _symmetry_equiv_pos_site_id
 _symmetry_equiv_pos_as_xyz
  1  'x, y, z'
loop_
 _atom_site_type_symbol
 _atom_site_label
 _atom_site_symmetry_multiplicity
 _atom_site_fract_x
 _atom_site_fract_y
 _atom_site_fract_z
 _atom_site_occupancy
  K  K0  1  0.00000000  0.00000000  0.49999998  1
  Ca  Ca1  1  0.66666668  0.33333333  0.21472099  1
  Ca  Ca2  1  0.33333336  0.66666666  0.21472099  1
  Y  Y3  1  0.33333336  0.66666666  0.78527897  1
  Y  Y4  1  0.66666668  0.33333333  0.78527897  1
  O  O5  1  0.00000000  0.00000000  0.00000000  1
  C  C6  1  0.50000000  0.00000000  0.68091698  1
  C  C7  1  0.00000002  0.50000000  0.31908299  1
  C  C8  1  0.50000000  0.00000000  0.31908299  1
  C  C9  1  0.50000002  0.50000000  0.31908299  1
  C  C10  1  0.00000002  0.50000000  0.68091698  1
  C  C11  1  0.50000002  0.50000000  0.68091698  1
