# generated using pymatgen
data_Mn2FeSi
_symmetry_space_group_name_H-M   'P 1'
_cell_length_a   5.54897022
_cell_length_b   5.54897070
_cell_length_c   8.08868408
_cell_angle_alpha   90.00000000
_cell_angle_beta   90.00000000
_cell_angle_gamma   119.99999237
_symmetry_Int_Tables_number   1
_chemical_formula_structural   Mn2FeSi
_chemical_formula_sum   'Mn6 Fe3 Si3'
_cell_volume   215.69166579
_cell_formula_units_Z   3
loop_
 _symmetry_equiv_pos_site_id
 _symmetry_equiv_pos_as_xyz
  1  'x, y, z'
loop_
 _atom_site_type_symbol
 _atom_site_label
 _atom_site_symmetry_multiplicity
 _atom_site_fract_x
 _atom_site_fract_y
 _atom_site_fract_z
 _atom_site_occupancy
  Mn  Mn0  1  0.34131899  0.00000000  0.49999999  1
  Mn  Mn1  1  0.65868094  0.65868101  0.49999999  1
  Mn  Mn2  1  0.99999994  0.34131900  0.49999999  1
  Mn  Mn3  1  0.33333329  0.66666667  0.99999999  1
  Mn  Mn4  1  0.66666662  0.33333334  0.99999999  1
  Mn  Mn5  1  0.00000000  0.00000000  0.00000000  1
  Si  Si6  1  0.66666662  0.33333334  0.31789900  1
  Fe  Fe7  1  0.66666662  0.33333334  0.68210099  1
  Si  Si8  1  0.33333329  0.66666667  0.31789900  1
  Si  Si9  1  0.33333329  0.66666667  0.68210099  1
  Fe  Fe10  1  0.00000000  0.00000000  0.32828600  1
  Fe  Fe11  1  0.00000000  0.00000000  0.67171399  1
