# generated using pymatgen
data_LiFeCoNi5
_symmetry_space_group_name_H-M   'P 1'
_cell_length_a   3.19499397
_cell_length_b   5.18409681
_cell_length_c   6.11502314
_cell_angle_alpha   68.24375916
_cell_angle_beta   79.84375000
_cell_angle_gamma   83.67593384
_symmetry_Int_Tables_number   1
_chemical_formula_structural   LiFeCoNi5
_chemical_formula_sum   'Li1 Fe1 Co1 Ni5'
_cell_volume   92.48432025
_cell_formula_units_Z   1
loop_
 _symmetry_equiv_pos_site_id
 _symmetry_equiv_pos_as_xyz
  1  'x, y, z'
loop_
 _atom_site_type_symbol
 _atom_site_label
 _atom_site_symmetry_multiplicity
 _atom_site_fract_x
 _atom_site_fract_y
 _atom_site_fract_z
 _atom_site_occupancy
  Li  Li0  1  0.25003599  0.24997000  0.49999901  1
  Co  Co1  1  0.75003298  0.74996500  0.50000103  1
  Ni  Ni2  1  0.50000299  0.49999600  1.00000001  1
  Fe  Fe3  1  0.00000294  0.99999700  0.00000003  1
  Ni  Ni4  1  0.13102296  0.77876100  0.79537102  1
  Ni  Ni5  1  0.63102200  0.27876100  0.79537101  1
  Ni  Ni6  1  0.86899001  0.22122500  0.20462901  1
  Ni  Ni7  1  0.36898997  0.72122600  0.20462902  1
