# generated using pymatgen
data_La2YIn2SnAu3
_symmetry_space_group_name_H-M   'P 1'
_cell_length_a   4.29366684
_cell_length_b   7.65322208
_cell_length_c   7.65322208
_cell_angle_alpha   120.00000000
_cell_angle_beta   90.00000000
_cell_angle_gamma   90.00000000
_symmetry_Int_Tables_number   1
_chemical_formula_structural   La2YIn2SnAu3
_chemical_formula_sum   'La2 Y1 In2 Sn1 Au3'
_cell_volume   217.79485030
_cell_formula_units_Z   1
loop_
 _symmetry_equiv_pos_site_id
 _symmetry_equiv_pos_as_xyz
  1  'x, y, z'
loop_
 _atom_site_type_symbol
 _atom_site_label
 _atom_site_symmetry_multiplicity
 _atom_site_fract_x
 _atom_site_fract_y
 _atom_site_fract_z
 _atom_site_occupancy
  Y  Y0  1  0.50000002  0.58910500  0.58910503  1
  La  La1  1  0.50000002  0.00000000  0.41089501  1
  La  La2  1  0.50000002  0.41089500  1.00000004  1
  In  In3  1  1.00000004  0.24775200  0.24775201  1
  In  In4  1  -0.00000000  1.00000000  0.75224804  1
  Sn  Sn5  1  1.00000004  0.75224800  1.00000004  1
  Au  Au6  1  1.00000004  0.66666667  0.33333336  1
  Au  Au7  1  1.00000004  0.33333333  0.66666669  1
  Au  Au8  1  0.50000002  0.00000000  -0.00000000  1
