# generated using pymatgen
data_Li2Be2B4C5N
_symmetry_space_group_name_H-M   'P 1'
_cell_length_a   4.13840914
_cell_length_b   4.13840914
_cell_length_c   8.27665901
_cell_angle_alpha   90.00000000
_cell_angle_beta   90.00000000
_cell_angle_gamma   90.00000000
_symmetry_Int_Tables_number   1
_chemical_formula_structural   Li2Be2B4C5N
_chemical_formula_sum   'Li2 Be2 B4 C5 N1'
_cell_volume   141.74962278
_cell_formula_units_Z   1
loop_
 _symmetry_equiv_pos_site_id
 _symmetry_equiv_pos_as_xyz
  1  'x, y, z'
loop_
 _atom_site_type_symbol
 _atom_site_label
 _atom_site_symmetry_multiplicity
 _atom_site_fract_x
 _atom_site_fract_y
 _atom_site_fract_z
 _atom_site_occupancy
  Li  Li0  1  0.00000000  0.00000000  0.50000000  1
  Be  Be1  1  0.00000000  0.00000000  0.00000000  1
  B  B2  1  0.19948599  0.49999998  0.24960300  1
  B  B3  1  0.19948599  0.49999998  0.75039700  1
  Li  Li4  1  0.49999998  0.49999998  0.40002700  1
  Be  Be5  1  0.49999998  0.49999998  0.90066700  1
  B  B6  1  0.49999998  0.19948599  0.24960300  1
  C  C7  1  0.49999998  0.19948599  0.75039700  1
  B  B8  1  0.49999998  0.49999998  0.09933300  1
  N  N9  1  0.49999998  0.49999998  0.59997300  1
  C  C10  1  0.49999998  0.80051397  0.24960300  1
  C  C11  1  0.49999998  0.80051397  0.75039700  1
  C  C12  1  0.80051397  0.49999998  0.24960300  1
  C  C13  1  0.80051397  0.49999998  0.75039700  1
