# generated using pymatgen
data_ErFe12
_symmetry_space_group_name_H-M   'P 1'
_cell_length_a   4.71303797
_cell_length_b   6.47023058
_cell_length_c   6.47023058
_cell_angle_alpha   81.86920929
_cell_angle_beta   68.64105988
_cell_angle_gamma   68.64105988
_symmetry_Int_Tables_number   1
_chemical_formula_structural   ErFe12
_chemical_formula_sum   'Er1 Fe12'
_cell_volume   171.12493393
_cell_formula_units_Z   1
loop_
 _symmetry_equiv_pos_site_id
 _symmetry_equiv_pos_as_xyz
  1  'x, y, z'
loop_
 _atom_site_type_symbol
 _atom_site_label
 _atom_site_symmetry_multiplicity
 _atom_site_fract_x
 _atom_site_fract_y
 _atom_site_fract_z
 _atom_site_occupancy
  Er  Er0  1  0.99392302  0.00607700  0.00607697  1
  Fe  Fe1  1  0.27039199  0.22960800  0.22960799  1
  Fe  Fe2  1  0.72792397  0.77207601  0.77207598  1
  Fe  Fe3  1  0.50133200  0.22137300  0.77596198  1
  Fe  Fe4  1  0.50133197  0.77596201  0.22137299  1
  Fe  Fe5  1  0.49906101  0.00163900  0.50093198  1
  Fe  Fe6  1  0.99836902  0.00163900  0.50093197  1
  Fe  Fe7  1  0.49906098  0.50093201  0.00163899  1
  Fe  Fe8  1  0.99836899  0.50093201  0.00163897  1
  Fe  Fe9  1  0.64273399  0.35726600  0.35726598  1
  Fe  Fe10  1  0.00023396  0.64090501  0.35862700  1
  Fe  Fe11  1  0.00023398  0.35862700  0.64090500  1
  Fe  Fe12  1  0.36703397  0.63296601  0.63296599  1
