# generated using pymatgen
data_Y2ErGa2Sn2IrPd(Ru3Au)2
_symmetry_space_group_name_H-M   'P 1'
_cell_length_a   8.13325024
_cell_length_b   8.13325024
_cell_length_c   8.13325024
_cell_angle_alpha   109.47122192
_cell_angle_beta   109.47122192
_cell_angle_gamma   109.47122192
_symmetry_Int_Tables_number   1
_chemical_formula_structural   Y2ErGa2Sn2IrPd(Ru3Au)2
_chemical_formula_sum   'Y2 Er1 Ga2 Sn2 Ru6 Ir1 Pd1 Au2'
_cell_volume   414.16223152
_cell_formula_units_Z   1
loop_
 _symmetry_equiv_pos_site_id
 _symmetry_equiv_pos_as_xyz
  1  'x, y, z'
loop_
 _atom_site_type_symbol
 _atom_site_label
 _atom_site_symmetry_multiplicity
 _atom_site_fract_x
 _atom_site_fract_y
 _atom_site_fract_z
 _atom_site_occupancy
  Y  Y0  1  0.00000000  0.00000000  0.00000000  1
  Y  Y1  1  0.15801202  0.33905100  0.49706300  1
  Sn  Sn2  1  0.84198801  0.66094900  0.50293703  1
  Er  Er3  1  0.15801204  0.66094900  0.81896100  1
  Ga  Ga4  1  0.84198799  0.33905100  0.18103903  1
  Sn  Sn5  1  0.66094901  0.50293700  0.84198801  1
  Au  Au6  1  0.33905102  0.49706300  0.15801203  1
  Ga  Ga7  1  0.33905100  0.18103900  0.84198798  1
  Ru  Ru8  1  0.66094903  0.81896100  0.15801205  1
  Au  Au9  1  0.81896098  0.15801200  0.66094900  1
  Ru  Ru10  1  0.18103905  0.84198800  0.33905104  1
  Ru  Ru11  1  0.49706299  0.15801200  0.33905101  1
  Ru  Ru12  1  0.50293703  0.84198800  0.66094903  1
  Ru  Ru13  1  0.50000001  0.50000000  0.50000002  1
  Ir  Ir14  1  0.00000000  0.00000000  0.49999998  1
  Ru  Ru15  1  0.00000003  0.50000000  0.00000003  1
  Pd  Pd16  1  0.50000005  0.99999999  0.00000007  1
