# generated using pymatgen
data_La2YIn3Sn2Au
_symmetry_space_group_name_H-M   'P 1'
_cell_length_a   4.21948624
_cell_length_b   7.97003412
_cell_length_c   7.97003412
_cell_angle_alpha   120.00000000
_cell_angle_beta   90.00000000
_cell_angle_gamma   90.00000000
_symmetry_Int_Tables_number   1
_chemical_formula_structural   La2YIn3Sn2Au
_chemical_formula_sum   'La2 Y1 In3 Sn2 Au1'
_cell_volume   232.11893423
_cell_formula_units_Z   1
loop_
 _symmetry_equiv_pos_site_id
 _symmetry_equiv_pos_as_xyz
  1  'x, y, z'
loop_
 _atom_site_type_symbol
 _atom_site_label
 _atom_site_symmetry_multiplicity
 _atom_site_fract_x
 _atom_site_fract_y
 _atom_site_fract_z
 _atom_site_occupancy
  Y  Y0  1  -0.00000000  0.59108299  0.59108300  1
  La  La1  1  -0.00000000  0.40891700  0.00000000  1
  La  La2  1  0.00000000  0.00000000  0.40891700  1
  In  In3  1  0.49999997  0.24956800  0.24956800  1
  In  In4  1  0.49999997  0.75043199  0.00000000  1
  In  In5  1  0.49999997  0.00000000  0.75043200  1
  Au  Au6  1  0.49999997  0.33333333  0.66666667  1
  Sn  Sn7  1  0.49999997  0.66666666  0.33333334  1
  Sn  Sn8  1  0.00000000  0.00000000  0.00000000  1
