# generated using pymatgen
data_CsK2Sb(I2Br)2
_symmetry_space_group_name_H-M   'P 1'
_cell_length_a   8.56426620
_cell_length_b   8.56426620
_cell_length_c   8.56426620
_cell_angle_alpha   60.00000000
_cell_angle_beta   60.00000000
_cell_angle_gamma   60.00000000
_symmetry_Int_Tables_number   1
_chemical_formula_structural   CsK2Sb(I2Br)2
_chemical_formula_sum   'Cs1 K2 Sb1 I4 Br2'
_cell_volume   444.17639651
_cell_formula_units_Z   1
loop_
 _symmetry_equiv_pos_site_id
 _symmetry_equiv_pos_as_xyz
  1  'x, y, z'
loop_
 _atom_site_type_symbol
 _atom_site_label
 _atom_site_symmetry_multiplicity
 _atom_site_fract_x
 _atom_site_fract_y
 _atom_site_fract_z
 _atom_site_occupancy
  K  K0  1  0.25000001  0.25000001  0.25000001  1
  Cs  Cs1  1  0.75000004  0.75000004  0.75000004  1
  K  K2  1  0.50000002  0.50000002  0.50000002  1
  Sb  Sb3  1  0.00000000  0.00000000  0.00000000  1
  I  I4  1  0.22982401  0.77017604  0.22982401  1
  Br  Br5  1  0.22982401  0.22982401  0.77017604  1
  I  I6  1  0.77017604  0.22982401  0.77017604  1
  I  I7  1  0.22982401  0.77017604  0.77017604  1
  Br  Br8  1  0.77017604  0.22982401  0.22982401  1
  I  I9  1  0.77017604  0.77017604  0.22982401  1
