# generated using pymatgen
data_DyMg5
_symmetry_space_group_name_H-M   'P 1'
_cell_length_a   4.81400394
_cell_length_b   6.06167936
_cell_length_c   6.06167936
_cell_angle_alpha   75.06950378
_cell_angle_beta   66.60392761
_cell_angle_gamma   66.60392761
_symmetry_Int_Tables_number   1
_chemical_formula_structural   DyMg5
_chemical_formula_sum   'Dy1 Mg5'
_cell_volume   147.94177031
_cell_formula_units_Z   1
loop_
 _symmetry_equiv_pos_site_id
 _symmetry_equiv_pos_as_xyz
  1  'x, y, z'
loop_
 _atom_site_type_symbol
 _atom_site_label
 _atom_site_symmetry_multiplicity
 _atom_site_fract_x
 _atom_site_fract_y
 _atom_site_fract_z
 _atom_site_occupancy
  Dy  Dy0  1  0.68703002  0.31297001  0.31297000  1
  Mg  Mg1  1  0.61886405  0.88113602  0.88113597  1
  Mg  Mg2  1  0.98706102  0.30780601  0.71807202  1
  Mg  Mg3  1  0.98706104  0.71807202  0.30780598  1
  Mg  Mg4  1  0.31770205  0.90401102  0.46058495  1
  Mg  Mg5  1  0.31770203  0.46058501  0.90401100  1
