# generated using pymatgen
data_ScTaInCu2Pd3
_symmetry_space_group_name_H-M   'P 1'
_cell_length_a   5.18902111
_cell_length_b   5.18902111
_cell_length_c   5.18902111
_cell_angle_alpha   90.00000000
_cell_angle_beta   90.00000000
_cell_angle_gamma   90.00000000
_symmetry_Int_Tables_number   1
_chemical_formula_structural   ScTaInCu2Pd3
_chemical_formula_sum   'Sc1 Ta1 In1 Cu2 Pd3'
_cell_volume   139.71927153
_cell_formula_units_Z   1
loop_
 _symmetry_equiv_pos_site_id
 _symmetry_equiv_pos_as_xyz
  1  'x, y, z'
loop_
 _atom_site_type_symbol
 _atom_site_label
 _atom_site_symmetry_multiplicity
 _atom_site_fract_x
 _atom_site_fract_y
 _atom_site_fract_z
 _atom_site_occupancy
  Ta  Ta0  1  0.00000000  0.49999999  0.74999998  1
  Sc  Sc1  1  0.49999999  0.24999999  0.00000000  1
  In  In2  1  0.74999998  0.00000000  0.49999999  1
  Pd  Pd3  1  0.00000000  0.49999999  0.24999999  1
  Cu  Cu4  1  0.49999999  0.74999998  0.00000000  1
  Cu  Cu5  1  0.24999999  0.00000000  0.49999999  1
  Pd  Pd6  1  0.49999999  0.49999999  0.49999999  1
  Pd  Pd7  1  0.00000000  0.00000000  0.00000000  1
