# generated using pymatgen
data_BaPrY4In(Si2Ge)2
_symmetry_space_group_name_H-M   'P 1'
_cell_length_a   4.40294218
_cell_length_b   4.41201496
_cell_length_c   16.90872955
_cell_angle_alpha   90.00000000
_cell_angle_beta   90.00000000
_cell_angle_gamma   90.00000000
_symmetry_Int_Tables_number   1
_chemical_formula_structural   BaPrY4In(Si2Ge)2
_chemical_formula_sum   'Ba1 Pr1 Y4 In1 Si4 Ge2'
_cell_volume   328.46638945
_cell_formula_units_Z   1
loop_
 _symmetry_equiv_pos_site_id
 _symmetry_equiv_pos_as_xyz
  1  'x, y, z'
loop_
 _atom_site_type_symbol
 _atom_site_label
 _atom_site_symmetry_multiplicity
 _atom_site_fract_x
 _atom_site_fract_y
 _atom_site_fract_z
 _atom_site_occupancy
  Ba  Ba0  1  0.00000000  0.75000001  0.90159097  1
  Pr  Pr1  1  0.49999998  0.75000001  0.39670199  1
  Y  Y2  1  0.49999998  0.25000000  0.60286498  1
  Y  Y3  1  0.00000000  0.25000000  0.10101900  1
  Y  Y4  1  0.00000000  0.75000001  0.68968298  1
  Y  Y5  1  0.00000000  0.75000001  0.54413098  1
  Si  Si6  1  0.49999998  0.75000001  0.06356300  1
  Si  Si7  1  0.49999998  0.25000000  0.94225897  1
  In  In8  1  0.00000000  0.25000000  0.42911599  1
  Si  Si9  1  0.49999998  0.75000001  0.76292998  1
  Ge  Ge10  1  0.00000000  0.75000001  0.25336199  1
  Si  Si11  1  0.00000000  0.25000000  0.76205698  1
  Ge  Ge12  1  0.49999998  0.25000000  0.24562299  1
