# generated using pymatgen
data_Li2CeYTaAlRuN5
_symmetry_space_group_name_H-M   'P 1'
_cell_length_a   3.79657006
_cell_length_b   3.79656982
_cell_length_c   16.44066238
_cell_angle_alpha   90.00000000
_cell_angle_beta   90.00000000
_cell_angle_gamma   120.00000000
_symmetry_Int_Tables_number   1
_chemical_formula_structural   Li2CeYTaAlRuN5
_chemical_formula_sum   'Li2 Ce1 Y1 Ta1 Al1 Ru1 N5'
_cell_volume   205.22617607
_cell_formula_units_Z   1
loop_
 _symmetry_equiv_pos_site_id
 _symmetry_equiv_pos_as_xyz
  1  'x, y, z'
loop_
 _atom_site_type_symbol
 _atom_site_label
 _atom_site_symmetry_multiplicity
 _atom_site_fract_x
 _atom_site_fract_y
 _atom_site_fract_z
 _atom_site_occupancy
  Li  Li0  1  0.66666665  0.33333334  0.60705299  1
  Ce  Ce1  1  0.33333332  0.66666668  0.10705300  1
  Y  Y2  1  0.33333332  0.66666668  0.39294699  1
  Li  Li3  1  0.66666665  0.33333334  0.89294698  1
  Al  Al4  1  0.33333332  0.66666668  0.74999998  1
  Ru  Ru5  1  0.66666665  0.33333334  0.24999999  1
  N  N6  1  0.00000000  0.00000000  0.56408699  1
  Ta  Ta7  1  0.00000000  0.00000000  0.06408700  1
  N  N8  1  0.00000000  0.00000000  0.43591299  1
  N  N9  1  0.00000000  0.00000000  0.93591298  1
  N  N10  1  0.33333332  0.66666668  0.24999999  1
  N  N11  1  0.66666665  0.33333334  0.74999998  1
