# generated using pymatgen
data_YScTlCuSb2AsSe2S3
_symmetry_space_group_name_H-M   'P 1'
_cell_length_a   3.86114001
_cell_length_b   3.86700106
_cell_length_c   17.24524307
_cell_angle_alpha   90.00000000
_cell_angle_beta   90.00000000
_cell_angle_gamma   90.00000000
_symmetry_Int_Tables_number   1
_chemical_formula_structural   YScTlCuSb2AsSe2S3
_chemical_formula_sum   'Y1 Sc1 Tl1 Cu1 Sb2 As1 Se2 S3'
_cell_volume   257.48928495
_cell_formula_units_Z   1
loop_
 _symmetry_equiv_pos_site_id
 _symmetry_equiv_pos_as_xyz
  1  'x, y, z'
loop_
 _atom_site_type_symbol
 _atom_site_label
 _atom_site_symmetry_multiplicity
 _atom_site_fract_x
 _atom_site_fract_y
 _atom_site_fract_z
 _atom_site_occupancy
  Y  Y0  1  0.75000000  0.24084400  0.86106100  1
  Sc  Sc1  1  0.75000000  0.25915600  0.36106100  1
  Cu  Cu2  1  0.25000000  0.75915599  0.13893900  1
  Tl  Tl3  1  0.25000000  0.74084399  0.63893900  1
  Sb  Sb4  1  0.25000000  0.23035700  0.50078500  1
  Sb  Sb5  1  0.25000000  0.26964300  0.00078500  1
  As  As6  1  0.75000000  0.76964299  0.49921500  1
  S  S7  1  0.75000000  0.73035699  0.99921500  1
  S  S8  1  0.75000000  0.24212500  0.68798300  1
  Se  Se9  1  0.75000000  0.25787500  0.18798300  1
  Se  Se10  1  0.25000000  0.75787499  0.31201700  1
  S  S11  1  0.25000000  0.74212499  0.81201700  1
