# generated using pymatgen
data_LaY(InAu)2
_symmetry_space_group_name_H-M   'P 1'
_cell_length_a   4.38157797
_cell_length_b   4.38157797
_cell_length_c   8.62288952
_cell_angle_alpha   104.71829224
_cell_angle_beta   104.71829224
_cell_angle_gamma   90.00000000
_symmetry_Int_Tables_number   1
_chemical_formula_structural   LaY(InAu)2
_chemical_formula_sum   'La1 Y1 In2 Au2'
_cell_volume   154.48919165
_cell_formula_units_Z   1
loop_
 _symmetry_equiv_pos_site_id
 _symmetry_equiv_pos_as_xyz
  1  'x, y, z'
loop_
 _atom_site_type_symbol
 _atom_site_label
 _atom_site_symmetry_multiplicity
 _atom_site_fract_x
 _atom_site_fract_y
 _atom_site_fract_z
 _atom_site_occupancy
  Y  Y0  1  0.67595103  0.67595102  0.35190204  1
  La  La1  1  0.32404902  0.32404901  0.64809802  1
  In  In2  1  0.00000001  0.50000001  0.00000002  1
  In  In3  1  0.50000001  0.00000000  0.00000001  1
  Au  Au4  1  0.88023904  0.88023902  0.76047805  1
  Au  Au5  1  0.11976101  0.11976100  0.23952201  1
