# generated using pymatgen
data_LiMgFeNi2
_symmetry_space_group_name_H-M   'P 1'
_cell_length_a   3.91811991
_cell_length_b   3.91811991
_cell_length_c   5.48628521
_cell_angle_alpha   110.92117310
_cell_angle_beta   110.92117310
_cell_angle_gamma   90.00000000
_symmetry_Int_Tables_number   1
_chemical_formula_structural   LiMgFeNi2
_chemical_formula_sum   'Li1 Mg1 Fe1 Ni2'
_cell_volume   72.69542146
_cell_formula_units_Z   1
loop_
 _symmetry_equiv_pos_site_id
 _symmetry_equiv_pos_as_xyz
  1  'x, y, z'
loop_
 _atom_site_type_symbol
 _atom_site_label
 _atom_site_symmetry_multiplicity
 _atom_site_fract_x
 _atom_site_fract_y
 _atom_site_fract_z
 _atom_site_occupancy
  Li  Li0  1  0.00000000  0.00000000  0.00000000  1
  Mg  Mg1  1  0.62480305  0.62480303  0.24960605  1
  Fe  Fe2  1  0.37519703  0.37519702  0.75039402  1
  Ni  Ni3  1  0.25000004  0.75000004  0.50000004  1
  Ni  Ni4  1  0.75000004  0.25000001  0.50000003  1
