# generated using pymatgen
data_TaTiMnAlSi5
_symmetry_space_group_name_H-M   'P 1'
_cell_length_a   4.80623198
_cell_length_b   4.80623198
_cell_length_c   6.60410500
_cell_angle_alpha   90.00000000
_cell_angle_beta   90.00000000
_cell_angle_gamma   120.00000000
_symmetry_Int_Tables_number   1
_chemical_formula_structural   TaTiMnAlSi5
_chemical_formula_sum   'Ta1 Ti1 Mn1 Al1 Si5'
_cell_volume   132.11558675
_cell_formula_units_Z   1
loop_
 _symmetry_equiv_pos_site_id
 _symmetry_equiv_pos_as_xyz
  1  'x, y, z'
loop_
 _atom_site_type_symbol
 _atom_site_label
 _atom_site_symmetry_multiplicity
 _atom_site_fract_x
 _atom_site_fract_y
 _atom_site_fract_z
 _atom_site_occupancy
  Ta  Ta0  1  -0.00000000  0.50000000  0.66666667  1
  Ti  Ti1  1  0.50000000  0.00000000  0.33333333  1
  Al  Al2  1  0.50000000  0.50000000  -0.00000000  1
  Mn  Mn3  1  0.15910700  0.84089300  -0.00000000  1
  Si  Si4  1  0.84089300  0.68178600  0.33333333  1
  Si  Si5  1  0.31821400  0.15910700  0.66666667  1
  Si  Si6  1  0.84089300  0.15910700  -0.00000000  1
  Si  Si7  1  0.15910700  0.31821400  0.33333333  1
  Si  Si8  1  0.68178600  0.84089300  0.66666667  1
