# generated using pymatgen
data_Mg2Cd
_symmetry_space_group_name_H-M   'P 1'
_cell_length_a   3.28894210
_cell_length_b   6.85966778
_cell_length_c   6.88826513
_cell_angle_alpha   110.99792480
_cell_angle_beta   103.81189728
_cell_angle_gamma   90.00000000
_symmetry_Int_Tables_number   1
_chemical_formula_structural   Mg2Cd
_chemical_formula_sum   'Mg4 Cd2'
_cell_volume   140.26262230
_cell_formula_units_Z   2
loop_
 _symmetry_equiv_pos_site_id
 _symmetry_equiv_pos_as_xyz
  1  'x, y, z'
loop_
 _atom_site_type_symbol
 _atom_site_label
 _atom_site_symmetry_multiplicity
 _atom_site_fract_x
 _atom_site_fract_y
 _atom_site_fract_z
 _atom_site_occupancy
  Mg  Mg0  1  0.86091894  0.46535700  0.72183796  1
  Mg  Mg1  1  0.13908097  0.53464300  0.27816198  1
  Mg  Mg2  1  0.80244992  0.84476400  0.60489995  1
  Mg  Mg3  1  0.19754998  0.15523600  0.39509999  1
  Cd  Cd4  1  0.47206697  0.21012800  0.94413398  1
  Cd  Cd5  1  0.52793294  0.78987200  0.05586596  1
