# generated using pymatgen
data_SrAc3
_symmetry_space_group_name_H-M   'P 1'
_cell_length_a   6.11094379
_cell_length_b   6.11094379
_cell_length_c   7.69512033
_cell_angle_alpha   113.39489746
_cell_angle_beta   113.39489746
_cell_angle_gamma   90.00000000
_symmetry_Int_Tables_number   1
_chemical_formula_structural   SrAc3
_chemical_formula_sum   'Sr1 Ac3'
_cell_volume   237.77973712
_cell_formula_units_Z   1
loop_
 _symmetry_equiv_pos_site_id
 _symmetry_equiv_pos_as_xyz
  1  'x, y, z'
loop_
 _atom_site_type_symbol
 _atom_site_label
 _atom_site_symmetry_multiplicity
 _atom_site_fract_x
 _atom_site_fract_y
 _atom_site_fract_z
 _atom_site_occupancy
  Ac  Ac0  1  0.75000001  0.25000000  0.49999997  1
  Ac  Ac1  1  0.24999998  0.75000001  0.49999996  1
  Sr  Sr2  1  0.50000000  0.50000001  -0.00000003  1
  Ac  Ac3  1  0.00000000  0.00000000  0.00000000  1
