# generated using pymatgen
data_Na3LiO4
_symmetry_space_group_name_H-M   'P 1'
_cell_length_a   3.90759230
_cell_length_b   3.90759230
_cell_length_c   10.41113949
_cell_angle_alpha   79.18350220
_cell_angle_beta   79.18350220
_cell_angle_gamma   59.99999619
_symmetry_Int_Tables_number   1
_chemical_formula_structural   Na3LiO4
_chemical_formula_sum   'Na3 Li1 O4'
_cell_volume   134.40133825
_cell_formula_units_Z   1
loop_
 _symmetry_equiv_pos_site_id
 _symmetry_equiv_pos_as_xyz
  1  'x, y, z'
loop_
 _atom_site_type_symbol
 _atom_site_label
 _atom_site_symmetry_multiplicity
 _atom_site_fract_x
 _atom_site_fract_y
 _atom_site_fract_z
 _atom_site_occupancy
  Li  Li0  1  0.62018303  0.62018300  0.13945098  1
  Na  Na1  1  0.37981702  0.37981700  0.86054897  1
  Na  Na2  1  0.80377704  0.80377699  0.58866897  1
  Na  Na3  1  0.19622301  0.19622300  0.41133098  1
  O  O4  1  0.11190701  0.11190700  0.66427898  1
  O  O5  1  0.88809305  0.88809299  0.33572097  1
  O  O6  1  0.69471804  0.69471799  0.91584596  1
  O  O7  1  0.30528202  0.30528200  0.08415399  1
