# generated using pymatgen
data_LiAlGa2Ni
_symmetry_space_group_name_H-M   'P 1'
_cell_length_a   4.24372768
_cell_length_b   4.24372768
_cell_length_c   5.91730261
_cell_angle_alpha   110.98241425
_cell_angle_beta   110.98241425
_cell_angle_gamma   90.08068848
_symmetry_Int_Tables_number   1
_chemical_formula_structural   LiAlGa2Ni
_chemical_formula_sum   'Li1 Al1 Ga2 Ni1'
_cell_volume   91.86908657
_cell_formula_units_Z   1
loop_
 _symmetry_equiv_pos_site_id
 _symmetry_equiv_pos_as_xyz
  1  'x, y, z'
loop_
 _atom_site_type_symbol
 _atom_site_label
 _atom_site_symmetry_multiplicity
 _atom_site_fract_x
 _atom_site_fract_y
 _atom_site_fract_z
 _atom_site_occupancy
  Li  Li0  1  0.00437300  0.00437300  0.00874600  1
  Al  Al1  1  0.75584704  0.25584601  0.51169302  1
  Ga  Ga2  1  0.25584702  0.75584604  0.51169302  1
  Ga  Ga3  1  0.59000904  0.59000903  0.18001803  1
  Ni  Ni4  1  0.36292502  0.36292502  0.72585001  1
