# generated using pymatgen
data_Li2CoPO8
_symmetry_space_group_name_H-M   'P 1'
_cell_length_a   4.63760185
_cell_length_b   4.70672131
_cell_length_c   6.00684547
_cell_angle_alpha   68.02752686
_cell_angle_beta   72.60413361
_cell_angle_gamma   61.15161133
_symmetry_Int_Tables_number   1
_chemical_formula_structural   Li2CoPO8
_chemical_formula_sum   'Li2 Co1 P1 O8'
_cell_volume   105.36492422
_cell_formula_units_Z   1
loop_
 _symmetry_equiv_pos_site_id
 _symmetry_equiv_pos_as_xyz
  1  'x, y, z'
loop_
 _atom_site_type_symbol
 _atom_site_label
 _atom_site_symmetry_multiplicity
 _atom_site_fract_x
 _atom_site_fract_y
 _atom_site_fract_z
 _atom_site_occupancy
  Li  Li0  1  0.74357805  0.13277001  0.66195998  1
  Li  Li1  1  0.25642206  0.86723003  0.33803996  1
  Co  Co2  1  0.35591906  0.72600103  0.84587798  1
  P  P3  1  0.64408105  0.27399901  0.15412196  1
  O  O4  1  0.07053402  0.40058702  0.77221801  1
  O  O5  1  0.92946608  0.59941302  0.22778194  1
  O  O6  1  0.32777602  0.09771200  0.76134401  1
  O  O7  1  0.67222408  0.90228803  0.23865594  1
  O  O8  1  0.12655704  0.68714903  0.70879499  1
  O  O9  1  0.87344306  0.31285101  0.29120495  1
  O  O10  1  0.74305506  0.42184902  0.84551197  1
  O  O11  1  0.25694504  0.57815102  0.15448797  1
