# generated using pymatgen
data_YSc(TlS4)2
_symmetry_space_group_name_H-M   'P 1'
_cell_length_a   4.03679323
_cell_length_b   8.00991631
_cell_length_c   8.04619026
_cell_angle_alpha   89.82374573
_cell_angle_beta   90.00000000
_cell_angle_gamma   90.00000000
_symmetry_Int_Tables_number   1
_chemical_formula_structural   YSc(TlS4)2
_chemical_formula_sum   'Y1 Sc1 Tl2 S8'
_cell_volume   260.16730974
_cell_formula_units_Z   1
loop_
 _symmetry_equiv_pos_site_id
 _symmetry_equiv_pos_as_xyz
  1  'x, y, z'
loop_
 _atom_site_type_symbol
 _atom_site_label
 _atom_site_symmetry_multiplicity
 _atom_site_fract_x
 _atom_site_fract_y
 _atom_site_fract_z
 _atom_site_occupancy
  Y  Y0  1  0.71764696  0.63029998  0.27767101  1
  Sc  Sc1  1  0.21764699  0.86969997  0.72232901  1
  Tl  Tl2  1  0.28235298  0.36969999  0.72232899  1
  Tl  Tl3  1  0.78235296  0.13030000  0.27767100  1
  S  S4  1  0.16133599  0.60869698  0.00204002  1
  S  S5  1  0.66133596  0.89130297  0.99796000  1
  S  S6  1  0.83866395  0.39130299  0.99795999  1
  S  S7  1  0.33866398  0.10869700  0.00204000  1
  S  S8  1  0.76102596  0.12454300  0.63600599  1
  S  S9  1  0.26102599  0.37545699  0.36399400  1
  S  S10  1  0.23897399  0.87545697  0.36399401  1
  S  S11  1  0.73897396  0.62454298  0.63600600  1
