# generated using pymatgen
data_Mg
_symmetry_space_group_name_H-M   'P 1'
_cell_length_a   3.51289392
_cell_length_b   6.15438080
_cell_length_c   7.10626984
_cell_angle_alpha   108.35484314
_cell_angle_beta   90.00000000
_cell_angle_gamma   106.58263397
_symmetry_Int_Tables_number   1
_chemical_formula_structural   Mg
_chemical_formula_sum   Mg6
_cell_volume   139.07055544
_cell_formula_units_Z   6
loop_
 _symmetry_equiv_pos_site_id
 _symmetry_equiv_pos_as_xyz
  1  'x, y, z'
loop_
 _atom_site_type_symbol
 _atom_site_label
 _atom_site_symmetry_multiplicity
 _atom_site_fract_x
 _atom_site_fract_y
 _atom_site_fract_z
 _atom_site_occupancy
  Mg  Mg0  1  0.97091813  0.94183605  0.71959702  1
  Mg  Mg1  1  0.02908201  0.05816400  0.28040301  1
  Mg  Mg2  1  0.35703909  0.71407804  0.95252803  1
  Mg  Mg3  1  0.64296105  0.28592202  0.04747200  1
  Mg  Mg4  1  0.33342908  0.66685804  0.38127101  1
  Mg  Mg5  1  0.66657105  0.33314202  0.61872902  1
