# generated using pymatgen
data_HoErMnFe5Si6
_symmetry_space_group_name_H-M   'P 1'
_cell_length_a   3.89857602
_cell_length_b   7.01738405
_cell_length_c   7.29358578
_cell_angle_alpha   90.00000000
_cell_angle_beta   90.00000000
_cell_angle_gamma   90.00000000
_symmetry_Int_Tables_number   1
_chemical_formula_structural   HoErMnFe5Si6
_chemical_formula_sum   'Ho1 Er1 Mn1 Fe5 Si6'
_cell_volume   199.53649889
_cell_formula_units_Z   1
loop_
 _symmetry_equiv_pos_site_id
 _symmetry_equiv_pos_as_xyz
  1  'x, y, z'
loop_
 _atom_site_type_symbol
 _atom_site_label
 _atom_site_symmetry_multiplicity
 _atom_site_fract_x
 _atom_site_fract_y
 _atom_site_fract_z
 _atom_site_occupancy
  Er  Er0  1  0.99999999  0.50000000  0.50000002  1
  Ho  Ho1  1  0.50000000  0.00000000  0.00000000  1
  Mn  Mn2  1  0.50000000  0.85524999  0.40128101  1
  Fe  Fe3  1  0.50000000  0.14475000  0.59871902  1
  Fe  Fe4  1  -0.00000000  0.64475000  0.90128103  1
  Fe  Fe5  1  0.00000000  0.35525000  0.09871900  1
  Fe  Fe6  1  0.50000000  0.58802600  0.14622700  1
  Fe  Fe7  1  0.50000000  0.41197400  0.85377303  1
  Si  Si8  1  0.99999999  0.91197399  0.64622702  1
  Si  Si9  1  -0.00000000  0.08802600  0.35377301  1
  Si  Si10  1  0.50000000  0.27888300  0.29116101  1
  Si  Si11  1  0.50000000  0.72111699  0.70883902  1
  Si  Si12  1  -0.00000000  0.22111700  0.79116102  1
  Si  Si13  1  0.99999999  0.77888299  0.20883901  1
