# generated using pymatgen
data_ErScNbTlS8
_symmetry_space_group_name_H-M   'P 1'
_cell_length_a   3.94468594
_cell_length_b   7.88629293
_cell_length_c   7.99413967
_cell_angle_alpha   89.93305969
_cell_angle_beta   90.00000000
_cell_angle_gamma   90.00000000
_symmetry_Int_Tables_number   1
_chemical_formula_structural   ErScNbTlS8
_chemical_formula_sum   'Er1 Sc1 Nb1 Tl1 S8'
_cell_volume   248.68911221
_cell_formula_units_Z   1
loop_
 _symmetry_equiv_pos_site_id
 _symmetry_equiv_pos_as_xyz
  1  'x, y, z'
loop_
 _atom_site_type_symbol
 _atom_site_label
 _atom_site_symmetry_multiplicity
 _atom_site_fract_x
 _atom_site_fract_y
 _atom_site_fract_z
 _atom_site_occupancy
  Er  Er0  1  0.28549500  0.37067700  0.27585300  1
  Nb  Nb1  1  0.78549501  0.12932300  0.72414698  1
  Tl  Tl2  1  0.71450501  0.62932301  0.72414700  1
  Sc  Sc3  1  0.21450500  0.87067701  0.27585302  1
  S  S4  1  0.83797601  0.38984000  0.00274901  1
  S  S5  1  0.33797601  0.11016000  0.99725098  1
  S  S6  1  0.16202400  0.61016001  0.99725099  1
  S  S7  1  0.66202401  0.88984001  0.00274902  1
  S  S8  1  0.26052900  0.37485500  0.63256599  1
  S  S9  1  0.76052901  0.12514500  0.36743399  1
  S  S10  1  0.73947101  0.62514501  0.36743401  1
  S  S11  1  0.23947100  0.87485501  0.63256601  1
