# generated using pymatgen
data_Li2EuB2HNO13
_symmetry_space_group_name_H-M   'P 1'
_cell_length_a   4.76125288
_cell_length_b   6.20540094
_cell_length_c   7.42650223
_cell_angle_alpha   107.63724518
_cell_angle_beta   89.99988556
_cell_angle_gamma   89.99990082
_symmetry_Int_Tables_number   1
_chemical_formula_structural   Li2EuB2HNO13
_chemical_formula_sum   'Li2 Eu1 B2 H1 N1 O13'
_cell_volume   209.10553902
_cell_formula_units_Z   1
loop_
 _symmetry_equiv_pos_site_id
 _symmetry_equiv_pos_as_xyz
  1  'x, y, z'
loop_
 _atom_site_type_symbol
 _atom_site_label
 _atom_site_symmetry_multiplicity
 _atom_site_fract_x
 _atom_site_fract_y
 _atom_site_fract_z
 _atom_site_occupancy
  Li  Li0  1  0.02792499  0.18159000  0.06982099  1
  Eu  Eu1  1  0.52792498  0.81839898  0.93017194  1
  Li  Li2  1  0.50536798  0.76121598  0.38351195  1
  B  B3  1  0.00536399  0.23879399  0.61649398  1
  N  N4  1  0.02412097  0.75960498  0.13703996  1
  B  B5  1  0.45937200  0.24765099  0.38479298  1
  O  O6  1  0.95937300  0.75234698  0.61520794  1
  O  O7  1  0.52412000  0.24039399  0.86295898  1
  O  O8  1  0.91767699  0.86200398  0.02953294  1
  H  H9  1  0.30485998  0.74312998  0.14486096  1
  O  O10  1  0.88002100  0.66541998  0.23874095  1
  O  O11  1  0.55267100  0.42814799  0.36295497  1
  O  O12  1  0.19409600  0.19491600  0.36383099  1
  O  O13  1  0.13388897  0.89541498  0.57266895  1
  O  O14  1  0.63388601  0.10459400  0.42732798  1
  O  O15  1  0.69409099  0.80508198  0.63617194  1
  O  O16  1  0.05267798  0.57184799  0.63704597  1
  O  O17  1  0.38002500  0.33458699  0.76125997  1
  O  O18  1  0.80485701  0.25687099  0.85514097  1
  O  O19  1  0.41767601  0.13798800  0.97046298  1
