# generated using pymatgen
data_AlFeNi2B2CN
_symmetry_space_group_name_H-M   'P 1'
_cell_length_a   2.97574210
_cell_length_b   2.97574282
_cell_length_c   10.07950974
_cell_angle_alpha   90.00000000
_cell_angle_beta   90.00000000
_cell_angle_gamma   119.99999237
_symmetry_Int_Tables_number   1
_chemical_formula_structural   AlFeNi2B2CN
_chemical_formula_sum   'Al1 Fe1 Ni2 B2 C1 N1'
_cell_volume   77.29666513
_cell_formula_units_Z   1
loop_
 _symmetry_equiv_pos_site_id
 _symmetry_equiv_pos_as_xyz
  1  'x, y, z'
loop_
 _atom_site_type_symbol
 _atom_site_label
 _atom_site_symmetry_multiplicity
 _atom_site_fract_x
 _atom_site_fract_y
 _atom_site_fract_z
 _atom_site_occupancy
  Al  Al0  1  0.66666665  0.33333332  0.76004702  1
  Fe  Fe1  1  0.33333333  0.66666665  0.26004701  1
  Ni  Ni2  1  0.66666665  0.33333332  0.50019001  1
  B  B3  1  0.33333333  0.66666665  0.00019000  1
  Ni  Ni4  1  0.66666665  0.33333332  0.11250700  1
  N  N5  1  0.00000000  0.00000000  0.88614002  1
  B  B6  1  0.00000000  0.00000000  0.38614001  1
  C  C7  1  0.33333333  0.66666665  0.61250702  1
