# generated using pymatgen
data_La2YErIn4Sn3GeAu4
_symmetry_space_group_name_H-M   'P 1'
_cell_length_a   7.56343603
_cell_length_b   8.62471867
_cell_length_c   7.56343603
_cell_angle_alpha   116.00657654
_cell_angle_beta   90.00000000
_cell_angle_gamma   116.00657654
_symmetry_Int_Tables_number   1
_chemical_formula_structural   La2YErIn4Sn3GeAu4
_chemical_formula_sum   'La2 Y1 Er1 In4 Sn3 Ge1 Au4'
_cell_volume   387.07077665
_cell_formula_units_Z   1
loop_
 _symmetry_equiv_pos_site_id
 _symmetry_equiv_pos_as_xyz
  1  'x, y, z'
loop_
 _atom_site_type_symbol
 _atom_site_label
 _atom_site_symmetry_multiplicity
 _atom_site_fract_x
 _atom_site_fract_y
 _atom_site_fract_z
 _atom_site_occupancy
  Y  Y0  1  0.48752897  0.28656198  0.98752897  1
  La  La1  1  0.98752897  0.28656198  0.79903297  1
  La  La2  1  0.29903297  0.28656198  0.48752897  1
  Er  Er3  1  0.01247094  0.71343796  0.20096694  1
  In  In4  1  0.79903297  0.28656198  0.29903297  1
  In  In5  1  0.51247094  0.71343796  0.01247094  1
  In  In6  1  0.20096694  0.71343796  0.70096694  1
  In  In7  1  0.70096694  0.71343796  0.51247094  1
  Sn  Sn8  1  0.00000000  0.00000000  0.00000000  1
  Sn  Sn9  1  0.50000000  0.00000000  0.50000000  1
  Au  Au10  1  0.24999996  0.49999997  0.24999996  1
  Au  Au11  1  0.74999995  0.49999997  0.74999995  1
  Au  Au12  1  0.63823700  0.00000000  0.86176300  1
  Sn  Sn13  1  0.13823700  0.00000000  0.63823700  1
  Au  Au14  1  0.36176300  0.00000000  0.13823700  1
  Ge  Ge15  1  0.86176300  0.00000000  0.36176300  1
