# generated using pymatgen
data_CsNa4YCuBrO12
_symmetry_space_group_name_H-M   'P 1'
_cell_length_a   6.63535976
_cell_length_b   6.63535976
_cell_length_c   8.60434914
_cell_angle_alpha   90.00000000
_cell_angle_beta   90.00000000
_cell_angle_gamma   116.76337433
_symmetry_Int_Tables_number   1
_chemical_formula_structural   CsNa4YCuBrO12
_chemical_formula_sum   'Cs1 Na4 Y1 Cu1 Br1 O12'
_cell_volume   338.24943522
_cell_formula_units_Z   1
loop_
 _symmetry_equiv_pos_site_id
 _symmetry_equiv_pos_as_xyz
  1  'x, y, z'
loop_
 _atom_site_type_symbol
 _atom_site_label
 _atom_site_symmetry_multiplicity
 _atom_site_fract_x
 _atom_site_fract_y
 _atom_site_fract_z
 _atom_site_occupancy
  Y  Y0  1  0.69051498  0.30948499  0.25000000  1
  Cs  Cs1  1  0.30948497  0.69051498  0.74999999  1
  Na  Na2  1  0.30694297  0.69305698  0.25000000  1
  Na  Na3  1  0.69305698  0.30694299  0.74999999  1
  Na  Na4  1  0.00000000  0.00000000  0.00000000  1
  Na  Na5  1  0.00000000  0.00000000  0.49999999  1
  O  O6  1  0.06626099  0.35113299  0.25000000  1
  Cu  Cu7  1  0.93373896  0.64886698  0.74999999  1
  O  O8  1  0.64886696  0.93373897  0.25000000  1
  O  O9  1  0.35113299  0.06626100  0.74999999  1
  O  O10  1  0.48764897  0.51235098  0.25000000  1
  O  O11  1  0.51235097  0.48764898  0.74999999  1
  O  O12  1  0.29720197  0.70279798  0.01585300  1
  O  O13  1  0.70279798  0.29720199  0.98414698  1
  O  O14  1  0.70279798  0.29720199  0.51585299  1
  Br  Br15  1  0.29720197  0.70279798  0.48414699  1
  O  O16  1  0.97948696  0.67117498  0.25000000  1
  O  O17  1  0.02051299  0.32882499  0.74999999  1
  O  O18  1  0.32882499  0.02051300  0.25000000  1
  O  O19  1  0.67117496  0.97948697  0.74999999  1
