# generated using pymatgen
data_YErMg2In4Sn2Ge7PdAu
_symmetry_space_group_name_H-M   'P 1'
_cell_length_a   4.41413212
_cell_length_b   7.74622202
_cell_length_c   13.04595375
_cell_angle_alpha   107.27043152
_cell_angle_beta   99.73992920
_cell_angle_gamma   90.00000000
_symmetry_Int_Tables_number   1
_chemical_formula_structural   YErMg2In4Sn2Ge7PdAu
_chemical_formula_sum   'Y1 Er1 Mg2 In4 Sn2 Ge7 Pd1 Au1'
_cell_volume   419.22827449
_cell_formula_units_Z   1
loop_
 _symmetry_equiv_pos_site_id
 _symmetry_equiv_pos_as_xyz
  1  'x, y, z'
loop_
 _atom_site_type_symbol
 _atom_site_label
 _atom_site_symmetry_multiplicity
 _atom_site_fract_x
 _atom_site_fract_y
 _atom_site_fract_z
 _atom_site_occupancy
  Er  Er0  1  0.57247797  0.57247799  0.14495598  1
  Y  Y1  1  0.57531298  0.07531300  0.15062600  1
  Mg  Mg2  1  0.29974699  0.29974699  0.59949401  1
  Mg  Mg3  1  0.30260597  0.80260599  0.60521199  1
  In  In4  1  0.70535597  0.45386699  0.41071199  1
  In  In5  1  0.70535596  0.95684498  0.41071198  1
  In  In6  1  0.43132998  0.18140600  0.86266002  1
  In  In7  1  0.43132997  0.68125399  0.86266000  1
  Ge  Ge8  1  0.89460996  0.89460998  0.78921999  1
  Sn  Sn9  1  0.11562398  0.86244598  0.23124798  1
  Ge  Ge10  1  0.83219796  0.58542599  0.66439700  1
  Ge  Ge11  1  0.83219897  0.07897100  0.66439801  1
  Ge  Ge12  1  0.17209999  0.17210000  0.34420000  1
  Au  Au13  1  0.11562399  0.36880199  0.23124799  1
  Ge  Ge14  1  0.88765997  0.38765999  0.77532001  1
  Sn  Sn15  1  0.01979399  0.23626800  0.03958899  1
  Pd  Pd16  1  0.98393296  0.48393299  0.96786601  1
  Ge  Ge17  1  0.01979498  0.80332099  0.03958998  1
  Ge  Ge18  1  0.17462098  0.67462099  0.34924199  1
