# generated using pymatgen
data_YEr(AlSi3)2
_symmetry_space_group_name_H-M   'P 1'
_cell_length_a   3.94042802
_cell_length_b   3.95879698
_cell_length_c   10.70575142
_cell_angle_alpha   90.00000000
_cell_angle_beta   100.60477448
_cell_angle_gamma   90.00000000
_symmetry_Int_Tables_number   1
_chemical_formula_structural   YEr(AlSi3)2
_chemical_formula_sum   'Y1 Er1 Al2 Si6'
_cell_volume   164.15040673
_cell_formula_units_Z   1
loop_
 _symmetry_equiv_pos_site_id
 _symmetry_equiv_pos_as_xyz
  1  'x, y, z'
loop_
 _atom_site_type_symbol
 _atom_site_label
 _atom_site_symmetry_multiplicity
 _atom_site_fract_x
 _atom_site_fract_y
 _atom_site_fract_z
 _atom_site_occupancy
  Y  Y0  1  0.33104600  0.50000000  0.66209198  1
  Er  Er1  1  0.66895400  0.50000000  0.33790799  1
  Al  Al2  1  0.44401000  0.00000000  0.88801997  1
  Al  Al3  1  0.55599000  0.00000000  0.11198000  1
  Si  Si4  1  0.21780400  1.00000001  0.43560798  1
  Si  Si5  1  0.78219600  0.00000000  0.56439198  1
  Si  Si6  1  0.94402700  0.50000000  0.88805397  1
  Si  Si7  1  0.05597300  0.50000000  0.11194600  1
  Si  Si8  1  0.11000400  0.00000000  0.22000799  1
  Si  Si9  1  0.88999600  0.00000000  0.77999198  1
