# generated using pymatgen
data_LaIn2GaGePd10Au
_symmetry_space_group_name_H-M   'P 1'
_cell_length_a   5.50889111
_cell_length_b   6.98463488
_cell_length_c   7.28515720
_cell_angle_alpha   90.00000000
_cell_angle_beta   90.00000000
_cell_angle_gamma   90.00000000
_symmetry_Int_Tables_number   1
_chemical_formula_structural   LaIn2GaGePd10Au
_chemical_formula_sum   'La1 In2 Ga1 Ge1 Pd10 Au1'
_cell_volume   280.31531343
_cell_formula_units_Z   1
loop_
 _symmetry_equiv_pos_site_id
 _symmetry_equiv_pos_as_xyz
  1  'x, y, z'
loop_
 _atom_site_type_symbol
 _atom_site_label
 _atom_site_symmetry_multiplicity
 _atom_site_fract_x
 _atom_site_fract_y
 _atom_site_fract_z
 _atom_site_occupancy
  La  La0  1  0.35667799  0.75000001  0.02790600  1
  In  In1  1  0.14332200  0.75000001  0.52790599  1
  In  In2  1  0.64332199  0.25000000  0.97209397  1
  Ga  Ga3  1  0.85667798  0.25000000  0.47209399  1
  Pd  Pd4  1  0.64298799  0.75000001  0.37804699  1
  Pd  Pd5  1  0.85701198  0.75000001  0.87804698  1
  Ge  Ge6  1  0.35701199  0.25000000  0.62195298  1
  Pd  Pd7  1  0.14298800  0.25000000  0.12195300  1
  Pd  Pd8  1  0.90601898  0.55033101  0.17864200  1
  Pd  Pd9  1  0.59398099  0.94966902  0.67864198  1
  Au  Au10  1  0.09398100  0.05033100  0.82135798  1
  Pd  Pd11  1  0.40601899  0.44966901  0.32135799  1
  Pd  Pd12  1  0.09398100  0.44966901  0.82135798  1
  Pd  Pd13  1  0.40601899  0.05033100  0.32135799  1
  Pd  Pd14  1  0.90601898  0.94966902  0.17864200  1
  Pd  Pd15  1  0.59398099  0.55033101  0.67864198  1
