# generated using pymatgen
data_YTiAl3Ni4
_symmetry_space_group_name_H-M   'P 1'
_cell_length_a   5.82629013
_cell_length_b   5.82629013
_cell_length_c   5.82629013
_cell_angle_alpha   90.00000000
_cell_angle_beta   90.00000000
_cell_angle_gamma   90.00000000
_symmetry_Int_Tables_number   1
_chemical_formula_structural   YTiAl3Ni4
_chemical_formula_sum   'Y1 Ti1 Al3 Ni4'
_cell_volume   197.77724453
_cell_formula_units_Z   1
loop_
 _symmetry_equiv_pos_site_id
 _symmetry_equiv_pos_as_xyz
  1  'x, y, z'
loop_
 _atom_site_type_symbol
 _atom_site_label
 _atom_site_symmetry_multiplicity
 _atom_site_fract_x
 _atom_site_fract_y
 _atom_site_fract_z
 _atom_site_occupancy
  Y  Y0  1  0.49999999  0.49999999  0.49999999  1
  Ti  Ti1  1  0.00000000  0.00000000  0.00000000  1
  Al  Al2  1  0.00000000  0.49999999  0.00000000  1
  Al  Al3  1  0.00000000  0.00000000  0.49999999  1
  Al  Al4  1  0.49999999  0.00000000  0.00000000  1
  Ni  Ni5  1  0.23067299  0.23067299  0.23067299  1
  Ni  Ni6  1  0.76932698  0.76932698  0.23067299  1
  Ni  Ni7  1  0.23067299  0.76932698  0.76932698  1
  Ni  Ni8  1  0.76932698  0.23067299  0.76932698  1
