# generated using pymatgen
data_La3In3(Sn2Au3)2
_symmetry_space_group_name_H-M   'P 1'
_cell_length_a   6.53872585
_cell_length_b   6.53872633
_cell_length_c   10.36562729
_cell_angle_alpha   90.00000000
_cell_angle_beta   90.00000000
_cell_angle_gamma   120.00000000
_symmetry_Int_Tables_number   1
_chemical_formula_structural   La3In3(Sn2Au3)2
_chemical_formula_sum   'La3 In3 Sn4 Au6'
_cell_volume   383.80666384
_cell_formula_units_Z   1
loop_
 _symmetry_equiv_pos_site_id
 _symmetry_equiv_pos_as_xyz
  1  'x, y, z'
loop_
 _atom_site_type_symbol
 _atom_site_label
 _atom_site_symmetry_multiplicity
 _atom_site_fract_x
 _atom_site_fract_y
 _atom_site_fract_z
 _atom_site_occupancy
  In  In0  1  0.33333335  0.66666665  0.99999997  1
  La  La1  1  0.33333335  0.66666665  0.49999999  1
  La  La2  1  0.83031002  0.16969000  0.99999997  1
  La  La3  1  0.83360602  0.16639400  0.49999999  1
  In  In4  1  0.83031003  0.66061999  -0.00000000  1
  In  In5  1  0.83360603  0.66721199  0.49999999  1
  Sn  Sn6  1  0.33938001  0.16969000  0.99999997  1
  Sn  Sn7  1  0.33278801  0.16639400  0.49999999  1
  Au  Au8  1  0.99674103  0.49836999  0.74491898  1
  Au  Au9  1  0.99674103  0.49836999  0.25508099  1
  Au  Au10  1  0.50162901  0.00325800  0.74491898  1
  Au  Au11  1  0.50162901  0.00325800  0.25508099  1
  Au  Au12  1  0.50162902  0.49836999  0.74491898  1
  Au  Au13  1  0.50162902  0.49836999  0.25508099  1
  Sn  Sn14  1  0.00000000  0.00000000  0.75215898  1
  Sn  Sn15  1  0.00000000  0.00000000  0.24784099  1
