# generated using pymatgen
data_DyYErAlInGaSn3GePd6
_symmetry_space_group_name_H-M   'P 1'
_cell_length_a   5.76664495
_cell_length_b   6.79824114
_cell_length_c   8.40918446
_cell_angle_alpha   90.00000000
_cell_angle_beta   90.00000000
_cell_angle_gamma   90.00000000
_symmetry_Int_Tables_number   1
_chemical_formula_structural   DyYErAlInGaSn3GePd6
_chemical_formula_sum   'Dy1 Y1 Er1 Al1 In1 Ga1 Sn3 Ge1 Pd6'
_cell_volume   329.66561950
_cell_formula_units_Z   1
loop_
 _symmetry_equiv_pos_site_id
 _symmetry_equiv_pos_as_xyz
  1  'x, y, z'
loop_
 _atom_site_type_symbol
 _atom_site_label
 _atom_site_symmetry_multiplicity
 _atom_site_fract_x
 _atom_site_fract_y
 _atom_site_fract_z
 _atom_site_occupancy
  Er  Er0  1  0.35504600  0.67909899  0.05057100  1
  Dy  Dy1  1  0.14495400  0.17909900  0.44942898  1
  Y  Y2  1  0.64495401  0.32090099  0.55057097  1
  Ga  Ga3  1  0.85504601  0.82090098  0.94942895  1
  In  In4  1  0.64495401  0.32090099  0.94942895  1
  Al  Al5  1  0.85504601  0.82090098  0.55057097  1
  Sn  Sn6  1  0.35504600  0.67909899  0.44942898  1
  Sn  Sn7  1  0.14495400  0.17909900  0.05057100  1
  Sn  Sn8  1  0.85997301  0.52693899  0.24999999  1
  Pd  Pd9  1  0.64002701  0.02693900  0.24999999  1
  Pd  Pd10  1  0.14002700  0.47306099  0.74999996  1
  Pd  Pd11  1  0.35997300  0.97306098  0.74999996  1
  Pd  Pd12  1  0.07263700  0.87564998  0.24999999  1
  Pd  Pd13  1  0.42736300  0.37564999  0.24999999  1
  Ge  Ge14  1  0.92736301  0.12435000  0.74999996  1
  Pd  Pd15  1  0.57263700  0.62434999  0.74999996  1
