# generated using pymatgen
data_Hf3(Al3Si2)2
_symmetry_space_group_name_H-M   'P 1'
_cell_length_a   5.29554415
_cell_length_b   5.29554510
_cell_length_c   8.72265911
_cell_angle_alpha   90.00000000
_cell_angle_beta   90.00000000
_cell_angle_gamma   119.99999237
_symmetry_Int_Tables_number   1
_chemical_formula_structural   Hf3(Al3Si2)2
_chemical_formula_sum   'Hf3 Al6 Si4'
_cell_volume   211.83651812
_cell_formula_units_Z   1
loop_
 _symmetry_equiv_pos_site_id
 _symmetry_equiv_pos_as_xyz
  1  'x, y, z'
loop_
 _atom_site_type_symbol
 _atom_site_label
 _atom_site_symmetry_multiplicity
 _atom_site_fract_x
 _atom_site_fract_y
 _atom_site_fract_z
 _atom_site_occupancy
  Hf  Hf0  1  0.00000000  0.00000000  0.00000000  1
  Hf  Hf1  1  0.49999998  1.00000001  0.23166500  1
  Hf  Hf2  1  0.49999998  1.00000001  0.76833499  1
  Al  Al3  1  -0.00000000  0.50000001  0.23166500  1
  Al  Al4  1  -0.00000000  0.50000001  0.76833499  1
  Al  Al5  1  0.49999998  0.50000001  0.23166500  1
  Al  Al6  1  0.49999998  0.50000001  0.76833499  1
  Al  Al7  1  0.33333332  0.66666668  0.49999999  1
  Al  Al8  1  0.66666665  0.33333334  0.49999999  1
  Si  Si9  1  0.00000000  0.00000000  0.33655700  1
  Si  Si10  1  0.00000000  0.00000000  0.66344299  1
  Si  Si11  1  0.33333332  0.66666668  -0.00000000  1
  Si  Si12  1  0.66666665  0.33333334  -0.00000000  1
