# generated using pymatgen
data_YErIn5Ge(PdAu2)2
_symmetry_space_group_name_H-M   'P 1'
_cell_length_a   4.23954010
_cell_length_b   8.23305511
_cell_length_c   8.23305511
_cell_angle_alpha   72.36203766
_cell_angle_beta   75.07997131
_cell_angle_gamma   75.07997131
_symmetry_Int_Tables_number   1
_chemical_formula_structural   YErIn5Ge(PdAu2)2
_chemical_formula_sum   'Y1 Er1 In5 Ge1 Pd2 Au4'
_cell_volume   259.55384422
_cell_formula_units_Z   1
loop_
 _symmetry_equiv_pos_site_id
 _symmetry_equiv_pos_as_xyz
  1  'x, y, z'
loop_
 _atom_site_type_symbol
 _atom_site_label
 _atom_site_symmetry_multiplicity
 _atom_site_fract_x
 _atom_site_fract_y
 _atom_site_fract_z
 _atom_site_occupancy
  Er  Er0  1  0.50000003  0.50000001  0.49999999  1
  Y  Y1  1  0.17376608  0.82623401  0.82623396  1
  In  In2  1  0.82623399  0.17376600  0.17376601  1
  In  In3  1  0.37801602  0.33295801  0.91100900  1
  In  In4  1  0.62198405  0.66704201  0.08899098  1
  In  In5  1  0.37801708  0.91100801  0.33295796  1
  In  In6  1  0.62198299  0.08899200  0.66704202  1
  Ge  Ge7  1  0.16885104  0.46649101  0.19580798  1
  Au  Au8  1  0.83114902  0.53350901  0.80419200  1
  Au  Au9  1  0.16885001  0.19580900  0.46649100  1
  Au  Au10  1  0.83115005  0.80419101  0.53350898  1
  Pd  Pd11  1  0.49999998  0.00000000  0.00000001  1
  Pd  Pd12  1  1.00000004  0.77826101  0.22173898  1
  Au  Au13  1  0.99999999  0.22173900  0.77826102  1
