# generated using pymatgen
data_MnFe2Si3
_symmetry_space_group_name_H-M   'P 1'
_cell_length_a   5.67499018
_cell_length_b   6.15815496
_cell_length_c   5.67677784
_cell_angle_alpha   90.00000000
_cell_angle_beta   90.00000000
_cell_angle_gamma   117.43682861
_symmetry_Int_Tables_number   1
_chemical_formula_structural   MnFe2Si3
_chemical_formula_sum   'Mn2 Fe4 Si6'
_cell_volume   176.07410037
_cell_formula_units_Z   2
loop_
 _symmetry_equiv_pos_site_id
 _symmetry_equiv_pos_as_xyz
  1  'x, y, z'
loop_
 _atom_site_type_symbol
 _atom_site_label
 _atom_site_symmetry_multiplicity
 _atom_site_fract_x
 _atom_site_fract_y
 _atom_site_fract_z
 _atom_site_occupancy
  Mn  Mn0  1  0.61680399  0.23360800  1.00000003  1
  Mn  Mn1  1  0.11680401  0.23360800  0.50000001  1
  Fe  Fe2  1  0.38319603  0.76639201  1.00000003  1
  Fe  Fe3  1  0.88319601  0.76639201  0.50000001  1
  Fe  Fe4  1  0.65886698  0.00000000  0.34116601  1
  Fe  Fe5  1  0.34113299  0.00000000  0.65883402  1
  Si  Si6  1  0.84113303  1.00000001  0.84116602  1
  Si  Si7  1  0.15886700  0.00000000  0.15883400  1
  Si  Si8  1  0.00102203  0.50000000  0.25000001  1
  Si  Si9  1  0.49897801  0.50000000  0.75000002  1
  Si  Si10  1  0.99897800  0.50000000  0.75000002  1
  Si  Si11  1  0.50102201  0.50000000  0.25000001  1
