# generated using pymatgen
data_Cs2KSbI5Br
_symmetry_space_group_name_H-M   'P 1'
_cell_length_a   8.87944698
_cell_length_b   8.87944698
_cell_length_c   8.87944698
_cell_angle_alpha   60.00000000
_cell_angle_beta   60.00000000
_cell_angle_gamma   60.00000000
_symmetry_Int_Tables_number   1
_chemical_formula_structural   Cs2KSbI5Br
_chemical_formula_sum   'Cs2 K1 Sb1 I5 Br1'
_cell_volume   495.04281064
_cell_formula_units_Z   1
loop_
 _symmetry_equiv_pos_site_id
 _symmetry_equiv_pos_as_xyz
  1  'x, y, z'
loop_
 _atom_site_type_symbol
 _atom_site_label
 _atom_site_symmetry_multiplicity
 _atom_site_fract_x
 _atom_site_fract_y
 _atom_site_fract_z
 _atom_site_occupancy
  Cs  Cs0  1  0.24999999  0.24999999  0.24999999  1
  Cs  Cs1  1  0.74999998  0.74999998  0.74999998  1
  K  K2  1  0.49999999  0.49999999  0.49999999  1
  Sb  Sb3  1  0.00000000  0.00000000  0.00000000  1
  I  I4  1  0.22157499  0.77842498  0.22157499  1
  I  I5  1  0.22157499  0.22157499  0.77842498  1
  I  I6  1  0.77842498  0.22157499  0.77842498  1
  I  I7  1  0.22157499  0.77842498  0.77842498  1
  Br  Br8  1  0.77842498  0.22157499  0.22157499  1
  I  I9  1  0.77842498  0.77842498  0.22157499  1
