# generated using pymatgen
data_Nb3Tl3VCu2S7
_symmetry_space_group_name_H-M   'P 1'
_cell_length_a   4.80486298
_cell_length_b   10.21266174
_cell_length_c   11.06423664
_cell_angle_alpha   90.00000000
_cell_angle_beta   90.00000000
_cell_angle_gamma   90.00000000
_symmetry_Int_Tables_number   1
_chemical_formula_structural   Nb3Tl3VCu2S7
_chemical_formula_sum   'Nb3 Tl3 V1 Cu2 S7'
_cell_volume   542.92696352
_cell_formula_units_Z   1
loop_
 _symmetry_equiv_pos_site_id
 _symmetry_equiv_pos_as_xyz
  1  'x, y, z'
loop_
 _atom_site_type_symbol
 _atom_site_label
 _atom_site_symmetry_multiplicity
 _atom_site_fract_x
 _atom_site_fract_y
 _atom_site_fract_z
 _atom_site_occupancy
  V  V0  1  0.00000000  0.28055901  0.07732900  1
  Tl  Tl1  1  0.00000000  0.28055901  0.42267101  1
  Nb  Nb2  1  0.00000000  0.71944102  0.92267103  1
  Nb  Nb3  1  0.00000000  0.71944102  0.57732902  1
  Tl  Tl4  1  0.50000000  0.25961101  0.75000002  1
  Cu  Cu5  1  0.50000000  0.74038902  0.25000001  1
  Nb  Nb6  1  0.50000000  0.00000000  0.50000002  1
  Tl  Tl7  1  0.50000000  0.00000000  0.00000000  1
  Cu  Cu8  1  0.50000000  0.24973301  0.98003803  1
  S  S9  1  0.50000000  0.75026702  0.01996200  1
  S  S10  1  0.50000000  0.24973301  0.51996202  1
  S  S11  1  0.50000000  0.75026702  0.48003802  1
  S  S12  1  0.00000000  0.52517201  0.75000002  1
  S  S13  1  0.00000000  0.47482801  0.25000001  1
  S  S14  1  0.00000000  0.07516300  0.25000001  1
  S  S15  1  0.00000000  0.92483702  0.75000002  1
