# generated using pymatgen
data_Ta2NbNiPd4
_symmetry_space_group_name_H-M   'P 1'
_cell_length_a   4.39337111
_cell_length_b   5.54806185
_cell_length_c   5.54806232
_cell_angle_alpha   60.00000000
_cell_angle_beta   90.00000000
_cell_angle_gamma   90.00000000
_symmetry_Int_Tables_number   1
_chemical_formula_structural   Ta2NbNiPd4
_chemical_formula_sum   'Ta2 Nb1 Ni1 Pd4'
_cell_volume   117.11462873
_cell_formula_units_Z   1
loop_
 _symmetry_equiv_pos_site_id
 _symmetry_equiv_pos_as_xyz
  1  'x, y, z'
loop_
 _atom_site_type_symbol
 _atom_site_label
 _atom_site_symmetry_multiplicity
 _atom_site_fract_x
 _atom_site_fract_y
 _atom_site_fract_z
 _atom_site_occupancy
  Ta  Ta0  1  0.24999999  0.84144604  0.31710797  1
  Ta  Ta1  1  0.24999999  0.84144604  0.84144597  1
  Nb  Nb2  1  0.24999999  0.31710801  0.84144599  1
  Ni  Ni3  1  0.74999998  0.15855401  0.68289199  1
  Pd  Pd4  1  0.74999998  0.15855401  0.15855399  1
  Pd  Pd5  1  0.74999998  0.68289203  0.15855397  1
  Pd  Pd6  1  0.74999998  0.66666670  0.66666664  1
  Pd  Pd7  1  0.24999999  0.33333335  0.33333332  1
