# generated using pymatgen
data_ErHf2ZrTiAlGaSi3Ge8
_symmetry_space_group_name_H-M   'P 1'
_cell_length_a   6.61631393
_cell_length_b   7.54183197
_cell_length_c   7.24283218
_cell_angle_alpha   118.69697571
_cell_angle_beta   90.00000000
_cell_angle_gamma   116.01720428
_symmetry_Int_Tables_number   1
_chemical_formula_structural   ErHf2ZrTiAlGaSi3Ge8
_chemical_formula_sum   'Er1 Hf2 Zr1 Ti1 Al1 Ga1 Si3 Ge8'
_cell_volume   274.53535952
_cell_formula_units_Z   1
loop_
 _symmetry_equiv_pos_site_id
 _symmetry_equiv_pos_as_xyz
  1  'x, y, z'
loop_
 _atom_site_type_symbol
 _atom_site_label
 _atom_site_symmetry_multiplicity
 _atom_site_fract_x
 _atom_site_fract_y
 _atom_site_fract_z
 _atom_site_occupancy
  Er  Er0  1  0.49415898  0.39034498  0.94517195  1
  Hf  Hf1  1  0.10381297  0.60965397  0.05482696  1
  Hf  Hf2  1  0.04817097  0.55461298  0.52730695  1
  Zr  Zr3  1  0.49355898  0.44538798  0.47269396  1
  Al  Al4  1  0.91434896  0.99687896  0.74843992  1
  Ti  Ti5  1  0.91747101  0.00312200  0.25156099  1
  Ga  Ga6  1  0.47376395  0.93636696  0.71818393  1
  Si  Si7  1  0.53739800  0.06363400  0.28181699  1
  Si  Si8  1  0.16265798  0.33513099  0.67144796  1
  Ge  Ge9  1  0.82752597  0.66486797  0.32855095  1
  Si  Si10  1  0.16265798  0.33513099  0.16368198  1
  Ge  Ge11  1  0.82752597  0.66486797  0.83631694  1
  Ge  Ge12  1  0.24387695  0.99999996  0.49999993  1
  Ge  Ge13  1  0.24387695  0.99999996  0.99999992  1
  Ge  Ge14  1  0.49594096  0.74628497  0.91152393  1
  Ge  Ge15  1  0.74965699  0.25371599  0.08847698  1
  Ge  Ge16  1  0.49594196  0.74628597  0.33476195  1
  Ge  Ge17  1  0.74965599  0.25371499  0.66523897  1
