# generated using pymatgen
data_Y2Al11(SiGe2)2
_symmetry_space_group_name_H-M   'P 1'
_cell_length_a   6.80270720
_cell_length_b   6.80270720
_cell_length_c   6.80270815
_cell_angle_alpha   82.55451202
_cell_angle_beta   82.55451202
_cell_angle_gamma   82.55451202
_symmetry_Int_Tables_number   1
_chemical_formula_structural   Y2Al11(SiGe2)2
_chemical_formula_sum   'Y2 Al11 Si2 Ge4'
_cell_volume   307.47816199
_cell_formula_units_Z   1
loop_
 _symmetry_equiv_pos_site_id
 _symmetry_equiv_pos_as_xyz
  1  'x, y, z'
loop_
 _atom_site_type_symbol
 _atom_site_label
 _atom_site_symmetry_multiplicity
 _atom_site_fract_x
 _atom_site_fract_y
 _atom_site_fract_z
 _atom_site_occupancy
  Y  Y0  1  0.66514304  0.66514301  0.66514303  1
  Y  Y1  1  0.33485702  0.33485700  0.33485702  1
  Al  Al2  1  0.64831802  0.16159500  0.64831802  1
  Al  Al3  1  0.70316601  0.00000000  0.29683402  1
  Al  Al4  1  0.29683404  0.70316601  0.00000002  1
  Al  Al5  1  0.00000003  0.70316601  0.29683401  1
  Al  Al6  1  0.29683405  1.00000001  0.70316603  1
  Ge  Ge7  1  0.35168202  0.35168200  0.83840501  1
  Al  Al8  1  0.10009601  0.10009600  0.10009600  1
  Si  Si9  1  0.00000001  0.29683400  0.70316600  1
  Al  Al10  1  0.00000000  0.00000000  0.50000000  1
  Ge  Ge11  1  0.83840503  0.35168200  0.35168203  1
  Ge  Ge12  1  0.35168204  0.83840501  0.35168203  1
  Ge  Ge13  1  0.89990406  0.89990401  0.89990404  1
  Al  Al14  1  0.16159503  0.64831801  0.64831802  1
  Al  Al15  1  0.64831804  0.64831801  0.16159503  1
  Si  Si16  1  0.70316603  0.29683400  0.00000003  1
  Al  Al17  1  0.00000002  0.50000001  0.00000001  1
  Al  Al18  1  0.50000001  0.00000000  0.00000001  1
