# generated using pymatgen
data_LiMgCdIn
_symmetry_space_group_name_H-M   'P 1'
_cell_length_a   4.34071398
_cell_length_b   4.34071398
_cell_length_c   5.63599873
_cell_angle_alpha   112.64922333
_cell_angle_beta   112.64922333
_cell_angle_gamma   90.00000000
_symmetry_Int_Tables_number   1
_chemical_formula_structural   LiMgCdIn
_chemical_formula_sum   'Li1 Mg1 Cd1 In1'
_cell_volume   89.06328746
_cell_formula_units_Z   1
loop_
 _symmetry_equiv_pos_site_id
 _symmetry_equiv_pos_as_xyz
  1  'x, y, z'
loop_
 _atom_site_type_symbol
 _atom_site_label
 _atom_site_symmetry_multiplicity
 _atom_site_fract_x
 _atom_site_fract_y
 _atom_site_fract_z
 _atom_site_occupancy
  Li  Li0  1  0.75000004  0.25000001  0.50000006  1
  Mg  Mg1  1  0.25000005  0.75000003  0.50000007  1
  In  In2  1  0.50000004  0.50000002  0.00000006  1
  Cd  Cd3  1  0.00000000  0.00000000  0.00000000  1
