# generated using pymatgen
data_SrLi3FeCuP5
_symmetry_space_group_name_H-M   'P 1'
_cell_length_a   4.19125795
_cell_length_b   4.19125795
_cell_length_c   10.91872597
_cell_angle_alpha   101.06542969
_cell_angle_beta   101.06542969
_cell_angle_gamma   90.00000000
_symmetry_Int_Tables_number   1
_chemical_formula_structural   SrLi3FeCuP5
_chemical_formula_sum   'Sr1 Li3 Fe1 Cu1 P5'
_cell_volume   184.60465263
_cell_formula_units_Z   1
loop_
 _symmetry_equiv_pos_site_id
 _symmetry_equiv_pos_as_xyz
  1  'x, y, z'
loop_
 _atom_site_type_symbol
 _atom_site_label
 _atom_site_symmetry_multiplicity
 _atom_site_fract_x
 _atom_site_fract_y
 _atom_site_fract_z
 _atom_site_occupancy
  Li  Li0  1  0.31722401  0.31722401  0.63444801  1
  Sr  Sr1  1  0.50086602  0.50086601  0.00173202  1
  Li  Li2  1  0.68191803  0.68191801  0.36383603  1
  Li  Li3  1  0.90112703  0.90112702  0.80225404  1
  Fe  Fe4  1  0.09807800  0.09807800  0.19615600  1
  Cu  Cu5  1  0.92267403  0.42267401  0.84534803  1
  P  P6  1  0.42267403  0.92267402  0.84534803  1
  P  P7  1  0.07931401  0.57931401  0.15862801  1
  P  P8  1  0.57931401  0.07931400  0.15862801  1
  P  P9  1  0.79935803  0.79935802  0.59871603  1
  P  P10  1  0.19745301  0.19745300  0.39490601  1
