# generated using pymatgen
data_RbBaCuTeSe3
_symmetry_space_group_name_H-M   'P 1'
_cell_length_a   4.37687492
_cell_length_b   7.45265245
_cell_length_c   7.45265245
_cell_angle_alpha   89.73655701
_cell_angle_beta   90.00000000
_cell_angle_gamma   90.00000000
_symmetry_Int_Tables_number   1
_chemical_formula_structural   RbBaCuTeSe3
_chemical_formula_sum   'Rb1 Ba1 Cu1 Te1 Se3'
_cell_volume   243.09794251
_cell_formula_units_Z   1
loop_
 _symmetry_equiv_pos_site_id
 _symmetry_equiv_pos_as_xyz
  1  'x, y, z'
loop_
 _atom_site_type_symbol
 _atom_site_label
 _atom_site_symmetry_multiplicity
 _atom_site_fract_x
 _atom_site_fract_y
 _atom_site_fract_z
 _atom_site_occupancy
  Ba  Ba0  1  0.50000001  0.99450197  0.50530492  1
  Rb  Rb1  1  0.50000001  0.50530498  0.99450194  1
  Cu  Cu2  1  -0.00000000  0.99762697  0.99762690  1
  Te  Te3  1  -0.00000000  0.23033399  0.23033398  1
  Se  Se4  1  -0.00000000  0.76387698  0.23286294  1
  Se  Se5  1  -0.00000000  0.23286299  0.76387696  1
  Se  Se6  1  -0.00000000  0.77549198  0.77549193  1
