# generated using pymatgen
data_BaLi2MnO6
_symmetry_space_group_name_H-M   'P 1'
_cell_length_a   5.61577415
_cell_length_b   5.63033819
_cell_length_c   5.61577415
_cell_angle_alpha   60.08552170
_cell_angle_beta   90.00000000
_cell_angle_gamma   119.91445923
_symmetry_Int_Tables_number   1
_chemical_formula_structural   BaLi2MnO6
_chemical_formula_sum   'Ba1 Li2 Mn1 O6'
_cell_volume   125.88031157
_cell_formula_units_Z   1
loop_
 _symmetry_equiv_pos_site_id
 _symmetry_equiv_pos_as_xyz
  1  'x, y, z'
loop_
 _atom_site_type_symbol
 _atom_site_label
 _atom_site_symmetry_multiplicity
 _atom_site_fract_x
 _atom_site_fract_y
 _atom_site_fract_z
 _atom_site_occupancy
  Li  Li0  1  0.74999997  0.49999998  0.74999997  1
  Ba  Ba1  1  0.24999998  0.49999998  0.24999999  1
  Li  Li2  1  0.49999999  0.00000000  0.49999999  1
  Mn  Mn3  1  0.00000000  0.00000000  0.00000000  1
  O  O4  1  0.77881595  0.99999997  0.73631597  1
  O  O5  1  0.22118399  0.00000000  0.26368399  1
  O  O6  1  0.73631598  0.00000100  0.22118299  1
  O  O7  1  0.26368396  0.99999897  0.77881697  1
  O  O8  1  0.24308198  0.48616398  0.75691797  1
  O  O9  1  0.75691796  0.51383598  0.24308199  1
