# generated using pymatgen
data_ErMnCu3P4
_symmetry_space_group_name_H-M   'P 1'
_cell_length_a   3.71075106
_cell_length_b   6.02539206
_cell_length_c   6.02539253
_cell_angle_alpha   120.00000000
_cell_angle_beta   90.00000000
_cell_angle_gamma   90.00000000
_symmetry_Int_Tables_number   1
_chemical_formula_structural   ErMnCu3P4
_chemical_formula_sum   'Er1 Mn1 Cu3 P4'
_cell_volume   116.67105013
_cell_formula_units_Z   1
loop_
 _symmetry_equiv_pos_site_id
 _symmetry_equiv_pos_as_xyz
  1  'x, y, z'
loop_
 _atom_site_type_symbol
 _atom_site_label
 _atom_site_symmetry_multiplicity
 _atom_site_fract_x
 _atom_site_fract_y
 _atom_site_fract_z
 _atom_site_occupancy
  Er  Er0  1  0.49999999  0.43567101  1.00000000  1
  Mn  Mn1  1  0.49999999  0.56432901  0.56432901  1
  Cu  Cu2  1  0.49999999  0.00000000  0.43567099  1
  Cu  Cu3  1  0.99999998  0.24286700  0.24286701  1
  Cu  Cu4  1  0.00000000  0.00000000  0.75713298  1
  P  P5  1  0.99999998  0.75713301  1.00000001  1
  P  P6  1  0.49999999  0.00000000  -0.00000000  1
  P  P7  1  0.99999998  0.33333334  0.66666667  1
  P  P8  1  0.99999998  0.66666668  0.33333336  1
