# generated using pymatgen
data_LaEu(InAu)3
_symmetry_space_group_name_H-M   'P 1'
_cell_length_a   5.33711386
_cell_length_b   6.81495619
_cell_length_c   7.14218235
_cell_angle_alpha   61.50435257
_cell_angle_beta   90.00000000
_cell_angle_gamma   90.00000000
_symmetry_Int_Tables_number   1
_chemical_formula_structural   LaEu(InAu)3
_chemical_formula_sum   'La1 Eu1 In3 Au3'
_cell_volume   228.30576953
_cell_formula_units_Z   1
loop_
 _symmetry_equiv_pos_site_id
 _symmetry_equiv_pos_as_xyz
  1  'x, y, z'
loop_
 _atom_site_type_symbol
 _atom_site_label
 _atom_site_symmetry_multiplicity
 _atom_site_fract_x
 _atom_site_fract_y
 _atom_site_fract_z
 _atom_site_occupancy
  Eu  Eu0  1  0.75000002  0.66608599  0.66782800  1
  La  La1  1  0.25000001  0.33391399  0.33217200  1
  In  In2  1  0.75000002  0.15465900  0.15556200  1
  In  In3  1  0.75000002  0.15718700  0.68562600  1
  In  In4  1  0.75000002  0.68977898  0.15556199  1
  Au  Au5  1  0.25000001  0.84534098  0.84443799  1
  Au  Au6  1  0.25000001  0.84281298  0.31437399  1
  Au  Au7  1  0.25000001  0.31022099  0.84443800  1
