# generated using pymatgen
data_Na3Li2CuNiO11
_symmetry_space_group_name_H-M   'P 1'
_cell_length_a   3.89677310
_cell_length_b   7.45907688
_cell_length_c   8.06117153
_cell_angle_alpha   90.00000000
_cell_angle_beta   90.00000000
_cell_angle_gamma   90.00000000
_symmetry_Int_Tables_number   1
_chemical_formula_structural   Na3Li2CuNiO11
_chemical_formula_sum   'Na3 Li2 Cu1 Ni1 O11'
_cell_volume   234.30867307
_cell_formula_units_Z   1
loop_
 _symmetry_equiv_pos_site_id
 _symmetry_equiv_pos_as_xyz
  1  'x, y, z'
loop_
 _atom_site_type_symbol
 _atom_site_label
 _atom_site_symmetry_multiplicity
 _atom_site_fract_x
 _atom_site_fract_y
 _atom_site_fract_z
 _atom_site_occupancy
  Na  Na0  1  -0.00000000  0.50000001  0.50000003  1
  Cu  Cu1  1  0.00000000  0.00000000  0.00000000  1
  Na  Na2  1  0.12750600  0.08577600  0.68815604  1
  Na  Na3  1  0.12750600  0.41422401  0.81184405  1
  Li  Li4  1  0.87249398  0.91422401  0.31184402  1
  Li  Li5  1  0.87249398  0.58577601  0.18815601  1
  O  O6  1  0.12750600  0.41422401  0.18815601  1
  Ni  Ni7  1  0.87249398  0.91422401  0.68815604  1
  O  O8  1  0.87249398  0.58577601  0.81184405  1
  O  O9  1  0.12750600  0.08577600  0.31184402  1
  O  O10  1  0.64882298  0.74646001  0.50000003  1
  O  O11  1  0.35117699  0.24646000  0.00000000  1
  O  O12  1  0.35117699  0.25354000  0.50000003  1
  O  O13  1  0.64882298  0.75354001  0.00000000  1
  O  O14  1  0.00000000  0.00000000  0.75882904  1
  O  O15  1  -0.00000000  0.50000001  0.25882902  1
  O  O16  1  -0.00000000  0.50000001  0.74117104  1
  O  O17  1  0.00000000  0.00000000  0.24117101  1
