# generated using pymatgen
data_La2YIn5SnGeSbPtAu8
_symmetry_space_group_name_H-M   'P 1'
_cell_length_a   4.46979380
_cell_length_b   10.13981342
_cell_length_c   11.55934525
_cell_angle_alpha   90.00000000
_cell_angle_beta   90.00000000
_cell_angle_gamma   90.00000000
_symmetry_Int_Tables_number   1
_chemical_formula_structural   La2YIn5SnGeSbPtAu8
_chemical_formula_sum   'La2 Y1 In5 Sn1 Ge1 Sb1 Pt1 Au8'
_cell_volume   523.90276122
_cell_formula_units_Z   1
loop_
 _symmetry_equiv_pos_site_id
 _symmetry_equiv_pos_as_xyz
  1  'x, y, z'
loop_
 _atom_site_type_symbol
 _atom_site_label
 _atom_site_symmetry_multiplicity
 _atom_site_fract_x
 _atom_site_fract_y
 _atom_site_fract_z
 _atom_site_occupancy
  Y  Y0  1  0.75000003  0.25779999  0.67814799  1
  La  La1  1  0.25000001  0.74219997  0.32185199  1
  La  La2  1  0.75000003  0.75779997  0.82185198  1
  In  In3  1  0.25000001  0.24219999  0.17814800  1
  In  In4  1  0.25000001  0.57457498  0.04417200  1
  In  In5  1  0.75000003  0.42542498  0.95582798  1
  In  In6  1  0.75000003  0.92542496  0.54417199  1
  In  In7  1  0.25000001  0.07457500  0.45582799  1
  Sb  Sb8  1  0.75000003  0.44362298  0.38716999  1
  Au  Au9  1  0.25000001  0.55637698  0.61282999  1
  Au  Au10  1  0.75000003  0.94362296  0.11283000  1
  Au  Au11  1  0.25000001  0.05637700  0.88716998  1
  Sn  Sn12  1  0.25000001  0.33955999  0.46229099  1
  Au  Au13  1  0.75000003  0.66043997  0.53770899  1
  Au  Au14  1  0.75000003  0.16043999  0.96229098  1
  Ge  Ge15  1  0.25000001  0.83955996  0.03770900  1
  Au  Au16  1  0.75000003  0.02317400  0.33025399  1
  Au  Au17  1  0.25000001  0.97682596  0.66974599  1
  Pt  Pt18  1  0.75000003  0.52317398  0.16974600  1
  Au  Au19  1  0.25000001  0.47682598  0.83025398  1
