# generated using pymatgen
data_Y2AlSi2Ni3
_symmetry_space_group_name_H-M   'P 1'
_cell_length_a   4.19676590
_cell_length_b   4.21276379
_cell_length_c   8.61762714
_cell_angle_alpha   104.14797974
_cell_angle_beta   90.00000000
_cell_angle_gamma   90.00000000
_symmetry_Int_Tables_number   1
_chemical_formula_structural   Y2AlSi2Ni3
_chemical_formula_sum   'Y2 Al1 Si2 Ni3'
_cell_volume   147.73808623
_cell_formula_units_Z   1
loop_
 _symmetry_equiv_pos_site_id
 _symmetry_equiv_pos_as_xyz
  1  'x, y, z'
loop_
 _atom_site_type_symbol
 _atom_site_label
 _atom_site_symmetry_multiplicity
 _atom_site_fract_x
 _atom_site_fract_y
 _atom_site_fract_z
 _atom_site_occupancy
  Y  Y0  1  0.75000002  0.39565601  0.79131196  1
  Y  Y1  1  0.25000001  0.60434402  0.20868798  1
  Al  Al2  1  0.75000002  0.03837700  0.07675400  1
  Si  Si3  1  0.25000001  0.96162304  0.92324594  1
  Si  Si4  1  0.75000002  0.75047903  0.50095796  1
  Ni  Ni5  1  0.25000001  0.24952101  0.49904197  1
  Ni  Ni6  1  0.75000002  0.17915301  0.35830598  1
  Ni  Ni7  1  0.25000001  0.82084703  0.64169395  1
