# generated using pymatgen
data_KCl
_symmetry_space_group_name_H-M   'P 1'
_cell_length_a   5.38430405
_cell_length_b   7.25991201
_cell_length_c   10.00689697
_cell_angle_alpha   90.00000000
_cell_angle_beta   90.00000000
_cell_angle_gamma   90.00000000
_symmetry_Int_Tables_number   1
_chemical_formula_structural   KCl
_chemical_formula_sum   'K6 Cl6'
_cell_volume   391.16533607
_cell_formula_units_Z   6
loop_
 _symmetry_equiv_pos_site_id
 _symmetry_equiv_pos_as_xyz
  1  'x, y, z'
loop_
 _atom_site_type_symbol
 _atom_site_label
 _atom_site_symmetry_multiplicity
 _atom_site_fract_x
 _atom_site_fract_y
 _atom_site_fract_z
 _atom_site_occupancy
  K  K0  1  0.74999999  0.46557100  0.79816500  1
  K  K1  1  0.25000000  0.53442900  0.20183500  1
  K  K2  1  0.74999999  0.96557100  0.70183500  1
  K  K3  1  0.25000000  0.03442900  0.29816500  1
  K  K4  1  0.74999999  0.32640900  0.43513400  1
  K  K5  1  0.25000000  0.67359100  0.56486600  1
  Cl  Cl6  1  0.74999999  0.82640900  0.06486600  1
  Cl  Cl7  1  0.25000000  0.17359100  0.93513400  1
  Cl  Cl8  1  0.74999999  0.27584000  0.11290600  1
  Cl  Cl9  1  0.25000000  0.72416000  0.88709400  1
  Cl  Cl10  1  0.74999999  0.77584000  0.38709400  1
  Cl  Cl11  1  0.25000000  0.22416000  0.61290600  1
