# generated using pymatgen
data_Ba2Li6YSi3Ni2
_symmetry_space_group_name_H-M   'P 1'
_cell_length_a   4.21406984
_cell_length_b   6.15495968
_cell_length_c   13.08936596
_cell_angle_alpha   90.00000000
_cell_angle_beta   90.00000000
_cell_angle_gamma   110.01896667
_symmetry_Int_Tables_number   1
_chemical_formula_structural   Ba2Li6YSi3Ni2
_chemical_formula_sum   'Ba2 Li6 Y1 Si3 Ni2'
_cell_volume   318.99142957
_cell_formula_units_Z   1
loop_
 _symmetry_equiv_pos_site_id
 _symmetry_equiv_pos_as_xyz
  1  'x, y, z'
loop_
 _atom_site_type_symbol
 _atom_site_label
 _atom_site_symmetry_multiplicity
 _atom_site_fract_x
 _atom_site_fract_y
 _atom_site_fract_z
 _atom_site_occupancy
  Ba  Ba0  1  0.20312598  0.40625200  0.75000000  1
  Ba  Ba1  1  0.79687398  0.59374800  0.25000000  1
  Y  Y2  1  0.74446499  0.48893000  0.95125100  1
  Li  Li3  1  0.25553497  0.51107000  0.04874900  1
  Li  Li4  1  0.74446499  0.48893000  0.54874900  1
  Li  Li5  1  0.25553497  0.51107000  0.45125100  1
  Li  Li6  1  0.53094401  0.06188800  0.90620900  1
  Li  Li7  1  0.46905595  0.93811200  0.09379100  1
  Si  Si8  1  0.53094401  0.06188800  0.59379100  1
  Li  Li9  1  0.46905595  0.93811200  0.40620900  1
  Si  Si10  1  0.92804297  0.85608600  0.84609500  1
  Ni  Ni11  1  0.07195699  0.14391400  0.15390500  1
  Si  Si12  1  0.92804297  0.85608600  0.65390500  1
  Ni  Ni13  1  0.07195699  0.14391400  0.34609500  1
