# generated using pymatgen
data_NaSr2CaErCuO10
_symmetry_space_group_name_H-M   'P 1'
_cell_length_a   5.34204292
_cell_length_b   5.85991287
_cell_length_c   7.63112402
_cell_angle_alpha   90.00000000
_cell_angle_beta   90.00000000
_cell_angle_gamma   90.00000000
_symmetry_Int_Tables_number   1
_chemical_formula_structural   NaSr2CaErCuO10
_chemical_formula_sum   'Na1 Sr2 Ca1 Er1 Cu1 O10'
_cell_volume   238.88398966
_cell_formula_units_Z   1
loop_
 _symmetry_equiv_pos_site_id
 _symmetry_equiv_pos_as_xyz
  1  'x, y, z'
loop_
 _atom_site_type_symbol
 _atom_site_label
 _atom_site_symmetry_multiplicity
 _atom_site_fract_x
 _atom_site_fract_y
 _atom_site_fract_z
 _atom_site_occupancy
  Er  Er0  1  0.53028701  0.10405200  0.75000000  1
  Ca  Ca1  1  0.03028700  0.39594801  0.25000000  1
  Sr  Sr2  1  0.96971301  0.60405201  0.75000000  1
  Sr  Sr3  1  0.46971301  0.89594802  0.25000000  1
  Cu  Cu4  1  0.67809401  0.82035002  0.94823700  1
  Na  Na5  1  0.17809400  0.67965001  0.05176300  1
  O  O6  1  0.82190601  0.32035001  0.55176300  1
  O  O7  1  0.32190600  0.17965000  0.44823700  1
  O  O8  1  0.90257301  0.00673100  0.25000000  1
  O  O9  1  0.40257301  0.49326901  0.75000000  1
  O  O10  1  0.59742701  0.50673101  0.25000000  1
  O  O11  1  0.09742700  0.99326902  0.75000000  1
  O  O12  1  0.67809401  0.82035002  0.55176300  1
  O  O13  1  0.17809400  0.67965001  0.44823700  1
  O  O14  1  0.82190601  0.32035001  0.94823700  1
  O  O15  1  0.32190600  0.17965000  0.05176300  1
