# generated using pymatgen
data_K4Ba4Tl5In(HgPb)3
_symmetry_space_group_name_H-M   'P 1'
_cell_length_a   9.82283306
_cell_length_b   9.82283306
_cell_length_c   9.82283306
_cell_angle_alpha   107.11135864
_cell_angle_beta   107.11135864
_cell_angle_gamma   107.11135864
_symmetry_Int_Tables_number   1
_chemical_formula_structural   K4Ba4Tl5In(HgPb)3
_chemical_formula_sum   'K4 Ba4 Tl5 In1 Hg3 Pb3'
_cell_volume   786.91517780
_cell_formula_units_Z   1
loop_
 _symmetry_equiv_pos_site_id
 _symmetry_equiv_pos_as_xyz
  1  'x, y, z'
loop_
 _atom_site_type_symbol
 _atom_site_label
 _atom_site_symmetry_multiplicity
 _atom_site_fract_x
 _atom_site_fract_y
 _atom_site_fract_z
 _atom_site_occupancy
  K  K0  1  0.28974202  0.09231301  0.02275602  1
  Ba  Ba1  1  0.09231300  0.02275600  0.28974201  1
  Ba  Ba2  1  0.02275603  0.28974202  0.09231303  1
  Ba  Ba3  1  0.71025811  0.90768706  0.97724412  1
  Ba  Ba4  1  0.90768712  0.97724407  0.71025814  1
  K  K5  1  0.97724410  0.71025805  0.90768712  1
  In  In6  1  0.50000006  0.50000003  0.50000007  1
  K  K7  1  0.00000000  0.00000000  0.00000000  1
  Tl  Tl8  1  0.68357204  0.22410402  0.07354406  1
  Hg  Hg9  1  0.22410401  0.07354400  0.68357202  1
  K  K10  1  0.07354407  0.68357205  0.22410407  1
  Hg  Hg11  1  0.31642809  0.77589605  0.92645609  1
  Pb  Pb12  1  0.77589611  0.92645606  0.31642813  1
  Pb  Pb13  1  0.92645606  0.31642802  0.77589608  1
  Hg  Hg14  1  0.38496306  0.46148703  0.16060506  1
  Tl  Tl15  1  0.46148703  0.16060501  0.38496304  1
  Tl  Tl16  1  0.16060504  0.38496303  0.46148704  1
  Tl  Tl17  1  0.61503707  0.53851304  0.83939508  1
  Tl  Tl18  1  0.53851310  0.83939506  0.61503711  1
  Pb  Pb19  1  0.83939508  0.61503704  0.53851310  1
