# generated using pymatgen
data_La3CeY2In2Sn7Au5
_symmetry_space_group_name_H-M   'P 1'
_cell_length_a   4.50052977
_cell_length_b   11.51087379
_cell_length_c   11.51087379
_cell_angle_alpha   90.00000000
_cell_angle_beta   90.00000000
_cell_angle_gamma   90.00000000
_symmetry_Int_Tables_number   1
_chemical_formula_structural   La3CeY2In2Sn7Au5
_chemical_formula_sum   'La3 Ce1 Y2 In2 Sn7 Au5'
_cell_volume   596.32116393
_cell_formula_units_Z   1
loop_
 _symmetry_equiv_pos_site_id
 _symmetry_equiv_pos_as_xyz
  1  'x, y, z'
loop_
 _atom_site_type_symbol
 _atom_site_label
 _atom_site_symmetry_multiplicity
 _atom_site_fract_x
 _atom_site_fract_y
 _atom_site_fract_z
 _atom_site_occupancy
  Y  Y0  1  1.00000005  0.70589801  0.29410201  1
  Ce  Ce1  1  1.00000005  0.29410201  0.70589801  1
  La  La2  1  0.50000003  0.79410201  0.79410201  1
  Y  Y3  1  0.50000003  0.20589800  0.20589800  1
  La  La4  1  1.00000005  0.39204801  0.39204801  1
  La  La5  1  0.00000000  0.60795201  0.60795201  1
  Au  Au6  1  0.50000003  0.89204802  0.10795200  1
  In  In7  1  0.50000003  0.10795200  0.89204802  1
  In  In8  1  0.00000000  0.33773601  0.00138800  1
  Au  Au9  1  0.00000000  0.66226401  0.99861202  1
  Au  Au10  1  0.50000003  0.50138801  0.16226400  1
  Sn  Sn11  1  0.50000003  0.83773601  0.49861201  1
  Sn  Sn12  1  0.50000003  0.49861201  0.83773601  1
  Sn  Sn13  1  0.50000003  0.16226400  0.50138801  1
  Au  Au14  1  0.00000000  0.00138800  0.33773601  1
  Sn  Sn15  1  0.00000000  0.99861202  0.66226401  1
  Sn  Sn16  1  1.00000005  0.08715100  0.08715100  1
  Sn  Sn17  1  1.00000005  0.91284902  0.91284902  1
  Au  Au18  1  0.50000003  0.58715101  0.41284901  1
  Sn  Sn19  1  0.50000003  0.41284901  0.58715101  1
