# generated using pymatgen
data_Er3Al5FeSi3
_symmetry_space_group_name_H-M   'P 1'
_cell_length_a   5.34863281
_cell_length_b   5.34863281
_cell_length_c   8.29006767
_cell_angle_alpha   90.00000000
_cell_angle_beta   90.00000000
_cell_angle_gamma   119.44944763
_symmetry_Int_Tables_number   1
_chemical_formula_structural   Er3Al5FeSi3
_chemical_formula_sum   'Er3 Al5 Fe1 Si3'
_cell_volume   206.51756232
_cell_formula_units_Z   1
loop_
 _symmetry_equiv_pos_site_id
 _symmetry_equiv_pos_as_xyz
  1  'x, y, z'
loop_
 _atom_site_type_symbol
 _atom_site_label
 _atom_site_symmetry_multiplicity
 _atom_site_fract_x
 _atom_site_fract_y
 _atom_site_fract_z
 _atom_site_occupancy
  Er  Er0  1  0.66536300  0.33463700  0.79181303  1
  Er  Er1  1  0.32976897  0.67023100  0.67749903  1
  Er  Er2  1  0.32976897  0.67023100  0.32250101  1
  Al  Al3  1  0.66536300  0.33463700  0.20818701  1
  Al  Al4  1  0.00557894  0.99442100  0.74528403  1
  Fe  Fe5  1  0.00557894  0.99442100  0.25471601  1
  Al  Al6  1  0.65521897  0.82879700  -0.00000000  1
  Al  Al7  1  0.17120298  0.34478100  -0.00000000  1
  Al  Al8  1  0.16951496  0.83048500  -0.00000000  1
  Si  Si9  1  0.33797700  0.16952700  0.50000002  1
  Si  Si10  1  0.83047299  0.66202300  0.50000002  1
  Si  Si11  1  0.83379901  0.16620100  0.50000002  1
