# generated using pymatgen
data_KCaEuYBeN9
_symmetry_space_group_name_H-M   'P 1'
_cell_length_a   3.85807443
_cell_length_b   3.85807443
_cell_length_c   11.44657803
_cell_angle_alpha   90.00000000
_cell_angle_beta   90.00000000
_cell_angle_gamma   89.82738495
_symmetry_Int_Tables_number   1
_chemical_formula_structural   KCaEuYBeN9
_chemical_formula_sum   'K1 Ca1 Eu1 Y1 Be1 N9'
_cell_volume   170.37854492
_cell_formula_units_Z   1
loop_
 _symmetry_equiv_pos_site_id
 _symmetry_equiv_pos_as_xyz
  1  'x, y, z'
loop_
 _atom_site_type_symbol
 _atom_site_label
 _atom_site_symmetry_multiplicity
 _atom_site_fract_x
 _atom_site_fract_y
 _atom_site_fract_z
 _atom_site_occupancy
  Eu  Eu0  1  0.50897703  0.50897700  0.67265500  1
  K  K1  1  0.50897703  0.50897700  0.32734500  1
  Ca  Ca2  1  0.49926903  0.49926900  -0.00000000  1
  Y  Y3  1  0.03225900  0.03225900  0.50000000  1
  N  N4  1  0.00003400  0.00003400  0.84877100  1
  Be  Be5  1  0.00003400  0.00003400  0.15122900  1
  N  N6  1  0.49959505  0.99999600  0.87457800  1
  N  N7  1  0.99999603  0.49959500  0.87457800  1
  N  N8  1  0.49959505  0.99999600  0.12542200  1
  N  N9  1  0.99999603  0.49959500  0.12542200  1
  N  N10  1  0.99476205  0.99476200  0.66281500  1
  N  N11  1  0.99476205  0.99476200  0.33718500  1
  N  N12  1  0.51136500  0.02542900  0.50000000  1
  N  N13  1  0.02542903  0.51136500  0.50000000  1
