# generated using pymatgen
data_LaIn2Sn5Sb
_symmetry_space_group_name_H-M   'P 1'
_cell_length_a   4.62674618
_cell_length_b   4.62674570
_cell_length_c   17.13716316
_cell_angle_alpha   90.00000000
_cell_angle_beta   90.00000000
_cell_angle_gamma   120.00000000
_symmetry_Int_Tables_number   1
_chemical_formula_structural   LaIn2Sn5Sb
_chemical_formula_sum   'La1 In2 Sn5 Sb1'
_cell_volume   317.70267263
_cell_formula_units_Z   1
loop_
 _symmetry_equiv_pos_site_id
 _symmetry_equiv_pos_as_xyz
  1  'x, y, z'
loop_
 _atom_site_type_symbol
 _atom_site_label
 _atom_site_symmetry_multiplicity
 _atom_site_fract_x
 _atom_site_fract_y
 _atom_site_fract_z
 _atom_site_occupancy
  In  In0  1  0.33333327  0.66666661  0.99975005  1
  La  La1  1  0.00000000  0.00000000  0.22567101  1
  In  In2  1  0.66666662  0.33333331  0.77788404  1
  Sn  Sn3  1  0.00000000  0.00000000  0.89228604  1
  Sn  Sn4  1  0.66666662  0.33333331  0.09992900  1
  Sn  Sn5  1  0.66666662  0.33333331  0.45613202  1
  Sn  Sn6  1  0.33333327  0.66666661  0.68413603  1
  Sn  Sn7  1  0.33333327  0.66666661  0.31609802  1
  Sb  Sb8  1  0.00000000  0.00000000  0.54811303  1
