# generated using pymatgen
data_Na5SrCuHg2Bi(IO3)2
_symmetry_space_group_name_H-M   'P 1'
_cell_length_a   5.81684589
_cell_length_b   5.81684589
_cell_length_c   8.39176178
_cell_angle_alpha   90.00000000
_cell_angle_beta   90.00000000
_cell_angle_gamma   90.00000000
_symmetry_Int_Tables_number   1
_chemical_formula_structural   Na5SrCuHg2Bi(IO3)2
_chemical_formula_sum   'Na5 Sr1 Cu1 Hg2 Bi1 I2 O6'
_cell_volume   283.94110177
_cell_formula_units_Z   1
loop_
 _symmetry_equiv_pos_site_id
 _symmetry_equiv_pos_as_xyz
  1  'x, y, z'
loop_
 _atom_site_type_symbol
 _atom_site_label
 _atom_site_symmetry_multiplicity
 _atom_site_fract_x
 _atom_site_fract_y
 _atom_site_fract_z
 _atom_site_occupancy
  Na  Na0  1  0.00000000  0.00000000  0.00000000  1
  Sr  Sr1  1  0.50000001  0.50000001  0.00000000  1
  Na  Na2  1  0.50000001  0.00000000  0.75890502  1
  Na  Na3  1  0.00000000  0.50000001  0.24109501  1
  Bi  Bi4  1  0.50000001  0.50000001  0.50000001  1
  I  I5  1  0.00000000  0.00000000  0.50000001  1
  Na  Na6  1  0.00000000  0.50000001  0.74370202  1
  Cu  Cu7  1  0.50000001  0.00000000  0.25629801  1
  Na  Na8  1  0.73014301  0.23014300  0.32826501  1
  Hg  Hg9  1  0.76985701  0.73014301  0.67173502  1
  I  I10  1  0.73014301  0.76985701  0.32826501  1
  Hg  Hg11  1  0.76985701  0.26985700  0.67173502  1
  O  O12  1  0.26985700  0.23014300  0.32826501  1
  O  O13  1  0.50000001  0.00000000  0.03359800  1
  O  O14  1  0.00000000  0.50000001  0.96640203  1
  O  O15  1  0.26985700  0.76985701  0.32826501  1
  O  O16  1  0.23014300  0.26985700  0.67173502  1
  O  O17  1  0.23014300  0.73014301  0.67173502  1
