# generated using pymatgen
data_MnAl3(GaSi)4
_symmetry_space_group_name_H-M   'P 1'
_cell_length_a   4.99120522
_cell_length_b   6.16434908
_cell_length_c   6.16434908
_cell_angle_alpha   90.00000000
_cell_angle_beta   90.00000000
_cell_angle_gamma   90.00000000
_symmetry_Int_Tables_number   1
_chemical_formula_structural   MnAl3(GaSi)4
_chemical_formula_sum   'Mn1 Al3 Ga4 Si4'
_cell_volume   189.66180307
_cell_formula_units_Z   1
loop_
 _symmetry_equiv_pos_site_id
 _symmetry_equiv_pos_as_xyz
  1  'x, y, z'
loop_
 _atom_site_type_symbol
 _atom_site_label
 _atom_site_symmetry_multiplicity
 _atom_site_fract_x
 _atom_site_fract_y
 _atom_site_fract_z
 _atom_site_occupancy
  Mn  Mn0  1  0.49999998  0.66042799  0.16426800  1
  Al  Al1  1  0.49999998  0.33957200  0.83573199  1
  Al  Al2  1  0.49999998  0.83573199  0.66042799  1
  Al  Al3  1  0.49999998  0.16426800  0.33957200  1
  Ga  Ga4  1  -0.00000000  0.33957200  0.16426800  1
  Ga  Ga5  1  0.00000000  0.66042799  0.83573199  1
  Ga  Ga6  1  0.99999996  0.16426800  0.66042799  1
  Ga  Ga7  1  0.00000000  0.83573199  0.33957200  1
  Si  Si8  1  0.24999999  0.00000000  0.00000000  1
  Si  Si9  1  0.74999997  0.00000000  0.00000000  1
  Si  Si10  1  0.24999999  0.49999999  0.49999999  1
  Si  Si11  1  0.74999997  0.49999999  0.49999999  1
