# generated using pymatgen
data_YEr10Al2Rh3
_symmetry_space_group_name_H-M   'P 1'
_cell_length_a   6.31440401
_cell_length_b   7.01578283
_cell_length_c   9.48283768
_cell_angle_alpha   90.00000000
_cell_angle_beta   90.00000000
_cell_angle_gamma   90.00000000
_symmetry_Int_Tables_number   1
_chemical_formula_structural   YEr10Al2Rh3
_chemical_formula_sum   'Y1 Er10 Al2 Rh3'
_cell_volume   420.09432970
_cell_formula_units_Z   1
loop_
 _symmetry_equiv_pos_site_id
 _symmetry_equiv_pos_as_xyz
  1  'x, y, z'
loop_
 _atom_site_type_symbol
 _atom_site_label
 _atom_site_symmetry_multiplicity
 _atom_site_fract_x
 _atom_site_fract_y
 _atom_site_fract_z
 _atom_site_occupancy
  Y  Y0  1  0.32516900  0.67555502  0.06736500  1
  Er  Er1  1  0.17483100  0.17555500  0.43263501  1
  Er  Er2  1  0.67483100  0.32444501  0.56736502  1
  Er  Er3  1  0.82516900  0.82444502  0.93263503  1
  Er  Er4  1  0.67483100  0.32444501  0.93263503  1
  Er  Er5  1  0.82516900  0.82444502  0.56736502  1
  Er  Er6  1  0.32516900  0.67555502  0.43263501  1
  Er  Er7  1  0.17483100  0.17555500  0.06736500  1
  Er  Er8  1  0.86275900  0.54366601  0.25000001  1
  Er  Er9  1  0.63724100  0.04366600  0.25000001  1
  Er  Er10  1  0.13724100  0.45633401  0.75000003  1
  Al  Al11  1  0.36275900  0.95633402  0.75000003  1
  Rh  Rh12  1  0.04773200  0.88826302  0.25000001  1
  Rh  Rh13  1  0.45226800  0.38826301  0.25000001  1
  Al  Al14  1  0.95226800  0.11173700  0.75000003  1
  Rh  Rh15  1  0.54773200  0.61173701  0.75000003  1
