# generated using pymatgen
data_Cu3GeTeSe3
_symmetry_space_group_name_H-M   'P 1'
_cell_length_a   6.02101612
_cell_length_b   6.02101612
_cell_length_c   7.07991791
_cell_angle_alpha   115.16445923
_cell_angle_beta   115.16445923
_cell_angle_gamma   90.00000000
_symmetry_Int_Tables_number   1
_chemical_formula_structural   Cu3GeTeSe3
_chemical_formula_sum   'Cu3 Ge1 Te1 Se3'
_cell_volume   205.07240998
_cell_formula_units_Z   1
loop_
 _symmetry_equiv_pos_site_id
 _symmetry_equiv_pos_as_xyz
  1  'x, y, z'
loop_
 _atom_site_type_symbol
 _atom_site_label
 _atom_site_symmetry_multiplicity
 _atom_site_fract_x
 _atom_site_fract_y
 _atom_site_fract_z
 _atom_site_occupancy
  Cu  Cu0  1  0.75000000  0.25000000  0.50000004  1
  Cu  Cu1  1  0.00000000  0.00000000  0.00000000  1
  Cu  Cu2  1  0.50000001  0.50000000  0.00000003  1
  Ge  Ge3  1  0.25000002  0.75000000  0.50000004  1
  Se  Se4  1  0.87500002  0.85158400  0.25000006  1
  Se  Se5  1  0.60158400  0.12500000  0.75000003  1
  Te  Te6  1  0.37500001  0.39841600  0.25000003  1
  Se  Se7  1  0.14841602  0.62500000  0.75000004  1
