# generated using pymatgen
data_Al2FeNi3C2
_symmetry_space_group_name_H-M   'P 1'
_cell_length_a   3.29887676
_cell_length_b   3.29887676
_cell_length_c   10.95149422
_cell_angle_alpha   81.33754730
_cell_angle_beta   81.33754730
_cell_angle_gamma   59.99998474
_symmetry_Int_Tables_number   1
_chemical_formula_structural   Al2FeNi3C2
_chemical_formula_sum   'Al2 Fe1 Ni3 C2'
_cell_volume   101.64054474
_cell_formula_units_Z   1
loop_
 _symmetry_equiv_pos_site_id
 _symmetry_equiv_pos_as_xyz
  1  'x, y, z'
loop_
 _atom_site_type_symbol
 _atom_site_label
 _atom_site_symmetry_multiplicity
 _atom_site_fract_x
 _atom_site_fract_y
 _atom_site_fract_z
 _atom_site_occupancy
  Al  Al0  1  0.25121701  0.25121700  0.24634901  1
  Al  Al1  1  0.50000003  0.50000000  0.50000002  1
  Fe  Fe2  1  0.74878304  0.74878301  0.75365102  1
  Ni  Ni3  1  0.00000000  0.00000000  0.00000000  1
  Ni  Ni4  1  0.37225502  0.37225500  0.88323503  1
  Ni  Ni5  1  0.12407901  0.12407900  0.62776302  1
  C  C6  1  0.62774503  0.62774500  0.11676500  1
  C  C7  1  0.87592104  0.87592101  0.37223701  1
