# generated using pymatgen
data_YInSnPdAu2
_symmetry_space_group_name_H-M   'P 1'
_cell_length_a   4.13658810
_cell_length_b   4.13658810
_cell_length_c   7.92393303
_cell_angle_alpha   90.00000000
_cell_angle_beta   90.00000000
_cell_angle_gamma   90.00000000
_symmetry_Int_Tables_number   1
_chemical_formula_structural   YInSnPdAu2
_chemical_formula_sum   'Y1 In1 Sn1 Pd1 Au2'
_cell_volume   135.58927924
_cell_formula_units_Z   1
loop_
 _symmetry_equiv_pos_site_id
 _symmetry_equiv_pos_as_xyz
  1  'x, y, z'
loop_
 _atom_site_type_symbol
 _atom_site_label
 _atom_site_symmetry_multiplicity
 _atom_site_fract_x
 _atom_site_fract_y
 _atom_site_fract_z
 _atom_site_occupancy
  Y  Y0  1  0.00000000  0.49999999  0.34670200  1
  In  In1  1  0.49999999  0.00000000  0.65329800  1
  Sn  Sn2  1  0.49999999  0.49999999  -0.00000000  1
  Pd  Pd3  1  0.00000000  0.00000000  0.00000000  1
  Au  Au4  1  0.49999999  0.00000000  0.22657200  1
  Au  Au5  1  0.00000000  0.49999999  0.77342800  1
