# generated using pymatgen
data_LiLaY2Er2ZrVN10
_symmetry_space_group_name_H-M   'P 1'
_cell_length_a   3.50508404
_cell_length_b   6.53176308
_cell_length_c   11.30639839
_cell_angle_alpha   89.65396881
_cell_angle_beta   90.00000000
_cell_angle_gamma   90.00000000
_symmetry_Int_Tables_number   1
_chemical_formula_structural   LiLaY2Er2ZrVN10
_chemical_formula_sum   'Li1 La1 Y2 Er2 Zr1 V1 N10'
_cell_volume   258.84824353
_cell_formula_units_Z   1
loop_
 _symmetry_equiv_pos_site_id
 _symmetry_equiv_pos_as_xyz
  1  'x, y, z'
loop_
 _atom_site_type_symbol
 _atom_site_label
 _atom_site_symmetry_multiplicity
 _atom_site_fract_x
 _atom_site_fract_y
 _atom_site_fract_z
 _atom_site_occupancy
  Er  Er0  1  0.49999999  0.89876799  0.50805998  1
  Y  Y1  1  0.49999999  0.40335300  0.99464498  1
  La  La2  1  0.49999999  0.79444999  0.79928798  1
  Er  Er3  1  0.00000000  0.00151100  0.67194599  1
  Y  Y4  1  0.00000000  0.50609299  0.17144399  1
  Li  Li5  1  0.00000000  0.49701899  0.83033598  1
  N  N6  1  0.00000000  0.00315400  0.32704099  1
  Zr  Zr7  1  0.49999999  0.99507999  0.00020799  1
  N  N8  1  0.49999999  0.48983199  0.50112598  1
  N  N9  1  0.49999999  0.30682700  0.30152799  1
  N  N10  1  0.49999999  0.30332800  0.69903598  1
  N  N11  1  0.49999999  0.80288999  0.19683999  1
  V  V12  1  0.00000000  0.72980599  0.99781797  1
  N  N13  1  0.00000000  0.22171600  0.49792199  1
  N  N14  1  -0.00000000  0.63711499  0.62838298  1
  N  N15  1  0.00000000  0.14228900  0.12779800  1
  N  N16  1  0.00000000  0.12730800  0.87252198  1
  N  N17  1  0.00000000  0.63965999  0.37405798  1
