# generated using pymatgen
data_Y6AlSi5Ni4
_symmetry_space_group_name_H-M   'P 1'
_cell_length_a   4.08947420
_cell_length_b   5.60071325
_cell_length_c   13.54771900
_cell_angle_alpha   90.00000000
_cell_angle_beta   90.00000000
_cell_angle_gamma   111.41281891
_symmetry_Int_Tables_number   1
_chemical_formula_structural   Y6AlSi5Ni4
_chemical_formula_sum   'Y6 Al1 Si5 Ni4'
_cell_volume   288.87809867
_cell_formula_units_Z   1
loop_
 _symmetry_equiv_pos_site_id
 _symmetry_equiv_pos_as_xyz
  1  'x, y, z'
loop_
 _atom_site_type_symbol
 _atom_site_label
 _atom_site_symmetry_multiplicity
 _atom_site_fract_x
 _atom_site_fract_y
 _atom_site_fract_z
 _atom_site_occupancy
  Y  Y0  1  0.36157494  0.72314996  0.75000000  1
  Y  Y1  1  0.63842495  0.27684998  0.25000000  1
  Y  Y2  1  0.08084499  0.16168999  0.88812700  1
  Y  Y3  1  0.91915490  0.83830995  0.11187300  1
  Y  Y4  1  0.91915490  0.83830995  0.38812700  1
  Y  Y5  1  0.08084499  0.16168999  0.61187300  1
  Ni  Ni6  1  0.21363096  0.42726197  0.41918500  1
  Al  Al7  1  0.78636892  0.57273797  0.58081500  1
  Ni  Ni8  1  0.78636892  0.57273797  0.91918500  1
  Ni  Ni9  1  0.21363096  0.42726197  0.08081500  1
  Si  Si10  1  0.66959495  0.33918998  0.75000000  1
  Si  Si11  1  0.33040494  0.66080996  0.25000000  1
  Si  Si12  1  0.37888293  0.75776596  0.96051800  1
  Ni  Ni13  1  0.62111695  0.24223399  0.03948200  1
  Si  Si14  1  0.62111695  0.24223399  0.46051800  1
  Si  Si15  1  0.37888293  0.75776596  0.53948200  1
