# generated using pymatgen
data_LaYEr2Ga2SiGe5
_symmetry_space_group_name_H-M   'P 1'
_cell_length_a   4.49420881
_cell_length_b   7.14930010
_cell_length_c   7.18654585
_cell_angle_alpha   90.00000000
_cell_angle_beta   90.00000000
_cell_angle_gamma   90.00000000
_symmetry_Int_Tables_number   1
_chemical_formula_structural   LaYEr2Ga2SiGe5
_chemical_formula_sum   'La1 Y1 Er2 Ga2 Si1 Ge5'
_cell_volume   230.90693415
_cell_formula_units_Z   1
loop_
 _symmetry_equiv_pos_site_id
 _symmetry_equiv_pos_as_xyz
  1  'x, y, z'
loop_
 _atom_site_type_symbol
 _atom_site_label
 _atom_site_symmetry_multiplicity
 _atom_site_fract_x
 _atom_site_fract_y
 _atom_site_fract_z
 _atom_site_occupancy
  Er  Er0  1  0.25000001  0.52042299  0.69003501  1
  Er  Er1  1  0.75000003  0.47957699  0.30996501  1
  Y  Y2  1  0.25000001  0.02042300  0.80996502  1
  La  La3  1  0.75000003  0.97957699  0.19003500  1
  Ga  Ga4  1  0.25000001  0.69942499  0.10691000  1
  Ga  Ga5  1  0.75000003  0.30057500  0.89309002  1
  Ge  Ge6  1  0.25000001  0.19942500  0.39309001  1
  Ge  Ge7  1  0.75000003  0.80057499  0.60691001  1
  Ge  Ge8  1  0.75000003  0.15256800  0.56428301  1
  Si  Si9  1  0.25000001  0.84743199  0.43571701  1
  Ge  Ge10  1  0.75000003  0.65256799  0.93571702  1
  Ge  Ge11  1  0.25000001  0.34743200  0.06428300  1
