# generated using pymatgen
data_YZrAl2NiB9IrC3
_symmetry_space_group_name_H-M   'P 1'
_cell_length_a   3.59750795
_cell_length_b   6.11888266
_cell_length_c   11.49897194
_cell_angle_alpha   90.00000000
_cell_angle_beta   90.00000000
_cell_angle_gamma   107.09564972
_symmetry_Int_Tables_number   1
_chemical_formula_structural   YZrAl2NiB9IrC3
_chemical_formula_sum   'Y1 Zr1 Al2 Ni1 B9 Ir1 C3'
_cell_volume   241.93956574
_cell_formula_units_Z   1
loop_
 _symmetry_equiv_pos_site_id
 _symmetry_equiv_pos_as_xyz
  1  'x, y, z'
loop_
 _atom_site_type_symbol
 _atom_site_label
 _atom_site_symmetry_multiplicity
 _atom_site_fract_x
 _atom_site_fract_y
 _atom_site_fract_z
 _atom_site_occupancy
  Y  Y0  1  0.83846605  0.67693201  0.75000000  1
  Zr  Zr1  1  0.16153402  0.32306801  0.25000000  1
  Al  Al2  1  0.55127701  0.10255400  0.85509000  1
  Al  Al3  1  0.55127701  0.10255400  0.64491000  1
  B  B4  1  0.80166905  0.60333801  0.06811700  1
  B  B5  1  0.44872306  0.89744602  0.14491000  1
  Ni  Ni6  1  0.19833103  0.39666201  0.56811700  1
  B  B7  1  0.44872306  0.89744602  0.35509000  1
  B  B8  1  0.80166905  0.60333801  0.43188300  1
  B  B9  1  0.00000000  0.00000000  0.00000000  1
  B  B10  1  0.00000000  0.00000000  0.50000000  1
  B  B11  1  0.19833103  0.39666201  0.93188300  1
  Ir  Ir12  1  0.88325606  0.76651201  0.25000000  1
  B  B13  1  0.61814102  0.23628200  0.04058700  1
  B  B14  1  0.61814102  0.23628200  0.45941300  1
  C  C15  1  0.38185905  0.76371801  0.54058700  1
  C  C16  1  0.38185905  0.76371801  0.95941301  1
  C  C17  1  0.11674402  0.23348800  0.75000000  1
