# generated using pymatgen
data_Li3NiO5
_symmetry_space_group_name_H-M   'P 1'
_cell_length_a   5.97419786
_cell_length_b   6.19212008
_cell_length_c   6.81891346
_cell_angle_alpha   105.48862457
_cell_angle_beta   90.00000000
_cell_angle_gamma   118.84248352
_symmetry_Int_Tables_number   1
_chemical_formula_structural   Li3NiO5
_chemical_formula_sum   'Li6 Ni2 O10'
_cell_volume   210.44098348
_cell_formula_units_Z   2
loop_
 _symmetry_equiv_pos_site_id
 _symmetry_equiv_pos_as_xyz
  1  'x, y, z'
loop_
 _atom_site_type_symbol
 _atom_site_label
 _atom_site_symmetry_multiplicity
 _atom_site_fract_x
 _atom_site_fract_y
 _atom_site_fract_z
 _atom_site_occupancy
  Li  Li0  1  0.44862804  0.49989102  0.67241800  1
  Li  Li1  1  0.05126303  0.49989102  0.17241801  1
  Li  Li2  1  0.48889106  1.00000004  0.75000001  1
  Li  Li3  1  0.51110901  0.00000000  0.25000000  1
  Li  Li4  1  0.94873705  0.50010902  0.82758200  1
  Li  Li5  1  0.55137204  0.50010902  0.32758201  1
  Ni  Ni6  1  0.00000000  0.00000000  0.00000000  1
  Ni  Ni7  1  0.00000000  0.00000000  0.49999999  1
  O  O8  1  0.73851505  0.65388503  0.86856300  1
  O  O9  1  0.54083905  0.77006503  0.54313901  1
  O  O10  1  0.83061802  0.00000000  0.25000000  1
  O  O11  1  0.22922605  0.77006503  0.04313902  1
  O  O12  1  0.91537006  0.65388503  0.36856301  1
  O  O13  1  0.08463002  0.34611502  0.63143700  1
  O  O14  1  0.77077403  0.22993501  0.95686099  1
  O  O15  1  0.16938200  0.00000000  0.74999999  1
  O  O16  1  0.45916102  0.22993501  0.45686100  1
  O  O17  1  0.26148502  0.34611502  0.13143701  1
