# generated using pymatgen
data_La2ErIn10SnGeAu
_symmetry_space_group_name_H-M   'P 1'
_cell_length_a   6.33161783
_cell_length_b   7.38516521
_cell_length_c   9.09830761
_cell_angle_alpha   90.00000000
_cell_angle_beta   90.00000000
_cell_angle_gamma   90.00000000
_symmetry_Int_Tables_number   1
_chemical_formula_structural   La2ErIn10SnGeAu
_chemical_formula_sum   'La2 Er1 In10 Sn1 Ge1 Au1'
_cell_volume   425.43726202
_cell_formula_units_Z   1
loop_
 _symmetry_equiv_pos_site_id
 _symmetry_equiv_pos_as_xyz
  1  'x, y, z'
loop_
 _atom_site_type_symbol
 _atom_site_label
 _atom_site_symmetry_multiplicity
 _atom_site_fract_x
 _atom_site_fract_y
 _atom_site_fract_z
 _atom_site_occupancy
  Er  Er0  1  0.33085901  0.67511798  0.06332300  1
  La  La1  1  0.16914100  0.17511799  0.43667702  1
  La  La2  1  0.66914102  0.32488199  0.56332302  1
  In  In3  1  0.83085902  0.82488198  0.93667704  1
  In  In4  1  0.66914102  0.32488199  0.93667704  1
  In  In5  1  0.83085902  0.82488198  0.56332302  1
  In  In6  1  0.33085901  0.67511798  0.43667702  1
  In  In7  1  0.16914100  0.17511799  0.06332300  1
  In  In8  1  0.86823202  0.53883298  0.25000001  1
  In  In9  1  0.63176802  0.03883300  0.25000001  1
  In  In10  1  0.13176800  0.46116699  0.75000003  1
  Sn  Sn11  1  0.36823201  0.96116697  0.75000003  1
  In  In12  1  0.03933200  0.88349297  0.25000001  1
  In  In13  1  0.46066801  0.38349299  0.25000001  1
  Ge  Ge14  1  0.96066803  0.11650700  0.75000003  1
  Au  Au15  1  0.53933201  0.61650698  0.75000003  1
