# generated using pymatgen
data_La2YThInSn8SbAu2
_symmetry_space_group_name_H-M   'P 1'
_cell_length_a   5.20515108
_cell_length_b   6.67881203
_cell_length_c   11.85665703
_cell_angle_alpha   90.99726868
_cell_angle_beta   90.00000000
_cell_angle_gamma   90.00000000
_symmetry_Int_Tables_number   1
_chemical_formula_structural   La2YThInSn8SbAu2
_chemical_formula_sum   'La2 Y1 Th1 In1 Sn8 Sb1 Au2'
_cell_volume   412.12506460
_cell_formula_units_Z   1
loop_
 _symmetry_equiv_pos_site_id
 _symmetry_equiv_pos_as_xyz
  1  'x, y, z'
loop_
 _atom_site_type_symbol
 _atom_site_label
 _atom_site_symmetry_multiplicity
 _atom_site_fract_x
 _atom_site_fract_y
 _atom_site_fract_z
 _atom_site_occupancy
  Y  Y0  1  0.25000000  0.49361800  0.32640300  1
  In  In1  1  0.74999999  0.25712700  0.39438000  1
  La  La2  1  0.74999999  0.27569700  0.92863200  1
  La  La3  1  0.25000000  0.72430300  0.07136800  1
  Th  Th4  1  0.25000000  0.74287300  0.60562000  1
  Sn  Sn5  1  0.74999999  0.50638200  0.67359700  1
  Sn  Sn6  1  0.74999999  0.01013400  0.19959800  1
  Sn  Sn7  1  0.74999999  0.71574800  0.92687600  1
  Sn  Sn8  1  0.74999999  0.77886500  0.40231400  1
  Sn  Sn9  1  0.25000000  0.22113500  0.59768600  1
  Sn  Sn10  1  0.25000000  0.28425200  0.07312400  1
  Sb  Sb11  1  0.25000000  0.98986600  0.80040200  1
  Au  Au12  1  0.25000000  0.00375000  0.33915300  1
  Au  Au13  1  0.74999999  0.51198400  0.16952300  1
  Sn  Sn14  1  0.74999999  0.99625000  0.66084700  1
  Sn  Sn15  1  0.25000000  0.48801600  0.83047700  1
