# generated using pymatgen
data_TiMnSi2NiRh
_symmetry_space_group_name_H-M   'P 1'
_cell_length_a   4.34484196
_cell_length_b   4.34484243
_cell_length_c   5.45114899
_cell_angle_alpha   90.00000000
_cell_angle_beta   90.00000000
_cell_angle_gamma   120.00000000
_symmetry_Int_Tables_number   1
_chemical_formula_structural   TiMnSi2NiRh
_chemical_formula_sum   'Ti1 Mn1 Si2 Ni1 Rh1'
_cell_volume   89.11826005
_cell_formula_units_Z   1
loop_
 _symmetry_equiv_pos_site_id
 _symmetry_equiv_pos_as_xyz
  1  'x, y, z'
loop_
 _atom_site_type_symbol
 _atom_site_label
 _atom_site_symmetry_multiplicity
 _atom_site_fract_x
 _atom_site_fract_y
 _atom_site_fract_z
 _atom_site_occupancy
  Mn  Mn0  1  0.00000000  0.00000000  0.00000000  1
  Ti  Ti1  1  0.00000000  0.00000000  0.50000000  1
  Si  Si2  1  0.66666669  0.33333334  0.25000000  1
  Si  Si3  1  0.33333338  0.66666668  0.75000000  1
  Ni  Ni4  1  0.66666669  0.33333334  0.75000000  1
  Rh  Rh5  1  0.33333338  0.66666668  0.25000000  1
