# generated using pymatgen
data_Li2O2
_symmetry_space_group_name_H-M   'P 1'
_cell_length_a   3.79535389
_cell_length_b   5.28914452
_cell_length_c   10.02092075
_cell_angle_alpha   91.10148621
_cell_angle_beta   90.00000000
_cell_angle_gamma   111.02572632
_symmetry_Int_Tables_number   1
_chemical_formula_structural   Li2O2
_chemical_formula_sum   'Li8 O8'
_cell_volume   187.72843154
_cell_formula_units_Z   4
loop_
 _symmetry_equiv_pos_site_id
 _symmetry_equiv_pos_as_xyz
  1  'x, y, z'
loop_
 _atom_site_type_symbol
 _atom_site_label
 _atom_site_symmetry_multiplicity
 _atom_site_fract_x
 _atom_site_fract_y
 _atom_site_fract_z
 _atom_site_occupancy
  Li  Li0  1  0.19581098  0.39162198  0.75665096  1
  Li  Li1  1  0.87093397  0.74186797  0.95018195  1
  Li  Li2  1  0.80418898  0.60837797  0.24334898  1
  Li  Li3  1  0.12906599  0.25813199  0.04981799  1
  Li  Li4  1  0.13432399  0.26864799  0.43540298  1
  Li  Li5  1  0.86567597  0.73135197  0.56459696  1
  Li  Li6  1  0.94867897  0.89735796  0.38497497  1
  Li  Li7  1  0.67874799  0.35749598  0.06373799  1
  O  O8  1  0.04497000  0.08994000  0.86831596  1
  O  O9  1  0.95502996  0.91005996  0.13168398  1
  O  O10  1  0.32125196  0.64250397  0.93626195  1
  O  O11  1  0.76235199  0.52470398  0.75001796  1
  O  O12  1  0.31213297  0.62426597  0.57356796  1
  O  O13  1  0.23764797  0.47529598  0.24998198  1
  O  O14  1  0.05132099  0.10264200  0.61502497  1
  O  O15  1  0.68786699  0.37573398  0.42643198  1
