# generated using pymatgen
data_NaSr(CuO3)2
_symmetry_space_group_name_H-M   'P 1'
_cell_length_a   5.80002880
_cell_length_b   5.79968023
_cell_length_c   8.18456459
_cell_angle_alpha   90.00286102
_cell_angle_beta   89.99453735
_cell_angle_gamma   89.98531342
_symmetry_Int_Tables_number   1
_chemical_formula_structural   NaSr(CuO3)2
_chemical_formula_sum   'Na2 Sr2 Cu4 O12'
_cell_volume   275.31492981
_cell_formula_units_Z   2
loop_
 _symmetry_equiv_pos_site_id
 _symmetry_equiv_pos_as_xyz
  1  'x, y, z'
loop_
 _atom_site_type_symbol
 _atom_site_label
 _atom_site_symmetry_multiplicity
 _atom_site_fract_x
 _atom_site_fract_y
 _atom_site_fract_z
 _atom_site_occupancy
  Na  Na0  1  0.00028199  0.49943601  0.75003698  1
  Sr  Sr1  1  0.49966502  0.00052700  0.24999800  1
  Sr  Sr2  1  0.50035300  0.99946101  0.74999996  1
  Na  Na3  1  0.99973303  0.50056801  0.24996098  1
  Cu  Cu4  1  0.50003101  0.49997101  0.49999198  1
  Cu  Cu5  1  0.99989504  0.00006900  0.00001700  1
  Cu  Cu6  1  0.00000098  0.99999901  0.49999996  1
  Cu  Cu7  1  0.50003401  0.50001401  0.99999698  1
  O  O8  1  0.50038701  0.49904001  0.74964498  1
  O  O9  1  0.99972004  0.00067500  0.24960000  1
  O  O10  1  0.00028398  0.99932901  0.75040096  1
  O  O11  1  0.49961601  0.50095001  0.25035298  1
  O  O12  1  0.73755501  0.73772601  0.99996397  1
  O  O13  1  0.25130800  0.25164200  0.49982899  1
  O  O14  1  0.75141402  0.24846600  0.99988699  1
  O  O15  1  0.23774199  0.76242301  0.50049497  1
  O  O16  1  0.26243700  0.26225900  0.00003999  1
  O  O17  1  0.74869701  0.74834701  0.50016897  1
  O  O18  1  0.24858999  0.75153001  0.00011197  1
  O  O19  1  0.76225702  0.23756600  0.49950399  1
