# generated using pymatgen
data_Na3Li2CuO8
_symmetry_space_group_name_H-M   'P 1'
_cell_length_a   3.86602759
_cell_length_b   3.86602759
_cell_length_c   11.85174561
_cell_angle_alpha   90.00000000
_cell_angle_beta   90.00000000
_cell_angle_gamma   89.64310455
_symmetry_Int_Tables_number   1
_chemical_formula_structural   Na3Li2CuO8
_chemical_formula_sum   'Na3 Li2 Cu1 O8'
_cell_volume   177.13476046
_cell_formula_units_Z   1
loop_
 _symmetry_equiv_pos_site_id
 _symmetry_equiv_pos_as_xyz
  1  'x, y, z'
loop_
 _atom_site_type_symbol
 _atom_site_label
 _atom_site_symmetry_multiplicity
 _atom_site_fract_x
 _atom_site_fract_y
 _atom_site_fract_z
 _atom_site_occupancy
  Na  Na0  1  0.49778396  0.50221599  0.19402401  1
  Na  Na1  1  0.49778396  0.50221599  0.80597603  1
  Na  Na2  1  0.50085496  0.49914499  0.50000002  1
  Li  Li3  1  0.00091694  0.99908298  0.35920601  1
  Li  Li4  1  0.00091694  0.99908298  0.64079402  1
  Cu  Cu5  1  0.01873494  0.98126498  -0.00000000  1
  O  O6  1  0.00673694  0.99326298  0.17105701  1
  O  O7  1  0.00673694  0.99326298  0.82894303  1
  O  O8  1  0.00104697  0.49889599  0.37672301  1
  O  O9  1  0.50110393  0.99895298  0.37672301  1
  O  O10  1  0.00104697  0.49889599  0.62327702  1
  O  O11  1  0.50110393  0.99895298  0.62327702  1
  O  O12  1  0.52299693  0.93476498  -0.00000000  1
  O  O13  1  0.06523497  0.47700299  -0.00000000  1
