# generated using pymatgen
data_LiMgCu3
_symmetry_space_group_name_H-M   'P 1'
_cell_length_a   4.19449806
_cell_length_b   4.19449806
_cell_length_c   5.77176476
_cell_angle_alpha   111.30690765
_cell_angle_beta   111.30690765
_cell_angle_gamma   90.00000000
_symmetry_Int_Tables_number   1
_chemical_formula_structural   LiMgCu3
_chemical_formula_sum   'Li1 Mg1 Cu3'
_cell_volume   87.11401077
_cell_formula_units_Z   1
loop_
 _symmetry_equiv_pos_site_id
 _symmetry_equiv_pos_as_xyz
  1  'x, y, z'
loop_
 _atom_site_type_symbol
 _atom_site_label
 _atom_site_symmetry_multiplicity
 _atom_site_fract_x
 _atom_site_fract_y
 _atom_site_fract_z
 _atom_site_occupancy
  Li  Li0  1  0.00000000  0.00000000  0.00000000  1
  Mg  Mg1  1  0.38784899  0.38784899  0.77569800  1
  Cu  Cu2  1  0.61215099  0.61215099  0.22430199  1
  Cu  Cu3  1  0.24999999  0.74999999  0.50000000  1
  Cu  Cu4  1  0.74999999  0.25000000  0.50000000  1
