# generated using pymatgen
data_Mn(AlSi)4
_symmetry_space_group_name_H-M   'P 1'
_cell_length_a   3.58955002
_cell_length_b   6.34085608
_cell_length_c   6.34085655
_cell_angle_alpha   120.00000000
_cell_angle_beta   90.00000000
_cell_angle_gamma   90.00000000
_symmetry_Int_Tables_number   1
_chemical_formula_structural   Mn(AlSi)4
_chemical_formula_sum   'Mn1 Al4 Si4'
_cell_volume   124.98746653
_cell_formula_units_Z   1
loop_
 _symmetry_equiv_pos_site_id
 _symmetry_equiv_pos_as_xyz
  1  'x, y, z'
loop_
 _atom_site_type_symbol
 _atom_site_label
 _atom_site_symmetry_multiplicity
 _atom_site_fract_x
 _atom_site_fract_y
 _atom_site_fract_z
 _atom_site_occupancy
  Mn  Mn0  1  0.50000000  1.00000002  0.41046906  1
  Al  Al1  1  0.50000000  0.41046901  0.00000002  1
  Al  Al2  1  0.50000000  0.58953101  0.58953103  1
  Al  Al3  1  -0.00000000  1.00000002  0.75006206  1
  Al  Al4  1  0.99999999  0.75006201  0.00000004  1
  Si  Si5  1  0.99999999  0.24993800  0.24993801  1
  Si  Si6  1  -0.00000000  0.66666668  0.33333337  1
  Si  Si7  1  0.99999999  0.33333334  0.66666668  1
  Si  Si8  1  0.50000000  0.00000000  -0.00000000  1
