# generated using pymatgen
data_La7YSn6
_symmetry_space_group_name_H-M   'P 1'
_cell_length_a   8.57236290
_cell_length_b   8.57236290
_cell_length_c   8.57236290
_cell_angle_alpha   109.47122192
_cell_angle_beta   109.47122192
_cell_angle_gamma   109.47122192
_symmetry_Int_Tables_number   1
_chemical_formula_structural   La7YSn6
_chemical_formula_sum   'La7 Y1 Sn6'
_cell_volume   484.93075958
_cell_formula_units_Z   1
loop_
 _symmetry_equiv_pos_site_id
 _symmetry_equiv_pos_as_xyz
  1  'x, y, z'
loop_
 _atom_site_type_symbol
 _atom_site_label
 _atom_site_symmetry_multiplicity
 _atom_site_fract_x
 _atom_site_fract_y
 _atom_site_fract_z
 _atom_site_occupancy
  Y  Y0  1  0.00000003  0.50000002  0.14679803  1
  La  La1  1  0.64679807  1.00000003  0.00000007  1
  La  La2  1  0.00000003  0.50000002  0.64679802  1
  La  La3  1  0.35320202  0.35320201  0.85320202  1
  La  La4  1  0.85320206  0.85320203  0.35320207  1
  La  La5  1  0.50000001  0.14679800  0.50000002  1
  La  La6  1  0.14679800  0.00000000  0.00000000  1
  La  La7  1  0.50000004  0.64679802  0.50000005  1
  Sn  Sn8  1  0.12500002  0.25000001  0.37500001  1
  Sn  Sn9  1  0.75000004  0.62500002  0.87500005  1
  Sn  Sn10  1  0.37500005  0.75000003  0.12500005  1
  Sn  Sn11  1  0.87500001  0.12500000  0.75000002  1
  Sn  Sn12  1  0.62500003  0.37500001  0.25000003  1
  Sn  Sn13  1  0.25000006  0.87500003  0.62500005  1
