# generated using pymatgen
data_Er4AlGa4SiGe6
_symmetry_space_group_name_H-M   'P 1'
_cell_length_a   4.37244797
_cell_length_b   6.62519979
_cell_length_c   10.01507282
_cell_angle_alpha   90.00000000
_cell_angle_beta   90.00000000
_cell_angle_gamma   90.00000000
_symmetry_Int_Tables_number   1
_chemical_formula_structural   Er4AlGa4SiGe6
_chemical_formula_sum   'Er4 Al1 Ga4 Si1 Ge6'
_cell_volume   290.12004844
_cell_formula_units_Z   1
loop_
 _symmetry_equiv_pos_site_id
 _symmetry_equiv_pos_as_xyz
  1  'x, y, z'
loop_
 _atom_site_type_symbol
 _atom_site_label
 _atom_site_symmetry_multiplicity
 _atom_site_fract_x
 _atom_site_fract_y
 _atom_site_fract_z
 _atom_site_occupancy
  Er  Er0  1  0.25000000  0.27988701  0.66391801  1
  Er  Er1  1  0.25000000  0.77988702  0.83608201  1
  Er  Er2  1  0.75000001  0.72011302  0.33608201  1
  Er  Er3  1  0.75000001  0.22011301  0.16391800  1
  Al  Al4  1  0.25000000  0.53611102  0.10347800  1
  Ga  Ga5  1  0.25000000  0.03611100  0.39652201  1
  Ga  Ga6  1  0.75000001  0.46388901  0.89652202  1
  Ga  Ga7  1  0.75000001  0.96388903  0.60347801  1
  Si  Si8  1  0.25000000  0.91879903  0.14864900  1
  Ga  Ga9  1  0.25000000  0.41879901  0.35135101  1
  Ge  Ge10  1  0.75000001  0.08120100  0.85135102  1
  Ge  Ge11  1  0.75000001  0.58120102  0.64864901  1
  Ge  Ge12  1  0.25000000  0.21693101  0.95697102  1
  Ge  Ge13  1  0.25000000  0.71693102  0.54302901  1
  Ge  Ge14  1  0.75000001  0.78306902  0.04302900  1
  Ge  Ge15  1  0.75000001  0.28306901  0.45697101  1
