# generated using pymatgen
data_BaIn3Sn3Au
_symmetry_space_group_name_H-M   'P 1'
_cell_length_a   5.33631182
_cell_length_b   7.00231218
_cell_length_c   7.00231266
_cell_angle_alpha   60.00000381
_cell_angle_beta   90.00000000
_cell_angle_gamma   90.00000000
_symmetry_Int_Tables_number   1
_chemical_formula_structural   BaIn3Sn3Au
_chemical_formula_sum   'Ba1 In3 Sn3 Au1'
_cell_volume   226.59734380
_cell_formula_units_Z   1
loop_
 _symmetry_equiv_pos_site_id
 _symmetry_equiv_pos_as_xyz
  1  'x, y, z'
loop_
 _atom_site_type_symbol
 _atom_site_label
 _atom_site_symmetry_multiplicity
 _atom_site_fract_x
 _atom_site_fract_y
 _atom_site_fract_z
 _atom_site_occupancy
  Ba  Ba0  1  0.75000003  0.64695598  0.17652200  1
  In  In1  1  0.75000003  0.17652200  0.17652200  1
  In  In2  1  0.75000003  0.17652200  0.64695601  1
  In  In3  1  0.25000001  0.35304399  0.82347802  1
  Sn  Sn4  1  0.25000001  0.82347798  0.82347802  1
  Sn  Sn5  1  0.25000001  0.82347798  0.35304401  1
  Au  Au6  1  0.25000001  0.33333332  0.33333334  1
  Sn  Sn7  1  0.75000003  0.66666665  0.66666668  1
