# generated using pymatgen
data_Er2AlGa3SiGe5
_symmetry_space_group_name_H-M   'P 1'
_cell_length_a   5.42670918
_cell_length_b   5.42670870
_cell_length_c   8.63708591
_cell_angle_alpha   90.00000000
_cell_angle_beta   90.00000000
_cell_angle_gamma   120.00000000
_symmetry_Int_Tables_number   1
_chemical_formula_structural   Er2AlGa3SiGe5
_chemical_formula_sum   'Er2 Al1 Ga3 Si1 Ge5'
_cell_volume   220.27790058
_cell_formula_units_Z   1
loop_
 _symmetry_equiv_pos_site_id
 _symmetry_equiv_pos_as_xyz
  1  'x, y, z'
loop_
 _atom_site_type_symbol
 _atom_site_label
 _atom_site_symmetry_multiplicity
 _atom_site_fract_x
 _atom_site_fract_y
 _atom_site_fract_z
 _atom_site_occupancy
  Er  Er0  1  0.66666668  0.33333334  0.56224901  1
  Er  Er1  1  0.33333332  0.66666668  0.43775100  1
  Al  Al2  1  0.33333332  0.66666668  0.06224900  1
  Ga  Ga3  1  0.66666668  0.33333334  0.93775101  1
  Ga  Ga4  1  0.00000000  0.00000000  0.50000000  1
  Ga  Ga5  1  0.00000000  0.00000000  0.00000000  1
  Ge  Ge6  1  0.17302900  0.34605801  0.75000001  1
  Ge  Ge7  1  0.17302898  0.82697201  0.75000001  1
  Ge  Ge8  1  0.65394300  0.82697201  0.75000001  1
  Si  Si9  1  0.82697101  0.65394201  0.25000000  1
  Ge  Ge10  1  0.82697103  0.17302800  0.25000000  1
  Ge  Ge11  1  0.34605701  0.17302800  0.25000000  1
