# generated using pymatgen
data_Y3LuZnAu
_symmetry_space_group_name_H-M   'P 1'
_cell_length_a   3.16965604
_cell_length_b   3.16965556
_cell_length_c   15.34412289
_cell_angle_alpha   90.00000000
_cell_angle_beta   90.00000000
_cell_angle_gamma   120.00000763
_symmetry_Int_Tables_number   1
_chemical_formula_structural   Y3LuZnAu
_chemical_formula_sum   'Y3 Lu1 Zn1 Au1'
_cell_volume   133.50479794
_cell_formula_units_Z   1
loop_
 _symmetry_equiv_pos_site_id
 _symmetry_equiv_pos_as_xyz
  1  'x, y, z'
loop_
 _atom_site_type_symbol
 _atom_site_label
 _atom_site_symmetry_multiplicity
 _atom_site_fract_x
 _atom_site_fract_y
 _atom_site_fract_z
 _atom_site_occupancy
  Y  Y0  1  0.33333336  0.66666666  -0.00000000  1
  Y  Y1  1  0.00000000  0.00000000  0.16400500  1
  Lu  Lu2  1  0.33333336  0.66666666  0.33303400  1
  Y  Y3  1  0.00000000  0.00000000  0.50000000  1
  Zn  Zn4  1  0.33333336  0.66666666  0.66696600  1
  Au  Au5  1  0.00000000  0.00000000  0.83599501  1
