# generated using pymatgen
data_K2ClO3
_symmetry_space_group_name_H-M   'P 1'
_cell_length_a   3.52842903
_cell_length_b   6.66646385
_cell_length_c   9.85696602
_cell_angle_alpha   90.00000000
_cell_angle_beta   90.00000000
_cell_angle_gamma   90.00000000
_symmetry_Int_Tables_number   1
_chemical_formula_structural   K2ClO3
_chemical_formula_sum   'K4 Cl2 O6'
_cell_volume   231.85697993
_cell_formula_units_Z   2
loop_
 _symmetry_equiv_pos_site_id
 _symmetry_equiv_pos_as_xyz
  1  'x, y, z'
loop_
 _atom_site_type_symbol
 _atom_site_label
 _atom_site_symmetry_multiplicity
 _atom_site_fract_x
 _atom_site_fract_y
 _atom_site_fract_z
 _atom_site_occupancy
  K  K0  1  0.25000000  0.04832500  0.68022400  1
  K  K1  1  0.25000000  0.45167501  0.18022400  1
  K  K2  1  0.74999999  0.95167502  0.31977600  1
  K  K3  1  0.74999999  0.54832501  0.81977600  1
  O  O4  1  0.25000000  0.60962601  0.52227400  1
  Cl  Cl5  1  0.25000000  0.89037402  0.02227400  1
  O  O6  1  0.74999999  0.39037401  0.47772600  1
  Cl  Cl7  1  0.74999999  0.10962600  0.97772600  1
  O  O8  1  0.25000000  0.15851500  0.96619900  1
  O  O9  1  0.25000000  0.34148501  0.46619900  1
  O  O10  1  0.74999999  0.84148502  0.03380100  1
  O  O11  1  0.74999999  0.65851501  0.53380100  1
