# generated using pymatgen
data_BaYPbO9
_symmetry_space_group_name_H-M   'P 1'
_cell_length_a   5.77247906
_cell_length_b   5.77247906
_cell_length_c   5.77247906
_cell_angle_alpha   90.00000000
_cell_angle_beta   90.00000000
_cell_angle_gamma   90.00000000
_symmetry_Int_Tables_number   1
_chemical_formula_structural   BaYPbO9
_chemical_formula_sum   'Ba1 Y1 Pb1 O9'
_cell_volume   192.34774442
_cell_formula_units_Z   1
loop_
 _symmetry_equiv_pos_site_id
 _symmetry_equiv_pos_as_xyz
  1  'x, y, z'
loop_
 _atom_site_type_symbol
 _atom_site_label
 _atom_site_symmetry_multiplicity
 _atom_site_fract_x
 _atom_site_fract_y
 _atom_site_fract_z
 _atom_site_occupancy
  Y  Y0  1  0.92937799  0.57062199  0.42937800  1
  Ba  Ba1  1  0.57062199  0.42937800  0.92937799  1
  Pb  Pb2  1  0.42937800  0.92937799  0.57062199  1
  O  O3  1  0.07062200  0.07062200  0.07062200  1
  O  O4  1  0.16920900  0.66920899  0.83079099  1
  O  O5  1  0.83079099  0.16920900  0.66920899  1
  O  O6  1  0.66920899  0.83079099  0.16920900  1
  O  O7  1  0.33079100  0.33079100  0.33079100  1
  O  O8  1  0.15584700  0.84415299  0.34415300  1
  O  O9  1  0.84415299  0.34415300  0.15584700  1
  O  O10  1  0.65584699  0.65584699  0.65584699  1
  O  O11  1  0.34415300  0.15584700  0.84415299  1
