# generated using pymatgen
data_Na2SiNiP2Se4S
_symmetry_space_group_name_H-M   'P 1'
_cell_length_a   6.53624868
_cell_length_b   6.53624868
_cell_length_c   6.62362289
_cell_angle_alpha   95.33335114
_cell_angle_beta   95.33335114
_cell_angle_gamma   96.99982452
_symmetry_Int_Tables_number   1
_chemical_formula_structural   Na2SiNiP2Se4S
_chemical_formula_sum   'Na2 Si1 Ni1 P2 Se4 S1'
_cell_volume   278.09174270
_cell_formula_units_Z   1
loop_
 _symmetry_equiv_pos_site_id
 _symmetry_equiv_pos_as_xyz
  1  'x, y, z'
loop_
 _atom_site_type_symbol
 _atom_site_label
 _atom_site_symmetry_multiplicity
 _atom_site_fract_x
 _atom_site_fract_y
 _atom_site_fract_z
 _atom_site_occupancy
  Na  Na0  1  0.88769600  0.11230400  0.50000005  1
  Na  Na1  1  0.50223803  0.49776200  0.00000005  1
  Ni  Ni2  1  0.94797604  0.65124800  0.91902408  1
  Si  Si3  1  0.34875200  0.05202400  0.08097602  1
  Se  Se4  1  0.01820407  0.98179600  1.00000005  1
  Se  Se5  1  0.46275506  0.81888100  0.21728207  1
  P  P6  1  0.68783304  0.63180800  0.72215706  1
  P  P7  1  0.36819202  0.31216700  0.27784303  1
  Se  Se8  1  0.84794503  0.52631100  0.17025507  1
  Se  Se9  1  0.47368901  0.15205500  0.82974503  1
  S  S10  1  0.18111904  0.53724500  0.78271803  1
