# generated using pymatgen
data_Li(MnCu2)2
_symmetry_space_group_name_H-M   'P 1'
_cell_length_a   4.10278416
_cell_length_b   6.89078712
_cell_length_c   6.95223618
_cell_angle_alpha   61.42477417
_cell_angle_beta   72.83830261
_cell_angle_gamma   72.68045044
_symmetry_Int_Tables_number   1
_chemical_formula_structural   Li(MnCu2)2
_chemical_formula_sum   'Li1 Mn2 Cu4'
_cell_volume   162.02621195
_cell_formula_units_Z   1
loop_
 _symmetry_equiv_pos_site_id
 _symmetry_equiv_pos_as_xyz
  1  'x, y, z'
loop_
 _atom_site_type_symbol
 _atom_site_label
 _atom_site_symmetry_multiplicity
 _atom_site_fract_x
 _atom_site_fract_y
 _atom_site_fract_z
 _atom_site_occupancy
  Mn  Mn0  1  0.00000000  0.00000000  0.00000000  1
  Li  Li1  1  0.36782301  0.29920501  0.96514902  1
  Mn  Mn2  1  0.63217704  0.70079502  0.03485098  1
  Cu  Cu3  1  0.12947701  0.20704501  0.53400101  1
  Cu  Cu4  1  0.87052304  0.79295502  0.46599899  1
  Cu  Cu5  1  0.25329506  0.75609402  0.73731601  1
  Cu  Cu6  1  0.74670499  0.24390601  0.26268400  1
