# generated using pymatgen
data_YInSn3PdAu
_symmetry_space_group_name_H-M   'P 1'
_cell_length_a   4.43404198
_cell_length_b   4.43404198
_cell_length_c   9.68541622
_cell_angle_alpha   90.00000000
_cell_angle_beta   90.00000000
_cell_angle_gamma   90.00000000
_symmetry_Int_Tables_number   1
_chemical_formula_structural   YInSn3PdAu
_chemical_formula_sum   'Y1 In1 Sn3 Pd1 Au1'
_cell_volume   190.42233635
_cell_formula_units_Z   1
loop_
 _symmetry_equiv_pos_site_id
 _symmetry_equiv_pos_as_xyz
  1  'x, y, z'
loop_
 _atom_site_type_symbol
 _atom_site_label
 _atom_site_symmetry_multiplicity
 _atom_site_fract_x
 _atom_site_fract_y
 _atom_site_fract_z
 _atom_site_occupancy
  Y  Y0  1  0.50000000  0.00000000  0.74658098  1
  In  In1  1  0.00000000  0.50000000  0.25341899  1
  Sn  Sn2  1  0.50000000  0.50000000  0.49999999  1
  Sn  Sn3  1  0.50000000  0.50000000  0.00000000  1
  Sn  Sn4  1  0.00000000  0.00000000  0.00000000  1
  Pd  Pd5  1  0.50000000  0.00000000  0.33804299  1
  Au  Au6  1  0.00000000  0.50000000  0.66195698  1
