# generated using pymatgen
data_LaInSnAu
_symmetry_space_group_name_H-M   'P 1'
_cell_length_a   4.37901211
_cell_length_b   4.62078190
_cell_length_c   6.15028191
_cell_angle_alpha   67.93512726
_cell_angle_beta   90.00000000
_cell_angle_gamma   90.00000000
_symmetry_Int_Tables_number   1
_chemical_formula_structural   LaInSnAu
_chemical_formula_sum   'La1 In1 Sn1 Au1'
_cell_volume   115.33297771
_cell_formula_units_Z   1
loop_
 _symmetry_equiv_pos_site_id
 _symmetry_equiv_pos_as_xyz
  1  'x, y, z'
loop_
 _atom_site_type_symbol
 _atom_site_label
 _atom_site_symmetry_multiplicity
 _atom_site_fract_x
 _atom_site_fract_y
 _atom_site_fract_z
 _atom_site_occupancy
  In  In0  1  0.99999998  0.36052801  0.27894399  1
  La  La1  1  0.49999999  0.63736303  0.72527399  1
  Sn  Sn2  1  0.99999998  0.07747200  0.84505601  1
  Au  Au3  1  0.49999999  0.92463604  0.15072797  1
