# generated using pymatgen
data_TiSi2Rh
_symmetry_space_group_name_H-M   'P 1'
_cell_length_a   3.90383601
_cell_length_b   3.90383601
_cell_length_c   4.79435587
_cell_angle_alpha   114.02456665
_cell_angle_beta   114.02456665
_cell_angle_gamma   90.00000000
_symmetry_Int_Tables_number   1
_chemical_formula_structural   TiSi2Rh
_chemical_formula_sum   'Ti1 Si2 Rh1'
_cell_volume   59.73953791
_cell_formula_units_Z   1
loop_
 _symmetry_equiv_pos_site_id
 _symmetry_equiv_pos_as_xyz
  1  'x, y, z'
loop_
 _atom_site_type_symbol
 _atom_site_label
 _atom_site_symmetry_multiplicity
 _atom_site_fract_x
 _atom_site_fract_y
 _atom_site_fract_z
 _atom_site_occupancy
  Ti  Ti0  1  0.75000001  0.25000000  0.50000004  1
  Si  Si1  1  0.25000001  0.75000001  0.50000004  1
  Si  Si2  1  0.50000001  0.50000000  0.00000002  1
  Rh  Rh3  1  0.00000000  0.00000000  0.00000000  1
