# generated using pymatgen
data_Mn4CrFe4GeMoP4
_symmetry_space_group_name_H-M   'P 1'
_cell_length_a   3.70475793
_cell_length_b   7.45217609
_cell_length_c   8.98373032
_cell_angle_alpha   99.91149902
_cell_angle_beta   90.00000000
_cell_angle_gamma   104.39283752
_symmetry_Int_Tables_number   1
_chemical_formula_structural   Mn4CrFe4GeMoP4
_chemical_formula_sum   'Mn4 Cr1 Fe4 Ge1 Mo1 P4'
_cell_volume   236.41914953
_cell_formula_units_Z   1
loop_
 _symmetry_equiv_pos_site_id
 _symmetry_equiv_pos_as_xyz
  1  'x, y, z'
loop_
 _atom_site_type_symbol
 _atom_site_label
 _atom_site_symmetry_multiplicity
 _atom_site_fract_x
 _atom_site_fract_y
 _atom_site_fract_z
 _atom_site_occupancy
  Mn  Mn0  1  0.36662792  0.73325602  0.51037004  1
  Mn  Mn1  1  0.31122493  0.62245002  0.86102504  1
  Mn  Mn2  1  0.63337198  0.26674401  0.48963002  1
  Mn  Mn3  1  0.03291099  0.06582200  0.81413201  1
  Cr  Cr4  1  0.96708890  0.93417802  0.18586804  1
  Fe  Fe5  1  0.68877497  0.37755001  0.13897502  1
  Mo  Mo6  1  0.79804194  0.59608401  0.37331503  1
  Fe  Fe7  1  0.12791797  0.25583601  0.28556701  1
  Fe  Fe8  1  0.52728800  0.05457600  0.65859501  1
  Fe  Fe9  1  0.20195795  0.40391601  0.62668502  1
  P  P10  1  0.17657396  0.35314801  0.97154402  1
  P  P11  1  0.82342594  0.64685202  0.02845603  1
  P  P12  1  0.47271189  0.94542402  0.34140505  1
  Ge  Ge13  1  0.50000001  0.00000000  0.00000000  1
  P  P14  1  0.87208193  0.74416402  0.71443304  1
