# generated using pymatgen
data_LiAlB5N3
_symmetry_space_group_name_H-M   'P 1'
_cell_length_a   3.53527093
_cell_length_b   4.29575682
_cell_length_c   8.84143257
_cell_angle_alpha   90.00000000
_cell_angle_beta   90.00000000
_cell_angle_gamma   90.00000000
_symmetry_Int_Tables_number   1
_chemical_formula_structural   LiAlB5N3
_chemical_formula_sum   'Li1 Al1 B5 N3'
_cell_volume   134.27186746
_cell_formula_units_Z   1
loop_
 _symmetry_equiv_pos_site_id
 _symmetry_equiv_pos_as_xyz
  1  'x, y, z'
loop_
 _atom_site_type_symbol
 _atom_site_label
 _atom_site_symmetry_multiplicity
 _atom_site_fract_x
 _atom_site_fract_y
 _atom_site_fract_z
 _atom_site_occupancy
  Li  Li0  1  0.50000001  0.50000002  0.81560704  1
  Al  Al1  1  0.50000001  0.00000000  0.19103801  1
  B  B2  1  0.00000000  0.00000000  0.61205103  1
  B  B3  1  0.00000000  0.50000002  0.40453402  1
  B  B4  1  0.00000000  0.00000000  0.39092302  1
  B  B5  1  0.50000001  0.50000002  0.31468102  1
  B  B6  1  0.00000000  0.64312703  0.02431800  1
  N  N7  1  0.00000000  0.50000002  0.62417403  1
  N  N8  1  0.50000001  0.00000000  0.70308703  1
  N  N9  1  0.00000000  0.35687302  0.02431800  1
