# generated using pymatgen
data_Li3MgCu3
_symmetry_space_group_name_H-M   'P 1'
_cell_length_a   3.55193400
_cell_length_b   6.17121410
_cell_length_c   7.83149624
_cell_angle_alpha   110.11721802
_cell_angle_beta   90.00000000
_cell_angle_gamma   90.00000000
_symmetry_Int_Tables_number   1
_chemical_formula_structural   Li3MgCu3
_chemical_formula_sum   'Li3 Mg1 Cu3'
_cell_volume   161.19131776
_cell_formula_units_Z   1
loop_
 _symmetry_equiv_pos_site_id
 _symmetry_equiv_pos_as_xyz
  1  'x, y, z'
loop_
 _atom_site_type_symbol
 _atom_site_label
 _atom_site_symmetry_multiplicity
 _atom_site_fract_x
 _atom_site_fract_y
 _atom_site_fract_z
 _atom_site_occupancy
  Li  Li0  1  0.50000000  0.33828299  0.50777400  1
  Li  Li1  1  1.00000000  0.02874600  0.99599102  1
  Li  Li2  1  0.50000000  0.46848798  0.00309598  1
  Mg  Mg3  1  1.00000000  0.42704299  0.21999099  1
  Cu  Cu4  1  0.50000000  0.90914797  0.18076497  1
  Cu  Cu5  1  1.00000000  0.58987598  0.81771099  1
  Cu  Cu6  1  0.50000000  0.07331600  0.77937101  1
