# generated using pymatgen
data_CuHgAu
_symmetry_space_group_name_H-M   'P 1'
_cell_length_a   4.25222921
_cell_length_b   4.27026606
_cell_length_c   4.27026510
_cell_angle_alpha   120.00000763
_cell_angle_beta   90.00000000
_cell_angle_gamma   90.00000000
_symmetry_Int_Tables_number   1
_chemical_formula_structural   CuHgAu
_chemical_formula_sum   'Cu1 Hg1 Au1'
_cell_volume   67.15170388
_cell_formula_units_Z   1
loop_
 _symmetry_equiv_pos_site_id
 _symmetry_equiv_pos_as_xyz
  1  'x, y, z'
loop_
 _atom_site_type_symbol
 _atom_site_label
 _atom_site_symmetry_multiplicity
 _atom_site_fract_x
 _atom_site_fract_y
 _atom_site_fract_z
 _atom_site_occupancy
  Hg  Hg0  1  0.00000000  0.00000000  0.00000000  1
  Cu  Cu1  1  0.49999997  0.33333334  0.66666671  1
  Au  Au2  1  0.49999997  0.66666667  0.33333337  1
