# generated using pymatgen
data_InAu2
_symmetry_space_group_name_H-M   'P 1'
_cell_length_a   4.99253416
_cell_length_b   5.39310598
_cell_length_c   5.39310694
_cell_angle_alpha   60.00000763
_cell_angle_beta   90.00000000
_cell_angle_gamma   90.00000000
_symmetry_Int_Tables_number   1
_chemical_formula_structural   InAu2
_chemical_formula_sum   'In2 Au4'
_cell_volume   125.75628435
_cell_formula_units_Z   2
loop_
 _symmetry_equiv_pos_site_id
 _symmetry_equiv_pos_as_xyz
  1  'x, y, z'
loop_
 _atom_site_type_symbol
 _atom_site_label
 _atom_site_symmetry_multiplicity
 _atom_site_fract_x
 _atom_site_fract_y
 _atom_site_fract_z
 _atom_site_occupancy
  In  In0  1  0.00000000  0.66666666  0.66666670  1
  In  In1  1  0.49999998  0.00000000  0.67723301  1
  Au  Au2  1  0.49999998  0.32276700  0.00000001  1
  Au  Au3  1  0.49999998  0.67723299  0.32276702  1
  Au  Au4  1  0.00000000  0.33333333  0.33333335  1
  Au  Au5  1  0.00000000  0.00000000  0.00000000  1
