# generated using pymatgen
data_Na2Li4CaCuO8
_symmetry_space_group_name_H-M   'P 1'
_cell_length_a   3.42396092
_cell_length_b   3.94792891
_cell_length_c   15.68480873
_cell_angle_alpha   90.00000000
_cell_angle_beta   90.00000000
_cell_angle_gamma   90.00000000
_symmetry_Int_Tables_number   1
_chemical_formula_structural   Na2Li4CaCuO8
_chemical_formula_sum   'Na2 Li4 Ca1 Cu1 O8'
_cell_volume   212.02025377
_cell_formula_units_Z   1
loop_
 _symmetry_equiv_pos_site_id
 _symmetry_equiv_pos_as_xyz
  1  'x, y, z'
loop_
 _atom_site_type_symbol
 _atom_site_label
 _atom_site_symmetry_multiplicity
 _atom_site_fract_x
 _atom_site_fract_y
 _atom_site_fract_z
 _atom_site_occupancy
  Li  Li0  1  0.50000001  0.50000001  0.24827300  1
  Na  Na1  1  0.50000001  0.50000001  0.50000001  1
  Ca  Ca2  1  0.50000001  0.50000001  0.75172701  1
  Na  Na3  1  0.50000001  0.50000001  0.00000000  1
  Li  Li4  1  0.00000000  0.00000000  0.87723002  1
  Li  Li5  1  0.00000000  0.00000000  0.12277000  1
  Cu  Cu6  1  0.00000000  0.00000000  0.37446701  1
  Li  Li7  1  0.00000000  0.00000000  0.62553301  1
  O  O8  1  -0.00000000  0.50000001  0.88222602  1
  O  O9  1  -0.00000000  0.50000001  0.11777400  1
  O  O10  1  -0.00000000  0.50000001  0.37419401  1
  O  O11  1  -0.00000000  0.50000001  0.62580601  1
  O  O12  1  0.00000000  0.00000000  0.00000000  1
  O  O13  1  0.00000000  0.00000000  0.24829900  1
  O  O14  1  0.00000000  0.00000000  0.50000001  1
  O  O15  1  0.00000000  0.00000000  0.75170101  1
