# generated using pymatgen
data_K3Na4LiO8
_symmetry_space_group_name_H-M   'P 1'
_cell_length_a   6.81796598
_cell_length_b   7.32636309
_cell_length_c   8.27594471
_cell_angle_alpha   90.00000000
_cell_angle_beta   114.32517242
_cell_angle_gamma   90.00000000
_symmetry_Int_Tables_number   1
_chemical_formula_structural   K3Na4LiO8
_chemical_formula_sum   'K3 Na4 Li1 O8'
_cell_volume   376.69099017
_cell_formula_units_Z   1
loop_
 _symmetry_equiv_pos_site_id
 _symmetry_equiv_pos_as_xyz
  1  'x, y, z'
loop_
 _atom_site_type_symbol
 _atom_site_label
 _atom_site_symmetry_multiplicity
 _atom_site_fract_x
 _atom_site_fract_y
 _atom_site_fract_z
 _atom_site_occupancy
  K  K0  1  0.43578901  0.25000000  0.87157798  1
  K  K1  1  0.24356501  0.74999999  0.48712999  1
  K  K2  1  0.75643502  0.25000000  0.51287002  1
  Na  Na3  1  0.56421102  0.74999999  0.12842202  1
  Na  Na4  1  0.10940400  0.25000000  0.21880800  1
  Na  Na5  1  0.89059603  0.74999999  0.78119201  1
  Na  Na6  1  0.23018101  0.25000000  0.46036199  1
  O  O7  1  0.76981902  0.74999999  0.53963802  1
  Li  Li8  1  0.33208101  0.04983000  0.21773901  1
  O  O9  1  0.66791902  0.95016999  0.78226100  1
  O  O10  1  0.88565803  0.45016999  0.21773904  1
  O  O11  1  0.11434200  0.95016999  0.78226097  1
  O  O12  1  0.66791902  0.54982999  0.78226100  1
  O  O13  1  0.88565803  0.04983000  0.21773904  1
  O  O14  1  0.11434200  0.54982999  0.78226097  1
  O  O15  1  0.33208101  0.45016999  0.21773901  1
