# generated using pymatgen
data_Na2Cu6AsS6ClO2
_symmetry_space_group_name_H-M   'P 1'
_cell_length_a   6.26642799
_cell_length_b   6.26642704
_cell_length_c   11.40059471
_cell_angle_alpha   90.00000000
_cell_angle_beta   90.00000000
_cell_angle_gamma   120.00000763
_symmetry_Int_Tables_number   1
_chemical_formula_structural   Na2Cu6AsS6ClO2
_chemical_formula_sum   'Na2 Cu6 As1 S6 Cl1 O2'
_cell_volume   387.70209375
_cell_formula_units_Z   1
loop_
 _symmetry_equiv_pos_site_id
 _symmetry_equiv_pos_as_xyz
  1  'x, y, z'
loop_
 _atom_site_type_symbol
 _atom_site_label
 _atom_site_symmetry_multiplicity
 _atom_site_fract_x
 _atom_site_fract_y
 _atom_site_fract_z
 _atom_site_occupancy
  Na  Na0  1  0.33333338  0.66666672  0.29392801  1
  Na  Na1  1  0.62341205  0.62341205  0.20309701  1
  Cu  Cu2  1  0.37658808  1.00000007  0.79690302  1
  Cu  Cu3  1  0.00000003  0.37658803  0.79690302  1
  Cu  Cu4  1  0.00000003  0.37658803  0.20309701  1
  Cu  Cu5  1  0.37658808  1.00000007  0.20309701  1
  Cu  Cu6  1  0.62341205  0.62341205  0.79690302  1
  As  As7  1  0.66666669  0.33333336  0.70607202  1
  Cl  Cl8  1  0.66666669  0.33333336  0.29392801  1
  Cu  Cu9  1  0.33333338  0.66666672  0.70607202  1
  S  S10  1  0.66666669  0.33333336  0.50000001  1
  S  S11  1  0.00000000  0.00000000  0.76921902  1
  O  O12  1  0.33333338  0.66666672  0.50000001  1
  S  S13  1  0.00000000  0.00000000  0.23078101  1
  S  S14  1  0.00000003  0.45448803  1.00000003  1
  S  S15  1  0.45448800  0.00000000  0.00000000  1
  S  S16  1  0.54551204  0.54551204  -0.00000000  1
  O  O17  1  0.00000000  0.00000000  0.50000001  1
