# generated using pymatgen
data_Y2AlSi3NiGe
_symmetry_space_group_name_H-M   'P 1'
_cell_length_a   4.18221903
_cell_length_b   4.36506987
_cell_length_c   8.78642750
_cell_angle_alpha   75.61724091
_cell_angle_beta   90.00000000
_cell_angle_gamma   90.00000000
_symmetry_Int_Tables_number   1
_chemical_formula_structural   Y2AlSi3NiGe
_chemical_formula_sum   'Y2 Al1 Si3 Ni1 Ge1'
_cell_volume   155.37485996
_cell_formula_units_Z   1
loop_
 _symmetry_equiv_pos_site_id
 _symmetry_equiv_pos_as_xyz
  1  'x, y, z'
loop_
 _atom_site_type_symbol
 _atom_site_label
 _atom_site_symmetry_multiplicity
 _atom_site_fract_x
 _atom_site_fract_y
 _atom_site_fract_z
 _atom_site_occupancy
  Y  Y0  1  0.74999999  0.60546901  0.78906203  1
  Y  Y1  1  0.25000000  0.39453101  0.21093801  1
  Al  Al2  1  0.74999999  0.25210601  0.49578802  1
  Si  Si3  1  0.25000000  0.74789402  0.50421202  1
  Ge  Ge4  1  0.74999999  0.96272002  0.07456002  1
  Si  Si5  1  0.25000000  0.03728000  0.92544002  1
  Ni  Ni6  1  0.74999999  0.82085302  0.35829402  1
  Si  Si7  1  0.25000000  0.17914700  0.64170602  1
