# generated using pymatgen
data_Mn4GaFe13Si2
_symmetry_space_group_name_H-M   'P 1'
_cell_length_a   3.61717200
_cell_length_b   3.61717200
_cell_length_c   17.89136314
_cell_angle_alpha   90.00000000
_cell_angle_beta   90.00000000
_cell_angle_gamma   90.00000000
_symmetry_Int_Tables_number   1
_chemical_formula_structural   Mn4GaFe13Si2
_chemical_formula_sum   'Mn4 Ga1 Fe13 Si2'
_cell_volume   234.08940198
_cell_formula_units_Z   1
loop_
 _symmetry_equiv_pos_site_id
 _symmetry_equiv_pos_as_xyz
  1  'x, y, z'
loop_
 _atom_site_type_symbol
 _atom_site_label
 _atom_site_symmetry_multiplicity
 _atom_site_fract_x
 _atom_site_fract_y
 _atom_site_fract_z
 _atom_site_occupancy
  Mn  Mn0  1  0.00000000  0.00000000  0.20367201  1
  Mn  Mn1  1  0.00000000  0.00000000  0.39997302  1
  Mn  Mn2  1  0.00000000  0.00000000  0.60002703  1
  Mn  Mn3  1  0.00000000  0.00000000  0.79632804  1
  Fe  Fe4  1  0.50000000  0.50000000  0.00000000  1
  Fe  Fe5  1  0.50000000  0.50000000  0.20295001  1
  Fe  Fe6  1  0.50000000  0.50000000  0.40024502  1
  Fe  Fe7  1  0.50000000  0.50000000  0.59975503  1
  Fe  Fe8  1  0.50000000  0.50000000  0.79705004  1
  Ga  Ga9  1  0.50000000  0.00000000  0.10689101  1
  Fe  Fe10  1  0.50000000  0.00000000  0.30117501  1
  Fe  Fe11  1  0.50000000  0.00000000  0.50000002  1
  Fe  Fe12  1  0.50000000  0.00000000  0.69882503  1
  Fe  Fe13  1  0.50000000  0.00000000  0.89310904  1
  Si  Si14  1  0.00000000  0.50000000  0.10689101  1
  Si  Si15  1  0.00000000  0.50000000  0.30117501  1
  Fe  Fe16  1  0.00000000  0.50000000  0.50000002  1
  Fe  Fe17  1  0.00000000  0.50000000  0.69882503  1
  Fe  Fe18  1  0.00000000  0.50000000  0.89310904  1
  Fe  Fe19  1  0.00000000  0.00000000  0.00000000  1
