# generated using pymatgen
data_LiFe3NiP
_symmetry_space_group_name_H-M   'P 1'
_cell_length_a   3.66809201
_cell_length_b   4.38687181
_cell_length_c   6.27530718
_cell_angle_alpha   110.45883942
_cell_angle_beta   106.99354553
_cell_angle_gamma   90.00000000
_symmetry_Int_Tables_number   1
_chemical_formula_structural   LiFe3NiP
_chemical_formula_sum   'Li1 Fe3 Ni1 P1'
_cell_volume   89.88856287
_cell_formula_units_Z   1
loop_
 _symmetry_equiv_pos_site_id
 _symmetry_equiv_pos_as_xyz
  1  'x, y, z'
loop_
 _atom_site_type_symbol
 _atom_site_label
 _atom_site_symmetry_multiplicity
 _atom_site_fract_x
 _atom_site_fract_y
 _atom_site_fract_z
 _atom_site_occupancy
  Li  Li0  1  1.00000000  0.50000001  0.99999996  1
  Fe  Fe1  1  0.68865000  0.18865000  0.37729999  1
  Ni  Ni2  1  0.31134999  0.81135002  0.62269995  1
  Fe  Fe3  1  0.50000000  0.00000000  0.99999998  1
  P  P4  1  0.70569599  0.70569601  0.41139196  1
  Fe  Fe5  1  0.29430400  0.29430401  0.58860797  1
