# generated using pymatgen
data_CeDyYIn3Sn2(PdAu)2
_symmetry_space_group_name_H-M   'P 1'
_cell_length_a   4.56764221
_cell_length_b   7.31145000
_cell_length_c   7.89180517
_cell_angle_alpha   90.00000000
_cell_angle_beta   90.00000000
_cell_angle_gamma   90.00000000
_symmetry_Int_Tables_number   1
_chemical_formula_structural   CeDyYIn3Sn2(PdAu)2
_chemical_formula_sum   'Ce1 Y1 Dy1 In3 Sn2 Pd2 Au2'
_cell_volume   263.55541741
_cell_formula_units_Z   1
loop_
 _symmetry_equiv_pos_site_id
 _symmetry_equiv_pos_as_xyz
  1  'x, y, z'
loop_
 _atom_site_type_symbol
 _atom_site_label
 _atom_site_symmetry_multiplicity
 _atom_site_fract_x
 _atom_site_fract_y
 _atom_site_fract_z
 _atom_site_occupancy
  Y  Y0  1  0.24999999  0.03415700  0.68070599  1
  Ce  Ce1  1  0.24999999  0.53415700  0.81929398  1
  Dy  Dy2  1  0.74999997  0.96584300  0.31929399  1
  In  In3  1  0.74999997  0.46584300  0.18070600  1
  In  In4  1  0.24999999  0.14351000  0.06852300  1
  In  In5  1  0.24999999  0.64351000  0.43147699  1
  Sn  Sn6  1  0.74999997  0.85649000  0.93147698  1
  Sn  Sn7  1  0.74999997  0.35649000  0.56852299  1
  Pd  Pd8  1  0.24999999  0.28643600  0.38946699  1
  Pd  Pd9  1  0.24999999  0.78643600  0.11053300  1
  Au  Au10  1  0.74999997  0.71356400  0.61053299  1
  Au  Au11  1  0.74999997  0.21356400  0.88946698  1
