# generated using pymatgen
data_MnGaPd10
_symmetry_space_group_name_H-M   'P 1'
_cell_length_a   4.43193817
_cell_length_b   5.22245502
_cell_length_c   9.13592243
_cell_angle_alpha   90.00000000
_cell_angle_beta   90.00000000
_cell_angle_gamma   90.00000000
_symmetry_Int_Tables_number   1
_chemical_formula_structural   MnGaPd10
_chemical_formula_sum   'Mn1 Ga1 Pd10'
_cell_volume   211.45638589
_cell_formula_units_Z   1
loop_
 _symmetry_equiv_pos_site_id
 _symmetry_equiv_pos_as_xyz
  1  'x, y, z'
loop_
 _atom_site_type_symbol
 _atom_site_label
 _atom_site_symmetry_multiplicity
 _atom_site_fract_x
 _atom_site_fract_y
 _atom_site_fract_z
 _atom_site_occupancy
  Mn  Mn0  1  0.49999998  0.50000000  0.33290598  1
  Ga  Ga1  1  0.49999998  0.00000000  0.83509196  1
  Pd  Pd2  1  0.49999998  0.00000000  0.16606499  1
  Pd  Pd3  1  0.00000000  0.50000000  0.50088398  1
  Pd  Pd4  1  0.00000000  0.00000000  0.00024900  1
  Pd  Pd5  1  -0.00000000  0.74980500  0.25034199  1
  Pd  Pd6  1  -0.00000000  0.25161100  0.74910896  1
  Pd  Pd7  1  0.00000000  0.25019500  0.25034199  1
  Pd  Pd8  1  -0.00000000  0.74838900  0.74910896  1
  Pd  Pd9  1  0.49999998  0.50000000  0.66636997  1
  Pd  Pd10  1  0.00000000  0.50000000  0.00170500  1
  Pd  Pd11  1  0.00000000  0.00000000  0.49787498  1
