# generated using pymatgen
data_Li2AgHg
_symmetry_space_group_name_H-M   'P 1'
_cell_length_a   4.54584599
_cell_length_b   5.16777229
_cell_length_c   4.54584599
_cell_angle_alpha   63.90719223
_cell_angle_beta   90.00000000
_cell_angle_gamma   116.09281158
_symmetry_Int_Tables_number   1
_chemical_formula_structural   Li2AgHg
_chemical_formula_sum   'Li2 Ag1 Hg1'
_cell_volume   83.61811231
_cell_formula_units_Z   1
loop_
 _symmetry_equiv_pos_site_id
 _symmetry_equiv_pos_as_xyz
  1  'x, y, z'
loop_
 _atom_site_type_symbol
 _atom_site_label
 _atom_site_symmetry_multiplicity
 _atom_site_fract_x
 _atom_site_fract_y
 _atom_site_fract_z
 _atom_site_occupancy
  Li  Li0  1  0.00000000  0.00000000  0.00000000  1
  Li  Li1  1  0.75000004  0.50000004  0.74999999  1
  Hg  Hg2  1  0.25000004  0.50000004  0.24999999  1
  Ag  Ag3  1  0.50000000  0.00000000  0.50000000  1
