# generated using pymatgen
data_Li2Mg
_symmetry_space_group_name_H-M   'P 1'
_cell_length_a   5.20375729
_cell_length_b   5.20375729
_cell_length_c   5.73343086
_cell_angle_alpha   63.01171494
_cell_angle_beta   63.01171494
_cell_angle_gamma   60.00001144
_symmetry_Int_Tables_number   1
_chemical_formula_structural   Li2Mg
_chemical_formula_sum   'Li4 Mg2'
_cell_volume   114.51735046
_cell_formula_units_Z   2
loop_
 _symmetry_equiv_pos_site_id
 _symmetry_equiv_pos_as_xyz
  1  'x, y, z'
loop_
 _atom_site_type_symbol
 _atom_site_label
 _atom_site_symmetry_multiplicity
 _atom_site_fract_x
 _atom_site_fract_y
 _atom_site_fract_z
 _atom_site_occupancy
  Li  Li0  1  0.00000000  0.00000000  0.00000000  1
  Li  Li1  1  0.67004498  0.67004498  0.98986497  1
  Li  Li2  1  0.49999998  0.17246799  0.49999998  1
  Li  Li3  1  0.82753197  0.49999998  0.49999999  1
  Mg  Mg4  1  0.17246799  0.82753197  0.49999999  1
  Mg  Mg5  1  0.32995499  0.32995499  0.01013500  1
