# generated using pymatgen
data_ErAl2Fe9Si8
_symmetry_space_group_name_H-M   'P 1'
_cell_length_a   3.05941010
_cell_length_b   9.35977364
_cell_length_c   9.35977364
_cell_angle_alpha   90.00000000
_cell_angle_beta   90.00000000
_cell_angle_gamma   90.00000000
_symmetry_Int_Tables_number   1
_chemical_formula_structural   ErAl2Fe9Si8
_chemical_formula_sum   'Er1 Al2 Fe9 Si8'
_cell_volume   268.02073047
_cell_formula_units_Z   1
loop_
 _symmetry_equiv_pos_site_id
 _symmetry_equiv_pos_as_xyz
  1  'x, y, z'
loop_
 _atom_site_type_symbol
 _atom_site_label
 _atom_site_symmetry_multiplicity
 _atom_site_fract_x
 _atom_site_fract_y
 _atom_site_fract_z
 _atom_site_occupancy
  Er  Er0  1  0.00000000  0.67568203  0.17568201  1
  Fe  Fe1  1  0.99999997  0.32431801  0.82431803  1
  Al  Al2  1  0.00000000  0.17568201  0.32431801  1
  Al  Al3  1  0.00000000  0.82431803  0.67568203  1
  Fe  Fe4  1  0.00000000  0.00000000  0.00000000  1
  Fe  Fe5  1  0.00000000  0.50000002  0.50000002  1
  Fe  Fe6  1  0.00000000  0.12653900  0.62653902  1
  Si  Si7  1  0.00000000  0.87346103  0.37346101  1
  Si  Si8  1  0.00000000  0.62653902  0.87346103  1
  Si  Si9  1  0.00000000  0.37346101  0.12653900  1
  Fe  Fe10  1  0.49999998  0.21499901  0.07067800  1
  Si  Si11  1  0.49999998  0.78500103  0.92932204  1
  Fe  Fe12  1  0.49999998  0.07067800  0.78500103  1
  Si  Si13  1  0.49999998  0.71499903  0.42932202  1
  Si  Si14  1  0.49999998  0.92932204  0.21499901  1
  Fe  Fe15  1  0.49999998  0.28500101  0.57067802  1
  Fe  Fe16  1  0.49999998  0.57067802  0.71499903  1
  Si  Si17  1  0.49999998  0.42932202  0.28500101  1
  Si  Si18  1  0.49999998  0.50000002  0.00000000  1
  Fe  Fe19  1  0.49999998  0.00000000  0.50000002  1
