# generated using pymatgen
data_NaCuO3
_symmetry_space_group_name_H-M   'P 1'
_cell_length_a   6.29992104
_cell_length_b   7.36266470
_cell_length_c   7.36266470
_cell_angle_alpha   81.47953796
_cell_angle_beta   73.36103058
_cell_angle_gamma   73.36103058
_symmetry_Int_Tables_number   1
_chemical_formula_structural   NaCuO3
_chemical_formula_sum   'Na4 Cu4 O12'
_cell_volume   312.69508628
_cell_formula_units_Z   4
loop_
 _symmetry_equiv_pos_site_id
 _symmetry_equiv_pos_as_xyz
  1  'x, y, z'
loop_
 _atom_site_type_symbol
 _atom_site_label
 _atom_site_symmetry_multiplicity
 _atom_site_fract_x
 _atom_site_fract_y
 _atom_site_fract_z
 _atom_site_occupancy
  Na  Na0  1  0.25000000  0.91209498  0.08790501  1
  Na  Na1  1  0.75000002  0.70682999  0.29317000  1
  Na  Na2  1  0.75000003  0.08790500  0.91209498  1
  Na  Na3  1  0.25000001  0.29316999  0.70682999  1
  Cu  Cu4  1  0.22608700  0.38014499  0.20032900  1
  Cu  Cu5  1  0.77391302  0.61985499  0.79967099  1
  Cu  Cu6  1  0.72608702  0.20032900  0.38014499  1
  Cu  Cu7  1  0.27391300  0.79967099  0.61985500  1
  O  O8  1  0.15453499  0.99945198  0.78042300  1
  O  O9  1  0.56976701  0.65517499  0.63394799  1
  O  O10  1  0.43023301  0.34482499  0.36605200  1
  O  O11  1  0.33874900  0.88613898  0.37629801  1
  O  O12  1  0.34546501  0.21957700  0.00054800  1
  O  O13  1  0.84546503  0.00054800  0.21957699  1
  O  O14  1  0.83874903  0.37629799  0.88613898  1
  O  O15  1  0.16125100  0.62370199  0.11386101  1
  O  O16  1  0.65453501  0.78042299  0.99945199  1
  O  O17  1  0.06976699  0.63394799  0.65517500  1
  O  O18  1  0.93023303  0.36605199  0.34482499  1
  O  O19  1  0.66125102  0.11386100  0.62370198  1
