# generated using pymatgen
data_ErZrIn4SnGePd5Au7
_symmetry_space_group_name_H-M   'P 1'
_cell_length_a   6.76534986
_cell_length_b   7.54526281
_cell_length_c   7.54526281
_cell_angle_alpha   90.00000000
_cell_angle_beta   90.00000000
_cell_angle_gamma   90.00000000
_symmetry_Int_Tables_number   1
_chemical_formula_structural   ErZrIn4SnGePd5Au7
_chemical_formula_sum   'Er1 Zr1 In4 Sn1 Ge1 Pd5 Au7'
_cell_volume   385.15807177
_cell_formula_units_Z   1
loop_
 _symmetry_equiv_pos_site_id
 _symmetry_equiv_pos_as_xyz
  1  'x, y, z'
loop_
 _atom_site_type_symbol
 _atom_site_label
 _atom_site_symmetry_multiplicity
 _atom_site_fract_x
 _atom_site_fract_y
 _atom_site_fract_z
 _atom_site_occupancy
  Er  Er0  1  0.00000000  0.15400300  0.15400300  1
  Zr  Zr1  1  0.00000000  0.84599702  0.84599702  1
  In  In2  1  0.50000001  0.65400302  0.34599701  1
  In  In3  1  0.50000001  0.34599701  0.65400302  1
  In  In4  1  -0.00000000  0.68144702  0.31855301  1
  In  In5  1  -0.00000000  0.31855301  0.68144702  1
  Ge  Ge6  1  0.50000001  0.81855302  0.81855302  1
  Sn  Sn7  1  0.50000001  0.18144700  0.18144700  1
  Au  Au8  1  0.25000000  0.50000001  0.00000000  1
  Au  Au9  1  0.75000001  0.50000001  0.00000000  1
  Au  Au10  1  0.25000000  0.00000000  0.50000001  1
  Au  Au11  1  0.75000001  0.00000000  0.50000001  1
  Au  Au12  1  0.22280100  0.37041801  0.37041801  1
  Pd  Pd13  1  0.77719902  0.62958202  0.62958202  1
  Pd  Pd14  1  0.22280100  0.62958202  0.62958202  1
  Pd  Pd15  1  0.72280101  0.87041802  0.12958200  1
  Au  Au16  1  0.27719901  0.87041802  0.12958200  1
  Pd  Pd17  1  0.77719902  0.37041801  0.37041801  1
  Au  Au18  1  0.27719901  0.12958200  0.87041802  1
  Pd  Pd19  1  0.72280101  0.12958200  0.87041802  1
