# generated using pymatgen
data_CaLa2Y4Ni2Ru3CN7
_symmetry_space_group_name_H-M   'P 1'
_cell_length_a   5.99795818
_cell_length_b   6.94232798
_cell_length_c   7.48384047
_cell_angle_alpha   117.59897614
_cell_angle_beta   90.00000000
_cell_angle_gamma   90.00000000
_symmetry_Int_Tables_number   1
_chemical_formula_structural   CaLa2Y4Ni2Ru3CN7
_chemical_formula_sum   'Ca1 La2 Y4 Ni2 Ru3 C1 N7'
_cell_volume   276.16627281
_cell_formula_units_Z   1
loop_
 _symmetry_equiv_pos_site_id
 _symmetry_equiv_pos_as_xyz
  1  'x, y, z'
loop_
 _atom_site_type_symbol
 _atom_site_label
 _atom_site_symmetry_multiplicity
 _atom_site_fract_x
 _atom_site_fract_y
 _atom_site_fract_z
 _atom_site_occupancy
  Y  Y0  1  0.49460498  0.25917800  0.00058700  1
  La  La1  1  0.00539500  0.25917800  0.50058699  1
  La  La2  1  0.99460497  0.74082200  0.49941299  1
  Ca  Ca3  1  0.50539498  0.74082200  0.99941298  1
  Y  Y4  1  0.64168298  0.06690600  0.63851798  1
  Y  Y5  1  0.85831697  0.06690600  0.13851800  1
  Y  Y6  1  0.14352100  0.43270700  0.86311098  1
  Ru  Ru7  1  0.35647899  0.43270700  0.36311099  1
  Ni  Ni8  1  0.64352098  0.56729300  0.63688898  1
  Ru  Ru9  1  0.85647897  0.56729300  0.13688900  1
  Ru  Ru10  1  0.14168300  0.93309400  0.86148198  1
  Ni  Ni11  1  0.35831699  0.93309400  0.36148199  1
  N  N12  1  0.27116699  0.09512200  0.68740998  1
  N  N13  1  0.22883299  0.09512200  0.18741000  1
  N  N14  1  0.77285198  0.40285900  0.80976098  1
  N  N15  1  0.72714798  0.40285900  0.30976099  1
  N  N16  1  0.27285199  0.59714100  0.69023898  1
  N  N17  1  0.22714799  0.59714100  0.19023900  1
  N  N18  1  0.77116698  0.90487800  0.81258998  1
  C  C19  1  0.72883298  0.90487800  0.31258999  1
