# generated using pymatgen
data_Mn5Fe4Si3
_symmetry_space_group_name_H-M   'P 1'
_cell_length_a   4.08342886
_cell_length_b   5.55027199
_cell_length_c   7.68790722
_cell_angle_alpha   90.00000000
_cell_angle_beta   90.00000000
_cell_angle_gamma   90.00000000
_symmetry_Int_Tables_number   1
_chemical_formula_structural   Mn5Fe4Si3
_chemical_formula_sum   'Mn5 Fe4 Si3'
_cell_volume   174.23981178
_cell_formula_units_Z   1
loop_
 _symmetry_equiv_pos_site_id
 _symmetry_equiv_pos_as_xyz
  1  'x, y, z'
loop_
 _atom_site_type_symbol
 _atom_site_label
 _atom_site_symmetry_multiplicity
 _atom_site_fract_x
 _atom_site_fract_y
 _atom_site_fract_z
 _atom_site_occupancy
  Mn  Mn0  1  -0.00000000  0.71553500  0.63757998  1
  Mn  Mn1  1  -0.00000000  0.21553500  0.36241999  1
  Mn  Mn2  1  0.50000002  0.29379500  0.84478598  1
  Mn  Mn3  1  0.50000002  0.79379500  0.15521400  1
  Mn  Mn4  1  0.50000002  0.46272900  0.54094398  1
  Fe  Fe5  1  0.50000002  0.96272900  0.45905599  1
  Fe  Fe6  1  -0.00000000  0.52263000  0.94812697  1
  Fe  Fe7  1  -0.00000000  0.02263000  0.05187300  1
  Si  Si8  1  0.50000002  0.34318500  0.17048300  1
  Fe  Fe9  1  0.50000002  0.84318500  0.82951698  1
  Si  Si10  1  -0.00000000  0.66212600  0.31052799  1
  Si  Si11  1  -0.00000000  0.16212600  0.68947198  1
