# generated using pymatgen
data_Y2Er2AlGaSi6
_symmetry_space_group_name_H-M   'P 1'
_cell_length_a   4.08977795
_cell_length_b   6.47687387
_cell_length_c   7.08698416
_cell_angle_alpha   90.00000000
_cell_angle_beta   90.00000000
_cell_angle_gamma   90.00000000
_symmetry_Int_Tables_number   1
_chemical_formula_structural   Y2Er2AlGaSi6
_chemical_formula_sum   'Y2 Er2 Al1 Ga1 Si6'
_cell_volume   187.72695280
_cell_formula_units_Z   1
loop_
 _symmetry_equiv_pos_site_id
 _symmetry_equiv_pos_as_xyz
  1  'x, y, z'
loop_
 _atom_site_type_symbol
 _atom_site_label
 _atom_site_symmetry_multiplicity
 _atom_site_fract_x
 _atom_site_fract_y
 _atom_site_fract_z
 _atom_site_occupancy
  Er  Er0  1  0.25000000  0.99514002  0.29293199  1
  Er  Er1  1  0.25000000  0.49514001  0.20706800  1
  Y  Y2  1  0.75000001  0.00486000  0.70706798  1
  Y  Y3  1  0.75000001  0.50486001  0.79293198  1
  Al  Al4  1  0.25000000  0.18688900  0.92172798  1
  Si  Si5  1  0.25000000  0.68688901  0.57827199  1
  Si  Si6  1  0.75000001  0.81311102  0.07827200  1
  Ga  Ga7  1  0.75000001  0.31311101  0.42172799  1
  Si  Si8  1  0.25000000  0.29401301  0.59394799  1
  Si  Si9  1  0.25000000  0.79401302  0.90605198  1
  Si  Si10  1  0.75000001  0.70598701  0.40605199  1
  Si  Si11  1  0.75000001  0.20598700  0.09394800  1
