# generated using pymatgen
data_ScCdInTeSe4
_symmetry_space_group_name_H-M   'P 1'
_cell_length_a   5.67613983
_cell_length_b   5.67613983
_cell_length_c   7.42504406
_cell_angle_alpha   112.47184753
_cell_angle_beta   112.47184753
_cell_angle_gamma   90.00000000
_symmetry_Int_Tables_number   1
_chemical_formula_structural   ScCdInTeSe4
_chemical_formula_sum   'Sc1 Cd1 In1 Te1 Se4'
_cell_volume   201.26158570
_cell_formula_units_Z   1
loop_
 _symmetry_equiv_pos_site_id
 _symmetry_equiv_pos_as_xyz
  1  'x, y, z'
loop_
 _atom_site_type_symbol
 _atom_site_label
 _atom_site_symmetry_multiplicity
 _atom_site_fract_x
 _atom_site_fract_y
 _atom_site_fract_z
 _atom_site_occupancy
  In  In0  1  0.75075306  0.25075302  0.50150606  1
  Sc  Sc1  1  0.00075300  0.00075300  0.00150600  1
  Te  Te2  1  0.29008307  0.79008305  0.58016608  1
  Cd  Cd3  1  0.54008306  0.54008304  0.08016607  1
  Se  Se4  1  0.98078208  0.48078203  0.96156410  1
  Se  Se5  1  0.23078203  0.23078202  0.46156403  1
  Se  Se6  1  0.51838103  0.01838100  0.03676203  1
  Se  Se7  1  0.76838109  0.76838105  0.53676210  1
