# generated using pymatgen
data_LiCaYEr2Si5Ni6
_symmetry_space_group_name_H-M   'P 1'
_cell_length_a   4.18708277
_cell_length_b   4.21443176
_cell_length_c   16.68032265
_cell_angle_alpha   90.00000000
_cell_angle_beta   90.00000000
_cell_angle_gamma   90.00000000
_symmetry_Int_Tables_number   1
_chemical_formula_structural   LiCaYEr2Si5Ni6
_chemical_formula_sum   'Li1 Ca1 Y1 Er2 Si5 Ni6'
_cell_volume   294.34388595
_cell_formula_units_Z   1
loop_
 _symmetry_equiv_pos_site_id
 _symmetry_equiv_pos_as_xyz
  1  'x, y, z'
loop_
 _atom_site_type_symbol
 _atom_site_label
 _atom_site_symmetry_multiplicity
 _atom_site_fract_x
 _atom_site_fract_y
 _atom_site_fract_z
 _atom_site_occupancy
  Y  Y0  1  0.25000001  0.00000000  0.40074298  1
  Ca  Ca1  1  0.25000001  0.50000003  0.89598697  1
  Er  Er2  1  0.75000004  0.50000003  0.11227500  1
  Er  Er3  1  0.75000004  0.00000000  0.60543298  1
  Li  Li4  1  0.25000001  0.00000000  0.03197100  1
  Si  Si5  1  0.25000001  0.50000003  0.53617198  1
  Si  Si6  1  0.75000004  0.50000003  0.46029198  1
  Ni  Ni7  1  0.75000004  0.00000000  0.96413796  1
  Si  Si8  1  0.25000001  0.50000003  0.25128499  1
  Ni  Ni9  1  0.25000001  0.00000000  0.74994997  1
  Si  Si10  1  0.75000004  0.00000000  0.25278899  1
  Ni  Ni11  1  0.75000004  0.50000003  0.75149897  1
  Ni  Ni12  1  0.25000001  0.00000000  0.17023599  1
  Ni  Ni13  1  0.25000001  0.50000003  0.67841397  1
  Ni  Ni14  1  0.75000004  0.50000003  0.31560999  1
  Si  Si15  1  0.75000004  0.00000000  0.82320597  1
