# generated using pymatgen
data_ErZrAlReSi7Ni
_symmetry_space_group_name_H-M   'P 1'
_cell_length_a   5.02233410
_cell_length_b   5.02233315
_cell_length_c   7.87348318
_cell_angle_alpha   90.00000000
_cell_angle_beta   90.00000000
_cell_angle_gamma   120.00000763
_symmetry_Int_Tables_number   1
_chemical_formula_structural   ErZrAlReSi7Ni
_chemical_formula_sum   'Er1 Zr1 Al1 Re1 Si7 Ni1'
_cell_volume   171.99214761
_cell_formula_units_Z   1
loop_
 _symmetry_equiv_pos_site_id
 _symmetry_equiv_pos_as_xyz
  1  'x, y, z'
loop_
 _atom_site_type_symbol
 _atom_site_label
 _atom_site_symmetry_multiplicity
 _atom_site_fract_x
 _atom_site_fract_y
 _atom_site_fract_z
 _atom_site_occupancy
  Er  Er0  1  0.66666667  0.33333335  0.93924998  1
  Zr  Zr1  1  0.33333337  0.66666670  0.43924999  1
  Al  Al2  1  0.33333337  0.66666670  0.06075000  1
  Re  Re3  1  0.66666667  0.33333335  0.56074999  1
  Si  Si4  1  0.83143699  0.16856301  0.24999999  1
  Si  Si5  1  0.16856302  0.33712602  0.74999998  1
  Si  Si6  1  0.66287404  0.83143705  0.74999998  1
  Si  Si7  1  0.33712600  0.16856301  0.24999999  1
  Si  Si8  1  0.83143702  0.66287404  0.24999999  1
  Si  Si9  1  0.16856305  0.83143705  0.74999998  1
  Si  Si10  1  0.00000000  0.00000000  0.00000000  1
  Ni  Ni11  1  0.00000000  0.00000000  0.49999999  1
