# generated using pymatgen
data_Er4Al4Ga3Pd
_symmetry_space_group_name_H-M   'P 1'
_cell_length_a   4.57027817
_cell_length_b   5.87316084
_cell_length_c   10.76666737
_cell_angle_alpha   94.55598450
_cell_angle_beta   90.00000000
_cell_angle_gamma   112.89736938
_symmetry_Int_Tables_number   1
_chemical_formula_structural   Er4Al4Ga3Pd
_chemical_formula_sum   'Er4 Al4 Ga3 Pd1'
_cell_volume   265.23493731
_cell_formula_units_Z   1
loop_
 _symmetry_equiv_pos_site_id
 _symmetry_equiv_pos_as_xyz
  1  'x, y, z'
loop_
 _atom_site_type_symbol
 _atom_site_label
 _atom_site_symmetry_multiplicity
 _atom_site_fract_x
 _atom_site_fract_y
 _atom_site_fract_z
 _atom_site_occupancy
  Er  Er0  1  0.31378501  0.62757000  0.68901703  1
  Er  Er1  1  0.81201799  0.62403600  0.18231501  1
  Er  Er2  1  0.60915699  0.21831400  0.89792804  1
  Er  Er3  1  0.10839500  0.21679000  0.39499002  1
  Al  Al4  1  0.82565399  0.65130800  0.48776102  1
  Ga  Ga5  1  0.01394900  0.02789800  0.66823003  1
  Al  Al6  1  0.51443598  0.02887200  0.18344901  1
  Ga  Ga7  1  0.31838901  0.63677800  0.99146405  1
  Ga  Ga8  1  0.61306899  0.22613800  0.60267703  1
  Al  Al9  1  0.09561700  0.19123400  0.10876301  1
  Pd  Pd10  1  0.90551599  0.81103200  0.87772604  1
  Al  Al11  1  0.39761601  0.79523200  0.38808102  1
