# generated using pymatgen
data_K3BaNiCS3O
_symmetry_space_group_name_H-M   'P 1'
_cell_length_a   4.79878807
_cell_length_b   5.69328594
_cell_length_c   7.74250412
_cell_angle_alpha   90.00000000
_cell_angle_beta   90.00000000
_cell_angle_gamma   114.92570496
_symmetry_Int_Tables_number   1
_chemical_formula_structural   K3BaNiCS3O
_chemical_formula_sum   'K3 Ba1 Ni1 C1 S3 O1'
_cell_volume   191.82883046
_cell_formula_units_Z   1
loop_
 _symmetry_equiv_pos_site_id
 _symmetry_equiv_pos_as_xyz
  1  'x, y, z'
loop_
 _atom_site_type_symbol
 _atom_site_label
 _atom_site_symmetry_multiplicity
 _atom_site_fract_x
 _atom_site_fract_y
 _atom_site_fract_z
 _atom_site_occupancy
  Ba  Ba0  1  0.15045099  0.30090200  0.41171699  1
  K  K1  1  0.84954896  0.69909800  0.58828299  1
  K  K2  1  0.65045098  0.30090200  0.08828300  1
  K  K3  1  0.34954897  0.69909800  0.91171699  1
  S  S4  1  0.16126497  0.82253000  0.25000000  1
  Ni  Ni5  1  0.83873498  0.17747000  0.74999999  1
  S  S6  1  0.66126496  0.82253000  0.25000000  1
  S  S7  1  0.33873499  0.17747000  0.74999999  1
  O  O8  1  0.00000000  0.00000000  0.00000000  1
  C  C9  1  0.49999999  0.00000000  0.49999999  1
