# generated using pymatgen
data_BaLa3In2(Sn4Au3)2
_symmetry_space_group_name_H-M   'P 1'
_cell_length_a   6.43826818
_cell_length_b   8.40999985
_cell_length_c   11.16681862
_cell_angle_alpha   106.76587677
_cell_angle_beta   96.67224121
_cell_angle_gamma   100.28602600
_symmetry_Int_Tables_number   1
_chemical_formula_structural   BaLa3In2(Sn4Au3)2
_chemical_formula_sum   'Ba1 La3 In2 Sn8 Au6'
_cell_volume   560.53311093
_cell_formula_units_Z   1
loop_
 _symmetry_equiv_pos_site_id
 _symmetry_equiv_pos_as_xyz
  1  'x, y, z'
loop_
 _atom_site_type_symbol
 _atom_site_label
 _atom_site_symmetry_multiplicity
 _atom_site_fract_x
 _atom_site_fract_y
 _atom_site_fract_z
 _atom_site_occupancy
  Ba  Ba0  1  0.33176299  0.03237800  0.74371599  1
  La  La1  1  0.66823705  0.96762206  0.25628399  1
  La  La2  1  0.95735499  0.25194501  0.05619898  1
  La  La3  1  0.04264505  0.74805504  0.94380100  1
  In  In4  1  0.55950601  0.43156802  0.33769299  1
  In  In5  1  0.44049403  0.56843203  0.66230699  1
  Sn  Sn6  1  0.12558205  0.75567904  0.38455800  1
  Sn  Sn7  1  0.87441799  0.24432101  0.61544198  1
  Sn  Sn8  1  0.04640103  0.35553602  0.37837200  1
  Au  Au9  1  0.95359902  0.64446404  0.62162798  1
  Sn  Sn10  1  0.35924900  0.16652101  0.50074799  1
  Sn  Sn11  1  0.64075104  0.83347905  0.49925199  1
  Au  Au12  1  0.43779900  0.17162301  0.05064099  1
  Sn  Sn13  1  0.56220104  0.82837705  0.94935899  1
  Au  Au14  1  0.32192803  0.60213303  0.14083100  1
  Au  Au15  1  0.67807201  0.39786702  0.85916898  1
  Au  Au16  1  0.21903102  0.40409102  0.86318999  1
  Sn  Sn17  1  0.78096902  0.59590903  0.13680999  1
  Sn  Sn18  1  0.17463800  0.03375400  0.22179900  1
  Au  Au19  1  0.82536205  0.96624606  0.77820098  1
