# generated using pymatgen
data_NaSrLi2CuAgO7
_symmetry_space_group_name_H-M   'P 1'
_cell_length_a   3.82515597
_cell_length_b   3.82515597
_cell_length_c   12.18981171
_cell_angle_alpha   90.00000000
_cell_angle_beta   90.00000000
_cell_angle_gamma   90.00000000
_symmetry_Int_Tables_number   1
_chemical_formula_structural   NaSrLi2CuAgO7
_chemical_formula_sum   'Na1 Sr1 Li2 Cu1 Ag1 O7'
_cell_volume   178.35910904
_cell_formula_units_Z   1
loop_
 _symmetry_equiv_pos_site_id
 _symmetry_equiv_pos_as_xyz
  1  'x, y, z'
loop_
 _atom_site_type_symbol
 _atom_site_label
 _atom_site_symmetry_multiplicity
 _atom_site_fract_x
 _atom_site_fract_y
 _atom_site_fract_z
 _atom_site_occupancy
  Na  Na0  1  0.50000000  0.50000000  0.79378902  1
  Sr  Sr1  1  0.50000000  0.50000000  0.20621100  1
  Li  Li2  1  0.50000000  0.50000000  0.50000001  1
  Li  Li3  1  0.00000000  0.00000000  0.00000000  1
  Cu  Cu4  1  0.00000000  0.00000000  0.63820002  1
  Ag  Ag5  1  0.00000000  0.00000000  0.36180001  1
  O  O6  1  0.50000000  0.00000000  0.61990101  1
  O  O7  1  0.00000000  0.50000000  0.61990101  1
  O  O8  1  0.50000000  0.00000000  0.38009901  1
  O  O9  1  0.00000000  0.50000000  0.38009901  1
  O  O10  1  0.00000000  0.00000000  0.82599102  1
  O  O11  1  0.00000000  0.00000000  0.17400900  1
  O  O12  1  0.50000000  0.50000000  0.00000000  1
