# generated using pymatgen
data_In9Sn5Au4
_symmetry_space_group_name_H-M   'P 1'
_cell_length_a   7.82693195
_cell_length_b   7.83582020
_cell_length_c   8.56946945
_cell_angle_alpha   62.79381180
_cell_angle_beta   90.00000000
_cell_angle_gamma   90.00000000
_symmetry_Int_Tables_number   1
_chemical_formula_structural   In9Sn5Au4
_chemical_formula_sum   'In9 Sn5 Au4'
_cell_volume   467.42395500
_cell_formula_units_Z   1
loop_
 _symmetry_equiv_pos_site_id
 _symmetry_equiv_pos_as_xyz
  1  'x, y, z'
loop_
 _atom_site_type_symbol
 _atom_site_label
 _atom_site_symmetry_multiplicity
 _atom_site_fract_x
 _atom_site_fract_y
 _atom_site_fract_z
 _atom_site_occupancy
  In  In0  1  0.00000000  0.00000000  0.00000000  1
  In  In1  1  0.50000000  0.49999998  0.00000001  1
  In  In2  1  0.83925000  0.45978298  0.75611699  1
  In  In3  1  0.16075000  0.78409997  0.75611700  1
  In  In4  1  0.33925000  0.28409999  0.75611699  1
  In  In5  1  0.66075000  0.95978296  0.75611701  1
  In  In6  1  0.16075000  0.54021698  0.24388301  1
  In  In7  1  0.83925000  0.21589999  0.24388300  1
  In  In8  1  0.66075000  0.71589997  0.24388301  1
  Sn  Sn9  1  0.33925000  0.04021700  0.24388299  1
  Sn  Sn10  1  1.00000001  0.20840399  0.58319199  1
  Sn  Sn11  1  0.50000000  0.70840397  0.58319200  1
  Sn  Sn12  1  -0.00000000  0.79159597  0.41680801  1
  Sn  Sn13  1  0.50000000  0.29159599  0.41680800  1
  Au  Au14  1  0.63488300  0.13657899  0.00000000  1
  Au  Au15  1  0.36511700  0.86342097  1.00000000  1
  Au  Au16  1  0.13488300  0.36342099  0.00000001  1
  Au  Au17  1  0.86511701  0.63657897  0.00000002  1
