# generated using pymatgen
data_PmScCl6
_symmetry_space_group_name_H-M   'P 1'
_cell_length_a   3.52049899
_cell_length_b   10.32274818
_cell_length_c   10.32274818
_cell_angle_alpha   120.00000000
_cell_angle_beta   90.00000000
_cell_angle_gamma   90.00000000
_symmetry_Int_Tables_number   1
_chemical_formula_structural   PmScCl6
_chemical_formula_sum   'Pm1 Sc1 Cl6'
_cell_volume   324.88190439
_cell_formula_units_Z   1
loop_
 _symmetry_equiv_pos_site_id
 _symmetry_equiv_pos_as_xyz
  1  'x, y, z'
loop_
 _atom_site_type_symbol
 _atom_site_label
 _atom_site_symmetry_multiplicity
 _atom_site_fract_x
 _atom_site_fract_y
 _atom_site_fract_z
 _atom_site_occupancy
  Pm  Pm0  1  0.25000000  0.66666665  0.33333333  1
  Sc  Sc1  1  0.75000000  0.33333333  0.66666665  1
  Cl  Cl2  1  0.75000000  0.77977699  0.22022300  1
  Cl  Cl3  1  0.75000000  0.44044599  0.22022300  1
  Cl  Cl4  1  0.75000000  0.77977699  0.55955399  1
  Cl  Cl5  1  0.25000000  0.22022300  0.77977699  1
  Cl  Cl6  1  0.25000000  0.55955399  0.77977699  1
  Cl  Cl7  1  0.25000000  0.22022300  0.44044599  1
