# generated using pymatgen
data_MnGaPRh
_symmetry_space_group_name_H-M   'P 1'
_cell_length_a   3.34017205
_cell_length_b   3.34017205
_cell_length_c   6.17162037
_cell_angle_alpha   105.70040894
_cell_angle_beta   105.70040894
_cell_angle_gamma   90.00000000
_symmetry_Int_Tables_number   1
_chemical_formula_structural   MnGaPRh
_chemical_formula_sum   'Mn1 Ga1 P1 Rh1'
_cell_volume   63.61355605
_cell_formula_units_Z   1
loop_
 _symmetry_equiv_pos_site_id
 _symmetry_equiv_pos_as_xyz
  1  'x, y, z'
loop_
 _atom_site_type_symbol
 _atom_site_label
 _atom_site_symmetry_multiplicity
 _atom_site_fract_x
 _atom_site_fract_y
 _atom_site_fract_z
 _atom_site_occupancy
  Mn  Mn0  1  0.74924497  0.24924499  0.49848996  1
  Ga  Ga1  1  0.99924493  0.99924496  0.99848992  1
  P  P2  1  0.16675497  0.66675498  0.33350997  1
  Rh  Rh3  1  0.41675497  0.41675498  0.83350997  1
