# generated using pymatgen
data_HfMn2AlGa2(SiGe)3
_symmetry_space_group_name_H-M   'P 1'
_cell_length_a   3.52007103
_cell_length_b   6.63663912
_cell_length_c   7.92389584
_cell_angle_alpha   90.00000000
_cell_angle_beta   90.00000000
_cell_angle_gamma   90.00000000
_symmetry_Int_Tables_number   1
_chemical_formula_structural   HfMn2AlGa2(SiGe)3
_chemical_formula_sum   'Hf1 Mn2 Al1 Ga2 Si3 Ge3'
_cell_volume   185.11362581
_cell_formula_units_Z   1
loop_
 _symmetry_equiv_pos_site_id
 _symmetry_equiv_pos_as_xyz
  1  'x, y, z'
loop_
 _atom_site_type_symbol
 _atom_site_label
 _atom_site_symmetry_multiplicity
 _atom_site_fract_x
 _atom_site_fract_y
 _atom_site_fract_z
 _atom_site_occupancy
  Mn  Mn0  1  0.25000000  0.03914500  0.83051002  1
  Hf  Hf1  1  0.74999999  0.96085498  0.16949000  1
  Mn  Mn2  1  0.25000000  0.53914499  0.66949001  1
  Al  Al3  1  0.74999999  0.46085499  0.33051001  1
  Ga  Ga4  1  0.74999999  0.37071999  0.94233002  1
  Ga  Ga5  1  0.25000000  0.62927999  0.05767000  1
  Si  Si6  1  0.74999999  0.87071998  0.55767001  1
  Si  Si7  1  0.25000000  0.12928000  0.44233001  1
  Si  Si8  1  0.25000000  0.76237999  0.36364801  1
  Ge  Ge9  1  0.74999999  0.23762000  0.63635201  1
  Ge  Ge10  1  0.25000000  0.26238000  0.13635200  1
  Ge  Ge11  1  0.74999999  0.73761999  0.86364802  1
