# generated using pymatgen
data_Na4Li2CuO10
_symmetry_space_group_name_H-M   'P 1'
_cell_length_a   3.89765048
_cell_length_b   3.89765048
_cell_length_c   14.72856426
_cell_angle_alpha   97.56565094
_cell_angle_beta   97.56565094
_cell_angle_gamma   90.07743835
_symmetry_Int_Tables_number   1
_chemical_formula_structural   Na4Li2CuO10
_chemical_formula_sum   'Na4 Li2 Cu1 O10'
_cell_volume   219.83315069
_cell_formula_units_Z   1
loop_
 _symmetry_equiv_pos_site_id
 _symmetry_equiv_pos_as_xyz
  1  'x, y, z'
loop_
 _atom_site_type_symbol
 _atom_site_label
 _atom_site_symmetry_multiplicity
 _atom_site_fract_x
 _atom_site_fract_y
 _atom_site_fract_z
 _atom_site_occupancy
  Na  Na0  1  0.42478801  0.42478801  0.84119600  1
  Na  Na1  1  0.58282701  0.58282701  0.15250001  1
  Na  Na2  1  0.70663401  0.70663401  0.41216001  1
  Na  Na3  1  0.29586500  0.29586501  0.59078700  1
  Li  Li4  1  0.85886301  0.85886302  0.71388001  1
  Li  Li5  1  0.14514200  0.14514200  0.28607300  1
  Cu  Cu6  1  0.02722600  0.02722600  0.00031800  1
  O  O7  1  0.93723501  0.93723502  0.86609901  1
  O  O8  1  0.07392600  0.07392600  0.13641600  1
  O  O9  1  0.35411700  0.85343702  0.70451801  1
  O  O10  1  0.85343702  0.35411701  0.70451801  1
  O  O11  1  0.65179401  0.15110200  0.29953501  1
  O  O12  1  0.15110200  0.65179401  0.29953501  1
  O  O13  1  0.24728100  0.74729402  0.49410501  1
  O  O14  1  0.74729401  0.24728101  0.49410501  1
  O  O15  1  0.52558701  0.04588300  0.00212701  1
  O  O16  1  0.04588300  0.52558701  0.00212701  1
