# generated using pymatgen
data_YErAl3Ga3NiGe
_symmetry_space_group_name_H-M   'P 1'
_cell_length_a   4.44347811
_cell_length_b   4.44347811
_cell_length_c   10.12322235
_cell_angle_alpha   90.00000000
_cell_angle_beta   90.00000000
_cell_angle_gamma   90.00000000
_symmetry_Int_Tables_number   1
_chemical_formula_structural   YErAl3Ga3NiGe
_chemical_formula_sum   'Y1 Er1 Al3 Ga3 Ni1 Ge1'
_cell_volume   199.87794034
_cell_formula_units_Z   1
loop_
 _symmetry_equiv_pos_site_id
 _symmetry_equiv_pos_as_xyz
  1  'x, y, z'
loop_
 _atom_site_type_symbol
 _atom_site_label
 _atom_site_symmetry_multiplicity
 _atom_site_fract_x
 _atom_site_fract_y
 _atom_site_fract_z
 _atom_site_occupancy
  Y  Y0  1  -0.00000000  0.49999999  0.25100499  1
  Er  Er1  1  0.49999999  0.00000000  0.74899497  1
  Al  Al2  1  0.00000000  0.00000000  0.49999998  1
  Al  Al3  1  0.49999999  0.49999999  0.49999998  1
  Al  Al4  1  -0.00000000  0.49999999  0.87697397  1
  Ga  Ga5  1  0.49999999  0.00000000  0.12302600  1
  Ga  Ga6  1  0.00000000  0.00000000  0.00000000  1
  Ga  Ga7  1  0.49999999  0.49999999  -0.00000000  1
  Ge  Ge8  1  -0.00000000  0.49999999  0.62851898  1
  Ni  Ni9  1  0.49999999  0.00000000  0.37148099  1
