# generated using pymatgen
data_YSiNi4
_symmetry_space_group_name_H-M   'P 1'
_cell_length_a   4.01286888
_cell_length_b   4.89359188
_cell_length_c   4.98480225
_cell_angle_alpha   60.60345840
_cell_angle_beta   90.00000000
_cell_angle_gamma   90.00000000
_symmetry_Int_Tables_number   1
_chemical_formula_structural   YSiNi4
_chemical_formula_sum   'Y1 Si1 Ni4'
_cell_volume   85.28451262
_cell_formula_units_Z   1
loop_
 _symmetry_equiv_pos_site_id
 _symmetry_equiv_pos_as_xyz
  1  'x, y, z'
loop_
 _atom_site_type_symbol
 _atom_site_label
 _atom_site_symmetry_multiplicity
 _atom_site_fract_x
 _atom_site_fract_y
 _atom_site_fract_z
 _atom_site_occupancy
  Y  Y0  1  0.00000000  0.50000000  0.00000002  1
  Ni  Ni1  1  0.50000001  0.00000000  0.00000000  1
  Ni  Ni2  1  1.00000003  0.18396800  0.63206398  1
  Ni  Ni3  1  0.00000000  0.81603201  0.36793601  1
  Ni  Ni4  1  0.50000001  0.50000000  0.49999999  1
  Si  Si5  1  0.50000001  0.00000000  0.49999998  1
