# generated using pymatgen
data_K7Br(Cl5F)2
_symmetry_space_group_name_H-M   'P 1'
_cell_length_a   6.91203499
_cell_length_b   7.96936655
_cell_length_c   13.29842567
_cell_angle_alpha   90.00000000
_cell_angle_beta   90.00000000
_cell_angle_gamma   106.52630615
_symmetry_Int_Tables_number   1
_chemical_formula_structural   K7Br(Cl5F)2
_chemical_formula_sum   'K7 Br1 Cl10 F2'
_cell_volume   702.27597471
_cell_formula_units_Z   1
loop_
 _symmetry_equiv_pos_site_id
 _symmetry_equiv_pos_as_xyz
  1  'x, y, z'
loop_
 _atom_site_type_symbol
 _atom_site_label
 _atom_site_symmetry_multiplicity
 _atom_site_fract_x
 _atom_site_fract_y
 _atom_site_fract_z
 _atom_site_occupancy
  K  K0  1  0.21432105  0.74682501  0.41910901  1
  K  K1  1  0.28567902  0.25317500  0.91910902  1
  K  K2  1  0.78567902  0.25317500  0.58089101  1
  K  K3  1  0.71432105  0.74682501  0.08089100  1
  K  K4  1  0.14287801  0.18248700  0.27200601  1
  K  K5  1  0.35712206  0.81751301  0.77200602  1
  K  K6  1  0.85712206  0.81751301  0.72799402  1
  Cl  Cl7  1  0.64287801  0.18248700  0.22799401  1
  F  F8  1  0.84646502  0.29430700  0.07849800  1
  Cl  Cl9  1  0.65353505  0.70569301  0.57849801  1
  F  F10  1  0.15353505  0.70569301  0.92150202  1
  Cl  Cl11  1  0.34646502  0.29430700  0.42150201  1
  Cl  Cl12  1  0.18698507  0.99368801  0.67420302  1
  Cl  Cl13  1  0.31301500  0.00631200  0.17420300  1
  Cl  Cl14  1  0.81301500  0.00631200  0.32579701  1
  Cl  Cl15  1  0.68698507  0.99368801  0.82579702  1
  Cl  Cl16  1  0.13641503  0.44420101  0.17552100  1
  Cl  Cl17  1  0.36358504  0.55579901  0.67552102  1
  Br  Br18  1  0.86358504  0.55579901  0.82447902  1
  Cl  Cl19  1  0.63641503  0.44420101  0.32447901  1
