# generated using pymatgen
data_MnFe15
_symmetry_space_group_name_H-M   'P 1'
_cell_length_a   4.41683817
_cell_length_b   6.53391314
_cell_length_c   6.53391314
_cell_angle_alpha   83.44023895
_cell_angle_beta   70.24533844
_cell_angle_gamma   70.24533844
_symmetry_Int_Tables_number   1
_chemical_formula_structural   MnFe15
_chemical_formula_sum   'Mn1 Fe15'
_cell_volume   167.02232576
_cell_formula_units_Z   1
loop_
 _symmetry_equiv_pos_site_id
 _symmetry_equiv_pos_as_xyz
  1  'x, y, z'
loop_
 _atom_site_type_symbol
 _atom_site_label
 _atom_site_symmetry_multiplicity
 _atom_site_fract_x
 _atom_site_fract_y
 _atom_site_fract_z
 _atom_site_occupancy
  Mn  Mn0  1  0.57190098  0.13610499  0.72009300  1
  Fe  Fe1  1  0.42809903  0.86389496  0.27990701  1
  Fe  Fe2  1  0.07190104  0.72009297  0.13610500  1
  Fe  Fe3  1  0.92809897  0.27990699  0.86389501  1
  Fe  Fe4  1  0.29199400  0.27990699  0.13610501  1
  Fe  Fe5  1  0.70800601  0.72009297  0.86389500  1
  Fe  Fe6  1  0.20800604  0.86389496  0.72009299  1
  Fe  Fe7  1  0.79199397  0.13610499  0.27990702  1
  Fe  Fe8  1  0.74999999  0.49999998  0.50000001  1
  Fe  Fe9  1  0.25000002  0.49999998  0.50000000  1
  Fe  Fe10  1  0.66704500  0.49999998  0.16591002  1
  Fe  Fe11  1  0.33295501  0.49999998  0.83408999  1
  Fe  Fe12  1  0.16704500  0.16590999  0.49999999  1
  Fe  Fe13  1  0.83295501  0.83408996  0.50000001  1
  Fe  Fe14  1  0.74999996  0.00000000  0.00000002  1
  Fe  Fe15  1  0.24999999  0.00000000  0.00000001  1
