# generated using pymatgen
data_ZrCuSb4
_symmetry_space_group_name_H-M   'P 1'
_cell_length_a   4.18808413
_cell_length_b   4.18808413
_cell_length_c   15.64138985
_cell_angle_alpha   90.00000000
_cell_angle_beta   90.00000000
_cell_angle_gamma   90.00000000
_symmetry_Int_Tables_number   1
_chemical_formula_structural   ZrCuSb4
_chemical_formula_sum   'Zr1 Cu1 Sb4'
_cell_volume   274.35073875
_cell_formula_units_Z   1
loop_
 _symmetry_equiv_pos_site_id
 _symmetry_equiv_pos_as_xyz
  1  'x, y, z'
loop_
 _atom_site_type_symbol
 _atom_site_label
 _atom_site_symmetry_multiplicity
 _atom_site_fract_x
 _atom_site_fract_y
 _atom_site_fract_z
 _atom_site_occupancy
  Zr  Zr0  1  0.00000000  0.00000000  0.75000001  1
  Cu  Cu1  1  0.00000000  0.00000000  0.25000000  1
  Sb  Sb2  1  0.00000000  0.49999999  0.86267301  1
  Sb  Sb3  1  0.49999999  0.00000000  0.36267300  1
  Sb  Sb4  1  0.49999999  0.00000000  0.63732701  1
  Sb  Sb5  1  0.00000000  0.49999999  0.13732700  1
