# generated using pymatgen
data_TiAlCr2
_symmetry_space_group_name_H-M   'P 1'
_cell_length_a   2.76438999
_cell_length_b   2.76438999
_cell_length_c   8.76812458
_cell_angle_alpha   90.00000000
_cell_angle_beta   90.00000000
_cell_angle_gamma   120.00000000
_symmetry_Int_Tables_number   1
_chemical_formula_structural   TiAlCr2
_chemical_formula_sum   'Ti1 Al1 Cr2'
_cell_volume   58.02778155
_cell_formula_units_Z   1
loop_
 _symmetry_equiv_pos_site_id
 _symmetry_equiv_pos_as_xyz
  1  'x, y, z'
loop_
 _atom_site_type_symbol
 _atom_site_label
 _atom_site_symmetry_multiplicity
 _atom_site_fract_x
 _atom_site_fract_y
 _atom_site_fract_z
 _atom_site_occupancy
  Ti  Ti0  1  0.33333334  0.66666668  0.50000002  1
  Cr  Cr1  1  0.66666667  0.33333334  0.75100004  1
  Cr  Cr2  1  0.66666667  0.33333334  0.24900001  1
  Al  Al3  1  0.33333334  0.66666668  -0.00000000  1
