# generated using pymatgen
data_KNa2CuO6
_symmetry_space_group_name_H-M   'P 1'
_cell_length_a   6.17272520
_cell_length_b   6.18182278
_cell_length_c   8.74967480
_cell_angle_alpha   90.00000000
_cell_angle_beta   89.89268494
_cell_angle_gamma   90.00000000
_symmetry_Int_Tables_number   1
_chemical_formula_structural   KNa2CuO6
_chemical_formula_sum   'K2 Na4 Cu2 O12'
_cell_volume   333.87557089
_cell_formula_units_Z   2
loop_
 _symmetry_equiv_pos_site_id
 _symmetry_equiv_pos_as_xyz
  1  'x, y, z'
loop_
 _atom_site_type_symbol
 _atom_site_label
 _atom_site_symmetry_multiplicity
 _atom_site_fract_x
 _atom_site_fract_y
 _atom_site_fract_z
 _atom_site_occupancy
  Na  Na0  1  0.00102500  0.00518800  0.74943796  1
  K  K1  1  0.49897498  0.50518802  0.75056196  1
  K  K2  1  0.50102498  0.49481202  0.24943798  1
  Na  Na3  1  0.99897497  0.99481204  0.25056198  1
  Na  Na4  1  0.49999998  0.00000000  -0.00000001  1
  Na  Na5  1  0.00000000  0.50000002  0.49999997  1
  Cu  Cu6  1  0.00000000  0.50000002  -0.00000000  1
  Cu  Cu7  1  0.49999998  0.00000000  0.49999997  1
  O  O8  1  0.00197900  0.50793102  0.23081699  1
  O  O9  1  0.25462199  0.78388103  0.49841997  1
  O  O10  1  0.78339097  0.25520501  0.00486199  1
  O  O11  1  0.71660898  0.75520503  0.49513797  1
  O  O12  1  0.74537798  0.21611901  0.50157997  1
  O  O13  1  0.28339099  0.24479501  0.50486197  1
  O  O14  1  0.24537799  0.28388101  0.00158000  1
  O  O15  1  0.21660899  0.74479503  0.99513795  1
  O  O16  1  0.50197898  0.99206904  0.73081696  1
  O  O17  1  0.49802098  0.00793100  0.26918298  1
  O  O18  1  0.75462198  0.71611903  0.99841994  1
  O  O19  1  0.99802097  0.49206902  0.76918295  1
