# generated using pymatgen
data_LiAlGaGe2
_symmetry_space_group_name_H-M   'P 1'
_cell_length_a   4.12820578
_cell_length_b   4.12820578
_cell_length_c   5.93364859
_cell_angle_alpha   110.35672760
_cell_angle_beta   110.35672760
_cell_angle_gamma   90.00000000
_symmetry_Int_Tables_number   1
_chemical_formula_structural   LiAlGaGe2
_chemical_formula_sum   'Li1 Al1 Ga1 Ge2'
_cell_volume   88.03871748
_cell_formula_units_Z   1
loop_
 _symmetry_equiv_pos_site_id
 _symmetry_equiv_pos_as_xyz
  1  'x, y, z'
loop_
 _atom_site_type_symbol
 _atom_site_label
 _atom_site_symmetry_multiplicity
 _atom_site_fract_x
 _atom_site_fract_y
 _atom_site_fract_z
 _atom_site_occupancy
  Li  Li0  1  0.00000000  0.00000000  0.00000000  1
  Al  Al1  1  0.25000003  0.75000005  0.50000002  1
  Ga  Ga2  1  0.75000005  0.25000002  0.50000002  1
  Ge  Ge3  1  0.62987405  0.62987404  0.25974802  1
  Ge  Ge4  1  0.37012603  0.37012602  0.74025201  1
