# generated using pymatgen
data_TaSbPd2S4O
_symmetry_space_group_name_H-M   'P 1'
_cell_length_a   5.34064436
_cell_length_b   5.34064436
_cell_length_c   5.34064436
_cell_angle_alpha   60.00000000
_cell_angle_beta   60.00000000
_cell_angle_gamma   60.00000000
_symmetry_Int_Tables_number   1
_chemical_formula_structural   TaSbPd2S4O
_chemical_formula_sum   'Ta1 Sb1 Pd2 S4 O1'
_cell_volume   107.71246833
_cell_formula_units_Z   1
loop_
 _symmetry_equiv_pos_site_id
 _symmetry_equiv_pos_as_xyz
  1  'x, y, z'
loop_
 _atom_site_type_symbol
 _atom_site_label
 _atom_site_symmetry_multiplicity
 _atom_site_fract_x
 _atom_site_fract_y
 _atom_site_fract_z
 _atom_site_occupancy
  Ta  Ta0  1  0.75000003  0.75000003  0.75000003  1
  Sb  Sb1  1  0.25000001  0.25000001  0.25000001  1
  Pd  Pd2  1  0.22838101  0.77161903  0.22838101  1
  Pd  Pd3  1  0.77161903  0.22838101  0.77161903  1
  S  S4  1  0.22838101  0.77161903  0.77161903  1
  S  S5  1  0.77161903  0.22838101  0.22838101  1
  S  S6  1  0.22838101  0.22838101  0.77161903  1
  S  S7  1  0.77161903  0.77161903  0.22838101  1
  O  O8  1  0.00000000  0.00000000  0.00000000  1
