# generated using pymatgen
data_LiMg3Ag
_symmetry_space_group_name_H-M   'P 1'
_cell_length_a   4.60356379
_cell_length_b   4.60356379
_cell_length_c   6.60588980
_cell_angle_alpha   110.39216614
_cell_angle_beta   110.39216614
_cell_angle_gamma   90.00000000
_symmetry_Int_Tables_number   1
_chemical_formula_structural   LiMg3Ag
_chemical_formula_sum   'Li1 Mg3 Ag1'
_cell_volume   121.81966943
_cell_formula_units_Z   1
loop_
 _symmetry_equiv_pos_site_id
 _symmetry_equiv_pos_as_xyz
  1  'x, y, z'
loop_
 _atom_site_type_symbol
 _atom_site_label
 _atom_site_symmetry_multiplicity
 _atom_site_fract_x
 _atom_site_fract_y
 _atom_site_fract_z
 _atom_site_occupancy
  Li  Li0  1  0.00000000  0.00000000  0.00000000  1
  Mg  Mg1  1  0.25000000  0.75000003  0.49999998  1
  Mg  Mg2  1  0.75000003  0.25000001  0.49999998  1
  Mg  Mg3  1  0.60938902  0.60938902  0.21877798  1
  Ag  Ag4  1  0.39061101  0.39061102  0.78122198  1
