# generated using pymatgen
data_NaNbCu2Sb2S7
_symmetry_space_group_name_H-M   'P 1'
_cell_length_a   7.79220915
_cell_length_b   7.79220915
_cell_length_c   7.79220915
_cell_angle_alpha   60.00000000
_cell_angle_beta   60.00000000
_cell_angle_gamma   60.00000000
_symmetry_Int_Tables_number   1
_chemical_formula_structural   NaNbCu2Sb2S7
_chemical_formula_sum   'Na1 Nb1 Cu2 Sb2 S7'
_cell_volume   334.55444510
_cell_formula_units_Z   1
loop_
 _symmetry_equiv_pos_site_id
 _symmetry_equiv_pos_as_xyz
  1  'x, y, z'
loop_
 _atom_site_type_symbol
 _atom_site_label
 _atom_site_symmetry_multiplicity
 _atom_site_fract_x
 _atom_site_fract_y
 _atom_site_fract_z
 _atom_site_occupancy
  Na  Na0  1  0.40255401  0.79234001  0.40255301  1
  Cu  Cu1  1  0.40255401  0.40255301  0.40255301  1
  Nb  Nb2  1  0.40255401  0.40255301  0.79234001  1
  Cu  Cu3  1  0.79234101  0.40255301  0.40255301  1
  Sb  Sb4  1  0.00000000  0.00000000  0.00000000  1
  Sb  Sb5  1  0.13700300  0.58898901  0.13700400  1
  S  S6  1  0.13700300  0.13700400  0.13700400  1
  S  S7  1  0.13700300  0.13700400  0.58898901  1
  S  S8  1  0.58898801  0.13700400  0.13700400  1
  S  S9  1  0.63049101  0.10852900  0.63049001  1
  S  S10  1  0.63049101  0.63049001  0.63049001  1
  S  S11  1  0.63049101  0.63049001  0.10852900  1
  S  S12  1  0.10853000  0.63049001  0.63049001  1
