# generated using pymatgen
data_YBiTe3Se2
_symmetry_space_group_name_H-M   'P 1'
_cell_length_a   4.32884264
_cell_length_b   4.32884264
_cell_length_c   13.84029007
_cell_angle_alpha   81.00283813
_cell_angle_beta   81.00283813
_cell_angle_gamma   59.99999237
_symmetry_Int_Tables_number   1
_chemical_formula_structural   YBiTe3Se2
_chemical_formula_sum   'Y1 Bi1 Te3 Se2'
_cell_volume   220.91260853
_cell_formula_units_Z   1
loop_
 _symmetry_equiv_pos_site_id
 _symmetry_equiv_pos_as_xyz
  1  'x, y, z'
loop_
 _atom_site_type_symbol
 _atom_site_label
 _atom_site_symmetry_multiplicity
 _atom_site_fract_x
 _atom_site_fract_y
 _atom_site_fract_z
 _atom_site_occupancy
  Y  Y0  1  0.71247199  0.71247198  0.86258400  1
  Bi  Bi1  1  0.28752799  0.28752799  0.13741600  1
  Te  Te2  1  0.85456798  0.85456797  0.43629599  1
  Te  Te3  1  0.14543200  0.14543200  0.56370401  1
  Te  Te4  1  0.00000000  0.00000000  0.00000000  1
  Se  Se5  1  0.58378299  0.58378298  0.24865099  1
  Se  Se6  1  0.41621699  0.41621699  0.75134901  1
