# generated using pymatgen
data_BaNaYCu7SnAsSe8
_symmetry_space_group_name_H-M   'P 1'
_cell_length_a   4.32474899
_cell_length_b   10.29351807
_cell_length_c   11.08905220
_cell_angle_alpha   90.00000000
_cell_angle_beta   90.00000000
_cell_angle_gamma   90.00000000
_symmetry_Int_Tables_number   1
_chemical_formula_structural   BaNaYCu7SnAsSe8
_chemical_formula_sum   'Ba1 Na1 Y1 Cu7 Sn1 As1 Se8'
_cell_volume   493.65002709
_cell_formula_units_Z   1
loop_
 _symmetry_equiv_pos_site_id
 _symmetry_equiv_pos_as_xyz
  1  'x, y, z'
loop_
 _atom_site_type_symbol
 _atom_site_label
 _atom_site_symmetry_multiplicity
 _atom_site_fract_x
 _atom_site_fract_y
 _atom_site_fract_z
 _atom_site_occupancy
  Y  Y0  1  0.75000000  0.25182900  0.67490099  1
  Ba  Ba1  1  0.75000000  0.75182900  0.82509899  1
  Na  Na2  1  0.25000000  0.74817100  0.32509899  1
  Cu  Cu3  1  0.25000000  0.24817100  0.17490100  1
  Cu  Cu4  1  0.25000000  0.04290900  0.88159398  1
  Cu  Cu5  1  0.75000000  0.89886099  0.54699899  1
  Cu  Cu6  1  0.75000000  0.45709100  0.38159399  1
  Cu  Cu7  1  0.75000000  0.39886100  0.95300098  1
  Cu  Cu8  1  0.25000000  0.60113900  0.04699900  1
  Cu  Cu9  1  0.25000000  0.54290900  0.61840599  1
  Se  Se10  1  0.75000000  0.95709099  0.11840600  1
  Se  Se11  1  0.25000000  0.10113900  0.45300099  1
  Se  Se12  1  0.25000000  0.35437100  0.45974599  1
  Se  Se13  1  0.75000000  0.64562900  0.54025399  1
  Se  Se14  1  0.25000000  0.47564500  0.84321298  1
  Se  Se15  1  0.75000000  0.52435500  0.15678700  1
  Se  Se16  1  0.75000000  0.02435500  0.34321299  1
  As  As17  1  0.25000000  0.85437099  0.04025400  1
  Se  Se18  1  0.25000000  0.97564499  0.65678699  1
  Sn  Sn19  1  0.75000000  0.14562900  0.95974598  1
