# generated using pymatgen
data_K3BaTlCuGeSeS5
_symmetry_space_group_name_H-M   'P 1'
_cell_length_a   7.13254881
_cell_length_b   7.13254881
_cell_length_c   8.03462410
_cell_angle_alpha   98.57909393
_cell_angle_beta   98.57909393
_cell_angle_gamma   119.88710785
_symmetry_Int_Tables_number   1
_chemical_formula_structural   K3BaTlCuGeSeS5
_chemical_formula_sum   'K3 Ba1 Tl1 Cu1 Ge1 Se1 S5'
_cell_volume   338.30396901
_cell_formula_units_Z   1
loop_
 _symmetry_equiv_pos_site_id
 _symmetry_equiv_pos_as_xyz
  1  'x, y, z'
loop_
 _atom_site_type_symbol
 _atom_site_label
 _atom_site_symmetry_multiplicity
 _atom_site_fract_x
 _atom_site_fract_y
 _atom_site_fract_z
 _atom_site_occupancy
  Ba  Ba0  1  0.50014702  0.49985301  0.00000005  1
  K  K1  1  0.17494803  0.82505201  0.00000005  1
  K  K2  1  0.82488100  0.17511900  1.00000007  1
  K  K3  1  0.33512002  0.66488001  0.50000006  1
  Tl  Tl4  1  0.95011003  0.95011601  0.34657310  1
  Ge  Ge5  1  0.04988400  0.04989000  0.65342702  1
  Cu  Cu6  1  0.66471101  0.33528900  0.50000006  1
  Se  Se7  1  0.22468301  0.22499500  0.25371203  1
  S  S8  1  0.77500502  0.77531701  0.74628809  1
  S  S9  1  0.91887202  0.61121301  0.25370508  1
  S  S10  1  0.61088503  0.91803301  0.25336808  1
  S  S11  1  0.08196701  0.38911501  0.74663204  1
  S  S12  1  0.38878700  0.08112800  0.74629504  1
