# generated using pymatgen
data_SrLa3Ga3Si2Ge3
_symmetry_space_group_name_H-M   'P 1'
_cell_length_a   6.82925510
_cell_length_b   6.82925510
_cell_length_c   6.82925510
_cell_angle_alpha   90.00000000
_cell_angle_beta   90.00000000
_cell_angle_gamma   90.00000000
_symmetry_Int_Tables_number   1
_chemical_formula_structural   SrLa3Ga3Si2Ge3
_chemical_formula_sum   'Sr1 La3 Ga3 Si2 Ge3'
_cell_volume   318.50775264
_cell_formula_units_Z   1
loop_
 _symmetry_equiv_pos_site_id
 _symmetry_equiv_pos_as_xyz
  1  'x, y, z'
loop_
 _atom_site_type_symbol
 _atom_site_label
 _atom_site_symmetry_multiplicity
 _atom_site_fract_x
 _atom_site_fract_y
 _atom_site_fract_z
 _atom_site_occupancy
  Sr  Sr0  1  0.61012099  0.38987899  0.88987899  1
  La  La1  1  0.38987899  0.88987899  0.61012099  1
  La  La2  1  0.11012100  0.11012100  0.11012100  1
  La  La3  1  0.88987899  0.61012099  0.38987899  1
  Ga  Ga4  1  0.17119400  0.32880599  0.67119399  1
  Ga  Ga5  1  0.67119399  0.17119400  0.32880599  1
  Si  Si6  1  0.32880599  0.67119399  0.17119400  1
  Ga  Ga7  1  0.82880599  0.82880599  0.82880599  1
  Ge  Ge8  1  0.59557399  0.90442599  0.09557400  1
  Ge  Ge9  1  0.09557400  0.59557399  0.90442599  1
  Ge  Ge10  1  0.40442599  0.40442599  0.40442599  1
  Si  Si11  1  0.90442599  0.09557400  0.59557399  1
