# generated using pymatgen
data_BaSrCaCd(InAu)3
_symmetry_space_group_name_H-M   'P 1'
_cell_length_a   5.98758411
_cell_length_b   7.64571524
_cell_length_c   8.62357712
_cell_angle_alpha   90.00000000
_cell_angle_beta   110.24709320
_cell_angle_gamma   90.00000000
_symmetry_Int_Tables_number   1
_chemical_formula_structural   BaSrCaCd(InAu)3
_chemical_formula_sum   'Ba1 Sr1 Ca1 Cd1 In3 Au3'
_cell_volume   370.38785991
_cell_formula_units_Z   1
loop_
 _symmetry_equiv_pos_site_id
 _symmetry_equiv_pos_as_xyz
  1  'x, y, z'
loop_
 _atom_site_type_symbol
 _atom_site_label
 _atom_site_symmetry_multiplicity
 _atom_site_fract_x
 _atom_site_fract_y
 _atom_site_fract_z
 _atom_site_occupancy
  Ba  Ba0  1  0.16068800  0.74999998  0.81401003  1
  Sr  Sr1  1  0.83931198  0.24999999  0.18598999  1
  Ca  Ca2  1  0.40541599  0.74999998  0.38159101  1
  In  In3  1  0.59458398  0.24999999  0.61840901  1
  In  In4  1  0.33402099  0.00005500  0.17649600  1
  In  In5  1  0.66597898  0.50005498  0.82350402  1
  Cd  Cd6  1  0.00961200  0.24999999  0.60476502  1
  Au  Au7  1  0.99038797  0.74999998  0.39523500  1
  Au  Au8  1  0.66597898  0.99994497  0.82350402  1
  Au  Au9  1  0.33402099  0.49994498  0.17649600  1
