# generated using pymatgen
data_La2YIn2(SnAu)2
_symmetry_space_group_name_H-M   'P 1'
_cell_length_a   4.31446314
_cell_length_b   7.72818613
_cell_length_c   7.72818565
_cell_angle_alpha   120.00000000
_cell_angle_beta   90.00000000
_cell_angle_gamma   90.00000000
_symmetry_Int_Tables_number   1
_chemical_formula_structural   La2YIn2(SnAu)2
_chemical_formula_sum   'La2 Y1 In2 Sn2 Au2'
_cell_volume   223.15802774
_cell_formula_units_Z   1
loop_
 _symmetry_equiv_pos_site_id
 _symmetry_equiv_pos_as_xyz
  1  'x, y, z'
loop_
 _atom_site_type_symbol
 _atom_site_label
 _atom_site_symmetry_multiplicity
 _atom_site_fract_x
 _atom_site_fract_y
 _atom_site_fract_z
 _atom_site_occupancy
  Y  Y0  1  0.49999998  0.00000000  0.41450700  1
  La  La1  1  0.49999998  0.41450699  -0.00000001  1
  La  La2  1  0.49999998  0.58549298  0.58549298  1
  In  In3  1  0.00000000  0.00000000  0.75746000  1
  In  In4  1  -0.00000000  0.75745998  0.99999998  1
  Sn  Sn5  1  0.99999997  0.24253999  0.24253999  1
  Sn  Sn6  1  -0.00000000  0.66666665  0.33333331  1
  Au  Au7  1  0.99999997  0.33333332  0.66666666  1
  Au  Au8  1  0.49999998  0.00000000  -0.00000000  1
