# generated using pymatgen
data_Mg5Ga
_symmetry_space_group_name_H-M   'P 1'
_cell_length_a   3.25967002
_cell_length_b   5.17871380
_cell_length_c   8.45343494
_cell_angle_alpha   90.00000000
_cell_angle_beta   101.11632538
_cell_angle_gamma   90.00000000
_symmetry_Int_Tables_number   1
_chemical_formula_structural   Mg5Ga
_chemical_formula_sum   'Mg5 Ga1'
_cell_volume   140.02417399
_cell_formula_units_Z   1
loop_
 _symmetry_equiv_pos_site_id
 _symmetry_equiv_pos_as_xyz
  1  'x, y, z'
loop_
 _atom_site_type_symbol
 _atom_site_label
 _atom_site_symmetry_multiplicity
 _atom_site_fract_x
 _atom_site_fract_y
 _atom_site_fract_z
 _atom_site_occupancy
  Mg  Mg0  1  0.11099800  0.25000001  0.22199601  1
  Mg  Mg1  1  0.77704300  0.25000001  0.55408604  1
  Mg  Mg2  1  0.88900201  0.75000003  0.77800405  1
  Mg  Mg3  1  0.22295700  0.75000003  0.44591402  1
  Mg  Mg4  1  0.44395400  0.25000001  0.88790804  1
  Ga  Ga5  1  0.55604600  0.75000003  0.11209202  1
