# generated using pymatgen
data_La2ErIn3(Sn4Au)2
_symmetry_space_group_name_H-M   'P 1'
_cell_length_a   6.42868805
_cell_length_b   8.44206238
_cell_length_c   8.44206238
_cell_angle_alpha   119.92357635
_cell_angle_beta   90.00000000
_cell_angle_gamma   90.00000000
_symmetry_Int_Tables_number   1
_chemical_formula_structural   La2ErIn3(Sn4Au)2
_chemical_formula_sum   'La2 Er1 In3 Sn8 Au2'
_cell_volume   397.08550202
_cell_formula_units_Z   1
loop_
 _symmetry_equiv_pos_site_id
 _symmetry_equiv_pos_as_xyz
  1  'x, y, z'
loop_
 _atom_site_type_symbol
 _atom_site_label
 _atom_site_symmetry_multiplicity
 _atom_site_fract_x
 _atom_site_fract_y
 _atom_site_fract_z
 _atom_site_occupancy
  Er  Er0  1  0.75398399  0.33157999  0.66565799  1
  La  La1  1  0.75398399  0.66565799  0.33157996  1
  In  In2  1  0.24601600  0.66565799  0.33157996  1
  In  In3  1  0.24601600  0.33157999  0.66565799  1
  In  In4  1  0.50000000  0.00350700  0.24431200  1
  La  La5  1  0.50000000  0.24431200  0.00350698  1
  Sn  Sn6  1  0.50000000  0.75618299  0.75618296  1
  Sn  Sn7  1  -0.00000000  0.99950898  0.75930695  1
  Sn  Sn8  1  -0.00000000  0.75930699  0.99950897  1
  Sn  Sn9  1  -0.00000000  0.24087700  0.24087699  1
  Sn  Sn10  1  0.50000000  0.39878699  0.39878698  1
  Sn  Sn11  1  -0.00000000  0.99789398  0.39606794  1
  Au  Au12  1  0.99999999  0.39606799  0.99789399  1
  Au  Au13  1  -0.00000000  0.60110799  0.60110797  1
  Sn  Sn14  1  0.50000000  0.99990098  0.60794094  1
  Sn  Sn15  1  0.50000000  0.60794099  0.99990098  1
