# generated using pymatgen
data_La3YIn4
_symmetry_space_group_name_H-M   'P 1'
_cell_length_a   5.54140806
_cell_length_b   7.07053423
_cell_length_c   7.07053471
_cell_angle_alpha   60.00000381
_cell_angle_beta   90.00000000
_cell_angle_gamma   90.00000000
_symmetry_Int_Tables_number   1
_chemical_formula_structural   La3YIn4
_chemical_formula_sum   'La3 Y1 In4'
_cell_volume   239.91382125
_cell_formula_units_Z   1
loop_
 _symmetry_equiv_pos_site_id
 _symmetry_equiv_pos_as_xyz
  1  'x, y, z'
loop_
 _atom_site_type_symbol
 _atom_site_label
 _atom_site_symmetry_multiplicity
 _atom_site_fract_x
 _atom_site_fract_y
 _atom_site_fract_z
 _atom_site_occupancy
  La  La0  1  0.74999999  0.64976298  0.17511800  1
  La  La1  1  0.74999999  0.17511899  0.17511800  1
  Y  Y2  1  0.74999999  0.17511899  0.64976201  1
  La  La3  1  0.25000000  0.35023699  0.82488201  1
  In  In4  1  0.25000000  0.82488097  0.82488201  1
  In  In5  1  0.25000000  0.82488097  0.35023801  1
  In  In6  1  0.25000000  0.33333332  0.33333334  1
  In  In7  1  0.74999999  0.66666664  0.66666668  1
