# generated using pymatgen
data_KLiCaEuN3O4
_symmetry_space_group_name_H-M   'P 1'
_cell_length_a   3.45213389
_cell_length_b   5.77276516
_cell_length_c   5.77276516
_cell_angle_alpha   96.63796997
_cell_angle_beta   90.00000000
_cell_angle_gamma   90.00000000
_symmetry_Int_Tables_number   1
_chemical_formula_structural   KLiCaEuN3O4
_chemical_formula_sum   'K1 Li1 Ca1 Eu1 N3 O4'
_cell_volume   114.27053608
_cell_formula_units_Z   1
loop_
 _symmetry_equiv_pos_site_id
 _symmetry_equiv_pos_as_xyz
  1  'x, y, z'
loop_
 _atom_site_type_symbol
 _atom_site_label
 _atom_site_symmetry_multiplicity
 _atom_site_fract_x
 _atom_site_fract_y
 _atom_site_fract_z
 _atom_site_occupancy
  Eu  Eu0  1  0.00000000  0.27707099  0.72292896  1
  K  K1  1  0.00000000  0.72292897  0.27707096  1
  Ca  Ca2  1  0.50000002  0.00000000  0.00000000  1
  Li  Li3  1  0.00000000  0.77349297  0.77349294  1
  O  O4  1  0.00000000  0.22650699  0.22650698  1
  N  N5  1  0.50000002  0.91635096  0.61537694  1
  O  O6  1  0.50000002  0.08364900  0.38462298  1
  O  O7  1  0.50000002  0.61537697  0.91635094  1
  N  N8  1  0.50000002  0.38462298  0.08364898  1
  N  N9  1  0.50000002  0.61292997  0.61292995  1
  O  O10  1  0.50000002  0.38706998  0.38706997  1
