# generated using pymatgen
data_Li2NiO4
_symmetry_space_group_name_H-M   'P 1'
_cell_length_a   5.90814066
_cell_length_b   5.90823841
_cell_length_c   5.90859556
_cell_angle_alpha   60.40065765
_cell_angle_beta   60.40192413
_cell_angle_gamma   60.40689087
_symmetry_Int_Tables_number   1
_chemical_formula_structural   Li2NiO4
_chemical_formula_sum   'Li4 Ni2 O8'
_cell_volume   147.17012222
_cell_formula_units_Z   2
loop_
 _symmetry_equiv_pos_site_id
 _symmetry_equiv_pos_as_xyz
  1  'x, y, z'
loop_
 _atom_site_type_symbol
 _atom_site_label
 _atom_site_symmetry_multiplicity
 _atom_site_fract_x
 _atom_site_fract_y
 _atom_site_fract_z
 _atom_site_occupancy
  Li  Li0  1  0.87838597  0.87837497  0.87840001  1
  Li  Li1  1  0.12161300  0.12161700  0.12160700  1
  Li  Li2  1  0.49999499  0.49999998  0.00000402  1
  Li  Li3  1  0.49999199  0.00000200  0.49999900  1
  Ni  Ni4  1  0.99999097  0.50000098  0.49999702  1
  Ni  Ni5  1  0.50000399  0.49999798  0.49999601  1
  O  O6  1  0.73931898  0.73934898  0.73941101  1
  O  O7  1  0.29199799  0.73963298  0.73967700  1
  O  O8  1  0.73967798  0.73963298  0.29197202  1
  O  O9  1  0.73963798  0.29198399  0.73967901  1
  O  O10  1  0.26031699  0.26037799  0.70802899  1
  O  O11  1  0.26035599  0.70802298  0.26032001  1
  O  O12  1  0.70801698  0.26037099  0.26033002  1
  O  O13  1  0.26069599  0.26063699  0.26057800  1
