# generated using pymatgen
data_DyYErMg3(Al3Ga)2
_symmetry_space_group_name_H-M   'P 1'
_cell_length_a   4.77575588
_cell_length_b   8.98052597
_cell_length_c   9.10652637
_cell_angle_alpha   66.25446320
_cell_angle_beta   74.79840088
_cell_angle_gamma   74.57984924
_symmetry_Int_Tables_number   1
_chemical_formula_structural   DyYErMg3(Al3Ga)2
_chemical_formula_sum   'Dy1 Y1 Er1 Mg3 Al6 Ga2'
_cell_volume   339.26527202
_cell_formula_units_Z   1
loop_
 _symmetry_equiv_pos_site_id
 _symmetry_equiv_pos_as_xyz
  1  'x, y, z'
loop_
 _atom_site_type_symbol
 _atom_site_label
 _atom_site_symmetry_multiplicity
 _atom_site_fract_x
 _atom_site_fract_y
 _atom_site_fract_z
 _atom_site_occupancy
  Er  Er0  1  0.69809497  0.32966101  0.27414902  1
  Dy  Dy1  1  0.30190491  0.67033902  0.72585105  1
  Y  Y2  1  0.00000000  0.00000000  0.00000000  1
  Mg  Mg3  1  -0.00000008  0.50000002  0.50000003  1
  Al  Al4  1  0.32912600  0.02399500  0.31775300  1
  Mg  Mg5  1  0.67087387  0.97600503  0.68224707  1
  Al  Al6  1  0.87285796  0.40169901  0.85258503  1
  Ga  Ga7  1  0.12714191  0.59830102  0.14741504  1
  Al  Al8  1  0.13697398  0.14850000  0.57755201  1
  Mg  Mg9  1  0.86302589  0.85150003  0.42244806  1
  Al  Al10  1  0.49646690  0.70426702  0.30279905  1
  Al  Al11  1  0.50353297  0.29573301  0.69720102  1
  Al  Al12  1  0.65927191  0.71105302  0.97040305  1
  Ga  Ga13  1  0.34072796  0.28894701  0.02959702  1
