# generated using pymatgen
data_MnFe2Si
_symmetry_space_group_name_H-M   'P 1'
_cell_length_a   3.59226799
_cell_length_b   6.12261391
_cell_length_c   6.94709015
_cell_angle_alpha   90.00000000
_cell_angle_beta   90.00000000
_cell_angle_gamma   90.00000000
_symmetry_Int_Tables_number   1
_chemical_formula_structural   MnFe2Si
_chemical_formula_sum   'Mn3 Fe6 Si3'
_cell_volume   152.79478671
_cell_formula_units_Z   3
loop_
 _symmetry_equiv_pos_site_id
 _symmetry_equiv_pos_as_xyz
  1  'x, y, z'
loop_
 _atom_site_type_symbol
 _atom_site_label
 _atom_site_symmetry_multiplicity
 _atom_site_fract_x
 _atom_site_fract_y
 _atom_site_fract_z
 _atom_site_occupancy
  Mn  Mn0  1  0.25000000  0.52216201  0.67624399  1
  Mn  Mn1  1  0.25000000  0.02216200  0.82375598  1
  Fe  Fe2  1  0.75000000  0.97783801  0.17624400  1
  Mn  Mn3  1  0.75000000  0.47783801  0.32375599  1
  Fe  Fe4  1  0.75000000  0.35821101  0.93688398  1
  Fe  Fe5  1  0.25000000  0.14178900  0.43688399  1
  Fe  Fe6  1  0.75000000  0.85821101  0.56311599  1
  Fe  Fe7  1  0.25000000  0.64178901  0.06311600  1
  Si  Si8  1  0.25000000  0.77709501  0.38053799  1
  Fe  Fe9  1  0.25000000  0.27709500  0.11946200  1
  Si  Si10  1  0.75000000  0.22290500  0.61946199  1
  Si  Si11  1  0.75000000  0.72290501  0.88053798  1
