# generated using pymatgen
data_ErLuHfZr3Pd8
_symmetry_space_group_name_H-M   'P 1'
_cell_length_a   7.34229326
_cell_length_b   7.34229326
_cell_length_c   7.34229326
_cell_angle_alpha   109.47122192
_cell_angle_beta   109.47122192
_cell_angle_gamma   109.47122192
_symmetry_Int_Tables_number   1
_chemical_formula_structural   ErLuHfZr3Pd8
_chemical_formula_sum   'Er1 Lu1 Hf1 Zr3 Pd8'
_cell_volume   304.70057181
_cell_formula_units_Z   1
loop_
 _symmetry_equiv_pos_site_id
 _symmetry_equiv_pos_as_xyz
  1  'x, y, z'
loop_
 _atom_site_type_symbol
 _atom_site_label
 _atom_site_symmetry_multiplicity
 _atom_site_fract_x
 _atom_site_fract_y
 _atom_site_fract_z
 _atom_site_occupancy
  Er  Er0  1  0.25000003  0.37500002  0.12500003  1
  Hf  Hf1  1  0.37500004  0.62500003  0.75000005  1
  Zr  Zr2  1  0.12500006  0.87500004  0.25000005  1
  Zr  Zr3  1  0.87500006  0.75000003  0.62500006  1
  Zr  Zr4  1  0.62500002  0.25000001  0.87500003  1
  Lu  Lu5  1  0.75000002  0.12500001  0.37500003  1
  Pd  Pd6  1  0.35289800  0.00000000  1.00000001  1
  Pd  Pd7  1  0.64710205  0.64710203  0.14710205  1
  Pd  Pd8  1  0.50000006  0.85289804  0.50000006  1
  Pd  Pd9  1  0.00000003  0.50000002  0.35289803  1
  Pd  Pd10  1  0.50000003  0.35289801  0.50000003  1
  Pd  Pd11  1  0.00000003  0.50000002  0.85289803  1
  Pd  Pd12  1  0.85289801  0.00000000  0.00000002  1
  Pd  Pd13  1  0.14710201  0.14710201  0.64710201  1
