# generated using pymatgen
data_LaEuY2Cu2B2C5N2O5
_symmetry_space_group_name_H-M   'P 1'
_cell_length_a   7.63737583
_cell_length_b   7.63737583
_cell_length_c   7.63737583
_cell_angle_alpha   109.47122192
_cell_angle_beta   109.47122192
_cell_angle_gamma   109.47122192
_symmetry_Int_Tables_number   1
_chemical_formula_structural   LaEuY2Cu2B2C5N2O5
_chemical_formula_sum   'La1 Eu1 Y2 Cu2 B2 C5 N2 O5'
_cell_volume   342.93402451
_cell_formula_units_Z   1
loop_
 _symmetry_equiv_pos_site_id
 _symmetry_equiv_pos_as_xyz
  1  'x, y, z'
loop_
 _atom_site_type_symbol
 _atom_site_label
 _atom_site_symmetry_multiplicity
 _atom_site_fract_x
 _atom_site_fract_y
 _atom_site_fract_z
 _atom_site_occupancy
  Eu  Eu0  1  0.39558500  0.00000000  1.00000001  1
  La  La1  1  0.60441504  0.60441502  0.10441505  1
  Y  Y2  1  0.50000006  0.89558504  0.50000006  1
  Cu  Cu3  1  0.00000003  0.50000002  0.39558503  1
  Y  Y4  1  0.50000003  0.39558502  0.50000003  1
  Cu  Cu5  1  1.00000004  0.50000002  0.89558505  1
  B  B6  1  0.10441501  0.10441500  0.60441501  1
  B  B7  1  0.89558501  0.00000000  0.00000002  1
  N  N8  1  0.25000002  0.29960101  0.04960102  1
  C  C9  1  0.25000003  0.45039902  0.20039903  1
  O  O10  1  0.70039902  0.25000001  0.95039903  1
  O  O11  1  0.45039905  0.70039903  0.75000005  1
  C  C12  1  0.79960106  0.75000003  0.54960106  1
  C  C13  1  0.04960105  0.79960103  0.25000005  1
  O  O14  1  0.75000002  0.20039901  0.45039903  1
  C  C15  1  0.29960104  0.54960102  0.75000004  1
  O  O16  1  0.75000001  0.04960100  0.29960102  1
  C  C17  1  0.54960102  0.25000001  0.79960103  1
  N  N18  1  0.95039906  0.75000003  0.70039907  1
  O  O19  1  0.20039906  0.95039904  0.25000006  1
