# generated using pymatgen
data_HfTi(MnFe4)2
_symmetry_space_group_name_H-M   'P 1'
_cell_length_a   5.09361029
_cell_length_b   5.09361029
_cell_length_c   8.34264946
_cell_angle_alpha   86.79766846
_cell_angle_beta   86.79766846
_cell_angle_gamma   62.24021530
_symmetry_Int_Tables_number   1
_chemical_formula_structural   HfTi(MnFe4)2
_chemical_formula_sum   'Hf1 Ti1 Mn2 Fe8'
_cell_volume   191.12919145
_cell_formula_units_Z   1
loop_
 _symmetry_equiv_pos_site_id
 _symmetry_equiv_pos_as_xyz
  1  'x, y, z'
loop_
 _atom_site_type_symbol
 _atom_site_label
 _atom_site_symmetry_multiplicity
 _atom_site_fract_x
 _atom_site_fract_y
 _atom_site_fract_z
 _atom_site_occupancy
  Mn  Mn0  1  0.33058999  0.33059000  0.06154699  1
  Mn  Mn1  1  0.66940999  0.66941001  0.93845293  1
  Hf  Hf2  1  0.66570599  0.66570601  0.56348895  1
  Ti  Ti3  1  0.33429399  0.33429400  0.43651097  1
  Fe  Fe4  1  0.00000000  0.00000000  0.00000000  1
  Fe  Fe5  1  0.00000000  0.00000000  0.49999997  1
  Fe  Fe6  1  0.83199799  0.83199801  0.24545596  1
  Fe  Fe7  1  0.16800200  0.16800200  0.75454395  1
  Fe  Fe8  1  0.16004699  0.67058901  0.74436495  1
  Fe  Fe9  1  0.67058900  0.16004700  0.74436495  1
  Fe  Fe10  1  0.83995300  0.32941100  0.25563497  1
  Fe  Fe11  1  0.32941098  0.83995301  0.25563497  1
