# generated using pymatgen
data_La2EuMgIn2
_symmetry_space_group_name_H-M   'P 1'
_cell_length_a   3.75067997
_cell_length_b   5.98820305
_cell_length_c   9.47979832
_cell_angle_alpha   90.00000000
_cell_angle_beta   101.40979004
_cell_angle_gamma   90.00000000
_symmetry_Int_Tables_number   1
_chemical_formula_structural   La2EuMgIn2
_chemical_formula_sum   'La2 Eu1 Mg1 In2'
_cell_volume   208.70693863
_cell_formula_units_Z   1
loop_
 _symmetry_equiv_pos_site_id
 _symmetry_equiv_pos_as_xyz
  1  'x, y, z'
loop_
 _atom_site_type_symbol
 _atom_site_label
 _atom_site_symmetry_multiplicity
 _atom_site_fract_x
 _atom_site_fract_y
 _atom_site_fract_z
 _atom_site_occupancy
  Mg  Mg0  1  0.44567800  0.25000000  0.89135603  1
  La  La1  1  0.77106100  0.25000000  0.54212201  1
  La  La2  1  0.22893900  0.74999999  0.45787801  1
  Eu  Eu3  1  0.55432200  0.74999999  0.10864399  1
  In  In4  1  0.11068700  0.25000000  0.22137401  1
  In  In5  1  0.88931300  0.74999999  0.77862601  1
