# generated using pymatgen
data_PmEr3Ga3SiGe2
_symmetry_space_group_name_H-M   'P 1'
_cell_length_a   3.98634696
_cell_length_b   7.58032608
_cell_length_c   7.58032608
_cell_angle_alpha   90.00000000
_cell_angle_beta   90.00000000
_cell_angle_gamma   90.00000000
_symmetry_Int_Tables_number   1
_chemical_formula_structural   PmEr3Ga3SiGe2
_chemical_formula_sum   'Pm1 Er3 Ga3 Si1 Ge2'
_cell_volume   229.06085192
_cell_formula_units_Z   1
loop_
 _symmetry_equiv_pos_site_id
 _symmetry_equiv_pos_as_xyz
  1  'x, y, z'
loop_
 _atom_site_type_symbol
 _atom_site_label
 _atom_site_symmetry_multiplicity
 _atom_site_fract_x
 _atom_site_fract_y
 _atom_site_fract_z
 _atom_site_occupancy
  Er  Er0  1  0.50000001  0.67029399  0.17029400  1
  Pm  Pm1  1  0.50000001  0.32970600  0.82970599  1
  Er  Er2  1  0.50000001  0.17029400  0.32970600  1
  Er  Er3  1  0.50000001  0.82970599  0.67029399  1
  Ga  Ga4  1  0.00000000  0.00000000  0.00000000  1
  Ga  Ga5  1  0.00000000  0.49999999  0.49999999  1
  Ga  Ga6  1  0.00000000  0.13156700  0.63156699  1
  Si  Si7  1  1.00000001  0.86843299  0.36843300  1
  Ge  Ge8  1  0.00000000  0.63156699  0.86843299  1
  Ge  Ge9  1  0.00000000  0.36843300  0.13156700  1
