# generated using pymatgen
data_Mn2FeSiNi2
_symmetry_space_group_name_H-M   'P 1'
_cell_length_a   3.59974003
_cell_length_b   4.75473118
_cell_length_c   5.82776499
_cell_angle_alpha   90.00000000
_cell_angle_beta   90.00000000
_cell_angle_gamma   90.00000000
_symmetry_Int_Tables_number   1
_chemical_formula_structural   Mn2FeSiNi2
_chemical_formula_sum   'Mn2 Fe1 Si1 Ni2'
_cell_volume   99.74683752
_cell_formula_units_Z   1
loop_
 _symmetry_equiv_pos_site_id
 _symmetry_equiv_pos_as_xyz
  1  'x, y, z'
loop_
 _atom_site_type_symbol
 _atom_site_label
 _atom_site_symmetry_multiplicity
 _atom_site_fract_x
 _atom_site_fract_y
 _atom_site_fract_z
 _atom_site_occupancy
  Mn  Mn0  1  0.50000000  0.49999998  0.50000000  1
  Mn  Mn1  1  0.00000000  0.00000000  0.00000000  1
  Fe  Fe2  1  0.50000000  0.70696897  0.13134700  1
  Si  Si3  1  0.50000000  0.29303099  0.86865300  1
  Ni  Ni4  1  0.00000000  0.79303097  0.63134700  1
  Ni  Ni5  1  0.00000000  0.20696899  0.36865300  1
