# generated using pymatgen
data_MnAl3Si4
_symmetry_space_group_name_H-M   'P 1'
_cell_length_a   3.59291101
_cell_length_b   5.17762995
_cell_length_c   7.42691326
_cell_angle_alpha   109.61252594
_cell_angle_beta   90.00000000
_cell_angle_gamma   90.00000000
_symmetry_Int_Tables_number   1
_chemical_formula_structural   MnAl3Si4
_chemical_formula_sum   'Mn1 Al3 Si4'
_cell_volume   130.14556977
_cell_formula_units_Z   1
loop_
 _symmetry_equiv_pos_site_id
 _symmetry_equiv_pos_as_xyz
  1  'x, y, z'
loop_
 _atom_site_type_symbol
 _atom_site_label
 _atom_site_symmetry_multiplicity
 _atom_site_fract_x
 _atom_site_fract_y
 _atom_site_fract_z
 _atom_site_occupancy
  Mn  Mn0  1  0.75000000  0.77888801  0.57161100  1
  Al  Al1  1  0.25000000  0.22111200  0.42838899  1
  Al  Al2  1  0.25000000  0.71594801  0.92555598  1
  Al  Al3  1  0.75000000  0.28405201  0.07444400  1
  Si  Si4  1  0.75000000  0.35612501  0.70822598  1
  Si  Si5  1  0.25000000  0.64387501  0.29177400  1
  Si  Si6  1  0.25000000  0.13957200  0.79030598  1
  Si  Si7  1  0.75000000  0.86042802  0.20969401  1
