# generated using pymatgen
data_In2SnPd
_symmetry_space_group_name_H-M   'P 1'
_cell_length_a   3.83072591
_cell_length_b   4.51624107
_cell_length_c   5.85275269
_cell_angle_alpha   90.00000000
_cell_angle_beta   109.10246277
_cell_angle_gamma   90.00000000
_symmetry_Int_Tables_number   1
_chemical_formula_structural   In2SnPd
_chemical_formula_sum   'In2 Sn1 Pd1'
_cell_volume   95.67979427
_cell_formula_units_Z   1
loop_
 _symmetry_equiv_pos_site_id
 _symmetry_equiv_pos_as_xyz
  1  'x, y, z'
loop_
 _atom_site_type_symbol
 _atom_site_label
 _atom_site_symmetry_multiplicity
 _atom_site_fract_x
 _atom_site_fract_y
 _atom_site_fract_z
 _atom_site_occupancy
  In  In0  1  0.86308503  0.74999999  0.72617001  1
  In  In1  1  0.13691500  0.25000000  0.27383000  1
  Pd  Pd2  1  0.58954702  0.74999999  0.17909401  1
  Sn  Sn3  1  0.41045301  0.25000000  0.82090601  1
