# generated using pymatgen
data_ErAl7Si3
_symmetry_space_group_name_H-M   'P 1'
_cell_length_a   4.24625111
_cell_length_b   4.24625111
_cell_length_c   11.01832485
_cell_angle_alpha   90.00000000
_cell_angle_beta   90.00000000
_cell_angle_gamma   90.00000000
_symmetry_Int_Tables_number   1
_chemical_formula_structural   ErAl7Si3
_chemical_formula_sum   'Er1 Al7 Si3'
_cell_volume   198.66754200
_cell_formula_units_Z   1
loop_
 _symmetry_equiv_pos_site_id
 _symmetry_equiv_pos_as_xyz
  1  'x, y, z'
loop_
 _atom_site_type_symbol
 _atom_site_label
 _atom_site_symmetry_multiplicity
 _atom_site_fract_x
 _atom_site_fract_y
 _atom_site_fract_z
 _atom_site_occupancy
  Al  Al0  1  0.00000000  0.00000000  0.69470501  1
  Er  Er1  1  0.00000000  0.00000000  0.30529500  1
  Al  Al2  1  0.49999999  0.00000000  0.50000001  1
  Al  Al3  1  0.00000000  0.49999999  0.50000001  1
  Al  Al4  1  0.49999999  0.49999999  0.69812901  1
  Al  Al5  1  0.49999999  0.49999999  0.30187100  1
  Al  Al6  1  0.49999999  0.00000000  0.88346801  1
  Al  Al7  1  0.00000000  0.49999999  0.88346801  1
  Si  Si8  1  0.49999999  0.00000000  0.11653200  1
  Si  Si9  1  0.00000000  0.49999999  0.11653200  1
  Si  Si10  1  0.00000000  0.00000000  0.00000000  1
