# generated using pymatgen
data_LaYAl4SiSn
_symmetry_space_group_name_H-M   'P 1'
_cell_length_a   3.90851998
_cell_length_b   3.90852022
_cell_length_c   15.03170776
_cell_angle_alpha   90.00000000
_cell_angle_beta   90.00000000
_cell_angle_gamma   120.00000000
_symmetry_Int_Tables_number   1
_chemical_formula_structural   LaYAl4SiSn
_chemical_formula_sum   'La1 Y1 Al4 Si1 Sn1'
_cell_volume   198.86742738
_cell_formula_units_Z   1
loop_
 _symmetry_equiv_pos_site_id
 _symmetry_equiv_pos_as_xyz
  1  'x, y, z'
loop_
 _atom_site_type_symbol
 _atom_site_label
 _atom_site_symmetry_multiplicity
 _atom_site_fract_x
 _atom_site_fract_y
 _atom_site_fract_z
 _atom_site_occupancy
  Y  Y0  1  0.33333337  0.66666671  0.25000000  1
  La  La1  1  0.66666669  0.33333335  0.75000001  1
  Al  Al2  1  0.00000000  0.00000000  0.50000001  1
  Al  Al3  1  0.00000000  0.00000000  0.00000000  1
  Al  Al4  1  0.66666669  0.33333335  0.09628700  1
  Al  Al5  1  0.33333337  0.66666671  0.59628701  1
  Si  Si6  1  0.66666669  0.33333335  0.40371301  1
  Sn  Sn7  1  0.33333337  0.66666671  0.90371301  1
