# generated using pymatgen
data_K3NaCuNiAsP4O
_symmetry_space_group_name_H-M   'P 1'
_cell_length_a   6.21160221
_cell_length_b   7.02035999
_cell_length_c   7.02035999
_cell_angle_alpha   111.50227356
_cell_angle_beta   90.00000000
_cell_angle_gamma   90.00000000
_symmetry_Int_Tables_number   1
_chemical_formula_structural   K3NaCuNiAsP4O
_chemical_formula_sum   'K3 Na1 Cu1 Ni1 As1 P4 O1'
_cell_volume   284.83510553
_cell_formula_units_Z   1
loop_
 _symmetry_equiv_pos_site_id
 _symmetry_equiv_pos_as_xyz
  1  'x, y, z'
loop_
 _atom_site_type_symbol
 _atom_site_label
 _atom_site_symmetry_multiplicity
 _atom_site_fract_x
 _atom_site_fract_y
 _atom_site_fract_z
 _atom_site_occupancy
  Na  Na0  1  0.74595197  0.48264799  0.80785299  1
  K  K1  1  0.24595099  0.19214700  0.51735199  1
  K  K2  1  0.24595099  0.51735199  0.19214699  1
  K  K3  1  0.74595097  0.80785299  0.48264798  1
  As  As4  1  0.26519699  0.91215999  0.91215998  1
  Ni  Ni5  1  0.76519697  0.08784000  0.08784000  1
  Cu  Cu6  1  0.30962099  0.65185599  0.65185599  1
  P  P7  1  0.80962097  0.34814400  0.34814399  1
  P  P8  1  0.00813900  0.86135699  0.10906799  1
  P  P9  1  0.50813898  0.13864300  0.89093199  1
  P  P10  1  0.00813900  0.10906800  0.86135699  1
  O  O11  1  0.50813898  0.89093199  0.13864298  1
