# generated using pymatgen
data_NaSrLiEuNiPO9
_symmetry_space_group_name_H-M   'P 1'
_cell_length_a   5.64052629
_cell_length_b   5.64052629
_cell_length_c   7.03410482
_cell_angle_alpha   107.64535522
_cell_angle_beta   107.64535522
_cell_angle_gamma   90.47229004
_symmetry_Int_Tables_number   1
_chemical_formula_structural   NaSrLiEuNiPO9
_chemical_formula_sum   'Na1 Sr1 Li1 Eu1 Ni1 P1 O9'
_cell_volume   201.99156400
_cell_formula_units_Z   1
loop_
 _symmetry_equiv_pos_site_id
 _symmetry_equiv_pos_as_xyz
  1  'x, y, z'
loop_
 _atom_site_type_symbol
 _atom_site_label
 _atom_site_symmetry_multiplicity
 _atom_site_fract_x
 _atom_site_fract_y
 _atom_site_fract_z
 _atom_site_occupancy
  Li  Li0  1  0.49999999  0.50000000  1.00000005  1
  Eu  Eu1  1  0.24376498  0.75623500  0.50000003  1
  Sr  Sr2  1  0.75623500  0.24376500  0.50000004  1
  Na  Na3  1  0.86946598  0.86946600  0.82409206  1
  O  O4  1  0.13053400  0.13053400  0.17590801  1
  O  O5  1  0.17008200  0.17008200  0.47275502  1
  O  O6  1  0.82991798  0.82991800  0.52724505  1
  P  P7  1  0.40319599  0.40319600  0.28336003  1
  Ni  Ni8  1  0.59680399  0.59680400  0.71664005  1
  O  O9  1  0.62327100  0.10122700  0.78906304  1
  O  O10  1  0.14409500  0.14409500  0.89811702  1
  O  O11  1  0.85590498  0.85590500  0.10188305  1
  O  O12  1  0.10122698  0.62327100  0.78906303  1
  O  O13  1  0.37672898  0.89877300  0.21093704  1
  O  O14  1  0.89877300  0.37672900  0.21093704  1
