# generated using pymatgen
data_LiMn2Cu5O12
_symmetry_space_group_name_H-M   'P 1'
_cell_length_a   6.42700481
_cell_length_b   6.42700481
_cell_length_c   6.42700481
_cell_angle_alpha   109.47122192
_cell_angle_beta   109.47122192
_cell_angle_gamma   109.47122192
_symmetry_Int_Tables_number   1
_chemical_formula_structural   LiMn2Cu5O12
_chemical_formula_sum   'Li1 Mn2 Cu5 O12'
_cell_volume   204.36379750
_cell_formula_units_Z   1
loop_
 _symmetry_equiv_pos_site_id
 _symmetry_equiv_pos_as_xyz
  1  'x, y, z'
loop_
 _atom_site_type_symbol
 _atom_site_label
 _atom_site_symmetry_multiplicity
 _atom_site_fract_x
 _atom_site_fract_y
 _atom_site_fract_z
 _atom_site_occupancy
  Mn  Mn0  1  0.00000000  0.00000000  0.00000000  1
  Li  Li1  1  0.50000004  0.50000002  0.50000004  1
  Cu  Cu2  1  0.00000000  0.00000000  0.50000001  1
  Cu  Cu3  1  0.00000003  0.50000002  0.00000003  1
  Mn  Mn4  1  0.50000007  1.00000005  0.00000007  1
  Cu  Cu5  1  0.50000004  0.50000002  0.00000004  1
  Cu  Cu6  1  0.50000001  0.00000000  0.50000002  1
  Cu  Cu7  1  0.00000003  0.50000002  0.50000003  1
  O  O8  1  0.16769002  0.31077302  0.47846403  1
  O  O9  1  0.83231006  0.68922703  0.52153606  1
  O  O10  1  0.16769005  0.68922603  0.85691605  1
  O  O11  1  0.83231004  0.31077402  0.14308404  1
  O  O12  1  0.68922605  0.52153603  0.83230905  1
  O  O13  1  0.31077404  0.47846402  0.16769104  1
  O  O14  1  0.31077401  0.14308401  0.83231002  1
  O  O15  1  0.68922607  0.85691604  0.16769007  1
  O  O16  1  0.85691703  0.16769101  0.68922704  1
  O  O17  1  0.14308306  0.83230904  0.31077305  1
  O  O18  1  0.47846402  0.16769001  0.31077402  1
  O  O19  1  0.52153606  0.83231004  0.68922607  1
