# generated using pymatgen
data_Li2NiO4
_symmetry_space_group_name_H-M   'P 1'
_cell_length_a   5.97285318
_cell_length_b   5.97285271
_cell_length_c   5.97285318
_cell_angle_alpha   90.17504120
_cell_angle_beta   119.89900208
_cell_angle_gamma   119.89897919
_symmetry_Int_Tables_number   1
_chemical_formula_structural   Li2NiO4
_chemical_formula_sum   'Li4 Ni2 O8'
_cell_volume   150.90056037
_cell_formula_units_Z   2
loop_
 _symmetry_equiv_pos_site_id
 _symmetry_equiv_pos_as_xyz
  1  'x, y, z'
loop_
 _atom_site_type_symbol
 _atom_site_label
 _atom_site_symmetry_multiplicity
 _atom_site_fract_x
 _atom_site_fract_y
 _atom_site_fract_z
 _atom_site_occupancy
  Li  Li0  1  0.99999998  0.50000001  0.50000000  1
  Li  Li1  1  0.49999898  0.99999902  0.00000001  1
  Li  Li2  1  0.00000000  0.00000000  0.50000101  1
  Li  Li3  1  0.49999999  0.00000000  0.50000000  1
  Ni  Ni4  1  0.25000099  0.37500101  0.12500001  1
  Ni  Ni5  1  0.74999998  0.62500002  0.87500002  1
  O  O6  1  0.02453299  0.76155302  0.28608603  1
  O  O7  1  0.47546698  0.76155402  0.73702003  1
  O  O8  1  0.02453199  0.76297902  0.73844604  1
  O  O9  1  0.52453298  0.78608602  0.26155301  1
  O  O10  1  0.97546698  0.23702101  0.26155399  1
  O  O11  1  0.52453299  0.23844701  0.26297900  1
  O  O12  1  0.47546699  0.21391401  0.73844702  1
  O  O13  1  0.97546798  0.23844701  0.71391400  1
