# generated using pymatgen
data_Mn2Al5Ga2CuSi3Ge5
_symmetry_space_group_name_H-M   'P 1'
_cell_length_a   4.93904781
_cell_length_b   4.93904877
_cell_length_c   12.35085964
_cell_angle_alpha   78.46611023
_cell_angle_beta   78.46611023
_cell_angle_gamma   60.00000381
_symmetry_Int_Tables_number   1
_chemical_formula_structural   Mn2Al5Ga2CuSi3Ge5
_chemical_formula_sum   'Mn2 Al5 Ga2 Si3 Cu1 Ge5'
_cell_volume   253.87465239
_cell_formula_units_Z   1
loop_
 _symmetry_equiv_pos_site_id
 _symmetry_equiv_pos_as_xyz
  1  'x, y, z'
loop_
 _atom_site_type_symbol
 _atom_site_label
 _atom_site_symmetry_multiplicity
 _atom_site_fract_x
 _atom_site_fract_y
 _atom_site_fract_z
 _atom_site_occupancy
  Mn  Mn0  1  0.94853202  0.94853198  0.15440397  1
  Al  Al1  1  0.14806400  0.14806400  0.55580799  1
  Al  Al2  1  0.05146800  0.05146800  0.84559599  1
  Al  Al3  1  0.85193601  0.85193598  0.44419197  1
  Mn  Mn4  1  0.61121001  0.61120998  0.16636998  1
  Al  Al5  1  0.38879001  0.38878999  0.83362998  1
  Al  Al6  1  0.61027402  0.10808500  0.67136699  1
  Ga  Ga7  1  0.38972601  0.38972599  0.32863298  1
  Si  Si8  1  0.61027401  0.61027398  0.67136697  1
  Cu  Cu9  1  0.10808500  0.61027398  0.67136698  1
  Ga  Ga10  1  0.89191502  0.38972599  0.32863298  1
  Ge  Ge11  1  -0.00000001  0.49999999  -0.00000001  1
  Si  Si12  1  0.72156201  0.72156198  0.83531397  1
  Si  Si13  1  0.50000001  0.49999999  0.49999998  1
  Ge  Ge14  1  0.38972600  0.89191498  0.32863297  1
  Ge  Ge15  1  0.50000001  0.00000000  -0.00000001  1
  Ge  Ge16  1  0.27843800  0.27843799  0.16468599  1
  Ge  Ge17  1  0.50000001  0.49999999  -0.00000002  1
