# generated using pymatgen
data_MnAlFeNi
_symmetry_space_group_name_H-M   'P 1'
_cell_length_a   4.23067236
_cell_length_b   4.23067236
_cell_length_c   4.23067236
_cell_angle_alpha   60.00000000
_cell_angle_beta   60.00000000
_cell_angle_gamma   60.00000000
_symmetry_Int_Tables_number   1
_chemical_formula_structural   MnAlFeNi
_chemical_formula_sum   'Mn1 Al1 Fe1 Ni1'
_cell_volume   53.54429213
_cell_formula_units_Z   1
loop_
 _symmetry_equiv_pos_site_id
 _symmetry_equiv_pos_as_xyz
  1  'x, y, z'
loop_
 _atom_site_type_symbol
 _atom_site_label
 _atom_site_symmetry_multiplicity
 _atom_site_fract_x
 _atom_site_fract_y
 _atom_site_fract_z
 _atom_site_occupancy
  Mn  Mn0  1  0.49999998  0.49999998  0.49999998  1
  Al  Al1  1  0.00000000  0.00000000  0.00000000  1
  Ni  Ni2  1  0.74999997  0.74999997  0.74999997  1
  Fe  Fe3  1  0.24999999  0.24999999  0.24999999  1
