# generated using pymatgen
data_LiPr8YAlGa7Ni2
_symmetry_space_group_name_H-M   'P 1'
_cell_length_a   8.33371830
_cell_length_b   8.43246841
_cell_length_c   8.43246841
_cell_angle_alpha   70.29277039
_cell_angle_beta   70.76583099
_cell_angle_gamma   109.23416901
_symmetry_Int_Tables_number   1
_chemical_formula_structural   LiPr8YAlGa7Ni2
_chemical_formula_sum   'Li1 Pr8 Y1 Al1 Ga7 Ni2'
_cell_volume   457.49731967
_cell_formula_units_Z   1
loop_
 _symmetry_equiv_pos_site_id
 _symmetry_equiv_pos_as_xyz
  1  'x, y, z'
loop_
 _atom_site_type_symbol
 _atom_site_label
 _atom_site_symmetry_multiplicity
 _atom_site_fract_x
 _atom_site_fract_y
 _atom_site_fract_z
 _atom_site_occupancy
  Y  Y0  1  0.21094601  0.05753600  0.25359800  1
  Li  Li1  1  0.46454401  0.25359798  0.68886601  1
  Pr  Pr2  1  0.15340998  0.68886596  0.05753605  1
  Pr  Pr3  1  0.90530803  0.21218699  0.50934000  1
  Pr  Pr4  1  0.41464800  0.50933997  0.27847303  1
  Pr  Pr5  1  0.69312102  0.27847298  0.21218702  1
  Pr  Pr6  1  0.84808201  0.74631595  0.80581604  1
  Pr  Pr7  1  0.65389800  0.80581595  0.44786806  1
  Pr  Pr8  1  0.10176599  0.44786797  0.74631602  1
  Pr  Pr9  1  0.61580003  0.00000000  0.99999998  1
  Ga  Ga10  1  0.91093801  0.59945996  0.49459804  1
  Ga  Ga11  1  0.40553600  0.49459797  0.90594202  1
  Ga  Ga12  1  0.31147798  0.90594195  0.59946006  1
  Ga  Ga13  1  0.00048696  0.99999994  0.00000008  1
  Ni  Ni14  1  0.78864101  0.62340196  0.24105804  1
  Ni  Ni15  1  0.02969899  0.24105799  0.13554002  1
  Ga  Ga16  1  0.16523900  0.13553999  0.62340200  1
  Al  Al17  1  0.28939098  0.76254195  0.37083005  1
  Ga  Ga18  1  0.66022101  0.37082998  0.86662801  1
  Ga  Ga19  1  0.52684899  0.86662795  0.76254205  1
