# generated using pymatgen
data_LiMgCu4
_symmetry_space_group_name_H-M   'P 1'
_cell_length_a   4.02129984
_cell_length_b   5.33373213
_cell_length_c   5.33373165
_cell_angle_alpha   120.00000000
_cell_angle_beta   90.00000000
_cell_angle_gamma   90.00000000
_symmetry_Int_Tables_number   1
_chemical_formula_structural   LiMgCu4
_chemical_formula_sum   'Li1 Mg1 Cu4'
_cell_volume   99.07394370
_cell_formula_units_Z   1
loop_
 _symmetry_equiv_pos_site_id
 _symmetry_equiv_pos_as_xyz
  1  'x, y, z'
loop_
 _atom_site_type_symbol
 _atom_site_label
 _atom_site_symmetry_multiplicity
 _atom_site_fract_x
 _atom_site_fract_y
 _atom_site_fract_z
 _atom_site_occupancy
  Li  Li0  1  1.00000004  0.66666664  0.33333330  1
  Mg  Mg1  1  0.00000000  0.00000000  0.00000000  1
  Cu  Cu2  1  -0.00000000  0.33333332  0.66666665  1
  Cu  Cu3  1  0.50000002  0.16776299  0.33552599  1
  Cu  Cu4  1  0.50000002  0.16776299  0.83223799  1
  Cu  Cu5  1  0.50000002  0.66447497  0.83223797  1
