# generated using pymatgen
data_NaSrLi2NiRuO4
_symmetry_space_group_name_H-M   'P 1'
_cell_length_a   3.66146398
_cell_length_b   5.58290672
_cell_length_c   6.96211290
_cell_angle_alpha   90.00000000
_cell_angle_beta   90.00000000
_cell_angle_gamma   109.14241791
_symmetry_Int_Tables_number   1
_chemical_formula_structural   NaSrLi2NiRuO4
_chemical_formula_sum   'Na1 Sr1 Li2 Ni1 Ru1 O4'
_cell_volume   134.44760134
_cell_formula_units_Z   1
loop_
 _symmetry_equiv_pos_site_id
 _symmetry_equiv_pos_as_xyz
  1  'x, y, z'
loop_
 _atom_site_type_symbol
 _atom_site_label
 _atom_site_symmetry_multiplicity
 _atom_site_fract_x
 _atom_site_fract_y
 _atom_site_fract_z
 _atom_site_occupancy
  Li  Li0  1  0.45660007  0.91320005  0.75000001  1
  Sr  Sr1  1  0.54340001  0.08680000  0.25000000  1
  Na  Na2  1  0.16800403  0.33600802  0.93893101  1
  Li  Li3  1  0.83199605  0.66399203  0.06106900  1
  O  O4  1  0.83199605  0.66399203  0.43893101  1
  O  O5  1  0.16800403  0.33600802  0.56106901  1
  O  O6  1  0.73601304  0.47202602  0.75000001  1
  Ru  Ru7  1  0.26398704  0.52797403  0.25000000  1
  O  O8  1  0.00000000  0.00000000  0.00000000  1
  Ni  Ni9  1  0.00000000  0.00000000  0.50000001  1
