# generated using pymatgen
data_BaNa4SrO8
_symmetry_space_group_name_H-M   'P 1'
_cell_length_a   5.96495199
_cell_length_b   6.06287336
_cell_length_c   10.61406612
_cell_angle_alpha   90.00000000
_cell_angle_beta   90.00000000
_cell_angle_gamma   119.46715546
_symmetry_Int_Tables_number   1
_chemical_formula_structural   BaNa4SrO8
_chemical_formula_sum   'Ba1 Na4 Sr1 O8'
_cell_volume   334.19871342
_cell_formula_units_Z   1
loop_
 _symmetry_equiv_pos_site_id
 _symmetry_equiv_pos_as_xyz
  1  'x, y, z'
loop_
 _atom_site_type_symbol
 _atom_site_label
 _atom_site_symmetry_multiplicity
 _atom_site_fract_x
 _atom_site_fract_y
 _atom_site_fract_z
 _atom_site_occupancy
  Ba  Ba0  1  0.23808402  0.47844601  0.49999999  1
  Na  Na1  1  0.76191603  0.52155401  0.49999999  1
  Na  Na2  1  0.24036202  0.47844601  0.99999999  1
  Sr  Sr3  1  0.75963803  0.52155401  0.99999999  1
  Na  Na4  1  0.50000000  0.00000000  0.25000000  1
  Na  Na5  1  0.50000000  0.00000000  0.74999999  1
  O  O6  1  0.64522704  0.82433201  0.49999999  1
  O  O7  1  0.35477301  0.17566800  0.49999999  1
  O  O8  1  0.17910504  0.82433201  0.99999999  1
  O  O9  1  0.82089501  0.17566800  0.99999999  1
  O  O10  1  0.50000003  0.50000001  0.16200700  1
  O  O11  1  0.00000003  0.50000001  0.33799300  1
  O  O12  1  0.50000003  0.50000001  0.83799299  1
  O  O13  1  0.00000003  0.50000001  0.66200699  1
