# generated using pymatgen
data_YErMg2Ga3Ge7
_symmetry_space_group_name_H-M   'P 1'
_cell_length_a   4.18311214
_cell_length_b   8.12651062
_cell_length_c   8.12651062
_cell_angle_alpha   75.13994598
_cell_angle_beta   75.08567047
_cell_angle_gamma   75.08567047
_symmetry_Int_Tables_number   1
_chemical_formula_structural   YErMg2Ga3Ge7
_chemical_formula_sum   'Y1 Er1 Mg2 Ga3 Ge7'
_cell_volume   252.54493171
_cell_formula_units_Z   1
loop_
 _symmetry_equiv_pos_site_id
 _symmetry_equiv_pos_as_xyz
  1  'x, y, z'
loop_
 _atom_site_type_symbol
 _atom_site_label
 _atom_site_symmetry_multiplicity
 _atom_site_fract_x
 _atom_site_fract_y
 _atom_site_fract_z
 _atom_site_occupancy
  Er  Er0  1  0.49999994  0.49999999  0.50000002  1
  Y  Y1  1  0.17149491  0.82850499  0.82850504  1
  Mg  Mg2  1  0.82850496  0.17149500  0.17149499  1
  Mg  Mg3  1  0.37430996  0.33951600  0.91186400  1
  Ga  Ga4  1  0.62568992  0.66048399  0.08813603  1
  Ga  Ga5  1  0.37430990  0.91186399  0.33951605  1
  Ga  Ga6  1  0.62568998  0.08813600  0.66048398  1
  Ge  Ge7  1  0.16429195  0.46319599  0.20822002  1
  Ge  Ge8  1  0.83570793  0.53680399  0.79178001  1
  Ge  Ge9  1  0.16429098  0.20822000  0.46319701  1
  Ge  Ge10  1  0.83570890  0.79177999  0.53680303  1
  Ge  Ge11  1  0.49999989  0.99999999  0.00000005  1
  Ge  Ge12  1  0.99999990  0.78683299  0.21316702  1
  Ge  Ge13  1  0.99999996  0.21316700  0.78683298  1
