# generated using pymatgen
data_LiCoNiRuO4
_symmetry_space_group_name_H-M   'P 1'
_cell_length_a   5.01211786
_cell_length_b   5.75151587
_cell_length_c   5.01211786
_cell_angle_alpha   64.16878510
_cell_angle_beta   90.00000000
_cell_angle_gamma   115.83121490
_symmetry_Int_Tables_number   1
_chemical_formula_structural   LiCoNiRuO4
_chemical_formula_sum   'Li1 Co1 Ni1 Ru1 O4'
_cell_volume   113.79508005
_cell_formula_units_Z   1
loop_
 _symmetry_equiv_pos_site_id
 _symmetry_equiv_pos_as_xyz
  1  'x, y, z'
loop_
 _atom_site_type_symbol
 _atom_site_label
 _atom_site_symmetry_multiplicity
 _atom_site_fract_x
 _atom_site_fract_y
 _atom_site_fract_z
 _atom_site_occupancy
  Li  Li0  1  0.00000000  0.00000000  0.00000000  1
  Co  Co1  1  0.75000006  0.50000001  0.74999998  1
  Ni  Ni2  1  0.25000004  0.50000001  0.24999997  1
  Ru  Ru3  1  0.50000001  0.00000000  0.50000001  1
  O  O4  1  0.57013207  0.75000002  0.87499997  1
  O  O5  1  0.37500003  0.25000001  0.57013200  1
  O  O6  1  0.17986806  0.75000002  0.37499996  1
  O  O7  1  0.87500004  0.25000001  0.17986799  1
