# generated using pymatgen
data_Li2CoCuNiO13
_symmetry_space_group_name_H-M   'P 1'
_cell_length_a   5.02498722
_cell_length_b   6.74841022
_cell_length_c   6.74841022
_cell_angle_alpha   84.84263611
_cell_angle_beta   75.99213409
_cell_angle_gamma   75.99213409
_symmetry_Int_Tables_number   1
_chemical_formula_structural   Li2CoCuNiO13
_chemical_formula_sum   'Li2 Co1 Cu1 Ni1 O13'
_cell_volume   215.31595971
_cell_formula_units_Z   1
loop_
 _symmetry_equiv_pos_site_id
 _symmetry_equiv_pos_as_xyz
  1  'x, y, z'
loop_
 _atom_site_type_symbol
 _atom_site_label
 _atom_site_symmetry_multiplicity
 _atom_site_fract_x
 _atom_site_fract_y
 _atom_site_fract_z
 _atom_site_occupancy
  Li  Li0  1  0.25000001  0.12419800  0.87580199  1
  Li  Li1  1  0.75000004  0.87580199  0.12419798  1
  Co  Co2  1  0.25572202  0.62505999  0.80278197  1
  Cu  Cu3  1  0.24427801  0.19721800  0.37493999  1
  Ni  Ni4  1  0.74427802  0.37493999  0.19721799  1
  O  O5  1  0.75572203  0.80278199  0.62505997  1
  O  O6  1  0.30896702  0.41062499  0.88706498  1
  O  O7  1  0.19103301  0.11293500  0.58937499  1
  O  O8  1  0.69103303  0.58937499  0.11293499  1
  O  O9  1  0.80896704  0.88706499  0.41062497  1
  O  O10  1  0.15240802  0.80111199  0.94775996  1
  O  O11  1  0.34759201  0.05224000  0.19888800  1
  O  O12  1  0.96008403  0.35583999  0.34457499  1
  O  O13  1  0.53991603  0.65542499  0.64415997  1
  O  O14  1  0.03991602  0.64415999  0.65542497  1
  O  O15  1  0.46008402  0.34457500  0.35583999  1
  O  O16  1  0.65240804  0.94775999  0.80111196  1
  O  O17  1  0.84759202  0.19888800  0.05224000  1
