# generated using pymatgen
data_KNaSrYO4
_symmetry_space_group_name_H-M   'P 1'
_cell_length_a   5.48178005
_cell_length_b   5.48178005
_cell_length_c   5.48178005
_cell_angle_alpha   85.04969025
_cell_angle_beta   85.04969025
_cell_angle_gamma   85.04969025
_symmetry_Int_Tables_number   1
_chemical_formula_structural   KNaSrYO4
_chemical_formula_sum   'K1 Na1 Sr1 Y1 O4'
_cell_volume   162.98373044
_cell_formula_units_Z   1
loop_
 _symmetry_equiv_pos_site_id
 _symmetry_equiv_pos_as_xyz
  1  'x, y, z'
loop_
 _atom_site_type_symbol
 _atom_site_label
 _atom_site_symmetry_multiplicity
 _atom_site_fract_x
 _atom_site_fract_y
 _atom_site_fract_z
 _atom_site_occupancy
  Y  Y0  1  0.77075604  0.77075599  0.19597807  1
  K  K1  1  0.19597804  0.77075599  0.77075603  1
  Na  Na2  1  0.77075601  0.19597800  0.77075604  1
  Sr  Sr3  1  0.25240901  0.25240900  0.25240902  1
  O  O4  1  0.97141502  0.47179700  0.97141506  1
  O  O5  1  0.47179705  0.97141499  0.97141505  1
  O  O6  1  0.97141504  0.97141499  0.47179708  1
  O  O7  1  0.56814303  0.56814299  0.56814305  1
