# generated using pymatgen
data_KRbH2
_symmetry_space_group_name_H-M   'P 1'
_cell_length_a   4.31679869
_cell_length_b   4.31679869
_cell_length_c   8.65800381
_cell_angle_alpha   75.56418610
_cell_angle_beta   75.56418610
_cell_angle_gamma   59.99998856
_symmetry_Int_Tables_number   1
_chemical_formula_structural   KRbH2
_chemical_formula_sum   'Rb1 K1 H2'
_cell_volume   133.81006351
_cell_formula_units_Z   1
loop_
 _symmetry_equiv_pos_site_id
 _symmetry_equiv_pos_as_xyz
  1  'x, y, z'
loop_
 _atom_site_type_symbol
 _atom_site_label
 _atom_site_symmetry_multiplicity
 _atom_site_fract_x
 _atom_site_fract_y
 _atom_site_fract_z
 _atom_site_occupancy
  Rb  Rb0  1  0.60743499  0.60743501  0.17769504  1
  H  H1  1  0.77652299  0.77652301  0.67043105  1
  K  K2  1  0.02272300  0.02272300  0.93183100  1
  H  H3  1  0.19482000  0.19482000  0.41554001  1
