# generated using pymatgen
data_NaCu2PO8
_symmetry_space_group_name_H-M   'P 1'
_cell_length_a   4.87420797
_cell_length_b   4.87420797
_cell_length_c   8.65623379
_cell_angle_alpha   90.00000000
_cell_angle_beta   90.00000000
_cell_angle_gamma   120.00000000
_symmetry_Int_Tables_number   1
_chemical_formula_structural   NaCu2PO8
_chemical_formula_sum   'Na1 Cu2 P1 O8'
_cell_volume   178.10155883
_cell_formula_units_Z   1
loop_
 _symmetry_equiv_pos_site_id
 _symmetry_equiv_pos_as_xyz
  1  'x, y, z'
loop_
 _atom_site_type_symbol
 _atom_site_label
 _atom_site_symmetry_multiplicity
 _atom_site_fract_x
 _atom_site_fract_y
 _atom_site_fract_z
 _atom_site_occupancy
  Na  Na0  1  0.00000000  0.00000000  0.50000001  1
  Cu  Cu1  1  0.00000000  0.00000000  0.00000000  1
  Cu  Cu2  1  0.33333334  0.66666668  0.20406001  1
  P  P3  1  0.66666667  0.33333334  0.79594002  1
  O  O4  1  0.08444300  0.34927101  0.14695300  1
  O  O5  1  0.65072901  0.73517201  0.14695300  1
  O  O6  1  0.34927100  0.08444300  0.85304702  1
  O  O7  1  0.26482801  0.91555702  0.14695300  1
  O  O8  1  0.73517201  0.65072901  0.85304702  1
  O  O9  1  0.91555701  0.26482800  0.85304702  1
  O  O10  1  0.33333334  0.66666668  0.37328201  1
  O  O11  1  0.66666667  0.33333334  0.62671802  1
