# generated using pymatgen
data_Y2In2Sn2GePd
_symmetry_space_group_name_H-M   'P 1'
_cell_length_a   4.42844009
_cell_length_b   5.65825748
_cell_length_c   8.07291222
_cell_angle_alpha   90.00000000
_cell_angle_beta   90.00000000
_cell_angle_gamma   113.03699493
_symmetry_Int_Tables_number   1
_chemical_formula_structural   Y2In2Sn2GePd
_chemical_formula_sum   'Y2 In2 Sn2 Ge1 Pd1'
_cell_volume   186.15326451
_cell_formula_units_Z   1
loop_
 _symmetry_equiv_pos_site_id
 _symmetry_equiv_pos_as_xyz
  1  'x, y, z'
loop_
 _atom_site_type_symbol
 _atom_site_label
 _atom_site_symmetry_multiplicity
 _atom_site_fract_x
 _atom_site_fract_y
 _atom_site_fract_z
 _atom_site_occupancy
  Y  Y0  1  0.06996400  0.13992800  0.24999999  1
  Y  Y1  1  0.93003597  0.86007202  0.74999998  1
  In  In2  1  0.35505098  0.71010202  0.44850599  1
  In  In3  1  0.64494898  0.28989801  0.55149399  1
  Sn  Sn4  1  0.35505098  0.71010202  0.05149400  1
  Sn  Sn5  1  0.64494898  0.28989801  0.94850597  1
  Ge  Ge6  1  0.21851499  0.43703001  0.74999998  1
  Pd  Pd7  1  0.78148497  0.56297001  0.24999999  1
