# generated using pymatgen
data_La2YInSn2Au3
_symmetry_space_group_name_H-M   'P 1'
_cell_length_a   4.17076492
_cell_length_b   7.70392799
_cell_length_c   7.70392752
_cell_angle_alpha   120.00000000
_cell_angle_beta   90.00000000
_cell_angle_gamma   90.00000000
_symmetry_Int_Tables_number   1
_chemical_formula_structural   La2YInSn2Au3
_chemical_formula_sum   'La2 Y1 In1 Sn2 Au3'
_cell_volume   214.37332648
_cell_formula_units_Z   1
loop_
 _symmetry_equiv_pos_site_id
 _symmetry_equiv_pos_as_xyz
  1  'x, y, z'
loop_
 _atom_site_type_symbol
 _atom_site_label
 _atom_site_symmetry_multiplicity
 _atom_site_fract_x
 _atom_site_fract_y
 _atom_site_fract_z
 _atom_site_occupancy
  Y  Y0  1  1.00000002  0.00000000  0.58857101  1
  La  La1  1  -0.00000000  0.58857099  1.00000001  1
  La  La2  1  -0.00000000  0.41142899  0.41142900  1
  In  In3  1  0.50000001  0.25075600  -0.00000001  1
  Sn  Sn4  1  0.50000001  0.00000000  0.25075601  1
  Sn  Sn5  1  0.50000001  0.74924399  0.74924400  1
  Au  Au6  1  0.50000001  0.33333333  0.66666667  1
  Au  Au7  1  0.00000000  0.00000000  0.00000000  1
  Au  Au8  1  0.50000001  0.66666666  0.33333332  1
