# generated using pymatgen
data_Be2HC
_symmetry_space_group_name_H-M   'P 1'
_cell_length_a   3.17138863
_cell_length_b   3.17138863
_cell_length_c   5.49118853
_cell_angle_alpha   73.21561432
_cell_angle_beta   73.21561432
_cell_angle_gamma   59.99998856
_symmetry_Int_Tables_number   1
_chemical_formula_structural   Be2HC
_chemical_formula_sum   'Be2 H1 C1'
_cell_volume   45.09221762
_cell_formula_units_Z   1
loop_
 _symmetry_equiv_pos_site_id
 _symmetry_equiv_pos_as_xyz
  1  'x, y, z'
loop_
 _atom_site_type_symbol
 _atom_site_label
 _atom_site_symmetry_multiplicity
 _atom_site_fract_x
 _atom_site_fract_y
 _atom_site_fract_z
 _atom_site_occupancy
  Be  Be0  1  0.00000000  0.00000000  0.00000000  1
  Be  Be1  1  0.50000000  0.49999999  0.50000000  1
  H  H2  1  0.76709700  0.76709699  0.69870901  1
  C  C3  1  0.23290300  0.23290300  0.30129100  1
