# generated using pymatgen
data_Ba2Sr6TlBi3(PbAu)4
_symmetry_space_group_name_H-M   'P 1'
_cell_length_a   6.69885397
_cell_length_b   6.89578009
_cell_length_c   15.72475815
_cell_angle_alpha   90.00000000
_cell_angle_beta   90.00000000
_cell_angle_gamma   90.00000000
_symmetry_Int_Tables_number   1
_chemical_formula_structural   Ba2Sr6TlBi3(PbAu)4
_chemical_formula_sum   'Ba2 Sr6 Tl1 Bi3 Pb4 Au4'
_cell_volume   726.38670729
_cell_formula_units_Z   1
loop_
 _symmetry_equiv_pos_site_id
 _symmetry_equiv_pos_as_xyz
  1  'x, y, z'
loop_
 _atom_site_type_symbol
 _atom_site_label
 _atom_site_symmetry_multiplicity
 _atom_site_fract_x
 _atom_site_fract_y
 _atom_site_fract_z
 _atom_site_occupancy
  Ba  Ba0  1  0.94120100  0.00000000  0.25000000  1
  Ba  Ba1  1  0.55879900  0.49999999  0.25000000  1
  Sr  Sr2  1  0.05879900  0.00000000  0.74999999  1
  Sr  Sr3  1  0.44120100  0.49999999  0.74999999  1
  Sr  Sr4  1  0.75000000  0.74999999  0.00019500  1
  Sr  Sr5  1  0.75000000  0.25000000  0.49980500  1
  Sr  Sr6  1  0.25000000  0.25000000  0.99980499  1
  Sr  Sr7  1  0.25000000  0.74999999  0.50019500  1
  Au  Au8  1  0.75000000  0.74999999  0.42968900  1
  Au  Au9  1  0.75000000  0.25000000  0.07031100  1
  Tl  Tl10  1  0.25000000  0.25000000  0.57031099  1
  Bi  Bi11  1  0.25000000  0.74999999  0.92968899  1
  Bi  Bi12  1  0.42165500  0.93728099  0.15401100  1
  Bi  Bi13  1  0.42165500  0.06271900  0.34598900  1
  Au  Au14  1  0.07834500  0.43728099  0.34598900  1
  Au  Au15  1  0.07834500  0.56271899  0.15401100  1
  Pb  Pb16  1  0.57834500  0.06271900  0.84598899  1
  Pb  Pb17  1  0.57834500  0.93728099  0.65401099  1
  Pb  Pb18  1  0.92165500  0.56271899  0.65401099  1
  Pb  Pb19  1  0.92165500  0.43728099  0.84598899  1
