# generated using pymatgen
data_NaLi2FeP8
_symmetry_space_group_name_H-M   'P 1'
_cell_length_a   3.73444390
_cell_length_b   3.73444390
_cell_length_c   15.01416492
_cell_angle_alpha   90.00000000
_cell_angle_beta   90.00000000
_cell_angle_gamma   90.00000000
_symmetry_Int_Tables_number   1
_chemical_formula_structural   NaLi2FeP8
_chemical_formula_sum   'Na1 Li2 Fe1 P8'
_cell_volume   209.38861401
_cell_formula_units_Z   1
loop_
 _symmetry_equiv_pos_site_id
 _symmetry_equiv_pos_as_xyz
  1  'x, y, z'
loop_
 _atom_site_type_symbol
 _atom_site_label
 _atom_site_symmetry_multiplicity
 _atom_site_fract_x
 _atom_site_fract_y
 _atom_site_fract_z
 _atom_site_occupancy
  Na  Na0  1  0.50000001  0.50000001  0.50000000  1
  Li  Li1  1  0.50000001  0.50000001  0.74229600  1
  Li  Li2  1  0.50000001  0.50000001  0.25770400  1
  Fe  Fe3  1  0.00000000  0.00000000  0.87886900  1
  P  P4  1  0.00000000  0.00000000  0.12113100  1
  P  P5  1  0.00000000  0.00000000  0.34964600  1
  P  P6  1  0.00000000  0.00000000  0.65035400  1
  P  P7  1  0.50000001  0.00000000  0.83333600  1
  P  P8  1  -0.00000000  0.50000001  0.83333600  1
  P  P9  1  -0.00000000  0.50000001  0.16666400  1
  P  P10  1  0.00000000  0.00000000  0.00000000  1
  P  P11  1  0.50000001  0.00000000  0.16666400  1
