# generated using pymatgen
data_Y2In2SnGePdAu
_symmetry_space_group_name_H-M   'P 1'
_cell_length_a   4.47570610
_cell_length_b   5.64556265
_cell_length_c   8.19650364
_cell_angle_alpha   90.00000000
_cell_angle_beta   90.00000000
_cell_angle_gamma   113.35278320
_symmetry_Int_Tables_number   1
_chemical_formula_structural   Y2In2SnGePdAu
_chemical_formula_sum   'Y2 In2 Sn1 Ge1 Pd1 Au1'
_cell_volume   190.14228593
_cell_formula_units_Z   1
loop_
 _symmetry_equiv_pos_site_id
 _symmetry_equiv_pos_as_xyz
  1  'x, y, z'
loop_
 _atom_site_type_symbol
 _atom_site_label
 _atom_site_symmetry_multiplicity
 _atom_site_fract_x
 _atom_site_fract_y
 _atom_site_fract_z
 _atom_site_occupancy
  Y  Y0  1  0.06677899  0.13355800  0.25000001  1
  Y  Y1  1  0.93322091  0.86644197  0.75000003  1
  In  In2  1  0.35259794  0.70519597  0.44833102  1
  In  In3  1  0.64740196  0.29480399  0.55166902  1
  Sn  Sn4  1  0.35259794  0.70519597  0.05166900  1
  Au  Au5  1  0.64740196  0.29480399  0.94833104  1
  Ge  Ge6  1  0.21530696  0.43061398  0.75000003  1
  Pd  Pd7  1  0.78469294  0.56938598  0.25000001  1
