# generated using pymatgen
data_K3Na3HgIO12
_symmetry_space_group_name_H-M   'P 1'
_cell_length_a   5.31948709
_cell_length_b   8.01049137
_cell_length_c   8.01049137
_cell_angle_alpha   90.00000000
_cell_angle_beta   90.00000000
_cell_angle_gamma   90.00000000
_symmetry_Int_Tables_number   1
_chemical_formula_structural   K3Na3HgIO12
_chemical_formula_sum   'K3 Na3 Hg1 I1 O12'
_cell_volume   341.34069900
_cell_formula_units_Z   1
loop_
 _symmetry_equiv_pos_site_id
 _symmetry_equiv_pos_as_xyz
  1  'x, y, z'
loop_
 _atom_site_type_symbol
 _atom_site_label
 _atom_site_symmetry_multiplicity
 _atom_site_fract_x
 _atom_site_fract_y
 _atom_site_fract_z
 _atom_site_occupancy
  Na  Na0  1  0.49999999  0.00000000  0.00000000  1
  K  K1  1  0.49999999  0.49999998  0.49999998  1
  K  K2  1  0.10750800  0.00000000  0.49999998  1
  K  K3  1  0.89249198  0.49999998  0.00000000  1
  Na  Na4  1  0.08578900  0.70299897  -0.00000000  1
  Na  Na5  1  0.08578900  0.29700099  0.00000000  1
  Hg  Hg6  1  0.08578900  0.49999998  0.20299899  1
  I  I7  1  0.08578900  0.49999998  0.79700096  1
  O  O8  1  0.30729299  0.85691096  0.35691098  1
  O  O9  1  0.30729299  0.85691096  0.64308897  1
  O  O10  1  0.30729299  0.14308899  0.35691098  1
  O  O11  1  0.30729299  0.14308899  0.64308897  1
  O  O12  1  0.69270699  0.64308897  0.85691096  1
  O  O13  1  0.69270699  0.35691098  0.14308899  1
  O  O14  1  0.69270699  0.35691098  0.85691096  1
  O  O15  1  0.69270699  0.64308897  0.14308899  1
  O  O16  1  0.91421098  0.00000000  0.29700099  1
  O  O17  1  0.91421098  0.79700096  0.49999998  1
  O  O18  1  0.91421098  0.20299899  0.49999998  1
  O  O19  1  0.91421098  0.00000000  0.70299897  1
