# generated using pymatgen
data_LaDyIn6(Sn3Au)2
_symmetry_space_group_name_H-M   'P 1'
_cell_length_a   6.45397997
_cell_length_b   6.47592735
_cell_length_c   10.30142879
_cell_angle_alpha   90.00000000
_cell_angle_beta   90.00000000
_cell_angle_gamma   119.88795471
_symmetry_Int_Tables_number   1
_chemical_formula_structural   LaDyIn6(Sn3Au)2
_chemical_formula_sum   'La1 Dy1 In6 Sn6 Au2'
_cell_volume   373.29047511
_cell_formula_units_Z   1
loop_
 _symmetry_equiv_pos_site_id
 _symmetry_equiv_pos_as_xyz
  1  'x, y, z'
loop_
 _atom_site_type_symbol
 _atom_site_label
 _atom_site_symmetry_multiplicity
 _atom_site_fract_x
 _atom_site_fract_y
 _atom_site_fract_z
 _atom_site_occupancy
  In  In0  1  0.16728301  0.33456601  0.50000001  1
  Dy  Dy1  1  0.16665201  0.33330401  1.00000002  1
  In  In2  1  0.66654901  0.33309801  1.00000002  1
  La  La3  1  0.66318602  0.83652001  0.50000001  1
  In  In4  1  0.66659002  0.83353701  1.00000002  1
  In  In5  1  0.17333402  0.83652001  0.50000001  1
  In  In6  1  0.16694702  0.83353701  1.00000002  1
  In  In7  1  0.83081601  0.16517900  0.75338402  1
  Sn  Sn8  1  0.83081601  0.16517900  0.24661600  1
  Sn  Sn9  1  0.33436301  0.16517900  0.75338402  1
  Au  Au10  1  0.33436301  0.16517900  0.24661600  1
  Sn  Sn11  1  0.33449202  0.66898401  0.75405702  1
  Sn  Sn12  1  0.33449202  0.66898401  0.24594300  1
  Sn  Sn13  1  0.83328002  0.66656001  0.74664401  1
  Au  Au14  1  0.83328002  0.66656001  0.25335601  1
  Sn  Sn15  1  0.66354701  0.32709401  0.50000001  1
