# generated using pymatgen
data_LiMgGa2Ge
_symmetry_space_group_name_H-M   'P 1'
_cell_length_a   4.24880219
_cell_length_b   4.24880219
_cell_length_c   6.05992794
_cell_angle_alpha   110.52190399
_cell_angle_beta   110.52190399
_cell_angle_gamma   90.00000000
_symmetry_Int_Tables_number   1
_chemical_formula_structural   LiMgGa2Ge
_chemical_formula_sum   'Li1 Mg1 Ga2 Ge1'
_cell_volume   95.00489368
_cell_formula_units_Z   1
loop_
 _symmetry_equiv_pos_site_id
 _symmetry_equiv_pos_as_xyz
  1  'x, y, z'
loop_
 _atom_site_type_symbol
 _atom_site_label
 _atom_site_symmetry_multiplicity
 _atom_site_fract_x
 _atom_site_fract_y
 _atom_site_fract_z
 _atom_site_occupancy
  Li  Li0  1  0.98547804  0.98547799  0.97095613  1
  Mg  Mg1  1  0.39164801  0.39164800  0.78329606  1
  Ga  Ga2  1  0.23500504  0.73500499  0.47001007  1
  Ga  Ga3  1  0.73500500  0.23500500  0.47001006  1
  Ge  Ge4  1  0.61715402  0.61715399  0.23430808  1
