# generated using pymatgen
data_KEu3B2(CO4)2
_symmetry_space_group_name_H-M   'P 1'
_cell_length_a   6.00621319
_cell_length_b   6.81176615
_cell_length_c   6.94169092
_cell_angle_alpha   99.47570801
_cell_angle_beta   90.00000000
_cell_angle_gamma   90.00000000
_symmetry_Int_Tables_number   1
_chemical_formula_structural   KEu3B2(CO4)2
_chemical_formula_sum   'K1 Eu3 B2 C2 O8'
_cell_volume   280.12973585
_cell_formula_units_Z   1
loop_
 _symmetry_equiv_pos_site_id
 _symmetry_equiv_pos_as_xyz
  1  'x, y, z'
loop_
 _atom_site_type_symbol
 _atom_site_label
 _atom_site_symmetry_multiplicity
 _atom_site_fract_x
 _atom_site_fract_y
 _atom_site_fract_z
 _atom_site_occupancy
  K  K0  1  0.55357098  0.19576699  0.81541900  1
  Eu  Eu1  1  0.94642897  0.19576699  0.31541900  1
  Eu  Eu2  1  0.05357100  0.80423298  0.68458097  1
  Eu  Eu3  1  0.44642899  0.80423298  0.18458096  1
  B  B4  1  0.40793299  0.42934399  0.44641299  1
  B  B5  1  0.90793297  0.57065598  0.05358697  1
  C  C6  1  0.59206698  0.57065598  0.55358698  1
  C  C7  1  0.09206700  0.42934399  0.94641299  1
  O  O8  1  0.24905199  0.51114998  0.36696098  1
  O  O9  1  0.07276500  0.24405699  0.94657200  1
  O  O10  1  0.75094798  0.48884999  0.63303899  1
  O  O11  1  0.74905198  0.48884999  0.13303898  1
  O  O12  1  0.57276498  0.75594298  0.55342797  1
  O  O13  1  0.92723497  0.75594298  0.05342796  1
  O  O14  1  0.25094799  0.51114998  0.86696099  1
  O  O15  1  0.42723499  0.24405699  0.44657199  1
