# generated using pymatgen
data_ZrTiNb
_symmetry_space_group_name_H-M   'P 1'
_cell_length_a   2.93119407
_cell_length_b   2.93119407
_cell_length_c   6.42633772
_cell_angle_alpha   103.18294525
_cell_angle_beta   103.18294525
_cell_angle_gamma   90.00000000
_symmetry_Int_Tables_number   1
_chemical_formula_structural   ZrTiNb
_chemical_formula_sum   'Zr1 Ti1 Nb1'
_cell_volume   52.26379632
_cell_formula_units_Z   1
loop_
 _symmetry_equiv_pos_site_id
 _symmetry_equiv_pos_as_xyz
  1  'x, y, z'
loop_
 _atom_site_type_symbol
 _atom_site_label
 _atom_site_symmetry_multiplicity
 _atom_site_fract_x
 _atom_site_fract_y
 _atom_site_fract_z
 _atom_site_occupancy
  Zr  Zr0  1  0.32741601  0.32741600  0.65483202  1
  Nb  Nb1  1  0.67258402  0.67258400  0.34516804  1
  Ti  Ti2  1  0.00000000  0.00000000  0.00000000  1
