# generated using pymatgen
data_NaB3HS2Cl2O7
_symmetry_space_group_name_H-M   'P 1'
_cell_length_a   6.90523291
_cell_length_b   6.90523291
_cell_length_c   7.09032536
_cell_angle_alpha   109.05975342
_cell_angle_beta   109.05975342
_cell_angle_gamma   109.23148346
_symmetry_Int_Tables_number   1
_chemical_formula_structural   NaB3HS2Cl2O7
_chemical_formula_sum   'Na1 B3 H1 S2 Cl2 O7'
_cell_volume   263.61347027
_cell_formula_units_Z   1
loop_
 _symmetry_equiv_pos_site_id
 _symmetry_equiv_pos_as_xyz
  1  'x, y, z'
loop_
 _atom_site_type_symbol
 _atom_site_label
 _atom_site_symmetry_multiplicity
 _atom_site_fract_x
 _atom_site_fract_y
 _atom_site_fract_z
 _atom_site_occupancy
  Cl  Cl0  1  0.50881700  0.00881700  0.50000000  1
  Na  Na1  1  0.25881701  0.25881700  -0.00000001  1
  B  B2  1  0.99334101  0.49334101  0.49999997  1
  B  B3  1  0.74334102  0.74334101  -0.00000004  1
  B  B4  1  0.35138001  0.48765501  0.58360800  1
  H  H5  1  0.01777202  0.65404701  0.91639202  1
  S  S6  1  0.73765500  0.10138000  0.08360798  1
  S  S7  1  0.90404702  0.76777201  0.41639197  1
  O  O8  1  0.03459602  0.77689801  0.55384100  1
  O  O9  1  0.02708601  0.47266701  0.74028801  1
  Cl  Cl10  1  0.53679801  0.48238001  0.75971200  1
  O  O11  1  0.73075503  0.97305701  0.94615899  1
  O  O12  1  0.02689802  0.78459601  0.05384099  1
  O  O13  1  0.72266702  0.77708601  0.24028697  1
  O  O14  1  0.73238001  0.28679800  0.25971298  1
  O  O15  1  0.22305701  0.48075501  0.44615900  1
