# generated using pymatgen
data_LaY(InSn)2
_symmetry_space_group_name_H-M   'P 1'
_cell_length_a   4.55965710
_cell_length_b   4.55965710
_cell_length_c   9.29189301
_cell_angle_alpha   90.00000000
_cell_angle_beta   90.00000000
_cell_angle_gamma   90.00000000
_symmetry_Int_Tables_number   1
_chemical_formula_structural   LaY(InSn)2
_chemical_formula_sum   'La1 Y1 In2 Sn2'
_cell_volume   193.18284917
_cell_formula_units_Z   1
loop_
 _symmetry_equiv_pos_site_id
 _symmetry_equiv_pos_as_xyz
  1  'x, y, z'
loop_
 _atom_site_type_symbol
 _atom_site_label
 _atom_site_symmetry_multiplicity
 _atom_site_fract_x
 _atom_site_fract_y
 _atom_site_fract_z
 _atom_site_occupancy
  Y  Y0  1  -0.00000000  0.49999999  0.72560600  1
  La  La1  1  0.49999999  0.00000000  0.27439400  1
  In  In2  1  -0.00000000  0.49999999  0.36647600  1
  Sn  Sn3  1  0.49999999  0.00000000  0.63352400  1
  Sn  Sn4  1  0.49999999  0.49999999  0.00000000  1
  In  In5  1  0.00000000  0.00000000  0.00000000  1
