# generated using pymatgen
data_YZnCuAsP
_symmetry_space_group_name_H-M   'P 1'
_cell_length_a   4.28256607
_cell_length_b   4.28256607
_cell_length_c   6.44477177
_cell_angle_alpha   90.00000000
_cell_angle_beta   90.00000000
_cell_angle_gamma   120.00000000
_symmetry_Int_Tables_number   1
_chemical_formula_structural   YZnCuAsP
_chemical_formula_sum   'Y1 Zn1 Cu1 As1 P1'
_cell_volume   102.36378064
_cell_formula_units_Z   1
loop_
 _symmetry_equiv_pos_site_id
 _symmetry_equiv_pos_as_xyz
  1  'x, y, z'
loop_
 _atom_site_type_symbol
 _atom_site_label
 _atom_site_symmetry_multiplicity
 _atom_site_fract_x
 _atom_site_fract_y
 _atom_site_fract_z
 _atom_site_occupancy
  Y  Y0  1  0.00000000  0.00000000  0.00000000  1
  Zn  Zn1  1  0.33333333  0.66666666  0.65061202  1
  Cu  Cu2  1  0.66666666  0.33333333  0.34938801  1
  P  P3  1  0.33333333  0.66666666  0.25153101  1
  As  As4  1  0.66666666  0.33333333  0.74846903  1
