# generated using pymatgen
data_YErMgGa7Ge7P
_symmetry_space_group_name_H-M   'P 1'
_cell_length_a   4.07602882
_cell_length_b   9.10288239
_cell_length_c   9.10288239
_cell_angle_alpha   120.00000000
_cell_angle_beta   90.00000000
_cell_angle_gamma   90.00000000
_symmetry_Int_Tables_number   1
_chemical_formula_structural   YErMgGa7Ge7P
_chemical_formula_sum   'Y1 Er1 Mg1 Ga7 Ge7 P1'
_cell_volume   292.49991285
_cell_formula_units_Z   1
loop_
 _symmetry_equiv_pos_site_id
 _symmetry_equiv_pos_as_xyz
  1  'x, y, z'
loop_
 _atom_site_type_symbol
 _atom_site_label
 _atom_site_symmetry_multiplicity
 _atom_site_fract_x
 _atom_site_fract_y
 _atom_site_fract_z
 _atom_site_occupancy
  Er  Er0  1  0.50000002  0.66666664  0.33333331  1
  Y  Y1  1  0.50000002  0.33333332  0.66666663  1
  Mg  Mg2  1  0.00000000  0.00000000  0.00000000  1
  Ga  Ga3  1  -0.00000000  0.49999998  0.49999997  1
  Ga  Ga4  1  1.00000004  0.00000000  0.49999998  1
  Ga  Ga5  1  -0.00000000  0.49999998  -0.00000000  1
  Ga  Ga6  1  0.50000002  0.69905597  0.69905596  1
  Ga  Ga7  1  0.50000002  0.30094399  0.30094398  1
  Ge  Ge8  1  0.50000002  0.00000000  0.30094399  1
  Ga  Ga9  1  0.50000002  0.00000000  0.69905597  1
  Ga  Ga10  1  0.50000002  0.30094399  -0.00000000  1
  Ge  Ge11  1  0.50000002  0.69905597  -0.00000000  1
  Ge  Ge12  1  -0.00000000  0.81967096  0.18032799  1
  Ge  Ge13  1  -0.00000000  0.18032899  0.81967196  1
  Ge  Ge14  1  -0.00000000  0.36065698  0.18032799  1
  Ge  Ge15  1  -0.00000000  0.63934297  0.81967196  1
  P  P16  1  -0.00000000  0.81967096  0.63934197  1
  Ge  Ge17  1  -0.00000000  0.18032899  0.36065798  1
