# generated using pymatgen
data_LiCaEuO2
_symmetry_space_group_name_H-M   'P 1'
_cell_length_a   3.82115412
_cell_length_b   3.82115459
_cell_length_c   6.16624212
_cell_angle_alpha   90.00000000
_cell_angle_beta   90.00000000
_cell_angle_gamma   119.99999237
_symmetry_Int_Tables_number   1
_chemical_formula_structural   LiCaEuO2
_chemical_formula_sum   'Li1 Ca1 Eu1 O2'
_cell_volume   77.97231015
_cell_formula_units_Z   1
loop_
 _symmetry_equiv_pos_site_id
 _symmetry_equiv_pos_as_xyz
  1  'x, y, z'
loop_
 _atom_site_type_symbol
 _atom_site_label
 _atom_site_symmetry_multiplicity
 _atom_site_fract_x
 _atom_site_fract_y
 _atom_site_fract_z
 _atom_site_occupancy
  Eu  Eu0  1  0.00000000  0.00000000  0.00000000  1
  Li  Li1  1  0.33333328  0.66666663  0.64060699  1
  Ca  Ca2  1  0.66666662  0.33333331  0.35939299  1
  O  O3  1  0.33333328  0.66666663  0.25154699  1
  O  O4  1  0.66666662  0.33333331  0.74845299  1
