# generated using pymatgen
data_YErAl2Si5
_symmetry_space_group_name_H-M   'P 1'
_cell_length_a   3.99907398
_cell_length_b   4.09698391
_cell_length_c   11.21437073
_cell_angle_alpha   90.00000000
_cell_angle_beta   100.27082825
_cell_angle_gamma   90.00000000
_symmetry_Int_Tables_number   1
_chemical_formula_structural   YErAl2Si5
_chemical_formula_sum   'Y1 Er1 Al2 Si5'
_cell_volume   180.79361473
_cell_formula_units_Z   1
loop_
 _symmetry_equiv_pos_site_id
 _symmetry_equiv_pos_as_xyz
  1  'x, y, z'
loop_
 _atom_site_type_symbol
 _atom_site_label
 _atom_site_symmetry_multiplicity
 _atom_site_fract_x
 _atom_site_fract_y
 _atom_site_fract_z
 _atom_site_occupancy
  Y  Y0  1  0.00311100  1.00000002  0.00622200  1
  Er  Er1  1  0.66996700  1.00000002  0.33993399  1
  Al  Al2  1  0.22361900  0.50000001  0.44723800  1
  Al  Al3  1  0.28408600  0.00000000  0.56817200  1
  Si  Si4  1  0.39705300  1.00000002  0.79410600  1
  Si  Si5  1  0.55044600  0.50000001  0.10089199  1
  Si  Si6  1  0.11730300  0.50000001  0.23460600  1
  Si  Si7  1  0.89916699  0.50000001  0.79833399  1
  Si  Si8  1  0.78624700  0.50000001  0.57249399  1
