# generated using pymatgen
data_HoEr(InAu2)2
_symmetry_space_group_name_H-M   'P 1'
_cell_length_a   4.59837818
_cell_length_b   6.38233185
_cell_length_c   6.38233137
_cell_angle_alpha   120.00000000
_cell_angle_beta   90.00000000
_cell_angle_gamma   90.00000000
_symmetry_Int_Tables_number   1
_chemical_formula_structural   HoEr(InAu2)2
_chemical_formula_sum   'Ho1 Er1 In2 Au4'
_cell_volume   162.21613443
_cell_formula_units_Z   1
loop_
 _symmetry_equiv_pos_site_id
 _symmetry_equiv_pos_as_xyz
  1  'x, y, z'
loop_
 _atom_site_type_symbol
 _atom_site_label
 _atom_site_symmetry_multiplicity
 _atom_site_fract_x
 _atom_site_fract_y
 _atom_site_fract_z
 _atom_site_occupancy
  Er  Er0  1  0.24999999  0.66666666  0.33333330  1
  Ho  Ho1  1  0.74999997  0.33333333  0.66666665  1
  In  In2  1  0.74999997  0.85463500  0.14536395  1
  In  In3  1  0.74999997  0.29072900  0.14536398  1
  Au  Au4  1  0.74999997  0.85463500  0.70926996  1
  Au  Au5  1  0.24999999  0.14536500  0.85463600  1
  Au  Au6  1  0.24999999  0.70927100  0.85463597  1
  Au  Au7  1  0.24999999  0.14536500  0.29072999  1
