# generated using pymatgen
data_Nd3Y4ErMgInSiGe5
_symmetry_space_group_name_H-M   'P 1'
_cell_length_a   7.51371193
_cell_length_b   7.51371193
_cell_length_c   8.86252499
_cell_angle_alpha   115.08128357
_cell_angle_beta   115.08128357
_cell_angle_gamma   90.00000000
_symmetry_Int_Tables_number   1
_chemical_formula_structural   Nd3Y4ErMgInSiGe5
_chemical_formula_sum   'Nd3 Y4 Er1 Mg1 In1 Si1 Ge5'
_cell_volume   400.46440477
_cell_formula_units_Z   1
loop_
 _symmetry_equiv_pos_site_id
 _symmetry_equiv_pos_as_xyz
  1  'x, y, z'
loop_
 _atom_site_type_symbol
 _atom_site_label
 _atom_site_symmetry_multiplicity
 _atom_site_fract_x
 _atom_site_fract_y
 _atom_site_fract_z
 _atom_site_occupancy
  Er  Er0  1  0.71219000  0.21219000  0.74652396  1
  Y  Y1  1  0.46566600  0.28781000  0.25347598  1
  Nd  Nd2  1  0.78781000  0.96566600  0.25347598  1
  Nd  Nd3  1  0.53433400  0.71219000  0.74652396  1
  Y  Y4  1  0.00000000  0.00000000  0.00000000  1
  Nd  Nd5  1  0.03433400  0.53433400  0.74652396  1
  Mg  Mg6  1  0.28781000  0.78781000  0.25347598  1
  Y  Y7  1  0.21219000  0.03433400  0.74652397  1
  Y  Y8  1  0.96566600  0.46566600  0.25347598  1
  In  In9  1  0.50000000  0.50000000  -0.00000001  1
  Ge  Ge10  1  0.13380600  0.36619500  0.00000100  1
  Ge  Ge11  1  0.86619400  0.63380500  0.99999895  1
  Si  Si12  1  0.63380600  0.13380600  0.99999995  1
  Ge  Ge13  1  0.36619400  0.86619400  -0.00000001  1
  Ge  Ge14  1  0.25000000  0.25000000  0.49999998  1
  Ge  Ge15  1  0.75000000  0.75000000  0.49999997  1
