# generated using pymatgen
data_Y2Er2CuSi3Ge4
_symmetry_space_group_name_H-M   'P 1'
_cell_length_a   4.04026508
_cell_length_b   6.96098709
_cell_length_c   7.76171303
_cell_angle_alpha   90.00000000
_cell_angle_beta   90.00000000
_cell_angle_gamma   90.00000000
_symmetry_Int_Tables_number   1
_chemical_formula_structural   Y2Er2CuSi3Ge4
_chemical_formula_sum   'Y2 Er2 Si3 Cu1 Ge4'
_cell_volume   218.29222637
_cell_formula_units_Z   1
loop_
 _symmetry_equiv_pos_site_id
 _symmetry_equiv_pos_as_xyz
  1  'x, y, z'
loop_
 _atom_site_type_symbol
 _atom_site_label
 _atom_site_symmetry_multiplicity
 _atom_site_fract_x
 _atom_site_fract_y
 _atom_site_fract_z
 _atom_site_occupancy
  Er  Er0  1  0.24999999  0.52831299  0.18817400  1
  Er  Er1  1  0.74999998  0.47168699  0.81182600  1
  Y  Y2  1  0.74999998  0.97168699  0.68817400  1
  Y  Y3  1  0.24999999  0.02831300  0.31182600  1
  Si  Si4  1  0.24999999  0.75297099  0.87842500  1
  Si  Si5  1  0.74999998  0.24702900  0.12157500  1
  Si  Si6  1  0.74999998  0.74702899  0.37842500  1
  Cu  Cu7  1  0.24999999  0.25297100  0.62157500  1
  Ge  Ge8  1  0.24999999  0.65024199  0.56129200  1
  Ge  Ge9  1  0.74999998  0.34975800  0.43870800  1
  Ge  Ge10  1  0.74999998  0.84975799  0.06129200  1
  Ge  Ge11  1  0.24999999  0.15024100  0.93870800  1
