# generated using pymatgen
data_MgAl2Ga3
_symmetry_space_group_name_H-M   'P 1'
_cell_length_a   4.27063799
_cell_length_b   4.27063799
_cell_length_c   7.19743681
_cell_angle_alpha   90.00000000
_cell_angle_beta   90.00000000
_cell_angle_gamma   120.00000000
_symmetry_Int_Tables_number   1
_chemical_formula_structural   MgAl2Ga3
_chemical_formula_sum   'Mg1 Al2 Ga3'
_cell_volume   113.68260330
_cell_formula_units_Z   1
loop_
 _symmetry_equiv_pos_site_id
 _symmetry_equiv_pos_as_xyz
  1  'x, y, z'
loop_
 _atom_site_type_symbol
 _atom_site_label
 _atom_site_symmetry_multiplicity
 _atom_site_fract_x
 _atom_site_fract_y
 _atom_site_fract_z
 _atom_site_occupancy
  Al  Al0  1  0.00000000  0.00000000  0.23933201  1
  Mg  Mg1  1  0.00000000  0.00000000  0.73933202  1
  Al  Al2  1  0.33333333  0.66666667  0.45293101  1
  Ga  Ga3  1  0.66666667  0.33333333  0.95293103  1
  Ga  Ga4  1  0.66666667  0.33333333  0.51533701  1
  Ga  Ga5  1  0.33333333  0.66666667  0.01533700  1
