# generated using pymatgen
data_Na2SrLi3MnCuSiO11
_symmetry_space_group_name_H-M   'P 1'
_cell_length_a   3.90309095
_cell_length_b   7.68546820
_cell_length_c   8.62560844
_cell_angle_alpha   63.54535675
_cell_angle_beta   89.99832916
_cell_angle_gamma   89.99659729
_symmetry_Int_Tables_number   1
_chemical_formula_structural   Na2SrLi3MnCuSiO11
_chemical_formula_sum   'Na2 Sr1 Li3 Mn1 Cu1 Si1 O11'
_cell_volume   231.64939241
_cell_formula_units_Z   1
loop_
 _symmetry_equiv_pos_site_id
 _symmetry_equiv_pos_as_xyz
  1  'x, y, z'
loop_
 _atom_site_type_symbol
 _atom_site_label
 _atom_site_symmetry_multiplicity
 _atom_site_fract_x
 _atom_site_fract_y
 _atom_site_fract_z
 _atom_site_occupancy
  Li  Li0  1  0.50000000  0.12504100  0.24991101  1
  Sr  Sr1  1  0.49999999  0.37495699  0.75008901  1
  Na  Na2  1  0.49999997  0.62504798  0.24991103  1
  Na  Na3  1  0.49999996  0.87495397  0.75008902  1
  Li  Li4  1  0.00000097  0.49976798  0.00046301  1
  Li  Li5  1  0.00000096  0.75023297  0.49953601  1
  Mn  Mn6  1  0.99999900  0.25023299  0.49953403  1
  Cu  Cu7  1  0.99999996  0.99976596  0.00046805  1
  O  O8  1  0.49999999  0.25005599  0.49988801  1
  O  O9  1  0.49999898  0.49994798  0.00010403  1
  O  O10  1  0.50000097  0.75005097  0.49989602  1
  Si  Si11  1  0.49999895  0.99994496  0.00011204  1
  O  O12  1  0.99999996  0.99991996  0.50017305  1
  O  O13  1  1.00000000  0.25008999  0.99982702  1
  O  O14  1  0.99999999  0.49990698  0.50017303  1
  O  O15  1  0.99999997  0.75008197  0.99982703  1
  O  O16  1  -0.00000002  0.37499899  0.25000201  1
  O  O17  1  0.99999998  0.62499798  0.75000403  1
  O  O18  1  0.99999997  0.87500297  0.24999405  1
  O  O19  1  -0.00000001  0.12499900  0.75000099  1
