# generated using pymatgen
data_DyYIn6
_symmetry_space_group_name_H-M   'P 1'
_cell_length_a   5.55411816
_cell_length_b   6.60306787
_cell_length_c   6.60306740
_cell_angle_alpha   120.00000000
_cell_angle_beta   90.00000000
_cell_angle_gamma   90.00000000
_symmetry_Int_Tables_number   1
_chemical_formula_structural   DyYIn6
_chemical_formula_sum   'Y1 Dy1 In6'
_cell_volume   209.71873912
_cell_formula_units_Z   1
loop_
 _symmetry_equiv_pos_site_id
 _symmetry_equiv_pos_as_xyz
  1  'x, y, z'
loop_
 _atom_site_type_symbol
 _atom_site_label
 _atom_site_symmetry_multiplicity
 _atom_site_fract_x
 _atom_site_fract_y
 _atom_site_fract_z
 _atom_site_occupancy
  Y  Y0  1  0.74999998  0.33333333  0.66666665  1
  Dy  Dy1  1  0.24999999  0.66666666  0.33333330  1
  In  In2  1  0.74999998  0.83184499  0.16815496  1
  In  In3  1  0.74999998  0.33631000  0.16815498  1
  In  In4  1  0.74999998  0.83184499  0.66368996  1
  In  In5  1  0.24999999  0.16815500  0.33630999  1
  In  In6  1  0.24999999  0.66368999  0.83184497  1
  In  In7  1  0.24999999  0.16815500  0.83184500  1
