# generated using pymatgen
data_Li2O2
_symmetry_space_group_name_H-M   'P 1'
_cell_length_a   4.10768604
_cell_length_b   5.08600569
_cell_length_c   6.60217667
_cell_angle_alpha   97.90341187
_cell_angle_beta   90.00000000
_cell_angle_gamma   113.81735229
_symmetry_Int_Tables_number   1
_chemical_formula_structural   Li2O2
_chemical_formula_sum   'Li7 O7'
_cell_volume   124.75077636
_cell_formula_units_Z   3
loop_
 _symmetry_equiv_pos_site_id
 _symmetry_equiv_pos_as_xyz
  1  'x, y, z'
loop_
 _atom_site_type_symbol
 _atom_site_label
 _atom_site_symmetry_multiplicity
 _atom_site_fract_x
 _atom_site_fract_y
 _atom_site_fract_z
 _atom_site_occupancy
  Li  Li0  1  0.43302195  0.86604395  0.78125001  1
  Li  Li1  1  0.56697799  0.13395599  0.21875000  1
  Li  Li2  1  0.71751497  0.43502998  0.64381400  1
  Li  Li3  1  0.13956898  0.27913798  0.92977300  1
  Li  Li4  1  0.86043096  0.72086196  0.07022701  1
  Li  Li5  1  0.00000000  0.00000000  0.50000000  1
  Li  Li6  1  0.28248497  0.56496997  0.35618601  1
  O  O7  1  0.20877198  0.41754398  0.63778800  1
  O  O8  1  0.93199295  0.86398595  0.78763501  1
  O  O9  1  0.65577098  0.31154198  0.92382400  1
  O  O10  1  0.06800699  0.13601399  0.21236500  1
  O  O11  1  0.34422896  0.68845796  0.07617601  1
  O  O12  1  0.50000000  0.00000000  0.50000000  1
  O  O13  1  0.79122796  0.58245597  0.36221201  1
