# generated using pymatgen
data_SrCd2GaAu
_symmetry_space_group_name_H-M   'P 1'
_cell_length_a   5.86729527
_cell_length_b   5.86863136
_cell_length_c   5.86863136
_cell_angle_alpha   89.99919891
_cell_angle_beta   90.00440979
_cell_angle_gamma   89.99559021
_symmetry_Int_Tables_number   1
_chemical_formula_structural   SrCd2GaAu
_chemical_formula_sum   'Sr1 Cd2 Ga1 Au1'
_cell_volume   202.07454147
_cell_formula_units_Z   1
loop_
 _symmetry_equiv_pos_site_id
 _symmetry_equiv_pos_as_xyz
  1  'x, y, z'
loop_
 _atom_site_type_symbol
 _atom_site_label
 _atom_site_symmetry_multiplicity
 _atom_site_fract_x
 _atom_site_fract_y
 _atom_site_fract_z
 _atom_site_occupancy
  Sr  Sr0  1  0.00474304  0.99812599  0.00187399  1
  Ga  Ga1  1  0.51581800  0.49595300  0.50404697  1
  Cd  Cd2  1  0.51371300  0.49542300  0.00157197  1
  Cd  Cd3  1  0.01492702  0.50498300  0.49501699  1
  Au  Au4  1  0.51371302  0.99842799  0.50457697  1
