# generated using pymatgen
data_Y2Mg2AlSiGe6
_symmetry_space_group_name_H-M   'P 1'
_cell_length_a   4.31663179
_cell_length_b   8.34743977
_cell_length_c   8.34744072
_cell_angle_alpha   120.00000000
_cell_angle_beta   90.00000000
_cell_angle_gamma   90.00000000
_symmetry_Int_Tables_number   1
_chemical_formula_structural   Y2Mg2AlSiGe6
_chemical_formula_sum   'Y2 Mg2 Al1 Si1 Ge6'
_cell_volume   260.48473297
_cell_formula_units_Z   1
loop_
 _symmetry_equiv_pos_site_id
 _symmetry_equiv_pos_as_xyz
  1  'x, y, z'
loop_
 _atom_site_type_symbol
 _atom_site_label
 _atom_site_symmetry_multiplicity
 _atom_site_fract_x
 _atom_site_fract_y
 _atom_site_fract_z
 _atom_site_occupancy
  Y  Y0  1  0.50000002  0.00000000  -0.00000000  1
  Mg  Mg1  1  0.50000002  0.00000000  0.50000000  1
  Y  Y2  1  0.50000002  0.50000003  0.00000003  1
  Mg  Mg3  1  0.50000002  0.50000003  0.50000003  1
  Al  Al4  1  -0.00000000  0.83410805  0.16589305  1
  Ge  Ge5  1  -0.00000000  0.33178502  0.16589302  1
  Ge  Ge6  1  -0.00000000  0.66821504  0.83410705  1
  Si  Si7  1  -0.00000000  0.83410805  0.66821606  1
  Ge  Ge8  1  -0.00000000  0.16589201  0.83410702  1
  Ge  Ge9  1  -0.00000000  0.16589201  0.33178401  1
  Ge  Ge10  1  -0.00000000  0.66666671  0.33333338  1
  Ge  Ge11  1  -0.00000000  0.33333335  0.66666669  1
