# generated using pymatgen
data_MnGa2Pd13
_symmetry_space_group_name_H-M   'P 1'
_cell_length_a   4.07488012
_cell_length_b   5.44614315
_cell_length_c   10.65003395
_cell_angle_alpha   90.00000000
_cell_angle_beta   90.00000000
_cell_angle_gamma   90.00000000
_symmetry_Int_Tables_number   1
_chemical_formula_structural   MnGa2Pd13
_chemical_formula_sum   'Mn1 Ga2 Pd13'
_cell_volume   236.34960547
_cell_formula_units_Z   1
loop_
 _symmetry_equiv_pos_site_id
 _symmetry_equiv_pos_as_xyz
  1  'x, y, z'
loop_
 _atom_site_type_symbol
 _atom_site_label
 _atom_site_symmetry_multiplicity
 _atom_site_fract_x
 _atom_site_fract_y
 _atom_site_fract_z
 _atom_site_occupancy
  Mn  Mn0  1  0.00000000  0.00000000  0.00000000  1
  Ga  Ga1  1  0.00000000  0.49999999  0.50000000  1
  Ga  Ga2  1  0.49999998  0.16087700  0.35691200  1
  Pd  Pd3  1  0.49999998  0.83912298  0.64308800  1
  Pd  Pd4  1  0.49999998  0.66087698  0.14308800  1
  Pd  Pd5  1  0.49999998  0.33912299  0.85691200  1
  Pd  Pd6  1  0.49999998  0.18672999  0.10551900  1
  Pd  Pd7  1  0.49999998  0.81326998  0.89448100  1
  Pd  Pd8  1  0.49999998  0.68672998  0.39448100  1
  Pd  Pd9  1  0.49999998  0.31326999  0.60551900  1
  Pd  Pd10  1  0.00000000  0.00000000  0.50000000  1
  Pd  Pd11  1  0.00000000  0.49999999  -0.00000000  1
  Pd  Pd12  1  0.00000000  0.90359898  0.23223600  1
  Pd  Pd13  1  0.00000000  0.09640100  0.76776400  1
  Pd  Pd14  1  0.00000000  0.40359899  0.26776400  1
  Pd  Pd15  1  0.00000000  0.59640098  0.73223600  1
