# generated using pymatgen
data_Er4AlCo7Si5Ni2Rh
_symmetry_space_group_name_H-M   'P 1'
_cell_length_a   6.43247986
_cell_length_b   6.45338678
_cell_length_c   6.45338678
_cell_angle_alpha   83.46690369
_cell_angle_beta   83.07215118
_cell_angle_gamma   83.07215118
_symmetry_Int_Tables_number   1
_chemical_formula_structural   Er4AlCo7Si5Ni2Rh
_chemical_formula_sum   'Er4 Al1 Co7 Si5 Ni2 Rh1'
_cell_volume   262.64910965
_cell_formula_units_Z   1
loop_
 _symmetry_equiv_pos_site_id
 _symmetry_equiv_pos_as_xyz
  1  'x, y, z'
loop_
 _atom_site_type_symbol
 _atom_site_label
 _atom_site_symmetry_multiplicity
 _atom_site_fract_x
 _atom_site_fract_y
 _atom_site_fract_z
 _atom_site_occupancy
  Er  Er0  1  0.35059899  0.33956799  0.33956799  1
  Er  Er1  1  0.64940097  0.66043198  0.66043199  1
  Er  Er2  1  0.15055699  0.65644698  0.65644700  1
  Er  Er3  1  0.65687898  0.14992599  0.65847997  1
  Co  Co4  1  0.65687897  0.65847998  0.14992601  1
  Al  Al5  1  0.84944297  0.34355299  0.34355299  1
  Co  Co6  1  0.34312098  0.85007397  0.34152001  1
  Co  Co7  1  0.34312099  0.34151999  0.85007398  1
  Co  Co8  1  0.09753500  0.09660800  0.09660800  1
  Si  Si9  1  0.90246496  0.90339197  0.90339199  1
  Si  Si10  1  0.49999999  0.00000000  -0.00000001  1
  Ni  Ni11  1  0.99999997  0.49999998  0.99999997  1
  Si  Si12  1  0.00000000  0.00000000  0.49999998  1
  Si  Si13  1  -0.00000000  0.28594199  0.71405799  1
  Co  Co14  1  0.70933597  0.99998697  0.29102701  1
  Co  Co15  1  0.29066398  0.70897298  0.00001302  1
  Co  Co16  1  0.29066399  0.00001300  0.70897297  1
  Ni  Ni17  1  0.70933598  0.29102699  0.99998697  1
  Si  Si18  1  -0.00000001  0.71405798  0.28594201  1
  Rh  Rh19  1  0.99999997  0.49999998  0.49999998  1
