# generated using pymatgen
data_Mn(FeNi)4
_symmetry_space_group_name_H-M   'P 1'
_cell_length_a   3.80831409
_cell_length_b   3.80831409
_cell_length_c   8.94021797
_cell_angle_alpha   90.00000000
_cell_angle_beta   90.00000000
_cell_angle_gamma   90.00000000
_symmetry_Int_Tables_number   1
_chemical_formula_structural   Mn(FeNi)4
_chemical_formula_sum   'Mn1 Fe4 Ni4'
_cell_volume   129.66227146
_cell_formula_units_Z   1
loop_
 _symmetry_equiv_pos_site_id
 _symmetry_equiv_pos_as_xyz
  1  'x, y, z'
loop_
 _atom_site_type_symbol
 _atom_site_label
 _atom_site_symmetry_multiplicity
 _atom_site_fract_x
 _atom_site_fract_y
 _atom_site_fract_z
 _atom_site_occupancy
  Mn  Mn0  1  0.49999999  0.49999999  0.78365600  1
  Fe  Fe1  1  0.49999999  0.49999999  0.19691400  1
  Fe  Fe2  1  0.00000000  0.00000000  0.49663800  1
  Fe  Fe3  1  0.00000000  0.00000000  0.99149200  1
  Ni  Ni4  1  0.00000000  0.00000000  0.73047500  1
  Fe  Fe5  1  0.00000000  0.00000000  0.26206200  1
  Ni  Ni6  1  0.00000000  0.49999999  0.01020500  1
  Ni  Ni7  1  0.49999999  0.00000000  0.01020500  1
  Ni  Ni8  1  0.49999999  0.49999999  0.47835400  1
