# generated using pymatgen
data_Er3ZrGa10GePdRh
_symmetry_space_group_name_H-M   'P 1'
_cell_length_a   7.45870256
_cell_length_b   7.45870256
_cell_length_c   7.45870256
_cell_angle_alpha   109.47122192
_cell_angle_beta   109.47122192
_cell_angle_gamma   109.47122192
_symmetry_Int_Tables_number   1
_chemical_formula_structural   Er3ZrGa10GePdRh
_chemical_formula_sum   'Er3 Zr1 Ga10 Ge1 Pd1 Rh1'
_cell_volume   319.42430243
_cell_formula_units_Z   1
loop_
 _symmetry_equiv_pos_site_id
 _symmetry_equiv_pos_as_xyz
  1  'x, y, z'
loop_
 _atom_site_type_symbol
 _atom_site_label
 _atom_site_symmetry_multiplicity
 _atom_site_fract_x
 _atom_site_fract_y
 _atom_site_fract_z
 _atom_site_occupancy
  Er  Er0  1  0.50000001  0.00000000  0.00000001  1
  Er  Er1  1  0.50000004  0.50000003  0.50000005  1
  Er  Er2  1  0.00000003  0.50000003  0.00000003  1
  Zr  Zr3  1  0.00000000  0.00000000  0.50000001  1
  Ga  Ga4  1  0.70325102  0.00000000  0.70325103  1
  Ga  Ga5  1  0.29674901  0.00000000  0.29674901  1
  Ga  Ga6  1  0.70325106  0.70325104  0.00000006  1
  Ga  Ga7  1  0.29674903  0.29674902  0.00000002  1
  Ge  Ge8  1  0.00000002  0.29674902  0.29674902  1
  Pd  Pd9  1  0.00000004  0.70325104  0.70325105  1
  Ga  Ga10  1  0.75000005  0.50000003  0.25000005  1
  Ga  Ga11  1  0.25000004  0.50000003  0.75000005  1
  Ga  Ga12  1  0.25000005  0.75000004  0.50000006  1
  Ga  Ga13  1  0.75000003  0.25000001  0.50000004  1
  Ga  Ga14  1  0.50000006  0.75000004  0.25000006  1
  Ga  Ga15  1  0.50000003  0.25000001  0.75000004  1
  Rh  Rh16  1  0.00000000  0.00000000  0.00000000  1
