# generated using pymatgen
data_Y2InSn2PdAu2
_symmetry_space_group_name_H-M   'P 1'
_cell_length_a   4.38857985
_cell_length_b   4.38857985
_cell_length_c   10.34096527
_cell_angle_alpha   90.00000000
_cell_angle_beta   90.00000000
_cell_angle_gamma   90.00000000
_symmetry_Int_Tables_number   1
_chemical_formula_structural   Y2InSn2PdAu2
_chemical_formula_sum   'Y2 In1 Sn2 Pd1 Au2'
_cell_volume   199.16319660
_cell_formula_units_Z   1
loop_
 _symmetry_equiv_pos_site_id
 _symmetry_equiv_pos_as_xyz
  1  'x, y, z'
loop_
 _atom_site_type_symbol
 _atom_site_label
 _atom_site_symmetry_multiplicity
 _atom_site_fract_x
 _atom_site_fract_y
 _atom_site_fract_z
 _atom_site_occupancy
  Y  Y0  1  0.00000000  0.50000002  0.74933198  1
  Y  Y1  1  0.50000002  0.00000000  0.25066799  1
  In  In2  1  0.50000002  0.50000002  0.49999999  1
  Sn  Sn3  1  0.00000000  0.00000000  0.49999999  1
  Sn  Sn4  1  0.50000002  0.50000002  0.00000000  1
  Au  Au5  1  0.00000000  0.00000000  0.00000000  1
  Pd  Pd6  1  0.00000000  0.50000002  0.35144199  1
  Au  Au7  1  0.50000002  0.00000000  0.64855798  1
