# generated using pymatgen
data_NaLi5CuNi
_symmetry_space_group_name_H-M   'P 1'
_cell_length_a   3.35742998
_cell_length_b   3.35743022
_cell_length_c   17.58302879
_cell_angle_alpha   90.00000000
_cell_angle_beta   90.00000000
_cell_angle_gamma   120.00000000
_symmetry_Int_Tables_number   1
_chemical_formula_structural   NaLi5CuNi
_chemical_formula_sum   'Na1 Li5 Cu1 Ni1'
_cell_volume   171.64781459
_cell_formula_units_Z   1
loop_
 _symmetry_equiv_pos_site_id
 _symmetry_equiv_pos_as_xyz
  1  'x, y, z'
loop_
 _atom_site_type_symbol
 _atom_site_label
 _atom_site_symmetry_multiplicity
 _atom_site_fract_x
 _atom_site_fract_y
 _atom_site_fract_z
 _atom_site_occupancy
  Li  Li0  1  0.33333337  0.66666670  0.25000000  1
  Li  Li1  1  0.66666669  0.33333335  0.75000001  1
  Na  Na2  1  0.00000000  0.00000000  0.00000000  1
  Li  Li3  1  0.00000000  0.00000000  0.50000001  1
  Li  Li4  1  0.00000000  0.00000000  0.66107401  1
  Ni  Ni5  1  0.00000000  0.00000000  0.16107400  1
  Li  Li6  1  0.00000000  0.00000000  0.83892601  1
  Cu  Cu7  1  0.00000000  0.00000000  0.33892600  1
