# generated using pymatgen
data_KBa3AgHgSeS2O3
_symmetry_space_group_name_H-M   'P 1'
_cell_length_a   3.84394193
_cell_length_b   5.76893663
_cell_length_c   14.35201073
_cell_angle_alpha   90.00000000
_cell_angle_beta   90.00000000
_cell_angle_gamma   109.46060181
_symmetry_Int_Tables_number   1
_chemical_formula_structural   KBa3AgHgSeS2O3
_chemical_formula_sum   'K1 Ba3 Ag1 Hg1 Se1 S2 O3'
_cell_volume   300.08032708
_cell_formula_units_Z   1
loop_
 _symmetry_equiv_pos_site_id
 _symmetry_equiv_pos_as_xyz
  1  'x, y, z'
loop_
 _atom_site_type_symbol
 _atom_site_label
 _atom_site_symmetry_multiplicity
 _atom_site_fract_x
 _atom_site_fract_y
 _atom_site_fract_z
 _atom_site_occupancy
  Ba  Ba0  1  0.40090197  0.80180401  0.75000001  1
  Ba  Ba1  1  0.59909800  0.19819600  0.25000000  1
  Ba  Ba2  1  0.06938400  0.13876800  0.88944302  1
  K  K3  1  0.93061598  0.86123201  0.11055700  1
  Ag  Ag4  1  0.93061598  0.86123201  0.38944301  1
  Hg  Hg5  1  0.06938400  0.13876800  0.61055701  1
  Se  Se6  1  0.68441300  0.36882601  0.75000001  1
  S  S7  1  0.31558698  0.63117401  0.25000000  1
  O  O8  1  0.35795798  0.71591601  0.95012602  1
  S  S9  1  0.64204200  0.28408400  0.04987400  1
  O  O10  1  0.64204200  0.28408400  0.45012601  1
  O  O11  1  0.35795798  0.71591601  0.54987401  1
