# generated using pymatgen
data_La2DyErAlGaSiGe5
_symmetry_space_group_name_H-M   'P 1'
_cell_length_a   5.56600189
_cell_length_b   5.56600189
_cell_length_c   9.64105034
_cell_angle_alpha   73.22215271
_cell_angle_beta   73.22215271
_cell_angle_gamma   60.00000000
_symmetry_Int_Tables_number   1
_chemical_formula_structural   La2DyErAlGaSiGe5
_chemical_formula_sum   'La2 Dy1 Er1 Al1 Ga1 Si1 Ge5'
_cell_volume   243.87537933
_cell_formula_units_Z   1
loop_
 _symmetry_equiv_pos_site_id
 _symmetry_equiv_pos_as_xyz
  1  'x, y, z'
loop_
 _atom_site_type_symbol
 _atom_site_label
 _atom_site_symmetry_multiplicity
 _atom_site_fract_x
 _atom_site_fract_y
 _atom_site_fract_z
 _atom_site_occupancy
  La  La0  1  0.81250697  0.81250701  0.56247903  1
  La  La1  1  0.31260599  0.31260600  0.06218201  1
  Dy  Dy2  1  0.68752797  0.68752801  0.93741603  1
  Er  Er3  1  0.18735099  0.18735100  0.43794701  1
  Si  Si4  1  0.50004398  0.50004400  0.49986802  1
  Al  Al5  1  0.00004000  0.00004000  0.99988001  1
  Ga  Ga6  1  0.24981399  0.24981400  0.75016902  1
  Ge  Ge7  1  0.74993197  0.74993201  0.24990803  1
  Ge  Ge8  1  0.75020299  0.24981400  0.75016902  1
  Ge  Ge9  1  0.25022797  0.74993201  0.24990802  1
  Ge  Ge10  1  0.24981397  0.75020301  0.75016903  1
  Ge  Ge11  1  0.74993199  0.25022800  0.24990802  1
