# generated using pymatgen
data_K2BaUTaNb3S10
_symmetry_space_group_name_H-M   'P 1'
_cell_length_a   7.94573402
_cell_length_b   8.79457283
_cell_length_c   7.94573402
_cell_angle_alpha   116.85542297
_cell_angle_beta   90.00000000
_cell_angle_gamma   116.85542297
_symmetry_Int_Tables_number   1
_chemical_formula_structural   K2BaUTaNb3S10
_chemical_formula_sum   'K2 Ba1 U1 Ta1 Nb3 S10'
_cell_volume   427.16190481
_cell_formula_units_Z   1
loop_
 _symmetry_equiv_pos_site_id
 _symmetry_equiv_pos_as_xyz
  1  'x, y, z'
loop_
 _atom_site_type_symbol
 _atom_site_label
 _atom_site_symmetry_multiplicity
 _atom_site_fract_x
 _atom_site_fract_y
 _atom_site_fract_z
 _atom_site_occupancy
  Ba  Ba0  1  0.24999996  0.49999994  0.24999996  1
  K  K1  1  0.74999996  0.49999994  0.74999996  1
  U  U2  1  0.16192300  0.00000000  0.66192300  1
  K  K3  1  0.33807692  0.99999989  0.16192292  1
  Ta  Ta4  1  0.66192300  0.00000000  0.83807700  1
  Nb  Nb5  1  0.83807692  0.99999989  0.33807692  1
  Nb  Nb6  1  0.74999996  0.49999994  0.24999996  1
  Nb  Nb7  1  0.24999996  0.49999994  0.74999996  1
  S  S8  1  0.01146394  0.72750792  0.21604394  1
  S  S9  1  0.28395598  0.27249197  0.48853598  1
  S  S10  1  0.98853598  0.27249197  0.78395598  1
  S  S11  1  0.48853598  0.27249197  0.98853598  1
  S  S12  1  0.78395598  0.27249197  0.28395598  1
  S  S13  1  0.51146394  0.72750792  0.01146394  1
  S  S14  1  0.21604394  0.72750792  0.71604394  1
  S  S15  1  0.71604394  0.72750792  0.51146394  1
  S  S16  1  0.00000000  0.00000000  0.00000000  1
  S  S17  1  0.50000000  0.00000000  0.50000000  1
