# generated using pymatgen
data_ErSc(AlSi2)2
_symmetry_space_group_name_H-M   'P 1'
_cell_length_a   4.28324413
_cell_length_b   5.81585217
_cell_length_c   5.81585169
_cell_angle_alpha   120.00000000
_cell_angle_beta   90.00000000
_cell_angle_gamma   90.00000000
_symmetry_Int_Tables_number   1
_chemical_formula_structural   ErSc(AlSi2)2
_chemical_formula_sum   'Er1 Sc1 Al2 Si4'
_cell_volume   125.46718143
_cell_formula_units_Z   1
loop_
 _symmetry_equiv_pos_site_id
 _symmetry_equiv_pos_as_xyz
  1  'x, y, z'
loop_
 _atom_site_type_symbol
 _atom_site_label
 _atom_site_symmetry_multiplicity
 _atom_site_fract_x
 _atom_site_fract_y
 _atom_site_fract_z
 _atom_site_occupancy
  Er  Er0  1  0.74999998  0.83514295  0.16485795  1
  Al  Al1  1  0.74999998  0.32971498  0.16485798  1
  Al  Al2  1  0.74999998  0.83514295  0.67028593  1
  Sc  Sc3  1  0.24999999  0.16485699  0.83514196  1
  Si  Si4  1  0.24999999  0.67028496  0.83514193  1
  Si  Si5  1  0.24999999  0.16485699  0.32971398  1
  Si  Si6  1  0.24999999  0.66666663  0.33333328  1
  Si  Si7  1  0.74999998  0.33333331  0.66666663  1
