# generated using pymatgen
data_CsKNaH3
_symmetry_space_group_name_H-M   'P 1'
_cell_length_a   4.22645378
_cell_length_b   4.22645378
_cell_length_c   6.79604387
_cell_angle_alpha   90.00000000
_cell_angle_beta   90.00000000
_cell_angle_gamma   90.00000000
_symmetry_Int_Tables_number   1
_chemical_formula_structural   CsKNaH3
_chemical_formula_sum   'Cs1 K1 Na1 H3'
_cell_volume   121.39713069
_cell_formula_units_Z   1
loop_
 _symmetry_equiv_pos_site_id
 _symmetry_equiv_pos_as_xyz
  1  'x, y, z'
loop_
 _atom_site_type_symbol
 _atom_site_label
 _atom_site_symmetry_multiplicity
 _atom_site_fract_x
 _atom_site_fract_y
 _atom_site_fract_z
 _atom_site_occupancy
  K  K0  1  0.50000003  0.00000000  0.67902301  1
  Cs  Cs1  1  0.00000000  0.50000003  0.32097701  1
  H  H2  1  0.50000003  0.00000000  0.17966600  1
  Na  Na3  1  0.00000000  0.50000003  0.82033402  1
  H  H4  1  0.00000000  0.00000000  0.00000000  1
  H  H5  1  0.50000003  0.50000003  0.00000000  1
