# generated using pymatgen
data_Hf2Ga7Pd10Pt
_symmetry_space_group_name_H-M   'P 1'
_cell_length_a   5.41455221
_cell_length_b   7.47931719
_cell_length_c   8.44546223
_cell_angle_alpha   90.00000000
_cell_angle_beta   90.00000000
_cell_angle_gamma   90.00000000
_symmetry_Int_Tables_number   1
_chemical_formula_structural   Hf2Ga7Pd10Pt
_chemical_formula_sum   'Hf2 Ga7 Pd10 Pt1'
_cell_volume   342.01717954
_cell_formula_units_Z   1
loop_
 _symmetry_equiv_pos_site_id
 _symmetry_equiv_pos_as_xyz
  1  'x, y, z'
loop_
 _atom_site_type_symbol
 _atom_site_label
 _atom_site_symmetry_multiplicity
 _atom_site_fract_x
 _atom_site_fract_y
 _atom_site_fract_z
 _atom_site_occupancy
  Ga  Ga0  1  0.50753098  0.26844099  0.12843600  1
  Hf  Hf1  1  0.74999997  0.59307199  0.11875600  1
  Hf  Hf2  1  0.24999999  0.90692798  0.61875598  1
  Ga  Ga3  1  0.24999999  0.40692799  0.88124398  1
  Ga  Ga4  1  0.99246896  0.76844098  0.37156399  1
  Ga  Ga5  1  0.49246898  0.23155899  0.62843598  1
  Ga  Ga6  1  0.50753098  0.76844098  0.37156399  1
  Ga  Ga7  1  0.00753100  0.73155898  0.87156398  1
  Pd  Pd8  1  0.74999997  0.09307200  0.38124399  1
  Ga  Ga9  1  0.00753100  0.23155899  0.62843598  1
  Pd  Pd10  1  0.99246896  0.26844099  0.12843600  1
  Pd  Pd11  1  0.49246898  0.73155898  0.87156398  1
  Pd  Pd12  1  0.24999999  0.10060400  0.35663699  1
  Pd  Pd13  1  0.24999999  0.60060398  0.14336300  1
  Pd  Pd14  1  0.74999997  0.39939599  0.85663698  1
  Pd  Pd15  1  0.74999997  0.94233198  0.09405500  1
  Pd  Pd16  1  0.74999997  0.44233199  0.40594499  1
  Pd  Pd17  1  0.74999997  0.89939598  0.64336298  1
  Pt  Pt18  1  0.24999999  0.55766799  0.59405498  1
  Pd  Pd19  1  0.24999999  0.05766800  0.90594498  1
