# generated using pymatgen
data_MnBeNbCrSiTc3B4OsN
_symmetry_space_group_name_H-M   'P 1'
_cell_length_a   3.38150001
_cell_length_b   5.85791636
_cell_length_c   10.65250874
_cell_angle_alpha   90.00000000
_cell_angle_beta   90.00000000
_cell_angle_gamma   106.77574158
_symmetry_Int_Tables_number   1
_chemical_formula_structural   MnBeNbCrSiTc3B4OsN
_chemical_formula_sum   'Mn1 Be1 Nb1 Cr1 Tc3 Si1 B4 Os1 N1'
_cell_volume   202.03045163
_cell_formula_units_Z   1
loop_
 _symmetry_equiv_pos_site_id
 _symmetry_equiv_pos_as_xyz
  1  'x, y, z'
loop_
 _atom_site_type_symbol
 _atom_site_label
 _atom_site_symmetry_multiplicity
 _atom_site_fract_x
 _atom_site_fract_y
 _atom_site_fract_z
 _atom_site_occupancy
  Mn  Mn0  1  0.89182192  0.78364402  0.75000002  1
  Nb  Nb1  1  0.10817798  0.21635600  0.25000001  1
  Tc  Tc2  1  0.36535492  0.73071001  0.42794501  1
  Cr  Cr3  1  0.63464497  0.26929001  0.57205501  1
  Tc  Tc4  1  0.63464497  0.26929001  0.92794502  1
  Tc  Tc5  1  0.36535492  0.73071001  0.07205500  1
  Si  Si6  1  0.53680599  0.07361200  0.75000002  1
  Be  Be7  1  0.46319390  0.92638802  0.25000001  1
  B  B8  1  0.00000000  0.00000000  0.50000001  1
  B  B9  1  0.00000000  0.00000000  0.00000000  1
  B  B10  1  0.28029494  0.56059001  0.88255802  1
  B  B11  1  0.71970495  0.43941001  0.11744200  1
  N  N12  1  0.28029494  0.56059001  0.61744202  1
  Os  Os13  1  0.71970495  0.43941001  0.38255801  1
