# generated using pymatgen
data_Li7CuO8
_symmetry_space_group_name_H-M   'P 1'
_cell_length_a   6.07204914
_cell_length_b   6.07204914
_cell_length_c   6.07204914
_cell_angle_alpha   60.00775909
_cell_angle_beta   60.00775909
_cell_angle_gamma   60.00776672
_symmetry_Int_Tables_number   1
_chemical_formula_structural   Li7CuO8
_chemical_formula_sum   'Li7 Cu1 O8'
_cell_volume   158.33147217
_cell_formula_units_Z   1
loop_
 _symmetry_equiv_pos_site_id
 _symmetry_equiv_pos_as_xyz
  1  'x, y, z'
loop_
 _atom_site_type_symbol
 _atom_site_label
 _atom_site_symmetry_multiplicity
 _atom_site_fract_x
 _atom_site_fract_y
 _atom_site_fract_z
 _atom_site_occupancy
  Li  Li0  1  0.50000001  0.00000000  1.00000001  1
  Li  Li1  1  0.00000000  0.00000000  0.50000001  1
  Li  Li2  1  0.00000000  0.50000001  -0.00000002  1
  Li  Li3  1  0.00000000  0.00000000  0.00000000  1
  Li  Li4  1  0.00000000  0.50000001  0.50000000  1
  Li  Li5  1  0.50000001  0.50000001  -0.00000003  1
  Cu  Cu6  1  0.50000001  0.00000000  0.50000000  1
  Li  Li7  1  0.50000001  0.50000001  0.49999998  1
  O  O8  1  0.74278901  0.74278901  0.74278897  1
  O  O9  1  0.73019801  0.24977700  0.24977698  1
  O  O10  1  0.24977701  0.24977700  0.73019800  1
  O  O11  1  0.25721101  0.25721100  0.25721099  1
  O  O12  1  0.24977701  0.73019801  0.24977698  1
  O  O13  1  0.26980201  0.75022301  0.75022299  1
  O  O14  1  0.75022302  0.75022301  0.26980196  1
  O  O15  1  0.75022301  0.26980200  0.75022299  1
