# generated using pymatgen
data_Li7YMnFeN6
_symmetry_space_group_name_H-M   'P 1'
_cell_length_a   3.33436799
_cell_length_b   5.68151808
_cell_length_c   10.74999714
_cell_angle_alpha   90.00000000
_cell_angle_beta   90.00000000
_cell_angle_gamma   90.00000000
_symmetry_Int_Tables_number   1
_chemical_formula_structural   Li7YMnFeN6
_chemical_formula_sum   'Li7 Y1 Mn1 Fe1 N6'
_cell_volume   203.65086997
_cell_formula_units_Z   1
loop_
 _symmetry_equiv_pos_site_id
 _symmetry_equiv_pos_as_xyz
  1  'x, y, z'
loop_
 _atom_site_type_symbol
 _atom_site_label
 _atom_site_symmetry_multiplicity
 _atom_site_fract_x
 _atom_site_fract_y
 _atom_site_fract_z
 _atom_site_occupancy
  Li  Li0  1  0.25000000  0.58525299  0.36291100  1
  Li  Li1  1  0.25000000  0.08525300  0.13708900  1
  Y  Y2  1  0.75000000  0.41474699  0.63708899  1
  Li  Li3  1  0.75000000  0.91474699  0.86291099  1
  Li  Li4  1  0.25000000  0.90150499  0.61008699  1
  Li  Li5  1  0.25000000  0.40150499  0.88991299  1
  Li  Li6  1  0.75000000  0.09849500  0.38991299  1
  Li  Li7  1  0.75000000  0.59849499  0.11008700  1
  Mn  Mn8  1  0.25000000  0.65974499  0.74721699  1
  Fe  Fe9  1  0.25000000  0.15974500  0.75278299  1
  N  N10  1  0.75000000  0.34025500  0.25278300  1
  N  N11  1  0.75000000  0.84025499  0.24721700  1
  N  N12  1  0.25000000  0.22889900  0.48759399  1
  N  N13  1  0.25000000  0.72889899  0.01240600  1
  N  N14  1  0.75000000  0.77110099  0.51240599  1
  N  N15  1  0.75000000  0.27110100  0.98759399  1
