# generated using pymatgen
data_NaFe4CuP11
_symmetry_space_group_name_H-M   'P 1'
_cell_length_a   7.00693035
_cell_length_b   7.00693035
_cell_length_c   7.00693035
_cell_angle_alpha   109.47122192
_cell_angle_beta   109.47122192
_cell_angle_gamma   109.47122192
_symmetry_Int_Tables_number   1
_chemical_formula_structural   NaFe4CuP11
_chemical_formula_sum   'Na1 Fe4 Cu1 P11'
_cell_volume   264.82653024
_cell_formula_units_Z   1
loop_
 _symmetry_equiv_pos_site_id
 _symmetry_equiv_pos_as_xyz
  1  'x, y, z'
loop_
 _atom_site_type_symbol
 _atom_site_label
 _atom_site_symmetry_multiplicity
 _atom_site_fract_x
 _atom_site_fract_y
 _atom_site_fract_z
 _atom_site_occupancy
  Na  Na0  1  0.00000000  0.00000000  0.00000000  1
  Fe  Fe1  1  0.49965400  0.14367900  0.35597501  1
  Cu  Cu2  1  0.78770399  0.14367900  0.64402501  1
  Fe  Fe3  1  0.21229605  0.85632101  0.35597504  1
  Fe  Fe4  1  0.85632100  0.35597500  0.21229603  1
  Fe  Fe5  1  0.64402504  0.78770401  0.14367905  1
  P  P6  1  0.50034604  0.85632101  0.64402504  1
  P  P7  1  0.85632102  0.64402501  0.50034604  1
  P  P8  1  0.64402502  0.50034600  0.85632102  1
  P  P9  1  0.14367904  0.64402501  0.78770402  1
  P  P10  1  0.35597502  0.49965400  0.14367903  1
  P  P11  1  0.14367902  0.35597500  0.49965401  1
  P  P12  1  0.35597501  0.21229600  0.85632099  1
  P  P13  1  0.50000002  0.50000000  0.50000002  1
  P  P14  1  0.00000003  0.50000000  0.00000003  1
  P  P15  1  0.00000000  0.00000000  0.49999998  1
  P  P16  1  0.49999999  0.00000000  0.99999998  1
