# generated using pymatgen
data_BaLaIn2CuPdAu2
_symmetry_space_group_name_H-M   'P 1'
_cell_length_a   5.12286186
_cell_length_b   6.29615784
_cell_length_c   6.29615831
_cell_angle_alpha   60.00000000
_cell_angle_beta   90.00000000
_cell_angle_gamma   90.00000000
_symmetry_Int_Tables_number   1
_chemical_formula_structural   BaLaIn2CuPdAu2
_chemical_formula_sum   'Ba1 La1 In2 Cu1 Pd1 Au2'
_cell_volume   175.87111757
_cell_formula_units_Z   1
loop_
 _symmetry_equiv_pos_site_id
 _symmetry_equiv_pos_as_xyz
  1  'x, y, z'
loop_
 _atom_site_type_symbol
 _atom_site_label
 _atom_site_symmetry_multiplicity
 _atom_site_fract_x
 _atom_site_fract_y
 _atom_site_fract_z
 _atom_site_occupancy
  Ba  Ba0  1  0.75000002  0.33333335  0.33333332  1
  La  La1  1  0.25000001  0.66666669  0.66666664  1
  In  In2  1  0.75000002  0.83159103  0.33681798  1
  In  In3  1  0.75000002  0.33681901  0.83158998  1
  Au  Au4  1  0.75000002  0.83159103  0.83158997  1
  Cu  Cu5  1  0.25000001  0.16840901  0.16840999  1
  Au  Au6  1  0.25000001  0.16840901  0.66318198  1
  Pd  Pd7  1  0.25000001  0.66318102  0.16840998  1
