# generated using pymatgen
data_PrY(AlSi)4
_symmetry_space_group_name_H-M   'P 1'
_cell_length_a   4.08664608
_cell_length_b   4.08664656
_cell_length_c   13.80678082
_cell_angle_alpha   90.00000000
_cell_angle_beta   90.00000000
_cell_angle_gamma   119.99999237
_symmetry_Int_Tables_number   1
_chemical_formula_structural   PrY(AlSi)4
_chemical_formula_sum   'Pr1 Y1 Al4 Si4'
_cell_volume   199.69040673
_cell_formula_units_Z   1
loop_
 _symmetry_equiv_pos_site_id
 _symmetry_equiv_pos_as_xyz
  1  'x, y, z'
loop_
 _atom_site_type_symbol
 _atom_site_label
 _atom_site_symmetry_multiplicity
 _atom_site_fract_x
 _atom_site_fract_y
 _atom_site_fract_z
 _atom_site_occupancy
  Y  Y0  1  0.66666664  0.33333333  0.11950800  1
  Pr  Pr1  1  0.33333329  0.66666667  0.61950801  1
  Al  Al2  1  0.33333329  0.66666667  0.88430601  1
  Al  Al3  1  0.66666664  0.33333333  0.38430601  1
  Al  Al4  1  0.00000000  0.00000000  0.26534500  1
  Al  Al5  1  0.00000000  0.00000000  0.76534501  1
  Si  Si6  1  0.00000000  0.00000000  0.49981501  1
  Si  Si7  1  0.00000000  0.00000000  0.99981501  1
  Si  Si8  1  0.33333329  0.66666667  0.24735700  1
  Si  Si9  1  0.66666664  0.33333333  0.74735701  1
