# generated using pymatgen
data_Cu2Se3
_symmetry_space_group_name_H-M   'P 1'
_cell_length_a   8.55065346
_cell_length_b   8.55065346
_cell_length_c   8.55065346
_cell_angle_alpha   60.00000000
_cell_angle_beta   60.00000000
_cell_angle_gamma   60.00000000
_symmetry_Int_Tables_number   1
_chemical_formula_structural   Cu2Se3
_chemical_formula_sum   'Cu8 Se12'
_cell_volume   442.06173010
_cell_formula_units_Z   4
loop_
 _symmetry_equiv_pos_site_id
 _symmetry_equiv_pos_as_xyz
  1  'x, y, z'
loop_
 _atom_site_type_symbol
 _atom_site_label
 _atom_site_symmetry_multiplicity
 _atom_site_fract_x
 _atom_site_fract_y
 _atom_site_fract_z
 _atom_site_occupancy
  Cu  Cu0  1  0.87418499  0.87418399  0.37744700  1
  Cu  Cu1  1  0.87418499  0.87418399  0.87418399  1
  Cu  Cu2  1  0.87418499  0.37744700  0.87418399  1
  Cu  Cu3  1  0.37744800  0.87418399  0.87418399  1
  Cu  Cu4  1  0.25163700  0.25163700  0.74836299  1
  Cu  Cu5  1  0.74836299  0.74836299  0.25163700  1
  Cu  Cu6  1  0.25163700  0.74836299  0.74836299  1
  Cu  Cu7  1  0.74836299  0.25163700  0.25163700  1
  Se  Se8  1  0.25163700  0.74836299  0.25163700  1
  Se  Se9  1  0.74836299  0.25163700  0.74836299  1
  Se  Se10  1  0.25000000  0.25000000  0.25000000  1
  Se  Se11  1  0.50000000  0.50000000  0.50000000  1
  Se  Se12  1  0.12744600  0.12744600  0.61766200  1
  Se  Se13  1  0.12744600  0.12744600  0.12744600  1
  Se  Se14  1  0.12744600  0.61766200  0.12744600  1
  Se  Se15  1  0.61766200  0.12744600  0.12744600  1
  Se  Se16  1  0.62999300  0.62999200  0.11002300  1
  Se  Se17  1  0.62999300  0.62999200  0.62999200  1
  Se  Se18  1  0.62999300  0.11002300  0.62999200  1
  Se  Se19  1  0.11002400  0.62999200  0.62999200  1
