# generated using pymatgen
data_CoB(H2O)2
_symmetry_space_group_name_H-M   'P 1'
_cell_length_a   2.96896791
_cell_length_b   4.03071117
_cell_length_c   6.14701462
_cell_angle_alpha   90.00000000
_cell_angle_beta   103.97489929
_cell_angle_gamma   90.00000000
_symmetry_Int_Tables_number   1
_chemical_formula_structural   CoB(H2O)2
_chemical_formula_sum   'Co1 B1 H4 O2'
_cell_volume   71.38433874
_cell_formula_units_Z   1
loop_
 _symmetry_equiv_pos_site_id
 _symmetry_equiv_pos_as_xyz
  1  'x, y, z'
loop_
 _atom_site_type_symbol
 _atom_site_label
 _atom_site_symmetry_multiplicity
 _atom_site_fract_x
 _atom_site_fract_y
 _atom_site_fract_z
 _atom_site_occupancy
  H  H0  1  0.82177403  0.45754298  0.64354802  1
  Co  Co1  1  0.17822601  0.95754296  0.35645200  1
  H  H2  1  0.48167802  0.26345299  0.96335601  1
  B  B3  1  0.51832202  0.76345297  0.03664401  1
  H  H4  1  0.56911502  0.96836696  0.13823002  1
  H  H5  1  0.43088502  0.46836698  0.86177001  1
  O  O6  1  0.20979501  0.45984698  0.41959001  1
  O  O7  1  0.79020503  0.95984696  0.58041002  1
