# generated using pymatgen
data_BaFe2(SiP6)2
_symmetry_space_group_name_H-M   'P 1'
_cell_length_a   7.05122900
_cell_length_b   7.05122900
_cell_length_c   7.05122900
_cell_angle_alpha   109.47122192
_cell_angle_beta   109.47122192
_cell_angle_gamma   109.47122192
_symmetry_Int_Tables_number   1
_chemical_formula_structural   BaFe2(SiP6)2
_chemical_formula_sum   'Ba1 Fe2 Si2 P12'
_cell_volume   269.88114653
_cell_formula_units_Z   1
loop_
 _symmetry_equiv_pos_site_id
 _symmetry_equiv_pos_as_xyz
  1  'x, y, z'
loop_
 _atom_site_type_symbol
 _atom_site_label
 _atom_site_symmetry_multiplicity
 _atom_site_fract_x
 _atom_site_fract_y
 _atom_site_fract_z
 _atom_site_occupancy
  Ba  Ba0  1  0.00000000  0.00000000  0.00000000  1
  Fe  Fe1  1  0.50141102  0.14385001  0.35756102  1
  Fe  Fe2  1  0.49858906  0.85615004  0.64243907  1
  Si  Si3  1  0.21371006  0.85614904  0.35756006  1
  P  P4  1  0.78629002  0.14385101  0.64244003  1
  P  P5  1  0.14385004  0.64243903  0.78628905  1
  P  P6  1  0.85615004  0.35756102  0.21371104  1
  Si  Si7  1  0.85615006  0.64244003  0.49858906  1
  P  P8  1  0.14385003  0.35756002  0.50141103  1
  P  P9  1  0.35756102  0.21371101  0.85615003  1
  P  P10  1  0.64243906  0.78628904  0.14385006  1
  P  P11  1  0.35756104  0.50141102  0.14385104  1
  P  P12  1  0.64243904  0.49858902  0.85614905  1
  P  P13  1  0.50000001  0.00000000  1.00000002  1
  P  P14  1  0.00000000  0.00000000  0.50000000  1
  P  P15  1  0.00000003  0.50000002  0.00000003  1
  P  P16  1  0.50000004  0.50000002  0.50000004  1
