# generated using pymatgen
data_Y2GaSiGe
_symmetry_space_group_name_H-M   'P 1'
_cell_length_a   4.28788424
_cell_length_b   5.48430395
_cell_length_c   5.53971481
_cell_angle_alpha   119.66967010
_cell_angle_beta   112.76876831
_cell_angle_gamma   90.00000000
_symmetry_Int_Tables_number   1
_chemical_formula_structural   Y2GaSiGe
_chemical_formula_sum   'Y2 Ga1 Si1 Ge1'
_cell_volume   101.34455102
_cell_formula_units_Z   1
loop_
 _symmetry_equiv_pos_site_id
 _symmetry_equiv_pos_as_xyz
  1  'x, y, z'
loop_
 _atom_site_type_symbol
 _atom_site_label
 _atom_site_symmetry_multiplicity
 _atom_site_fract_x
 _atom_site_fract_y
 _atom_site_fract_z
 _atom_site_occupancy
  Y  Y0  1  0.20229499  0.70229502  0.40459004  1
  Y  Y1  1  0.79770495  0.29770501  0.59541001  1
  Ga  Ga2  1  0.00000000  0.00000000  0.00000000  1
  Si  Si3  1  0.49999997  0.26628401  0.00000000  1
  Ge  Ge4  1  0.49999997  0.73371602  1.00000005  1
