# generated using pymatgen
data_Ta2RuCN5
_symmetry_space_group_name_H-M   'P 1'
_cell_length_a   5.21280241
_cell_length_b   5.21280241
_cell_length_c   5.21280241
_cell_angle_alpha   60.00000000
_cell_angle_beta   60.00000000
_cell_angle_gamma   60.00000000
_symmetry_Int_Tables_number   1
_chemical_formula_structural   Ta2RuCN5
_chemical_formula_sum   'Ta2 Ru1 C1 N5'
_cell_volume   100.16103242
_cell_formula_units_Z   1
loop_
 _symmetry_equiv_pos_site_id
 _symmetry_equiv_pos_as_xyz
  1  'x, y, z'
loop_
 _atom_site_type_symbol
 _atom_site_label
 _atom_site_symmetry_multiplicity
 _atom_site_fract_x
 _atom_site_fract_y
 _atom_site_fract_z
 _atom_site_occupancy
  Ta  Ta0  1  0.25000000  0.25000000  0.25000000  1
  Ru  Ru1  1  0.75000001  0.75000001  0.75000001  1
  Ta  Ta2  1  0.77618401  0.77618401  0.22381600  1
  N  N3  1  0.22381600  0.77618401  0.77618401  1
  N  N4  1  0.22381600  0.77618401  0.22381600  1
  N  N5  1  0.22381600  0.22381600  0.77618401  1
  N  N6  1  0.77618401  0.22381600  0.22381600  1
  N  N7  1  0.77618401  0.22381600  0.77618401  1
  C  C8  1  0.00000000  0.00000000  0.00000000  1
