# generated using pymatgen
data_Tb3Y2ZrAl2Si9Rh
_symmetry_space_group_name_H-M   'P 1'
_cell_length_a   6.04260206
_cell_length_b   6.04260206
_cell_length_c   9.87400246
_cell_angle_alpha   90.00000000
_cell_angle_beta   90.00000000
_cell_angle_gamma   90.00000000
_symmetry_Int_Tables_number   1
_chemical_formula_structural   Tb3Y2ZrAl2Si9Rh
_chemical_formula_sum   'Tb3 Y2 Zr1 Al2 Si9 Rh1'
_cell_volume   360.52984352
_cell_formula_units_Z   1
loop_
 _symmetry_equiv_pos_site_id
 _symmetry_equiv_pos_as_xyz
  1  'x, y, z'
loop_
 _atom_site_type_symbol
 _atom_site_label
 _atom_site_symmetry_multiplicity
 _atom_site_fract_x
 _atom_site_fract_y
 _atom_site_fract_z
 _atom_site_occupancy
  Y  Y0  1  0.49999999  0.49999999  0.00000000  1
  Tb  Tb1  1  0.00000000  0.00000000  0.00000000  1
  Tb  Tb2  1  0.00000000  0.49999999  0.32154399  1
  Al  Al3  1  0.49999999  0.00000000  0.67845597  1
  Tb  Tb4  1  0.49999999  0.00000000  0.27602199  1
  Si  Si5  1  0.00000000  0.49999999  0.72397797  1
  Y  Y6  1  0.49999999  0.49999999  0.49999998  1
  Zr  Zr7  1  0.00000000  0.00000000  0.49999998  1
  Al  Al8  1  0.00000000  0.49999999  0.95959196  1
  Si  Si9  1  0.26549800  0.23450200  0.81187296  1
  Si  Si10  1  0.23450200  0.26549800  0.18812699  1
  Si  Si11  1  0.49999999  0.00000000  0.04040800  1
  Si  Si12  1  0.73450199  0.76549799  0.81187296  1
  Si  Si13  1  0.23450200  0.73450199  0.18812699  1
  Si  Si14  1  0.26549800  0.76549799  0.81187296  1
  Si  Si15  1  0.73450199  0.23450200  0.81187296  1
  Rh  Rh16  1  0.76549799  0.26549800  0.18812699  1
  Si  Si17  1  0.76549799  0.73450199  0.18812699  1
