# generated using pymatgen
data_Mn3Fe10
_symmetry_space_group_name_H-M   'P 1'
_cell_length_a   4.98791122
_cell_length_b   6.50755882
_cell_length_c   6.50755882
_cell_angle_alpha   80.42937469
_cell_angle_beta   67.46549988
_cell_angle_gamma   67.46549988
_symmetry_Int_Tables_number   1
_chemical_formula_structural   Mn3Fe10
_chemical_formula_sum   'Mn3 Fe10'
_cell_volume   180.15925671
_cell_formula_units_Z   1
loop_
 _symmetry_equiv_pos_site_id
 _symmetry_equiv_pos_as_xyz
  1  'x, y, z'
loop_
 _atom_site_type_symbol
 _atom_site_label
 _atom_site_symmetry_multiplicity
 _atom_site_fract_x
 _atom_site_fract_y
 _atom_site_fract_z
 _atom_site_occupancy
  Mn  Mn0  1  0.00000000  0.00000000  0.00000000  1
  Mn  Mn1  1  0.00000007  0.66876299  0.33123695  1
  Mn  Mn2  1  0.00000004  0.33123699  0.66876298  1
  Fe  Fe3  1  0.34057005  0.65942999  0.65942997  1
  Fe  Fe4  1  0.65942999  0.34056999  0.34057000  1
  Fe  Fe5  1  0.32685300  0.17314700  0.17314700  1
  Fe  Fe6  1  0.67314704  0.82685299  0.82685297  1
  Fe  Fe7  1  0.49999999  0.24412000  0.75588000  1
  Fe  Fe8  1  0.50000005  0.75587999  0.24411997  1
  Fe  Fe9  1  0.00000005  0.49999999  -0.00000004  1
  Fe  Fe10  1  0.50000002  0.49999999  -0.00000002  1
  Fe  Fe11  1  0.00000000  0.00000000  0.50000000  1
  Fe  Fe12  1  0.49999997  0.00000000  0.50000002  1
