# generated using pymatgen
data_CdInSnAu3
_symmetry_space_group_name_H-M   'P 1'
_cell_length_a   4.98427486
_cell_length_b   5.24794006
_cell_length_c   5.24793959
_cell_angle_alpha   120.00000000
_cell_angle_beta   90.00000000
_cell_angle_gamma   90.00000000
_symmetry_Int_Tables_number   1
_chemical_formula_structural   CdInSnAu3
_chemical_formula_sum   'Cd1 In1 Sn1 Au3'
_cell_volume   118.88041403
_cell_formula_units_Z   1
loop_
 _symmetry_equiv_pos_site_id
 _symmetry_equiv_pos_as_xyz
  1  'x, y, z'
loop_
 _atom_site_type_symbol
 _atom_site_label
 _atom_site_symmetry_multiplicity
 _atom_site_fract_x
 _atom_site_fract_y
 _atom_site_fract_z
 _atom_site_occupancy
  In  In0  1  1.00000003  0.34220499  0.34220499  1
  Cd  Cd1  1  -0.00000000  0.99999997  0.65779497  1
  Au  Au2  1  -0.00000000  0.65779498  -0.00000003  1
  Sn  Sn3  1  0.50000001  0.00000000  -0.00000000  1
  Au  Au4  1  0.50000001  0.66666665  0.33333331  1
  Au  Au5  1  0.50000001  0.33333332  0.66666667  1
