# generated using pymatgen
data_Cs2KTl(I2Br)2
_symmetry_space_group_name_H-M   'P 1'
_cell_length_a   9.04590702
_cell_length_b   9.04590702
_cell_length_c   9.04590702
_cell_angle_alpha   60.00000000
_cell_angle_beta   60.00000000
_cell_angle_gamma   60.00000000
_symmetry_Int_Tables_number   1
_chemical_formula_structural   Cs2KTl(I2Br)2
_chemical_formula_sum   'Cs2 K1 Tl1 I4 Br2'
_cell_volume   523.40921040
_cell_formula_units_Z   1
loop_
 _symmetry_equiv_pos_site_id
 _symmetry_equiv_pos_as_xyz
  1  'x, y, z'
loop_
 _atom_site_type_symbol
 _atom_site_label
 _atom_site_symmetry_multiplicity
 _atom_site_fract_x
 _atom_site_fract_y
 _atom_site_fract_z
 _atom_site_occupancy
  K  K0  1  0.24999999  0.24999999  0.24999999  1
  Cs  Cs1  1  0.74999998  0.74999998  0.74999998  1
  Cs  Cs2  1  0.49999998  0.49999998  0.49999998  1
  Tl  Tl3  1  0.00000000  0.00000000  0.00000000  1
  I  I4  1  0.21736399  0.78263598  0.21736399  1
  Br  Br5  1  0.21736399  0.21736399  0.78263598  1
  I  I6  1  0.78263598  0.21736399  0.78263598  1
  I  I7  1  0.21736399  0.78263598  0.78263598  1
  Br  Br8  1  0.78263598  0.21736399  0.21736399  1
  I  I9  1  0.78263598  0.78263598  0.21736399  1
