# generated using pymatgen
data_NaCuO3
_symmetry_space_group_name_H-M   'P 1'
_cell_length_a   5.51242161
_cell_length_b   5.57796955
_cell_length_c   7.87141180
_cell_angle_alpha   90.00092316
_cell_angle_beta   89.02873993
_cell_angle_gamma   90.00301361
_symmetry_Int_Tables_number   1
_chemical_formula_structural   NaCuO3
_chemical_formula_sum   'Na4 Cu4 O12'
_cell_volume   241.99633916
_cell_formula_units_Z   4
loop_
 _symmetry_equiv_pos_site_id
 _symmetry_equiv_pos_as_xyz
  1  'x, y, z'
loop_
 _atom_site_type_symbol
 _atom_site_label
 _atom_site_symmetry_multiplicity
 _atom_site_fract_x
 _atom_site_fract_y
 _atom_site_fract_z
 _atom_site_occupancy
  Na  Na0  1  0.50006498  0.00197000  0.74998301  1
  Na  Na1  1  0.00003401  0.49611900  0.25004501  1
  Na  Na2  1  0.50002098  0.00092000  0.25002100  1
  Na  Na3  1  0.99985098  0.50068000  0.74994400  1
  Cu  Cu4  1  0.99971099  0.99948000  0.99928300  1
  Cu  Cu5  1  0.50021800  0.49961000  0.99865301  1
  Cu  Cu6  1  0.00033303  0.99949700  0.50072601  1
  Cu  Cu7  1  0.49972100  0.49957500  0.50133000  1
  O  O8  1  0.99997297  0.06106800  0.25005299  1
  O  O9  1  0.50011200  0.55296800  0.75019101  1
  O  O10  1  0.00001002  0.93333700  0.74989101  1
  O  O11  1  0.49989700  0.43635000  0.24988300  1
  O  O12  1  0.21770701  0.71828900  0.46479501  1
  O  O13  1  0.78211699  0.71806400  0.03509299  1
  O  O14  1  0.72246898  0.22332800  0.97636401  1
  O  O15  1  0.27722700  0.22278400  0.52356401  1
  O  O16  1  0.72028600  0.77953700  0.46339100  1
  O  O17  1  0.27999501  0.77899800  0.03671700  1
  O  O18  1  0.21134400  0.28879100  0.97294501  1
  O  O19  1  0.78890798  0.28863400  0.52712700  1
