# generated using pymatgen
data_Mn2CoCu(PO3)4
_symmetry_space_group_name_H-M   'P 1'
_cell_length_a   6.49501562
_cell_length_b   6.49501562
_cell_length_c   6.49501562
_cell_angle_alpha   109.47122192
_cell_angle_beta   109.47122192
_cell_angle_gamma   109.47122192
_symmetry_Int_Tables_number   1
_chemical_formula_structural   Mn2CoCu(PO3)4
_chemical_formula_sum   'Mn2 Co1 Cu1 P4 O12'
_cell_volume   210.92044956
_cell_formula_units_Z   1
loop_
 _symmetry_equiv_pos_site_id
 _symmetry_equiv_pos_as_xyz
  1  'x, y, z'
loop_
 _atom_site_type_symbol
 _atom_site_label
 _atom_site_symmetry_multiplicity
 _atom_site_fract_x
 _atom_site_fract_y
 _atom_site_fract_z
 _atom_site_occupancy
  Mn  Mn0  1  0.00000000  0.00000000  0.00000000  1
  Mn  Mn1  1  0.50000007  1.00000003  1.00000006  1
  Co  Co2  1  0.00000000  0.00000000  0.50000000  1
  Cu  Cu3  1  0.00000003  0.50000002  0.00000003  1
  P  P4  1  0.50000003  0.50000002  0.50000004  1
  P  P5  1  0.00000003  0.50000002  0.50000003  1
  P  P6  1  0.50000003  0.50000002  1.00000003  1
  P  P7  1  0.50000007  1.00000003  0.50000007  1
  O  O8  1  0.48435401  0.17937401  0.30498002  1
  O  O9  1  0.51564605  0.82062603  0.69502005  1
  O  O10  1  0.12560505  0.82062503  0.30497905  1
  O  O11  1  0.87439501  0.17937501  0.69502103  1
  O  O12  1  0.17937404  0.69502002  0.87439404  1
  O  O13  1  0.82062602  0.30498001  0.12560604  1
  O  O14  1  0.82062605  0.69502102  0.51564606  1
  O  O15  1  0.17937402  0.30497901  0.48435402  1
  O  O16  1  0.30498001  0.12560600  0.82062601  1
  O  O17  1  0.69502006  0.87439403  0.17937406  1
  O  O18  1  0.69502004  0.51564602  0.82062504  1
  O  O19  1  0.30498003  0.48435402  0.17937503  1
