# generated using pymatgen
data_NaLiCu
_symmetry_space_group_name_H-M   'P 1'
_cell_length_a   4.38329983
_cell_length_b   4.55223989
_cell_length_c   4.38329983
_cell_angle_alpha   118.77977753
_cell_angle_beta   90.00000000
_cell_angle_gamma   118.77977753
_symmetry_Int_Tables_number   1
_chemical_formula_structural   NaLiCu
_chemical_formula_sum   'Na1 Li1 Cu1'
_cell_volume   64.05913340
_cell_formula_units_Z   1
loop_
 _symmetry_equiv_pos_site_id
 _symmetry_equiv_pos_as_xyz
  1  'x, y, z'
loop_
 _atom_site_type_symbol
 _atom_site_label
 _atom_site_symmetry_multiplicity
 _atom_site_fract_x
 _atom_site_fract_y
 _atom_site_fract_z
 _atom_site_occupancy
  Li  Li0  1  0.00000000  0.00000000  0.00000000  1
  Cu  Cu1  1  0.29040707  0.58081407  0.29040707  1
  Na  Na2  1  0.70959307  0.41918605  0.70959307  1
