# generated using pymatgen
data_NaSrLiYCuO9
_symmetry_space_group_name_H-M   'P 1'
_cell_length_a   5.26728010
_cell_length_b   5.26727962
_cell_length_c   8.98096180
_cell_angle_alpha   90.00000000
_cell_angle_beta   90.00000000
_cell_angle_gamma   120.00000000
_symmetry_Int_Tables_number   1
_chemical_formula_structural   NaSrLiYCuO9
_chemical_formula_sum   'Na1 Sr1 Li1 Y1 Cu1 O9'
_cell_volume   215.78749278
_cell_formula_units_Z   1
loop_
 _symmetry_equiv_pos_site_id
 _symmetry_equiv_pos_as_xyz
  1  'x, y, z'
loop_
 _atom_site_type_symbol
 _atom_site_label
 _atom_site_symmetry_multiplicity
 _atom_site_fract_x
 _atom_site_fract_y
 _atom_site_fract_z
 _atom_site_occupancy
  Na  Na0  1  0.00000000  0.00000000  0.25000001  1
  Sr  Sr1  1  0.00000000  0.00000000  0.75000002  1
  Y  Y2  1  0.33333331  0.66666667  0.44587601  1
  Li  Li3  1  0.66666664  0.33333334  0.94587602  1
  Cu  Cu4  1  0.66666664  0.33333334  0.55412401  1
  O  O5  1  0.33333331  0.66666667  0.05412400  1
  O  O6  1  0.66666664  0.33333334  0.75000002  1
  O  O7  1  0.33333331  0.66666667  0.25000001  1
  O  O8  1  0.99999996  0.64430701  0.50000001  1
  O  O9  1  0.64430696  1.00000001  0.50000001  1
  O  O10  1  0.35569298  0.35569300  0.50000001  1
  O  O11  1  0.64430697  0.64430701  1.00000002  1
  O  O12  1  0.99999997  0.35569300  -0.00000000  1
  O  O13  1  0.35569299  0.00000000  0.00000000  1
