# generated using pymatgen
data_K2NaCeTl2SeS5
_symmetry_space_group_name_H-M   'P 1'
_cell_length_a   4.22772980
_cell_length_b   8.48764420
_cell_length_c   8.61260223
_cell_angle_alpha   89.79807281
_cell_angle_beta   90.00000000
_cell_angle_gamma   90.00000000
_symmetry_Int_Tables_number   1
_chemical_formula_structural   K2NaCeTl2SeS5
_chemical_formula_sum   'K2 Na1 Ce1 Tl2 Se1 S5'
_cell_volume   309.04810250
_cell_formula_units_Z   1
loop_
 _symmetry_equiv_pos_site_id
 _symmetry_equiv_pos_as_xyz
  1  'x, y, z'
loop_
 _atom_site_type_symbol
 _atom_site_label
 _atom_site_symmetry_multiplicity
 _atom_site_fract_x
 _atom_site_fract_y
 _atom_site_fract_z
 _atom_site_occupancy
  Na  Na0  1  0.27809201  0.62667499  0.72546700  1
  K  K1  1  0.72190803  0.37332499  0.27453300  1
  Ce  Ce2  1  0.77809204  0.87332498  0.27453298  1
  K  K3  1  0.22190801  0.12667500  0.72546702  1
  Tl  Tl4  1  0.31663502  0.88152098  0.00200997  1
  S  S5  1  0.75692504  0.87475398  0.63225799  1
  Tl  Tl6  1  0.18336501  0.38152099  0.00200999  1
  Se  Se7  1  0.81663504  0.61847899  0.99799001  1
  S  S8  1  0.25692501  0.62524599  0.36774199  1
  S  S9  1  0.68336503  0.11847900  0.99799003  1
  S  S10  1  0.74307504  0.37475399  0.63225801  1
  S  S11  1  0.24307501  0.12524600  0.36774201  1
