# generated using pymatgen
data_NaLiTi2O8
_symmetry_space_group_name_H-M   'P 1'
_cell_length_a   5.27543020
_cell_length_b   5.27543020
_cell_length_c   6.69303179
_cell_angle_alpha   113.20977020
_cell_angle_beta   113.20977020
_cell_angle_gamma   90.00000000
_symmetry_Int_Tables_number   1
_chemical_formula_structural   NaLiTi2O8
_chemical_formula_sum   'Na1 Li1 Ti2 O8'
_cell_volume   154.65559528
_cell_formula_units_Z   1
loop_
 _symmetry_equiv_pos_site_id
 _symmetry_equiv_pos_as_xyz
  1  'x, y, z'
loop_
 _atom_site_type_symbol
 _atom_site_label
 _atom_site_symmetry_multiplicity
 _atom_site_fract_x
 _atom_site_fract_y
 _atom_site_fract_z
 _atom_site_occupancy
  Li  Li0  1  0.24999995  0.74999995  0.49999995  1
  Na  Na1  1  0.49999995  0.49999997  0.99999995  1
  Ti  Ti2  1  0.00000000  0.00000000  0.00000000  1
  Ti  Ti3  1  0.74999994  0.24999998  0.49999996  1
  O  O4  1  0.09242599  0.15465999  0.67037899  1
  O  O5  1  0.90465991  0.82795294  0.17037891  1
  O  O6  1  0.26571897  0.34242598  0.17037897  1
  O  O7  1  0.17204695  0.73428095  0.82962095  1
  O  O8  1  0.57795294  0.51571897  0.67037895  1
  O  O9  1  0.48428093  0.90757394  0.32962093  1
  O  O10  1  0.84533993  0.42204697  0.32962094  1
  O  O11  1  0.65757396  0.09533999  0.82962097  1
