# generated using pymatgen
data_Be
_symmetry_space_group_name_H-M   'P 1'
_cell_length_a   4.09113979
_cell_length_b   4.09113979
_cell_length_c   5.14388180
_cell_angle_alpha   90.00000000
_cell_angle_beta   90.00000000
_cell_angle_gamma   120.00000000
_symmetry_Int_Tables_number   1
_chemical_formula_structural   Be
_chemical_formula_sum   Be6
_cell_volume   74.56074710
_cell_formula_units_Z   6
loop_
 _symmetry_equiv_pos_site_id
 _symmetry_equiv_pos_as_xyz
  1  'x, y, z'
loop_
 _atom_site_type_symbol
 _atom_site_label
 _atom_site_symmetry_multiplicity
 _atom_site_fract_x
 _atom_site_fract_y
 _atom_site_fract_z
 _atom_site_occupancy
  Be  Be0  1  0.00000000  0.00000000  0.50000002  1
  Be  Be1  1  0.00000000  0.00000000  0.00000000  1
  Be  Be2  1  0.33333333  0.66666667  0.75000003  1
  Be  Be3  1  0.66666669  0.33333333  0.25000001  1
  Be  Be4  1  0.66666669  0.33333333  0.75000003  1
  Be  Be5  1  0.33333333  0.66666667  0.25000001  1
