# generated using pymatgen
data_LiCuAg2SbO8
_symmetry_space_group_name_H-M   'P 1'
_cell_length_a   6.81210804
_cell_length_b   6.84591293
_cell_length_c   6.84591293
_cell_angle_alpha   60.96498489
_cell_angle_beta   60.16321182
_cell_angle_gamma   60.16321182
_symmetry_Int_Tables_number   1
_chemical_formula_structural   LiCuAg2SbO8
_chemical_formula_sum   'Li1 Cu1 Ag2 Sb1 O8'
_cell_volume   227.91847989
_cell_formula_units_Z   1
loop_
 _symmetry_equiv_pos_site_id
 _symmetry_equiv_pos_as_xyz
  1  'x, y, z'
loop_
 _atom_site_type_symbol
 _atom_site_label
 _atom_site_symmetry_multiplicity
 _atom_site_fract_x
 _atom_site_fract_y
 _atom_site_fract_z
 _atom_site_occupancy
  Cu  Cu0  1  0.60353700  0.18753601  0.60538998  1
  Sb  Sb1  1  0.60353700  0.60539002  0.18753596  1
  Ag  Ag2  1  0.58945400  0.60497102  0.60497097  1
  Ag  Ag3  1  0.20060400  0.60497102  0.60497098  1
  Li  Li4  1  0.99434701  0.00565300  0.00565297  1
  O  O5  1  0.88232600  0.37130501  0.37130497  1
  O  O6  1  0.37506400  0.37130601  0.37130498  1
  O  O7  1  0.40593100  0.86561703  0.86561697  1
  O  O8  1  0.86283500  0.86561703  0.86561695  1
  O  O9  1  0.36903700  0.36987401  0.89205199  1
  O  O10  1  0.36903700  0.89205203  0.36987396  1
  O  O11  1  0.86309600  0.86183503  0.41197295  1
  O  O12  1  0.86309500  0.41197301  0.86183597  1
