# generated using pymatgen
data_Na2NbCu5S12
_symmetry_space_group_name_H-M   'P 1'
_cell_length_a   6.34114695
_cell_length_b   6.38888121
_cell_length_c   9.00899982
_cell_angle_alpha   89.90316772
_cell_angle_beta   89.89923096
_cell_angle_gamma   89.99137115
_symmetry_Int_Tables_number   1
_chemical_formula_structural   Na2NbCu5S12
_chemical_formula_sum   'Na2 Nb1 Cu5 S12'
_cell_volume   364.97902967
_cell_formula_units_Z   1
loop_
 _symmetry_equiv_pos_site_id
 _symmetry_equiv_pos_as_xyz
  1  'x, y, z'
loop_
 _atom_site_type_symbol
 _atom_site_label
 _atom_site_symmetry_multiplicity
 _atom_site_fract_x
 _atom_site_fract_y
 _atom_site_fract_z
 _atom_site_occupancy
  Na  Na0  1  0.50941899  0.53089299  0.24262197  1
  Na  Na1  1  0.99451501  0.03175300  0.24215595  1
  Cu  Cu2  1  0.49058099  0.46910699  0.75737797  1
  Nb  Nb3  1  0.00548497  0.96824698  0.75784398  1
  Cu  Cu4  1  0.50000000  0.00000000  -0.00000002  1
  Cu  Cu5  1  -0.00000001  0.49999999  0.49999999  1
  Cu  Cu6  1  0.50000000  0.00000000  0.49999998  1
  Cu  Cu7  1  -0.00000001  0.49999999  -0.00000001  1
  S  S8  1  0.08050599  0.48158899  0.23394799  1
  S  S9  1  0.41940098  0.97216698  0.24767396  1
  S  S10  1  0.91949399  0.51841099  0.76605195  1
  S  S11  1  0.58059900  0.02783300  0.75232597  1
  S  S12  1  0.25907098  0.71504598  0.95646697  1
  S  S13  1  0.19855400  0.20062700  0.54438599  1
  S  S14  1  0.70043900  0.30129899  0.45320196  1
  S  S15  1  0.78750799  0.76133798  0.04021795  1
  S  S16  1  0.74092900  0.28495399  0.04353296  1
  S  S17  1  0.80144598  0.79937298  0.45561395  1
  S  S18  1  0.29956098  0.69870099  0.54679797  1
  S  S19  1  0.21249200  0.23866199  0.95978198  1
