# generated using pymatgen
data_TlTe2Se2S
_symmetry_space_group_name_H-M   'P 1'
_cell_length_a   4.61322784
_cell_length_b   8.06402779
_cell_length_c   8.87219524
_cell_angle_alpha   117.02429962
_cell_angle_beta   105.06901550
_cell_angle_gamma   90.00000000
_symmetry_Int_Tables_number   1
_chemical_formula_structural   TlTe2Se2S
_chemical_formula_sum   'Tl1 Te2 Se2 S1'
_cell_volume   281.21852911
_cell_formula_units_Z   1
loop_
 _symmetry_equiv_pos_site_id
 _symmetry_equiv_pos_as_xyz
  1  'x, y, z'
loop_
 _atom_site_type_symbol
 _atom_site_label
 _atom_site_symmetry_multiplicity
 _atom_site_fract_x
 _atom_site_fract_y
 _atom_site_fract_z
 _atom_site_occupancy
  Tl  Tl0  1  0.50000002  0.50000002  -0.00000000  1
  Te  Te1  1  0.00000000  0.00000000  0.00000000  1
  Se  Se2  1  0.61907503  0.94412905  0.23814998  1
  Se  Se3  1  0.11728301  0.45755302  0.23456599  1
  S  S4  1  0.38092502  0.05587100  0.76184997  1
  Te  Te5  1  0.88271704  0.54244703  0.76543397  1
