# generated using pymatgen
data_Er2LuIn3Sn2GePd
_symmetry_space_group_name_H-M   'P 1'
_cell_length_a   4.50466681
_cell_length_b   7.18398523
_cell_length_c   7.18398523
_cell_angle_alpha   90.00000000
_cell_angle_beta   90.00000000
_cell_angle_gamma   90.00000000
_symmetry_Int_Tables_number   1
_chemical_formula_structural   Er2LuIn3Sn2GePd
_chemical_formula_sum   'Er2 Lu1 In3 Sn2 Ge1 Pd1'
_cell_volume   232.48424940
_cell_formula_units_Z   1
loop_
 _symmetry_equiv_pos_site_id
 _symmetry_equiv_pos_as_xyz
  1  'x, y, z'
loop_
 _atom_site_type_symbol
 _atom_site_label
 _atom_site_symmetry_multiplicity
 _atom_site_fract_x
 _atom_site_fract_y
 _atom_site_fract_z
 _atom_site_occupancy
  Er  Er0  1  0.50000002  0.32615599  0.82615597  1
  Er  Er1  1  0.50000002  0.82615597  0.67384398  1
  Lu  Lu2  1  0.50000002  0.17384399  0.32615599  1
  In  In3  1  0.50000002  0.67384398  0.17384399  1
  In  In4  1  1.00000004  0.49999998  0.49999998  1
  In  In5  1  0.00000000  0.00000000  0.00000000  1
  Ge  Ge6  1  0.00000000  0.88190797  0.38190799  1
  Sn  Sn7  1  1.00000004  0.38190799  0.11809200  1
  Pd  Pd8  1  1.00000004  0.11809200  0.61809198  1
  Sn  Sn9  1  1.00000004  0.61809198  0.88190797  1
