# generated using pymatgen
data_ErAl5Fe4Si3
_symmetry_space_group_name_H-M   'P 1'
_cell_length_a   5.14083195
_cell_length_b   6.73820353
_cell_length_c   6.73820353
_cell_angle_alpha   81.63269043
_cell_angle_beta   67.57529449
_cell_angle_gamma   67.57529449
_symmetry_Int_Tables_number   1
_chemical_formula_structural   ErAl5Fe4Si3
_chemical_formula_sum   'Er1 Al5 Fe4 Si3'
_cell_volume   199.44551363
_cell_formula_units_Z   1
loop_
 _symmetry_equiv_pos_site_id
 _symmetry_equiv_pos_as_xyz
  1  'x, y, z'
loop_
 _atom_site_type_symbol
 _atom_site_label
 _atom_site_symmetry_multiplicity
 _atom_site_fract_x
 _atom_site_fract_y
 _atom_site_fract_z
 _atom_site_occupancy
  Er  Er0  1  0.00000000  0.00000000  0.00000000  1
  Al  Al1  1  0.50000000  0.21878000  0.78122005  1
  Al  Al2  1  0.71878001  0.78122002  0.78122007  1
  Al  Al3  1  0.34801901  0.65198101  0.65198106  1
  Si  Si4  1  0.00000001  0.34801901  0.65198104  1
  Al  Al5  1  0.00000001  0.65198101  0.34801904  1
  Si  Si6  1  0.65198101  0.34801901  0.34801904  1
  Fe  Fe7  1  0.28122000  0.21878000  0.21878002  1
  Al  Al8  1  0.50000001  0.78122002  0.21878005  1
  Fe  Fe9  1  0.50000001  0.50000001  0.00000003  1
  Si  Si10  1  1.00000001  0.50000001  0.00000004  1
  Fe  Fe11  1  0.00000000  0.00000000  0.50000002  1
  Fe  Fe12  1  0.50000000  0.00000000  0.50000003  1
