# generated using pymatgen
data_HoAl2SiNi2
_symmetry_space_group_name_H-M   'P 1'
_cell_length_a   5.07352781
_cell_length_b   5.07352781
_cell_length_c   5.07352781
_cell_angle_alpha   60.00000000
_cell_angle_beta   60.00000000
_cell_angle_gamma   60.00000000
_symmetry_Int_Tables_number   1
_chemical_formula_structural   HoAl2SiNi2
_chemical_formula_sum   'Ho1 Al2 Si1 Ni2'
_cell_volume   92.34537276
_cell_formula_units_Z   1
loop_
 _symmetry_equiv_pos_site_id
 _symmetry_equiv_pos_as_xyz
  1  'x, y, z'
loop_
 _atom_site_type_symbol
 _atom_site_label
 _atom_site_symmetry_multiplicity
 _atom_site_fract_x
 _atom_site_fract_y
 _atom_site_fract_z
 _atom_site_occupancy
  Al  Al0  1  0.25000001  0.25000001  0.25000001  1
  Ho  Ho1  1  0.00000000  0.00000000  0.00000000  1
  Al  Al2  1  0.12407600  0.62530801  0.62530801  1
  Ni  Ni3  1  0.62530801  0.62530801  0.62530801  1
  Si  Si4  1  0.62530801  0.12407600  0.62530801  1
  Ni  Ni5  1  0.62530801  0.62530801  0.12407600  1
