# generated using pymatgen
data_KCuP3
_symmetry_space_group_name_H-M   'P 1'
_cell_length_a   3.95791411
_cell_length_b   3.95791411
_cell_length_c   7.44338560
_cell_angle_alpha   105.41852570
_cell_angle_beta   105.41852570
_cell_angle_gamma   90.00000000
_symmetry_Int_Tables_number   1
_chemical_formula_structural   KCuP3
_chemical_formula_sum   'K1 Cu1 P3'
_cell_volume   108.04531093
_cell_formula_units_Z   1
loop_
 _symmetry_equiv_pos_site_id
 _symmetry_equiv_pos_as_xyz
  1  'x, y, z'
loop_
 _atom_site_type_symbol
 _atom_site_label
 _atom_site_symmetry_multiplicity
 _atom_site_fract_x
 _atom_site_fract_y
 _atom_site_fract_z
 _atom_site_occupancy
  K  K0  1  0.00000000  0.00000000  0.00000000  1
  Cu  Cu1  1  0.34204798  0.34204799  0.68409601  1
  P  P2  1  0.65795197  0.65795198  0.31590399  1
  P  P3  1  0.74999997  0.24999999  0.50000000  1
  P  P4  1  0.24999998  0.74999997  0.50000000  1
