# generated using pymatgen
data_LiCeErSiNi8
_symmetry_space_group_name_H-M   'P 1'
_cell_length_a   4.75542021
_cell_length_b   4.75541973
_cell_length_c   7.55486822
_cell_angle_alpha   90.00000000
_cell_angle_beta   90.00000000
_cell_angle_gamma   120.00000000
_symmetry_Int_Tables_number   1
_chemical_formula_structural   LiCeErSiNi8
_chemical_formula_sum   'Li1 Ce1 Er1 Si1 Ni8'
_cell_volume   147.95691911
_cell_formula_units_Z   1
loop_
 _symmetry_equiv_pos_site_id
 _symmetry_equiv_pos_as_xyz
  1  'x, y, z'
loop_
 _atom_site_type_symbol
 _atom_site_label
 _atom_site_symmetry_multiplicity
 _atom_site_fract_x
 _atom_site_fract_y
 _atom_site_fract_z
 _atom_site_occupancy
  Er  Er0  1  0.00000000  0.00000000  0.00000000  1
  Ce  Ce1  1  0.00000000  0.00000000  0.49999999  1
  Li  Li2  1  0.16938297  0.33876598  0.24999999  1
  Ni  Ni3  1  0.16938294  0.83061594  0.24999999  1
  Ni  Ni4  1  0.66123292  0.83061594  0.24999999  1
  Ni  Ni5  1  0.83061692  0.66123395  0.74999998  1
  Ni  Ni6  1  0.83061695  0.16938399  0.74999998  1
  Ni  Ni7  1  0.33876697  0.16938399  0.74999998  1
  Ni  Ni8  1  0.66666662  0.33333331  0.06298500  1
  Ni  Ni9  1  0.33333328  0.66666662  0.93701497  1
  Si  Si10  1  0.33333328  0.66666662  0.56298498  1
  Ni  Ni11  1  0.66666662  0.33333331  0.43701499  1
