# generated using pymatgen
data_EuTiBC
_symmetry_space_group_name_H-M   'P 1'
_cell_length_a   3.39439964
_cell_length_b   3.39439964
_cell_length_c   6.52930784
_cell_angle_alpha   74.93375397
_cell_angle_beta   74.93375397
_cell_angle_gamma   60.00000763
_symmetry_Int_Tables_number   1
_chemical_formula_structural   EuTiBC
_chemical_formula_sum   'Eu1 Ti1 B1 C1'
_cell_volume   62.14744411
_cell_formula_units_Z   1
loop_
 _symmetry_equiv_pos_site_id
 _symmetry_equiv_pos_as_xyz
  1  'x, y, z'
loop_
 _atom_site_type_symbol
 _atom_site_label
 _atom_site_symmetry_multiplicity
 _atom_site_fract_x
 _atom_site_fract_y
 _atom_site_fract_z
 _atom_site_occupancy
  Eu  Eu0  1  0.00000000  0.00000000  0.00000000  1
  Ti  Ti1  1  0.50000003  0.50000000  0.49999998  1
  B  B2  1  0.22693602  0.22693600  0.31919199  1
  C  C3  1  0.77306405  0.77306400  0.68080797  1
