# generated using pymatgen
data_LaErTh2USn8Au3
_symmetry_space_group_name_H-M   'P 1'
_cell_length_a   6.32260180
_cell_length_b   8.44992447
_cell_length_c   8.44992542
_cell_angle_alpha   119.99999237
_cell_angle_beta   90.00000000
_cell_angle_gamma   90.00000000
_symmetry_Int_Tables_number   1
_chemical_formula_structural   LaErTh2USn8Au3
_chemical_formula_sum   'La1 Er1 Th2 U1 Sn8 Au3'
_cell_volume   390.95988504
_cell_formula_units_Z   1
loop_
 _symmetry_equiv_pos_site_id
 _symmetry_equiv_pos_as_xyz
  1  'x, y, z'
loop_
 _atom_site_type_symbol
 _atom_site_label
 _atom_site_symmetry_multiplicity
 _atom_site_fract_x
 _atom_site_fract_y
 _atom_site_fract_z
 _atom_site_occupancy
  Er  Er0  1  -0.00000000  0.33333330  0.66666661  1
  La  La1  1  -0.00000000  0.66666660  0.33333327  1
  U  U2  1  0.50000002  0.66666660  0.33333327  1
  Th  Th3  1  0.50000002  0.33333330  0.66666661  1
  Th  Th4  1  0.25000001  0.24138798  -0.00000002  1
  Sn  Sn5  1  0.25000001  0.75861193  0.75861191  1
  Sn  Sn6  1  0.25000001  0.00000000  0.24138799  1
  Sn  Sn7  1  0.75000002  0.75861193  0.99999989  1
  Sn  Sn8  1  0.75000002  0.24138798  0.24138797  1
  Sn  Sn9  1  0.75000002  0.00000000  0.75861196  1
  Sn  Sn10  1  0.25000001  0.59883794  0.99999991  1
  Sn  Sn11  1  0.25000001  0.40116196  0.40116195  1
  Au  Au12  1  0.25000001  0.00000000  0.59883797  1
  Sn  Sn13  1  0.75000002  0.40116196  0.99999992  1
  Au  Au14  1  0.75000002  0.59883794  0.59883793  1
  Au  Au15  1  0.75000002  0.00000000  0.40116198  1
