# generated using pymatgen
data_Lu2ZrPt
_symmetry_space_group_name_H-M   'P 1'
_cell_length_a   3.26158404
_cell_length_b   3.26158428
_cell_length_c   10.62316036
_cell_angle_alpha   90.00000000
_cell_angle_beta   90.00000000
_cell_angle_gamma   120.00000000
_symmetry_Int_Tables_number   1
_chemical_formula_structural   Lu2ZrPt
_chemical_formula_sum   'Lu2 Zr1 Pt1'
_cell_volume   97.86818819
_cell_formula_units_Z   1
loop_
 _symmetry_equiv_pos_site_id
 _symmetry_equiv_pos_as_xyz
  1  'x, y, z'
loop_
 _atom_site_type_symbol
 _atom_site_label
 _atom_site_symmetry_multiplicity
 _atom_site_fract_x
 _atom_site_fract_y
 _atom_site_fract_z
 _atom_site_occupancy
  Zr  Zr0  1  0.66666668  0.33333335  0.49999998  1
  Lu  Lu1  1  0.33333338  0.66666670  0.24264099  1
  Lu  Lu2  1  0.66666668  0.33333335  -0.00000000  1
  Pt  Pt3  1  0.33333338  0.66666670  0.75735897  1
