# generated using pymatgen
data_NbCuSbPtS5
_symmetry_space_group_name_H-M   'P 1'
_cell_length_a   4.70815182
_cell_length_b   5.91505623
_cell_length_c   5.91505718
_cell_angle_alpha   60.00000763
_cell_angle_beta   90.00000000
_cell_angle_gamma   90.00000000
_symmetry_Int_Tables_number   1
_chemical_formula_structural   NbCuSbPtS5
_chemical_formula_sum   'Nb1 Cu1 Sb1 Pt1 S5'
_cell_volume   142.65892543
_cell_formula_units_Z   1
loop_
 _symmetry_equiv_pos_site_id
 _symmetry_equiv_pos_as_xyz
  1  'x, y, z'
loop_
 _atom_site_type_symbol
 _atom_site_label
 _atom_site_symmetry_multiplicity
 _atom_site_fract_x
 _atom_site_fract_y
 _atom_site_fract_z
 _atom_site_occupancy
  Cu  Cu0  1  0.29840601  0.33333331  0.33333334  1
  Nb  Nb1  1  0.70159403  0.66666663  0.66666668  1
  Pt  Pt2  1  0.00000000  0.00000000  0.00000000  1
  Sb  Sb3  1  0.22812101  0.83872595  0.83872601  1
  S  S4  1  0.22812101  0.32254798  0.83872599  1
  S  S5  1  0.22812101  0.83872595  0.32254802  1
  S  S6  1  0.77187903  0.16127399  0.16127400  1
  S  S7  1  0.77187903  0.67745196  0.16127402  1
  S  S8  1  0.77187903  0.16127399  0.67745199  1
