# generated using pymatgen
data_ErNb3Ru5RhW2
_symmetry_space_group_name_H-M   'P 1'
_cell_length_a   3.99184704
_cell_length_b   5.33534288
_cell_length_c   9.02892494
_cell_angle_alpha   90.00000000
_cell_angle_beta   90.00000000
_cell_angle_gamma   90.00000000
_symmetry_Int_Tables_number   1
_chemical_formula_structural   ErNb3Ru5RhW2
_chemical_formula_sum   'Er1 Nb3 Ru5 Rh1 W2'
_cell_volume   192.29689394
_cell_formula_units_Z   1
loop_
 _symmetry_equiv_pos_site_id
 _symmetry_equiv_pos_as_xyz
  1  'x, y, z'
loop_
 _atom_site_type_symbol
 _atom_site_label
 _atom_site_symmetry_multiplicity
 _atom_site_fract_x
 _atom_site_fract_y
 _atom_site_fract_z
 _atom_site_occupancy
  Er  Er0  1  0.00000000  0.50000001  0.00000000  1
  Nb  Nb1  1  0.00000000  0.00000000  0.50000000  1
  Nb  Nb2  1  0.50000000  0.00000000  0.00000000  1
  Nb  Nb3  1  0.50000000  0.74662102  0.25635500  1
  W  W4  1  0.50000000  0.25337901  0.74364500  1
  W  W5  1  0.50000000  0.25337901  0.25635500  1
  Ru  Ru6  1  0.50000000  0.74662102  0.74364500  1
  Ru  Ru7  1  0.00000000  0.50000001  0.34018200  1
  Ru  Ru8  1  0.00000000  0.00000000  0.83356501  1
  Ru  Ru9  1  0.00000000  0.00000000  0.16643500  1
  Rh  Rh10  1  0.00000000  0.50000001  0.65981800  1
  Ru  Ru11  1  0.50000000  0.50000001  0.50000000  1
