# generated using pymatgen
data_Li2O2
_symmetry_space_group_name_H-M   'P 1'
_cell_length_a   5.18701887
_cell_length_b   5.18695164
_cell_length_c   5.35856819
_cell_angle_alpha   100.72291565
_cell_angle_beta   100.72469330
_cell_angle_gamma   118.00447083
_symmetry_Int_Tables_number   1
_chemical_formula_structural   Li2O2
_chemical_formula_sum   'Li6 O6'
_cell_volume   118.69154682
_cell_formula_units_Z   3
loop_
 _symmetry_equiv_pos_site_id
 _symmetry_equiv_pos_as_xyz
  1  'x, y, z'
loop_
 _atom_site_type_symbol
 _atom_site_label
 _atom_site_symmetry_multiplicity
 _atom_site_fract_x
 _atom_site_fract_y
 _atom_site_fract_z
 _atom_site_occupancy
  Li  Li0  1  0.83173397  0.16826200  0.50000298  1
  Li  Li1  1  0.17125993  0.82873399  0.49999600  1
  Li  Li2  1  0.50311895  0.49689899  0.49999599  1
  Li  Li3  1  0.66549296  0.33451300  0.00000298  1
  Li  Li4  1  0.99887998  0.00111400  0.00000196  1
  Li  Li5  1  0.33224294  0.66778399  0.99999300  1
  O  O6  1  0.29917697  0.28663600  0.76505300  1
  O  O7  1  0.71336993  0.70087799  0.23499698  1
  O  O8  1  0.91285093  0.61514899  0.78652297  1
  O  O9  1  0.61466091  0.92756099  0.79257199  1
  O  O10  1  0.07236897  0.38530999  0.20737200  1
  O  O11  1  0.38484499  0.08716000  0.21349099  1
