# generated using pymatgen
data_In2BiSb(Te2Se)2
_symmetry_space_group_name_H-M   'P 1'
_cell_length_a   6.99235439
_cell_length_b   6.99235439
_cell_length_c   7.89891624
_cell_angle_alpha   63.72916794
_cell_angle_beta   63.72916794
_cell_angle_gamma   59.99999619
_symmetry_Int_Tables_number   1
_chemical_formula_structural   In2BiSb(Te2Se)2
_chemical_formula_sum   'In2 Bi1 Sb1 Te4 Se2'
_cell_volume   287.47849903
_cell_formula_units_Z   1
loop_
 _symmetry_equiv_pos_site_id
 _symmetry_equiv_pos_as_xyz
  1  'x, y, z'
loop_
 _atom_site_type_symbol
 _atom_site_label
 _atom_site_symmetry_multiplicity
 _atom_site_fract_x
 _atom_site_fract_y
 _atom_site_fract_z
 _atom_site_occupancy
  In  In0  1  0.49999999  0.50000000  0.50000002  1
  In  In1  1  0.16040700  0.16040700  0.51877900  1
  Bi  Bi2  1  0.83959299  0.83959300  0.48122104  1
  Sb  Sb3  1  0.00000000  0.00000000  0.00000000  1
  Te  Te4  1  0.26866399  0.57248700  0.23521002  1
  Te  Te5  1  0.57248699  0.92363900  0.23521004  1
  Te  Te6  1  0.92363899  0.26866400  0.23521003  1
  Te  Te7  1  0.07636099  0.73133600  0.76479002  1
  Se  Se8  1  0.42751300  0.07636100  0.76479001  1
  Se  Se9  1  0.73133599  0.42751300  0.76479002  1
