# generated using pymatgen
data_BaCaY2CoCu3SiP6
_symmetry_space_group_name_H-M   'P 1'
_cell_length_a   4.10975885
_cell_length_b   4.11742115
_cell_length_c   16.64957428
_cell_angle_alpha   90.00000000
_cell_angle_beta   90.00000000
_cell_angle_gamma   90.00000000
_symmetry_Int_Tables_number   1
_chemical_formula_structural   BaCaY2CoCu3SiP6
_chemical_formula_sum   'Ba1 Ca1 Y2 Co1 Cu3 Si1 P6'
_cell_volume   281.73756978
_cell_formula_units_Z   1
loop_
 _symmetry_equiv_pos_site_id
 _symmetry_equiv_pos_as_xyz
  1  'x, y, z'
loop_
 _atom_site_type_symbol
 _atom_site_label
 _atom_site_symmetry_multiplicity
 _atom_site_fract_x
 _atom_site_fract_y
 _atom_site_fract_z
 _atom_site_occupancy
  Ba  Ba0  1  0.25000001  0.00000000  0.10476200  1
  Ca  Ca1  1  0.25000001  0.49999998  0.60690299  1
  Y  Y2  1  0.75000003  0.49999998  0.38924199  1
  Y  Y3  1  0.75000003  0.00000000  0.89237499  1
  Cu  Cu4  1  0.25000001  0.49999998  0.82094099  1
  Co  Co5  1  0.75000003  0.49999998  0.18297200  1
  Cu  Cu6  1  0.75000003  0.00000000  0.67946099  1
  Cu  Cu7  1  0.25000001  0.00000000  0.44932899  1
  P  P8  1  0.25000001  0.49999998  0.95817198  1
  Si  Si9  1  0.75000003  0.49999998  0.04421900  1
  P  P10  1  0.75000003  0.00000000  0.54094099  1
  P  P11  1  0.25000001  0.49999998  0.25541700  1
  P  P12  1  0.25000001  0.00000000  0.74852299  1
  P  P13  1  0.75000003  0.00000000  0.25546600  1
  P  P14  1  0.75000003  0.49999998  0.75087899  1
