# generated using pymatgen
data_Mn3Fe7Si3P5
_symmetry_space_group_name_H-M   'P 1'
_cell_length_a   3.58986712
_cell_length_b   6.02202606
_cell_length_c   10.35843277
_cell_angle_alpha   90.00000000
_cell_angle_beta   90.00000000
_cell_angle_gamma   90.00000000
_symmetry_Int_Tables_number   1
_chemical_formula_structural   Mn3Fe7Si3P5
_chemical_formula_sum   'Mn3 Fe7 Si3 P5'
_cell_volume   223.93143084
_cell_formula_units_Z   1
loop_
 _symmetry_equiv_pos_site_id
 _symmetry_equiv_pos_as_xyz
  1  'x, y, z'
loop_
 _atom_site_type_symbol
 _atom_site_label
 _atom_site_symmetry_multiplicity
 _atom_site_fract_x
 _atom_site_fract_y
 _atom_site_fract_z
 _atom_site_occupancy
  Mn  Mn0  1  0.00000000  0.29524100  0.20167500  1
  Mn  Mn1  1  0.00000000  0.29524100  0.79832502  1
  Mn  Mn2  1  0.00000000  0.90546199  -0.00000000  1
  Fe  Fe3  1  0.00000000  0.79646799  0.29951001  1
  Fe  Fe4  1  0.00000000  0.79646799  0.70049002  1
  Fe  Fe5  1  0.49999998  0.74519199  0.50000001  1
  Si  Si6  1  0.49999998  0.62604899  0.12936200  1
  Fe  Fe7  1  0.00000000  0.40166500  0.50000001  1
  P  P8  1  0.49999998  0.24541600  0.00000000  1
  P  P9  1  0.49999998  0.12362000  0.37148001  1
  Fe  Fe10  1  0.49999998  0.12362000  0.62852001  1
  Fe  Fe11  1  0.49999998  0.62604899  0.87063802  1
  Fe  Fe12  1  0.00000000  0.00085700  0.50000001  1
  P  P13  1  0.49999998  0.49533899  0.33540601  1
  P  P14  1  0.49999998  0.99931699  0.83429502  1
  P  P15  1  0.49999998  0.99931699  0.16570500  1
  Si  Si16  1  0.00000000  0.50165399  -0.00000000  1
  Si  Si17  1  0.49999998  0.49533899  0.66459401  1
