# generated using pymatgen
data_MnAl8Si3
_symmetry_space_group_name_H-M   'P 1'
_cell_length_a   4.89723921
_cell_length_b   4.89819431
_cell_length_c   8.00152969
_cell_angle_alpha   90.00000000
_cell_angle_beta   90.00000000
_cell_angle_gamma   119.09267426
_symmetry_Int_Tables_number   1
_chemical_formula_structural   MnAl8Si3
_chemical_formula_sum   'Mn1 Al8 Si3'
_cell_volume   167.72178867
_cell_formula_units_Z   1
loop_
 _symmetry_equiv_pos_site_id
 _symmetry_equiv_pos_as_xyz
  1  'x, y, z'
loop_
 _atom_site_type_symbol
 _atom_site_label
 _atom_site_symmetry_multiplicity
 _atom_site_fract_x
 _atom_site_fract_y
 _atom_site_fract_z
 _atom_site_occupancy
  Mn  Mn0  1  0.33655005  0.66509604  0.54781502  1
  Al  Al1  1  0.67183205  0.32951902  0.42546802  1
  Al  Al2  1  0.67183205  0.32951902  0.07453200  1
  Al  Al3  1  0.33655005  0.66509604  0.95218504  1
  Al  Al4  1  0.99058704  0.00749500  0.48963502  1
  Al  Al5  1  0.99058704  0.00749500  0.01036500  1
  Al  Al6  1  0.34530702  0.16591001  0.75000003  1
  Al  Al7  1  0.83524107  0.65295404  0.75000003  1
  Al  Al8  1  0.83271805  0.16322001  0.75000003  1
  Si  Si9  1  0.64576907  0.82787605  0.25000001  1
  Si  Si10  1  0.17432203  0.35429002  0.25000001  1
  Si  Si11  1  0.16870405  0.83152905  0.25000001  1
