# generated using pymatgen
data_Li3CuO6
_symmetry_space_group_name_H-M   'P 1'
_cell_length_a   5.05171776
_cell_length_b   5.05166340
_cell_length_c   5.43156433
_cell_angle_alpha   117.71199799
_cell_angle_beta   117.71232605
_cell_angle_gamma   60.00058365
_symmetry_Int_Tables_number   1
_chemical_formula_structural   Li3CuO6
_chemical_formula_sum   'Li3 Cu1 O6'
_cell_volume   101.26706449
_cell_formula_units_Z   1
loop_
 _symmetry_equiv_pos_site_id
 _symmetry_equiv_pos_as_xyz
  1  'x, y, z'
loop_
 _atom_site_type_symbol
 _atom_site_label
 _atom_site_symmetry_multiplicity
 _atom_site_fract_x
 _atom_site_fract_y
 _atom_site_fract_z
 _atom_site_occupancy
  Li  Li0  1  0.14773600  0.14772800  0.44318901  1
  Li  Li1  1  0.84887300  0.84887499  0.54662800  1
  Li  Li2  1  0.64698800  0.64698199  0.94095402  1
  Cu  Cu3  1  0.34965200  0.34966800  0.04898100  1
  O  O4  1  0.05557602  0.75259299  0.25892502  1
  O  O5  1  0.56338401  0.95488799  0.74782902  1
  O  O6  1  0.22955801  0.56338400  0.74783002  1
  O  O7  1  0.75259299  0.45074700  0.25892099  1
  O  O8  1  0.45075099  0.05558100  0.25891799  1
  O  O9  1  0.95488798  0.22955300  0.74782500  1
