# generated using pymatgen
data_Li3NiO2
_symmetry_space_group_name_H-M   'P 1'
_cell_length_a   3.86324191
_cell_length_b   5.60024405
_cell_length_c   7.91247749
_cell_angle_alpha   90.00000000
_cell_angle_beta   104.13003540
_cell_angle_gamma   90.00000000
_symmetry_Int_Tables_number   1
_chemical_formula_structural   Li3NiO2
_chemical_formula_sum   'Li6 Ni2 O4'
_cell_volume   166.00781145
_cell_formula_units_Z   2
loop_
 _symmetry_equiv_pos_site_id
 _symmetry_equiv_pos_as_xyz
  1  'x, y, z'
loop_
 _atom_site_type_symbol
 _atom_site_label
 _atom_site_symmetry_multiplicity
 _atom_site_fract_x
 _atom_site_fract_y
 _atom_site_fract_z
 _atom_site_occupancy
  Li  Li0  1  0.08230100  0.74999999  0.16460200  1
  Li  Li1  1  0.91769902  0.25000000  0.83539800  1
  Li  Li2  1  0.30868901  0.74999999  0.61737800  1
  Li  Li3  1  0.69131101  0.25000000  0.38262200  1
  Li  Li4  1  0.18572000  0.98281799  0.37144000  1
  Li  Li5  1  0.81428002  0.01718200  0.62856000  1
  O  O6  1  0.81428002  0.48281800  0.62856000  1
  Ni  Ni7  1  0.18572000  0.51718200  0.37144000  1
  O  O8  1  0.00000000  0.00000000  0.00000000  1
  O  O9  1  0.00000000  0.50000000  -0.00000000  1
  O  O10  1  0.58864001  0.74999999  0.17728000  1
  Ni  Ni11  1  0.41136001  0.25000000  0.82272000  1
