# generated using pymatgen
data_YTl3Bi2(SbSe)2
_symmetry_space_group_name_H-M   'P 1'
_cell_length_a   4.25542021
_cell_length_b   4.25542021
_cell_length_c   20.52863884
_cell_angle_alpha   84.05084229
_cell_angle_beta   84.05084229
_cell_angle_gamma   60.00000000
_symmetry_Int_Tables_number   1
_chemical_formula_structural   YTl3Bi2(SbSe)2
_chemical_formula_sum   'Y1 Tl3 Bi2 Sb2 Se2'
_cell_volume   319.62661399
_cell_formula_units_Z   1
loop_
 _symmetry_equiv_pos_site_id
 _symmetry_equiv_pos_as_xyz
  1  'x, y, z'
loop_
 _atom_site_type_symbol
 _atom_site_label
 _atom_site_symmetry_multiplicity
 _atom_site_fract_x
 _atom_site_fract_y
 _atom_site_fract_z
 _atom_site_occupancy
  Y  Y0  1  0.19853700  0.19853699  0.40438899  1
  Tl  Tl1  1  0.69612401  0.69612397  0.91162797  1
  Tl  Tl2  1  0.30200101  0.30200099  0.09399699  1
  Tl  Tl3  1  0.80460001  0.80459997  0.58619997  1
  Bi  Bi4  1  0.39265901  0.39265898  0.82202298  1
  Bi  Bi5  1  0.60699301  0.60699298  0.17902098  1
  Sb  Sb6  1  0.10947600  0.10947600  0.67157199  1
  Sb  Sb7  1  0.99850702  0.99850696  0.00447897  1
  Se  Se8  1  0.50077401  0.50077398  0.49767798  1
  Se  Se9  1  0.89032902  0.89032897  0.32901297  1
