# generated using pymatgen
data_LaY2ErGaGe5
_symmetry_space_group_name_H-M   'P 1'
_cell_length_a   3.74679089
_cell_length_b   6.21106386
_cell_length_c   11.59350586
_cell_angle_alpha   90.00000000
_cell_angle_beta   90.00000000
_cell_angle_gamma   90.00000000
_symmetry_Int_Tables_number   1
_chemical_formula_structural   LaY2ErGaGe5
_chemical_formula_sum   'La1 Y2 Er1 Ga1 Ge5'
_cell_volume   269.79893788
_cell_formula_units_Z   1
loop_
 _symmetry_equiv_pos_site_id
 _symmetry_equiv_pos_as_xyz
  1  'x, y, z'
loop_
 _atom_site_type_symbol
 _atom_site_label
 _atom_site_symmetry_multiplicity
 _atom_site_fract_x
 _atom_site_fract_y
 _atom_site_fract_z
 _atom_site_occupancy
  Y  Y0  1  0.00000000  0.61052401  0.15320800  1
  Y  Y1  1  -0.00000000  0.38947601  0.84679201  1
  Er  Er2  1  -0.00000000  0.11052400  0.34679200  1
  La  La3  1  -0.00000000  0.88947602  0.65320801  1
  Ge  Ge4  1  0.00000000  0.00000000  0.00000000  1
  Ga  Ga5  1  -0.00000000  0.50000001  0.50000001  1
  Ge  Ge6  1  0.50000002  0.67577302  0.38951600  1
  Ge  Ge7  1  0.50000002  0.32422701  0.61048401  1
  Ge  Ge8  1  0.50000002  0.17577300  0.11048400  1
  Ge  Ge9  1  0.50000002  0.82422702  0.88951601  1
