# generated using pymatgen
data_KCuSe2
_symmetry_space_group_name_H-M   'P 1'
_cell_length_a   5.60702610
_cell_length_b   7.46683359
_cell_length_c   12.47726345
_cell_angle_alpha   85.16063690
_cell_angle_beta   77.01536560
_cell_angle_gamma   67.94712067
_symmetry_Int_Tables_number   1
_chemical_formula_structural   KCuSe2
_chemical_formula_sum   'K4 Cu4 Se8'
_cell_volume   471.78367051
_cell_formula_units_Z   4
loop_
 _symmetry_equiv_pos_site_id
 _symmetry_equiv_pos_as_xyz
  1  'x, y, z'
loop_
 _atom_site_type_symbol
 _atom_site_label
 _atom_site_symmetry_multiplicity
 _atom_site_fract_x
 _atom_site_fract_y
 _atom_site_fract_z
 _atom_site_occupancy
  K  K0  1  0.32251091  0.99999999  0.35497803  1
  K  K1  1  0.67748891  0.99999999  0.64502202  1
  K  K2  1  0.42748895  0.49999999  0.14502202  1
  K  K3  1  0.07251096  0.49999999  0.85497800  1
  Cu  Cu4  1  0.24999995  0.49999999  0.50000001  1
  Cu  Cu5  1  0.49999991  0.99999999  0.00000004  1
  Cu  Cu6  1  0.74999995  0.49999999  0.50000001  1
  Cu  Cu7  1  0.00000000  0.00000000  0.00000000  1
  Se  Se8  1  0.40508293  0.80865999  0.89300601  1
  Se  Se9  1  0.10674998  0.19133900  0.10699301  1
  Se  Se10  1  0.78625792  0.80865999  0.10699303  1
  Se  Se11  1  0.70191197  0.19133900  0.89300599  1
  Se  Se12  1  0.04808797  0.30866100  0.60699400  1
  Se  Se13  1  0.64324996  0.30866100  0.39300700  1
  Se  Se14  1  0.96374193  0.69133999  0.39300702  1
  Se  Se15  1  0.34491694  0.69133999  0.60699401  1
