# generated using pymatgen
data_KNb4Tl3S10
_symmetry_space_group_name_H-M   'P 1'
_cell_length_a   6.95441055
_cell_length_b   6.95441055
_cell_length_c   12.18505859
_cell_angle_alpha   90.00000000
_cell_angle_beta   90.00000000
_cell_angle_gamma   112.24079895
_symmetry_Int_Tables_number   1
_chemical_formula_structural   KNb4Tl3S10
_chemical_formula_sum   'K1 Nb4 Tl3 S10'
_cell_volume   545.47170618
_cell_formula_units_Z   1
loop_
 _symmetry_equiv_pos_site_id
 _symmetry_equiv_pos_as_xyz
  1  'x, y, z'
loop_
 _atom_site_type_symbol
 _atom_site_label
 _atom_site_symmetry_multiplicity
 _atom_site_fract_x
 _atom_site_fract_y
 _atom_site_fract_z
 _atom_site_occupancy
  K  K0  1  0.20394496  0.79605500  -0.00000000  1
  Tl  Tl1  1  0.79605500  0.20394500  -0.00000000  1
  Nb  Nb2  1  0.79605500  0.20394500  0.50000002  1
  Nb  Nb3  1  0.20394496  0.79605500  0.50000002  1
  Nb  Nb4  1  0.68429699  0.46216500  0.25000001  1
  Nb  Nb5  1  0.53783499  0.31570300  0.75000003  1
  Tl  Tl6  1  0.31570298  0.53783500  0.75000003  1
  Tl  Tl7  1  0.46216497  0.68429700  0.25000001  1
  S  S8  1  0.34630799  0.34630800  0.56639002  1
  S  S9  1  0.44961000  0.06354700  0.25000001  1
  S  S10  1  0.06354698  0.44961000  0.25000001  1
  S  S11  1  0.93645298  0.55039000  0.75000003  1
  S  S12  1  0.02484800  0.02484800  0.25000001  1
  S  S13  1  0.97515196  0.97515199  0.75000003  1
  S  S14  1  0.65369197  0.65369200  0.06639000  1
  S  S15  1  0.34630799  0.34630800  0.93361003  1
  S  S16  1  0.65369197  0.65369200  0.43361001  1
  S  S17  1  0.55038996  0.93645299  0.75000003  1
