# generated using pymatgen
data_ErIn4Sn2Pd2Au
_symmetry_space_group_name_H-M   'P 1'
_cell_length_a   3.67317510
_cell_length_b   7.67991495
_cell_length_c   7.67991495
_cell_angle_alpha   90.00000000
_cell_angle_beta   90.00000000
_cell_angle_gamma   90.00000000
_symmetry_Int_Tables_number   1
_chemical_formula_structural   ErIn4Sn2Pd2Au
_chemical_formula_sum   'Er1 In4 Sn2 Pd2 Au1'
_cell_volume   216.64788440
_cell_formula_units_Z   1
loop_
 _symmetry_equiv_pos_site_id
 _symmetry_equiv_pos_as_xyz
  1  'x, y, z'
loop_
 _atom_site_type_symbol
 _atom_site_label
 _atom_site_symmetry_multiplicity
 _atom_site_fract_x
 _atom_site_fract_y
 _atom_site_fract_z
 _atom_site_occupancy
  Er  Er0  1  0.49999999  0.67160400  0.17160400  1
  In  In1  1  0.49999999  0.32839600  0.82839601  1
  In  In2  1  0.49999999  0.17160400  0.32839600  1
  In  In3  1  0.49999999  0.82839601  0.67160400  1
  In  In4  1  0.00000000  0.50000000  0.50000000  1
  Sn  Sn5  1  0.00000000  0.00000000  0.00000000  1
  Sn  Sn6  1  0.00000000  0.12133200  0.62133200  1
  Pd  Pd7  1  0.00000000  0.87866801  0.37866800  1
  Au  Au8  1  0.00000000  0.62133200  0.87866801  1
  Pd  Pd9  1  -0.00000000  0.37866800  0.12133200  1
