# generated using pymatgen
data_LiMgCdCu3
_symmetry_space_group_name_H-M   'P 1'
_cell_length_a   4.29912806
_cell_length_b   4.29912806
_cell_length_c   8.32350063
_cell_angle_alpha   75.03361511
_cell_angle_beta   75.03361511
_cell_angle_gamma   59.99999619
_symmetry_Int_Tables_number   1
_chemical_formula_structural   LiMgCdCu3
_chemical_formula_sum   'Li1 Mg1 Cd1 Cu3'
_cell_volume   127.16696363
_cell_formula_units_Z   1
loop_
 _symmetry_equiv_pos_site_id
 _symmetry_equiv_pos_as_xyz
  1  'x, y, z'
loop_
 _atom_site_type_symbol
 _atom_site_label
 _atom_site_symmetry_multiplicity
 _atom_site_fract_x
 _atom_site_fract_y
 _atom_site_fract_z
 _atom_site_occupancy
  Li  Li0  1  0.00734400  0.00734400  0.97796803  1
  Mg  Mg1  1  0.86064797  0.86064803  0.41805606  1
  Cu  Cu2  1  0.13555900  0.13555900  0.59332302  1
  Cd  Cd3  1  0.54160498  0.54160502  0.37518504  1
  Cu  Cu4  1  0.75471397  0.75471402  0.73585806  1
  Cu  Cu5  1  0.25162899  0.25162901  0.24511302  1
