# generated using pymatgen
data_Y2VC4
_symmetry_space_group_name_H-M   'P 1'
_cell_length_a   4.06299591
_cell_length_b   4.06299591
_cell_length_c   7.33181763
_cell_angle_alpha   106.08599091
_cell_angle_beta   106.08599091
_cell_angle_gamma   90.00000000
_symmetry_Int_Tables_number   1
_chemical_formula_structural   Y2VC4
_chemical_formula_sum   'Y2 V1 C4'
_cell_volume   111.35404926
_cell_formula_units_Z   1
loop_
 _symmetry_equiv_pos_site_id
 _symmetry_equiv_pos_as_xyz
  1  'x, y, z'
loop_
 _atom_site_type_symbol
 _atom_site_label
 _atom_site_symmetry_multiplicity
 _atom_site_fract_x
 _atom_site_fract_y
 _atom_site_fract_z
 _atom_site_occupancy
  Y  Y0  1  0.35476101  0.35476101  0.70952200  1
  Y  Y1  1  0.64523902  0.64523902  0.29047801  1
  V  V2  1  0.00000000  0.00000000  0.00000000  1
  C  C3  1  0.50000001  0.00000000  0.00000000  1
  C  C4  1  0.15472700  0.15472700  0.30945400  1
  C  C5  1  0.84527302  0.84527302  0.69054601  1
  C  C6  1  0.00000000  0.50000001  0.00000000  1
