# generated using pymatgen
data_KBaZrAgO6
_symmetry_space_group_name_H-M   'P 1'
_cell_length_a   6.81204605
_cell_length_b   6.83558226
_cell_length_c   6.81204605
_cell_angle_alpha   60.11383438
_cell_angle_beta   90.00000000
_cell_angle_gamma   119.88616180
_symmetry_Int_Tables_number   1
_chemical_formula_structural   KBaZrAgO6
_chemical_formula_sum   'K1 Ba1 Zr1 Ag1 O6'
_cell_volume   225.06261714
_cell_formula_units_Z   1
loop_
 _symmetry_equiv_pos_site_id
 _symmetry_equiv_pos_as_xyz
  1  'x, y, z'
loop_
 _atom_site_type_symbol
 _atom_site_label
 _atom_site_symmetry_multiplicity
 _atom_site_fract_x
 _atom_site_fract_y
 _atom_site_fract_z
 _atom_site_occupancy
  Ba  Ba0  1  0.24820696  0.49641397  0.25179301  1
  K  K1  1  0.74820695  0.49641397  0.75179301  1
  Zr  Zr2  1  0.50202800  0.00405600  0.49797200  1
  Ag  Ag3  1  0.98199391  0.96398794  0.01800602  1
  O  O4  1  0.78723295  0.57446596  0.21276701  1
  O  O5  1  0.22136500  0.00896900  0.77863499  1
  O  O6  1  0.22136500  0.00896800  0.21239700  1
  O  O7  1  0.78760399  0.00897000  0.77863399  1
  O  O8  1  0.21439396  0.42878797  0.78560601  1
  O  O9  1  0.78760399  0.00896900  0.21239600  1
