# generated using pymatgen
data_KNa4LiCu2ClO11
_symmetry_space_group_name_H-M   'P 1'
_cell_length_a   6.37534571
_cell_length_b   6.37534571
_cell_length_c   11.04863739
_cell_angle_alpha   73.23106384
_cell_angle_beta   73.23106384
_cell_angle_gamma   60.00000381
_symmetry_Int_Tables_number   1
_chemical_formula_structural   KNa4LiCu2ClO11
_chemical_formula_sum   'K1 Na4 Li1 Cu2 Cl1 O11'
_cell_volume   366.69173091
_cell_formula_units_Z   1
loop_
 _symmetry_equiv_pos_site_id
 _symmetry_equiv_pos_as_xyz
  1  'x, y, z'
loop_
 _atom_site_type_symbol
 _atom_site_label
 _atom_site_symmetry_multiplicity
 _atom_site_fract_x
 _atom_site_fract_y
 _atom_site_fract_z
 _atom_site_occupancy
  Na  Na0  1  0.12681200  0.12681200  0.61956399  1
  Na  Na1  1  0.87318799  0.87318799  0.38043596  1
  Na  Na2  1  0.28442200  0.28442200  0.14673399  1
  K  K3  1  0.71557799  0.71557799  0.85326596  1
  Na  Na4  1  0.59638799  0.59638799  0.21083597  1
  Li  Li5  1  0.40361199  0.40361199  0.78916398  1
  Cu  Cu6  1  0.49999999  0.49999999  0.49999998  1
  Cu  Cu7  1  0.00000000  0.00000000  0.00000000  1
  O  O8  1  0.18673900  0.18673900  0.88979199  1
  O  O9  1  0.18673900  0.73672999  0.88979198  1
  O  O10  1  0.73672999  0.18673900  0.88979198  1
  O  O11  1  0.26326999  0.81326099  0.11020798  1
  O  O12  1  0.81326099  0.81326099  0.11020796  1
  O  O13  1  0.81326099  0.26327000  0.11020798  1
  O  O14  1  0.39554799  0.39554800  0.38718498  1
  Cl  Cl15  1  0.39554799  0.82171899  0.38718497  1
  O  O16  1  0.60445199  0.17828100  0.61281498  1
  O  O17  1  0.60445199  0.60445199  0.61281497  1
  O  O18  1  0.17828100  0.60445199  0.61281498  1
  O  O19  1  0.82171899  0.39554800  0.38718497  1
