# generated using pymatgen
data_MnAl4SiNi2
_symmetry_space_group_name_H-M   'P 1'
_cell_length_a   2.71992707
_cell_length_b   2.71992707
_cell_length_c   14.88698673
_cell_angle_alpha   90.00000000
_cell_angle_beta   90.00000000
_cell_angle_gamma   90.00000000
_symmetry_Int_Tables_number   1
_chemical_formula_structural   MnAl4SiNi2
_chemical_formula_sum   'Mn1 Al4 Si1 Ni2'
_cell_volume   110.13397667
_cell_formula_units_Z   1
loop_
 _symmetry_equiv_pos_site_id
 _symmetry_equiv_pos_as_xyz
  1  'x, y, z'
loop_
 _atom_site_type_symbol
 _atom_site_label
 _atom_site_symmetry_multiplicity
 _atom_site_fract_x
 _atom_site_fract_y
 _atom_site_fract_z
 _atom_site_occupancy
  Mn  Mn0  1  0.00000000  0.00000000  0.49887601  1
  Al  Al1  1  0.00000000  0.00000000  0.75063901  1
  Al  Al2  1  0.00000000  0.00000000  0.00164200  1
  Al  Al3  1  0.00000000  0.00000000  0.24853900  1
  Al  Al4  1  0.49999999  0.49999999  0.12782200  1
  Ni  Ni5  1  0.49999999  0.49999999  0.37368301  1
  Si  Si6  1  0.49999999  0.49999999  0.62450101  1
  Ni  Ni7  1  0.49999999  0.49999999  0.87429902  1
