# generated using pymatgen
data_KRbLiTlCl4
_symmetry_space_group_name_H-M   'P 1'
_cell_length_a   6.58416605
_cell_length_b   6.58416605
_cell_length_c   6.58416605
_cell_angle_alpha   106.65493774
_cell_angle_beta   106.65493774
_cell_angle_gamma   115.26375580
_symmetry_Int_Tables_number   1
_chemical_formula_structural   KRbLiTlCl4
_chemical_formula_sum   'Rb1 K1 Li1 Tl1 Cl4'
_cell_volume   218.02411752
_cell_formula_units_Z   1
loop_
 _symmetry_equiv_pos_site_id
 _symmetry_equiv_pos_as_xyz
  1  'x, y, z'
loop_
 _atom_site_type_symbol
 _atom_site_label
 _atom_site_symmetry_multiplicity
 _atom_site_fract_x
 _atom_site_fract_y
 _atom_site_fract_z
 _atom_site_occupancy
  Li  Li0  1  0.25000002  0.25000001  1.00000003  1
  Rb  Rb1  1  0.75000006  0.75000004  1.00000011  1
  K  K2  1  0.25000005  0.75000004  0.50000008  1
  Tl  Tl3  1  0.75000003  0.25000001  0.50000007  1
  Cl  Cl4  1  0.18662102  0.31337902  0.50000004  1
  Cl  Cl5  1  0.81337906  0.68662103  0.50000011  1
  Cl  Cl6  1  0.31337906  0.81337904  0.12675810  1
  Cl  Cl7  1  0.68662102  0.18662101  0.87324206  1
