# generated using pymatgen
data_K7BrCl8
_symmetry_space_group_name_H-M   'P 1'
_cell_length_a   6.10409403
_cell_length_b   8.43955040
_cell_length_c   10.89666748
_cell_angle_alpha   90.00000000
_cell_angle_beta   106.26556396
_cell_angle_gamma   90.00000000
_symmetry_Int_Tables_number   1
_chemical_formula_structural   K7BrCl8
_chemical_formula_sum   'K7 Br1 Cl8'
_cell_volume   538.88191283
_cell_formula_units_Z   1
loop_
 _symmetry_equiv_pos_site_id
 _symmetry_equiv_pos_as_xyz
  1  'x, y, z'
loop_
 _atom_site_type_symbol
 _atom_site_label
 _atom_site_symmetry_multiplicity
 _atom_site_fract_x
 _atom_site_fract_y
 _atom_site_fract_z
 _atom_site_occupancy
  K  K0  1  0.82103898  0.74999996  0.12700297  1
  K  K1  1  0.19403600  0.24999999  0.87299698  1
  K  K2  1  0.35477499  0.74999996  0.70881698  1
  K  K3  1  0.14595800  0.24999999  0.29118299  1
  K  K4  1  0.26138599  0.49999998  0.49999998  1
  K  K5  1  0.26138599  0.00000000  0.49999998  1
  Cl  Cl6  1  0.85487198  0.74999996  0.71013996  1
  K  K7  1  0.64473098  0.24999999  0.28985997  1
  Cl  Cl8  1  0.99776898  0.74999996  0.50126795  1
  Br  Br9  1  0.99650098  0.24999999  0.49873195  1
  Cl  Cl10  1  0.21090099  0.74999996  0.91610398  1
  Cl  Cl11  1  0.79479698  0.24999999  0.08389597  1
  Cl  Cl12  1  0.60506899  0.49314398  0.71121397  1
  Cl  Cl13  1  0.39385499  0.50685598  0.28878598  1
  Cl  Cl14  1  0.60506899  0.00685600  0.71121397  1
  Cl  Cl15  1  0.39385499  0.99314395  0.28878598  1
