# generated using pymatgen
data_LiMn2VO8
_symmetry_space_group_name_H-M   'P 1'
_cell_length_a   4.48773909
_cell_length_b   5.30741405
_cell_length_c   5.31059885
_cell_angle_alpha   66.94754028
_cell_angle_beta   90.00106049
_cell_angle_gamma   90.00110626
_symmetry_Int_Tables_number   1
_chemical_formula_structural   LiMn2VO8
_chemical_formula_sum   'Li1 Mn2 V1 O8'
_cell_volume   116.38878839
_cell_formula_units_Z   1
loop_
 _symmetry_equiv_pos_site_id
 _symmetry_equiv_pos_as_xyz
  1  'x, y, z'
loop_
 _atom_site_type_symbol
 _atom_site_label
 _atom_site_symmetry_multiplicity
 _atom_site_fract_x
 _atom_site_fract_y
 _atom_site_fract_z
 _atom_site_occupancy
  Li  Li0  1  0.00000797  0.49995999  0.50001399  1
  Mn  Mn1  1  0.49994994  0.99994998  0.50004402  1
  Mn  Mn2  1  0.00003400  0.00001600  0.00000200  1
  V  V3  1  0.49991796  0.50005599  0.99995099  1
  O  O4  1  0.81574495  0.64781399  0.14786004  1
  O  O5  1  0.81572198  0.14771100  0.64791501  1
  O  O6  1  0.31558695  0.85226998  0.85211100  1
  O  O7  1  0.31563597  0.35221299  0.35210401  1
  O  O8  1  0.68430595  0.64778099  0.64790902  1
  O  O9  1  0.68427198  0.14784600  0.14791103  1
  O  O10  1  0.18439195  0.85214798  0.35211601  1
  O  O11  1  0.18443098  0.35223599  0.85206198  1
