# generated using pymatgen
data_Li6CuO8
_symmetry_space_group_name_H-M   'P 1'
_cell_length_a   5.86372614
_cell_length_b   5.93850517
_cell_length_c   5.94832182
_cell_angle_alpha   119.62268066
_cell_angle_beta   90.00000000
_cell_angle_gamma   119.58432007
_symmetry_Int_Tables_number   1
_chemical_formula_structural   Li6CuO8
_chemical_formula_sum   'Li6 Cu1 O8'
_cell_volume   148.20193392
_cell_formula_units_Z   1
loop_
 _symmetry_equiv_pos_site_id
 _symmetry_equiv_pos_as_xyz
  1  'x, y, z'
loop_
 _atom_site_type_symbol
 _atom_site_label
 _atom_site_symmetry_multiplicity
 _atom_site_fract_x
 _atom_site_fract_y
 _atom_site_fract_z
 _atom_site_occupancy
  Li  Li0  1  0.49999999  0.00000000  0.49999999  1
  Li  Li1  1  0.50000001  0.50000003  0.49999998  1
  Li  Li2  1  0.00000003  0.50000003  0.49999998  1
  Li  Li3  1  0.00000000  0.00000000  0.00000000  1
  Li  Li4  1  0.49999999  0.00000000  0.00000000  1
  Li  Li5  1  0.00000003  0.50000003  -0.00000001  1
  Cu  Cu6  1  0.50000001  0.50000003  -0.00000001  1
  O  O7  1  0.26660302  0.53320603  0.78592798  1
  O  O8  1  0.25452900  0.02006200  0.78387598  1
  O  O9  1  0.76553298  0.02006200  0.78387598  1
  O  O10  1  0.23814602  0.47629202  0.22491899  1
  O  O11  1  0.76185401  0.52370803  0.77508098  1
  O  O12  1  0.23446704  0.97993805  0.21612398  1
  O  O13  1  0.74547103  0.97993805  0.21612398  1
  O  O14  1  0.73339701  0.46679402  0.21407199  1
