# generated using pymatgen
data_MnAlFeSi4
_symmetry_space_group_name_H-M   'P 1'
_cell_length_a   3.13919592
_cell_length_b   3.13919592
_cell_length_c   10.17768669
_cell_angle_alpha   98.87153625
_cell_angle_beta   98.87153625
_cell_angle_gamma   90.00000000
_symmetry_Int_Tables_number   1
_chemical_formula_structural   MnAlFeSi4
_chemical_formula_sum   'Mn1 Al1 Fe1 Si4'
_cell_volume   97.88205031
_cell_formula_units_Z   1
loop_
 _symmetry_equiv_pos_site_id
 _symmetry_equiv_pos_as_xyz
  1  'x, y, z'
loop_
 _atom_site_type_symbol
 _atom_site_label
 _atom_site_symmetry_multiplicity
 _atom_site_fract_x
 _atom_site_fract_y
 _atom_site_fract_z
 _atom_site_occupancy
  Mn  Mn0  1  0.70744603  0.70744602  0.41489202  1
  Al  Al1  1  0.29255401  0.29255401  0.58510801  1
  Fe  Fe2  1  0.00000000  0.00000000  0.00000000  1
  Si  Si3  1  0.57032703  0.57032702  0.14065402  1
  Si  Si4  1  0.42967302  0.42967301  0.85934602  1
  Si  Si5  1  0.86517504  0.86517503  0.73035003  1
  Si  Si6  1  0.13482501  0.13482500  0.26965001  1
