# generated using pymatgen
data_Na3CuO6
_symmetry_space_group_name_H-M   'P 1'
_cell_length_a   5.65758181
_cell_length_b   5.80837584
_cell_length_c   7.86183453
_cell_angle_alpha   90.00000000
_cell_angle_beta   89.54724121
_cell_angle_gamma   90.00000000
_symmetry_Int_Tables_number   1
_chemical_formula_structural   Na3CuO6
_chemical_formula_sum   'Na6 Cu2 O12'
_cell_volume   258.34251988
_cell_formula_units_Z   2
loop_
 _symmetry_equiv_pos_site_id
 _symmetry_equiv_pos_as_xyz
  1  'x, y, z'
loop_
 _atom_site_type_symbol
 _atom_site_label
 _atom_site_symmetry_multiplicity
 _atom_site_fract_x
 _atom_site_fract_y
 _atom_site_fract_z
 _atom_site_occupancy
  Na  Na0  1  0.99232703  0.29218501  0.75012603  1
  Na  Na1  1  0.49232702  0.70781502  0.25012602  1
  Na  Na2  1  0.50026502  0.25495401  0.00083802  1
  Na  Na3  1  0.00026500  0.74504602  0.50083800  1
  Na  Na4  1  0.50931502  0.80701302  0.75212101  1
  Na  Na5  1  0.00931500  0.19298701  0.25212100  1
  Cu  Cu6  1  0.00014000  0.74774102  0.99982799  1
  Cu  Cu7  1  0.50014002  0.25225901  0.49982801  1
  O  O8  1  0.92995103  0.78040302  0.24141503  1
  O  O9  1  0.80339203  0.01885800  0.95833102  1
  O  O10  1  0.77280703  0.05167500  0.53540702  1
  O  O11  1  0.71723602  0.56667902  0.95277502  1
  O  O12  1  0.67796502  0.53323002  0.54857102  1
  O  O13  1  0.59660302  0.27197301  0.26058802  1
  O  O14  1  0.42995101  0.21959701  0.74141501  1
  O  O15  1  0.30339201  0.98114203  0.45833101  1
  O  O16  1  0.27280701  0.94832503  0.03540701  1
  O  O17  1  0.21723601  0.43332101  0.45277500  1
  O  O18  1  0.17796501  0.46677001  0.04857101  1
  O  O19  1  0.09660300  0.72802702  0.76058800  1
