# generated using pymatgen
data_MnFe3NiP
_symmetry_space_group_name_H-M   'P 1'
_cell_length_a   4.21783113
_cell_length_b   4.21783113
_cell_length_c   4.21783113
_cell_angle_alpha   104.93378448
_cell_angle_beta   104.93378448
_cell_angle_gamma   118.98593903
_symmetry_Int_Tables_number   1
_chemical_formula_structural   MnFe3NiP
_chemical_formula_sum   'Mn1 Fe3 Ni1 P1'
_cell_volume   56.55029134
_cell_formula_units_Z   1
loop_
 _symmetry_equiv_pos_site_id
 _symmetry_equiv_pos_as_xyz
  1  'x, y, z'
loop_
 _atom_site_type_symbol
 _atom_site_label
 _atom_site_symmetry_multiplicity
 _atom_site_fract_x
 _atom_site_fract_y
 _atom_site_fract_z
 _atom_site_occupancy
  Mn  Mn0  1  0.66612399  0.16612400  0.83224800  1
  Fe  Fe1  1  0.16612403  0.33387601  0.50000001  1
  Fe  Fe2  1  0.33387608  0.83387602  0.16775208  1
  Ni  Ni3  1  0.83387604  0.66612402  0.50000006  1
  Fe  Fe4  1  0.25000002  0.25000001  0.99999998  1
  P  P5  1  0.75000005  0.75000002  1.00000004  1
