# generated using pymatgen
data_LiFe4CuP6
_symmetry_space_group_name_H-M   'P 1'
_cell_length_a   6.24576044
_cell_length_b   6.24576044
_cell_length_c   7.14968252
_cell_angle_alpha   64.10101318
_cell_angle_beta   64.10101318
_cell_angle_gamma   59.99999619
_symmetry_Int_Tables_number   1
_chemical_formula_structural   LiFe4CuP6
_chemical_formula_sum   'Li1 Fe4 Cu1 P6'
_cell_volume   208.56815364
_cell_formula_units_Z   1
loop_
 _symmetry_equiv_pos_site_id
 _symmetry_equiv_pos_as_xyz
  1  'x, y, z'
loop_
 _atom_site_type_symbol
 _atom_site_label
 _atom_site_symmetry_multiplicity
 _atom_site_fract_x
 _atom_site_fract_y
 _atom_site_fract_z
 _atom_site_occupancy
  Li  Li0  1  0.82971102  0.82971100  0.51086690  1
  Fe  Fe1  1  0.17028900  0.17028900  0.48913298  1
  Fe  Fe2  1  0.50000000  0.00000000  -0.00000003  1
  Fe  Fe3  1  0.00000001  0.50000000  -0.00000003  1
  Cu  Cu4  1  0.50000001  0.50000000  -0.00000006  1
  Fe  Fe5  1  0.00000000  0.00000000  0.00000000  1
  P  P6  1  0.38984102  0.88618800  0.83778292  1
  P  P7  1  0.88618802  0.88618800  0.83778289  1
  P  P8  1  0.88618801  0.38984100  0.83778292  1
  P  P9  1  0.61015900  0.11381200  0.16221696  1
  P  P10  1  0.11381200  0.11381200  0.16221699  1
  P  P11  1  0.11381201  0.61015900  0.16221696  1
