# generated using pymatgen
data_MnFe7B3(P2Ir)3
_symmetry_space_group_name_H-M   'P 1'
_cell_length_a   5.40878105
_cell_length_b   6.45938253
_cell_length_c   6.98163652
_cell_angle_alpha   76.71876526
_cell_angle_beta   89.68563843
_cell_angle_gamma   89.91291809
_symmetry_Int_Tables_number   1
_chemical_formula_structural   MnFe7B3(P2Ir)3
_chemical_formula_sum   'Mn1 Fe7 B3 P6 Ir3'
_cell_volume   237.39270010
_cell_formula_units_Z   1
loop_
 _symmetry_equiv_pos_site_id
 _symmetry_equiv_pos_as_xyz
  1  'x, y, z'
loop_
 _atom_site_type_symbol
 _atom_site_label
 _atom_site_symmetry_multiplicity
 _atom_site_fract_x
 _atom_site_fract_y
 _atom_site_fract_z
 _atom_site_occupancy
  Mn  Mn0  1  0.71126991  0.86972099  0.15312904  1
  Fe  Fe1  1  0.70089996  0.37161699  0.15262304  1
  Fe  Fe2  1  0.19709597  0.32197300  0.34922201  1
  Fe  Fe3  1  0.21367692  0.82175299  0.34208102  1
  Fe  Fe4  1  0.77674595  0.50332799  0.61523503  1
  Fe  Fe5  1  0.75990499  0.00893200  0.60115803  1
  Fe  Fe6  1  0.31017893  0.69238899  0.86902901  1
  Fe  Fe7  1  0.27481498  0.18398700  0.89674300  1
  B  B8  1  0.42798494  0.61511599  0.18025603  1
  P  P9  1  0.42227199  0.10982200  0.19548402  1
  Ir  Ir10  1  0.92626494  0.58079099  0.31356505  1
  Ir  Ir11  1  0.92474498  0.08269900  0.30482704  1
  Ir  Ir12  1  0.52659593  0.77303599  0.52463403  1
  P  P13  1  0.04348998  0.24412200  0.63818599  1
  B  B14  1  0.55021391  0.95207299  0.86600902  1
  P  P15  1  0.54310396  0.43182799  0.86671902  1
  P  P16  1  0.55398297  0.29036800  0.49240802  1
  P  P17  1  0.02770393  0.75169599  0.64200700  1
  B  B18  1  0.06120192  0.89964299  0.00398402  1
  P  P19  1  0.04785096  0.41887399  0.99269999  1
