# generated using pymatgen
data_NbCu3AgS8OF6
_symmetry_space_group_name_H-M   'P 1'
_cell_length_a   5.81605577
_cell_length_b   5.81605577
_cell_length_c   11.81201458
_cell_angle_alpha   90.00000000
_cell_angle_beta   90.00000000
_cell_angle_gamma   120.00000000
_symmetry_Int_Tables_number   1
_chemical_formula_structural   NbCu3AgS8OF6
_chemical_formula_sum   'Nb1 Cu3 Ag1 S8 O1 F6'
_cell_volume   346.02838944
_cell_formula_units_Z   1
loop_
 _symmetry_equiv_pos_site_id
 _symmetry_equiv_pos_as_xyz
  1  'x, y, z'
loop_
 _atom_site_type_symbol
 _atom_site_label
 _atom_site_symmetry_multiplicity
 _atom_site_fract_x
 _atom_site_fract_y
 _atom_site_fract_z
 _atom_site_occupancy
  Cu  Cu0  1  0.66666668  0.33333333  0.00277300  1
  Nb  Nb1  1  0.33333333  0.66666666  0.50277302  1
  Ag  Ag2  1  0.66666668  0.33333333  0.49722702  1
  Cu  Cu3  1  0.00000000  0.00000000  0.00000000  1
  Cu  Cu4  1  0.33333333  0.66666666  0.99722704  1
  O  O5  1  0.00000000  0.00000000  0.50000002  1
  S  S6  1  0.33333333  0.66666666  0.25000001  1
  S  S7  1  0.66666668  0.33333333  0.75000003  1
  S  S8  1  0.99725202  0.66531899  0.86712703  1
  F  F9  1  0.33193299  0.99725199  0.36712701  1
  F  F10  1  0.99725203  0.33193300  0.63287302  1
  S  S11  1  0.66806703  0.00274800  0.86712703  1
  F  F12  1  0.66531901  0.66806699  0.36712701  1
  S  S13  1  0.66531900  0.99725199  0.13287300  1
  F  F14  1  0.33468101  0.00274800  0.63287302  1
  S  S15  1  0.00274798  0.66806699  0.13287300  1
  S  S16  1  0.33193300  0.33468100  0.13287300  1
  F  F17  1  0.66806701  0.66531899  0.63287302  1
  S  S18  1  0.33468101  0.33193300  0.86712703  1
  F  F19  1  0.00274799  0.33468100  0.36712701  1
