# generated using pymatgen
data_YErAl4Si7Ni
_symmetry_space_group_name_H-M   'P 1'
_cell_length_a   4.15314817
_cell_length_b   4.15314817
_cell_length_c   12.91701984
_cell_angle_alpha   99.25116730
_cell_angle_beta   99.25116730
_cell_angle_gamma   90.00000000
_symmetry_Int_Tables_number   1
_chemical_formula_structural   YErAl4Si7Ni
_chemical_formula_sum   'Y1 Er1 Al4 Si7 Ni1'
_cell_volume   216.96641343
_cell_formula_units_Z   1
loop_
 _symmetry_equiv_pos_site_id
 _symmetry_equiv_pos_as_xyz
  1  'x, y, z'
loop_
 _atom_site_type_symbol
 _atom_site_label
 _atom_site_symmetry_multiplicity
 _atom_site_fract_x
 _atom_site_fract_y
 _atom_site_fract_z
 _atom_site_occupancy
  Y  Y0  1  0.65303499  0.65303498  0.30607002  1
  Er  Er1  1  0.34696499  0.34696499  0.69393000  1
  Al  Al2  1  0.79684499  0.79684497  0.59369002  1
  Al  Al3  1  0.20315500  0.20315499  0.40631000  1
  Al  Al4  1  0.05440201  0.55440198  0.10880401  1
  Al  Al5  1  0.55440198  0.05440200  0.10880401  1
  Si  Si6  1  0.94559797  0.44559798  0.89119601  1
  Si  Si7  1  0.44559800  0.94559797  0.89119601  1
  Ni  Ni8  1  0.00000000  0.00000000  0.00000000  1
  Si  Si9  1  0.49999999  0.49999998  0.00000002  1
  Si  Si10  1  0.11057200  0.11057200  0.22114400  1
  Si  Si11  1  0.88942798  0.88942797  0.77885602  1
  Si  Si12  1  0.25000000  0.74999997  0.50000001  1
  Si  Si13  1  0.74999998  0.24999999  0.50000001  1
