# generated using pymatgen
data_MnNbPd13Pt
_symmetry_space_group_name_H-M   'P 1'
_cell_length_a   4.96627283
_cell_length_b   4.96658611
_cell_length_c   9.95159435
_cell_angle_alpha   90.00000000
_cell_angle_beta   90.00000000
_cell_angle_gamma   90.00000000
_symmetry_Int_Tables_number   1
_chemical_formula_structural   MnNbPd13Pt
_chemical_formula_sum   'Mn1 Nb1 Pd13 Pt1'
_cell_volume   245.46027105
_cell_formula_units_Z   1
loop_
 _symmetry_equiv_pos_site_id
 _symmetry_equiv_pos_as_xyz
  1  'x, y, z'
loop_
 _atom_site_type_symbol
 _atom_site_label
 _atom_site_symmetry_multiplicity
 _atom_site_fract_x
 _atom_site_fract_y
 _atom_site_fract_z
 _atom_site_occupancy
  Mn  Mn0  1  0.50000002  0.49999999  0.74946097  1
  Nb  Nb1  1  0.50000002  0.49999999  0.25053899  1
  Pd  Pd2  1  0.00000000  0.00000000  0.00000000  1
  Pd  Pd3  1  0.00000000  0.00000000  0.49999998  1
  Pd  Pd4  1  0.50000002  0.00000000  0.62344598  1
  Pd  Pd5  1  0.50000002  0.00000000  0.12448300  1
  Pd  Pd6  1  0.75248203  0.49999999  0.99999996  1
  Pd  Pd7  1  0.74988103  0.49999999  0.49999998  1
  Pd  Pd8  1  0.00000000  0.25019299  0.74795797  1
  Pd  Pd9  1  0.00000000  0.25019299  0.25204199  1
  Pd  Pd10  1  0.50000002  0.00000000  0.87551697  1
  Pt  Pt11  1  0.50000002  0.00000000  0.37655399  1
  Pd  Pd12  1  0.24751801  0.49999999  0.00000000  1
  Pd  Pd13  1  0.25011901  0.49999999  0.49999998  1
  Pd  Pd14  1  0.00000000  0.74980698  0.74795797  1
  Pd  Pd15  1  0.00000000  0.74980698  0.25204199  1
