# generated using pymatgen
data_ErLuAl2GaGe
_symmetry_space_group_name_H-M   'P 1'
_cell_length_a   4.61319017
_cell_length_b   5.72915649
_cell_length_c   5.72915649
_cell_angle_alpha   73.93749237
_cell_angle_beta   66.25878143
_cell_angle_gamma   66.25878143
_symmetry_Int_Tables_number   1
_chemical_formula_structural   ErLuAl2GaGe
_chemical_formula_sum   'Er1 Lu1 Al2 Ga1 Ge1'
_cell_volume   125.68375860
_cell_formula_units_Z   1
loop_
 _symmetry_equiv_pos_site_id
 _symmetry_equiv_pos_as_xyz
  1  'x, y, z'
loop_
 _atom_site_type_symbol
 _atom_site_label
 _atom_site_symmetry_multiplicity
 _atom_site_fract_x
 _atom_site_fract_y
 _atom_site_fract_z
 _atom_site_occupancy
  Er  Er0  1  0.51619398  0.23380600  0.73380600  1
  Lu  Lu1  1  0.48380597  0.76619399  0.26619402  1
  Al  Al2  1  0.16591597  0.79864699  0.86952102  1
  Al  Al3  1  0.83408397  0.20135300  0.13047900  1
  Ga  Ga4  1  0.83408396  0.63047900  0.70135301  1
  Ge  Ge5  1  0.16591599  0.36952100  0.29864701  1
