# generated using pymatgen
data_Cu3Pd(Se2S)2
_symmetry_space_group_name_H-M   'P 1'
_cell_length_a   6.16036177
_cell_length_b   6.16327715
_cell_length_c   6.93231535
_cell_angle_alpha   81.51156616
_cell_angle_beta   72.82092285
_cell_angle_gamma   60.01564407
_symmetry_Int_Tables_number   1
_chemical_formula_structural   Cu3Pd(Se2S)2
_chemical_formula_sum   'Cu3 Pd1 Se4 S2'
_cell_volume   217.80823643
_cell_formula_units_Z   1
loop_
 _symmetry_equiv_pos_site_id
 _symmetry_equiv_pos_as_xyz
  1  'x, y, z'
loop_
 _atom_site_type_symbol
 _atom_site_label
 _atom_site_symmetry_multiplicity
 _atom_site_fract_x
 _atom_site_fract_y
 _atom_site_fract_z
 _atom_site_occupancy
  Cu  Cu0  1  0.66666667  0.66666669  -0.00000001  1
  Cu  Cu1  1  0.33333334  0.33333335  -0.00000001  1
  Cu  Cu2  1  0.94358704  0.00000000  0.16920399  1
  Pd  Pd3  1  0.05641300  0.00000000  0.83079600  1
  Se  Se4  1  0.28154998  1.00000004  0.23114899  1
  Se  Se5  1  0.71845003  0.00000000  0.76885100  1
  Se  Se6  1  0.56445401  0.35830201  0.23104799  1
  S  S7  1  0.92275602  0.64169802  0.23104799  1
  S  S8  1  0.43554600  0.64169802  0.76895199  1
  Se  Se9  1  0.07724399  0.35830201  0.76895199  1
