# generated using pymatgen
data_Na7VCuO11
_symmetry_space_group_name_H-M   'P 1'
_cell_length_a   5.07605696
_cell_length_b   6.41518211
_cell_length_c   9.74209690
_cell_angle_alpha   90.00000000
_cell_angle_beta   90.00000000
_cell_angle_gamma   90.00000000
_symmetry_Int_Tables_number   1
_chemical_formula_structural   Na7VCuO11
_chemical_formula_sum   'Na7 V1 Cu1 O11'
_cell_volume   317.23998538
_cell_formula_units_Z   1
loop_
 _symmetry_equiv_pos_site_id
 _symmetry_equiv_pos_as_xyz
  1  'x, y, z'
loop_
 _atom_site_type_symbol
 _atom_site_label
 _atom_site_symmetry_multiplicity
 _atom_site_fract_x
 _atom_site_fract_y
 _atom_site_fract_z
 _atom_site_occupancy
  Na  Na0  1  0.25000000  0.68411199  0.55291701  1
  Na  Na1  1  0.75000001  0.31588799  0.44708300  1
  Na  Na2  1  0.75000001  0.81588799  0.05291700  1
  Na  Na3  1  0.25000000  0.18411200  0.94708301  1
  Na  Na4  1  0.25000000  0.52546899  0.22038800  1
  Na  Na5  1  0.75000001  0.47453099  0.77961201  1
  Na  Na6  1  0.75000001  0.97453098  0.72038801  1
  Cu  Cu7  1  0.25000000  0.02546900  0.27961200  1
  O  O8  1  0.25000000  0.72614699  0.86601601  1
  V  V9  1  0.75000001  0.27385300  0.13398400  1
  O  O10  1  0.75000001  0.77385299  0.36601600  1
  O  O11  1  0.25000000  0.22614700  0.63398401  1
  O  O12  1  0.25000000  0.46249099  0.75841101  1
  O  O13  1  0.75000001  0.53750899  0.24158900  1
  O  O14  1  0.75000001  0.03750900  0.25841100  1
  O  O15  1  0.25000000  0.96249098  0.74158901  1
  O  O16  1  0.25000000  0.82562599  0.05540900  1
  O  O17  1  0.75000001  0.17437400  0.94459101  1
  O  O18  1  0.75000001  0.67437399  0.55540901  1
  O  O19  1  0.25000000  0.32562599  0.44459100  1
