# generated using pymatgen
data_LiCdInCuAu2
_symmetry_space_group_name_H-M   'P 1'
_cell_length_a   4.49211216
_cell_length_b   4.49211168
_cell_length_c   6.40090704
_cell_angle_alpha   90.00000000
_cell_angle_beta   90.00000000
_cell_angle_gamma   120.00000000
_symmetry_Int_Tables_number   1
_chemical_formula_structural   LiCdInCuAu2
_chemical_formula_sum   'Li1 Cd1 In1 Cu1 Au2'
_cell_volume   111.85960672
_cell_formula_units_Z   1
loop_
 _symmetry_equiv_pos_site_id
 _symmetry_equiv_pos_as_xyz
  1  'x, y, z'
loop_
 _atom_site_type_symbol
 _atom_site_label
 _atom_site_symmetry_multiplicity
 _atom_site_fract_x
 _atom_site_fract_y
 _atom_site_fract_z
 _atom_site_occupancy
  Li  Li0  1  0.00000000  0.00000000  0.50081100  1
  Cd  Cd1  1  0.00000000  0.00000000  0.00081100  1
  In  In2  1  0.33333331  0.66666670  0.80305200  1
  Cu  Cu3  1  0.66666664  0.33333335  0.30305200  1
  Au  Au4  1  0.33333331  0.66666670  0.24433600  1
  Au  Au5  1  0.66666664  0.33333335  0.74433600  1
