# generated using pymatgen
data_LaYAlInCuSnGe
_symmetry_space_group_name_H-M   'P 1'
_cell_length_a   4.57776213
_cell_length_b   4.59869289
_cell_length_c   8.82893181
_cell_angle_alpha   105.09576416
_cell_angle_beta   90.00000000
_cell_angle_gamma   90.00000000
_symmetry_Int_Tables_number   1
_chemical_formula_structural   LaYAlInCuSnGe
_chemical_formula_sum   'La1 Y1 Al1 In1 Cu1 Sn1 Ge1'
_cell_volume   179.45039598
_cell_formula_units_Z   1
loop_
 _symmetry_equiv_pos_site_id
 _symmetry_equiv_pos_as_xyz
  1  'x, y, z'
loop_
 _atom_site_type_symbol
 _atom_site_label
 _atom_site_symmetry_multiplicity
 _atom_site_fract_x
 _atom_site_fract_y
 _atom_site_fract_z
 _atom_site_occupancy
  Y  Y0  1  0.24999999  0.09838600  0.19677200  1
  La  La1  1  0.74999998  0.89565803  0.79131601  1
  Al  Al2  1  0.24999999  0.30000701  0.60001300  1
  In  In3  1  0.24999999  0.44562901  0.89125800  1
  Cu  Cu4  1  0.74999998  0.56204302  0.12408501  1
  Ge  Ge5  1  0.24999999  0.73862202  0.47724301  1
  Sn  Sn6  1  0.74999998  0.24165701  0.48331400  1
