# generated using pymatgen
data_Y(Er2Al)4
_symmetry_space_group_name_H-M   'P 1'
_cell_length_a   6.21739578
_cell_length_b   8.13853073
_cell_length_c   8.13853073
_cell_angle_alpha   81.61041260
_cell_angle_beta   67.54405975
_cell_angle_gamma   67.54405975
_symmetry_Int_Tables_number   1
_chemical_formula_structural   Y(Er2Al)4
_chemical_formula_sum   'Y1 Er8 Al4'
_cell_volume   351.72852286
_cell_formula_units_Z   1
loop_
 _symmetry_equiv_pos_site_id
 _symmetry_equiv_pos_as_xyz
  1  'x, y, z'
loop_
 _atom_site_type_symbol
 _atom_site_label
 _atom_site_symmetry_multiplicity
 _atom_site_fract_x
 _atom_site_fract_y
 _atom_site_fract_z
 _atom_site_occupancy
  Y  Y0  1  0.00000000  0.00000000  0.00000000  1
  Er  Er1  1  0.00000001  0.34701298  0.65298698  1
  Er  Er2  1  0.00000002  0.65298695  0.34701301  1
  Er  Er3  1  0.34701302  0.65298695  0.65298701  1
  Er  Er4  1  0.65298702  0.34701298  0.34701302  1
  Er  Er5  1  0.50000003  0.78777295  0.21222704  1
  Er  Er6  1  0.50000002  0.21222699  0.78777298  1
  Er  Er7  1  0.28777301  0.21222699  0.21222701  1
  Er  Er8  1  0.71222703  0.78777295  0.78777301  1
  Al  Al9  1  0.50000002  0.49999997  0.00000004  1
  Al  Al10  1  1.00000003  0.49999997  0.00000005  1
  Al  Al11  1  0.00000000  0.00000000  0.49999997  1
  Al  Al12  1  0.50000001  0.00000000  0.49999999  1
