# generated using pymatgen
data_CuSiP
_symmetry_space_group_name_H-M   'P 1'
_cell_length_a   3.13774991
_cell_length_b   3.13774991
_cell_length_c   4.53408241
_cell_angle_alpha   110.24396515
_cell_angle_beta   110.24396515
_cell_angle_gamma   90.00000000
_symmetry_Int_Tables_number   1
_chemical_formula_structural   CuSiP
_chemical_formula_sum   'Si1 Cu1 P1'
_cell_volume   38.93031155
_cell_formula_units_Z   1
loop_
 _symmetry_equiv_pos_site_id
 _symmetry_equiv_pos_as_xyz
  1  'x, y, z'
loop_
 _atom_site_type_symbol
 _atom_site_label
 _atom_site_symmetry_multiplicity
 _atom_site_fract_x
 _atom_site_fract_y
 _atom_site_fract_z
 _atom_site_occupancy
  Si  Si0  1  0.99400211  0.99400206  0.98800416  1
  Cu  Cu1  1  0.66804207  0.66804204  0.33608409  1
  P  P2  1  0.33795604  0.33795602  0.67591207  1
