# generated using pymatgen
data_Ba2Na2Li2Cu2Ag(PO)3
_symmetry_space_group_name_H-M   'P 1'
_cell_length_a   5.48060799
_cell_length_b   7.10279942
_cell_length_c   8.78494263
_cell_angle_alpha   111.86043549
_cell_angle_beta   108.17569733
_cell_angle_gamma   90.00000000
_symmetry_Int_Tables_number   1
_chemical_formula_structural   Ba2Na2Li2Cu2Ag(PO)3
_chemical_formula_sum   'Ba2 Na2 Li2 Cu2 Ag1 P3 O3'
_cell_volume   298.92336616
_cell_formula_units_Z   1
loop_
 _symmetry_equiv_pos_site_id
 _symmetry_equiv_pos_as_xyz
  1  'x, y, z'
loop_
 _atom_site_type_symbol
 _atom_site_label
 _atom_site_symmetry_multiplicity
 _atom_site_fract_x
 _atom_site_fract_y
 _atom_site_fract_z
 _atom_site_occupancy
  Ba  Ba0  1  0.00000000  0.00000000  0.00000000  1
  Ba  Ba1  1  0.33777100  0.00019500  0.67553998  1
  Na  Na2  1  0.66222902  0.99980504  0.32446003  1
  Na  Na3  1  0.08298301  0.49919702  0.66589299  1
  Li  Li4  1  0.41708801  0.50080302  0.33410701  1
  Li  Li5  1  0.74959401  0.50000002  0.00000003  1
  Cu  Cu6  1  0.91701700  0.50080302  0.33410702  1
  Cu  Cu7  1  0.25040601  0.50000002  0.00000002  1
  Ag  Ag8  1  0.58291201  0.49919702  0.66589300  1
  P  P9  1  0.78219201  0.69325203  0.56438301  1
  O  O10  1  0.11693502  0.69570703  0.23386901  1
  P  P11  1  0.44817701  0.69460703  0.89635599  1
  O  O12  1  0.21780801  0.30674801  0.43561700  1
  P  P13  1  0.55182300  0.30539301  0.10364401  1
  O  O14  1  0.88306500  0.30429301  0.76613099  1
