# generated using pymatgen
data_LiCuPO9
_symmetry_space_group_name_H-M   'P 1'
_cell_length_a   5.56457901
_cell_length_b   5.56457901
_cell_length_c   5.56457901
_cell_angle_alpha   106.93889618
_cell_angle_beta   106.93889618
_cell_angle_gamma   114.66402435
_symmetry_Int_Tables_number   1
_chemical_formula_structural   LiCuPO9
_chemical_formula_sum   'Li1 Cu1 P1 O9'
_cell_volume   131.81550533
_cell_formula_units_Z   1
loop_
 _symmetry_equiv_pos_site_id
 _symmetry_equiv_pos_as_xyz
  1  'x, y, z'
loop_
 _atom_site_type_symbol
 _atom_site_label
 _atom_site_symmetry_multiplicity
 _atom_site_fract_x
 _atom_site_fract_y
 _atom_site_fract_z
 _atom_site_occupancy
  Li  Li0  1  0.00000000  0.00000000  0.00000000  1
  Cu  Cu1  1  0.74999995  0.24999998  0.49999995  1
  P  P2  1  0.24999990  0.74999993  0.49999992  1
  O  O3  1  0.49999993  0.49999995  -0.00000006  1
  O  O4  1  0.68159092  0.49697495  0.81538392  1
  O  O5  1  0.24697588  0.93159191  0.31538491  1
  O  O6  1  0.61620687  0.93159091  0.68461589  1
  O  O7  1  0.68159088  0.86620692  0.18461490  1
  O  O8  1  0.50302395  0.31840797  0.18461496  1
  O  O9  1  0.06840891  0.75302493  0.68461592  1
  O  O10  1  0.06840895  0.38379296  0.31538496  1
  O  O11  1  0.13379296  0.31840897  0.81538395  1
