# generated using pymatgen
data_Ba2Na4Cu3NiPSO6
_symmetry_space_group_name_H-M   'P 1'
_cell_length_a   5.53704119
_cell_length_b   7.62205791
_cell_length_c   10.84683609
_cell_angle_alpha   69.70276642
_cell_angle_beta   89.48891449
_cell_angle_gamma   89.59964752
_symmetry_Int_Tables_number   1
_chemical_formula_structural   Ba2Na4Cu3NiPSO6
_chemical_formula_sum   'Ba2 Na4 Cu3 Ni1 P1 S1 O6'
_cell_volume   429.32998756
_cell_formula_units_Z   1
loop_
 _symmetry_equiv_pos_site_id
 _symmetry_equiv_pos_as_xyz
  1  'x, y, z'
loop_
 _atom_site_type_symbol
 _atom_site_label
 _atom_site_symmetry_multiplicity
 _atom_site_fract_x
 _atom_site_fract_y
 _atom_site_fract_z
 _atom_site_occupancy
  Ba  Ba0  1  0.00702193  0.74880303  0.74620894  1
  Ba  Ba1  1  0.49999994  0.50000002  -0.00000002  1
  Na  Na2  1  0.99297794  0.25119701  0.25379099  1
  Na  Na3  1  0.49999998  0.00000000  0.49999998  1
  Cu  Cu4  1  0.25024699  0.00242800  0.99741196  1
  Ni  Ni5  1  0.74975289  0.99757204  0.00258796  1
  Na  Na6  1  0.74936491  0.74364703  0.25706196  1
  Na  Na7  1  0.25187995  0.49932602  0.49978496  1
  Cu  Cu8  1  0.74811993  0.50067402  0.50021496  1
  Cu  Cu9  1  0.25063497  0.25635301  0.74293796  1
  O  O10  1  0.50431090  0.98301804  0.82465193  1
  O  O11  1  0.99930694  0.27236901  0.92089496  1
  O  O12  1  0.00069294  0.72763103  0.07910497  1
  P  P13  1  0.49568898  0.01698200  0.17534800  1
  S  S14  1  0.50063994  0.46301202  0.32017497  1
  O  O15  1  0.00180893  0.78600103  0.42832395  1
  O  O16  1  0.99819095  0.21399901  0.57167597  1
  O  O17  1  0.49935994  0.53698802  0.67982495  1
