# generated using pymatgen
data_TbEr3Lu(Al2Ga)2
_symmetry_space_group_name_H-M   'P 1'
_cell_length_a   4.66310883
_cell_length_b   4.66310883
_cell_length_c   12.34555244
_cell_angle_alpha   90.00000000
_cell_angle_beta   90.00000000
_cell_angle_gamma   90.00000000
_symmetry_Int_Tables_number   1
_chemical_formula_structural   TbEr3Lu(Al2Ga)2
_chemical_formula_sum   'Tb1 Er3 Lu1 Al4 Ga2'
_cell_volume   268.44890117
_cell_formula_units_Z   1
loop_
 _symmetry_equiv_pos_site_id
 _symmetry_equiv_pos_as_xyz
  1  'x, y, z'
loop_
 _atom_site_type_symbol
 _atom_site_label
 _atom_site_symmetry_multiplicity
 _atom_site_fract_x
 _atom_site_fract_y
 _atom_site_fract_z
 _atom_site_occupancy
  Er  Er0  1  0.00000000  0.00000000  0.69624997  1
  Tb  Tb1  1  0.00000000  0.00000000  0.30374999  1
  Er  Er2  1  0.50000002  0.00000000  0.49999998  1
  Er  Er3  1  0.50000002  0.00000000  0.88269697  1
  Al  Al4  1  -0.00000000  0.50000002  0.49999998  1
  Al  Al5  1  -0.00000000  0.50000002  0.88269697  1
  Lu  Lu6  1  0.50000002  0.50000002  0.30551999  1
  Al  Al7  1  0.50000002  0.50000002  0.69447997  1
  Al  Al8  1  -0.00000000  0.50000002  0.11730300  1
  Ga  Ga9  1  0.50000002  0.00000000  0.11730300  1
  Ga  Ga10  1  0.00000000  0.00000000  0.00000000  1
