# generated using pymatgen
data_K3Na3CuTe3SIClO7
_symmetry_space_group_name_H-M   'P 1'
_cell_length_a   7.16102791
_cell_length_b   7.37527180
_cell_length_c   8.76387215
_cell_angle_alpha   90.00000000
_cell_angle_beta   90.00000000
_cell_angle_gamma   90.00000000
_symmetry_Int_Tables_number   1
_chemical_formula_structural   K3Na3CuTe3SIClO7
_chemical_formula_sum   'K3 Na3 Cu1 Te3 S1 I1 Cl1 O7'
_cell_volume   462.85976361
_cell_formula_units_Z   1
loop_
 _symmetry_equiv_pos_site_id
 _symmetry_equiv_pos_as_xyz
  1  'x, y, z'
loop_
 _atom_site_type_symbol
 _atom_site_label
 _atom_site_symmetry_multiplicity
 _atom_site_fract_x
 _atom_site_fract_y
 _atom_site_fract_z
 _atom_site_occupancy
  K  K0  1  0.92208301  0.06110800  0.31127399  1
  K  K1  1  0.92208301  0.06110800  0.68872599  1
  K  K2  1  0.74629501  0.62415402  0.70188199  1
  Na  Na3  1  0.74629501  0.62415402  0.29811800  1
  Na  Na4  1  0.75180701  0.31085401  -0.00000000  1
  Te  Te5  1  0.42208301  0.93889203  0.81127399  1
  Na  Na6  1  0.42208301  0.93889203  0.18872600  1
  Te  Te7  1  0.24629500  0.37584601  0.79811799  1
  Cu  Cu8  1  0.24629500  0.37584601  0.20188200  1
  Te  Te9  1  0.25180700  0.68914602  0.49999999  1
  Cl  Cl10  1  0.00238800  0.82060502  0.00000000  1
  O  O11  1  0.50238801  0.17939500  0.49999999  1
  I  I12  1  0.73368201  0.78483202  0.00000000  1
  O  O13  1  0.57266701  0.91914703  0.49999999  1
  O  O14  1  0.59736901  0.27957701  0.30806699  1
  O  O15  1  0.59736901  0.27957701  0.69193299  1
  O  O16  1  0.23368200  0.21516801  0.49999999  1
  O  O17  1  0.07266700  0.08085300  0.00000000  1
  S  S18  1  0.09736900  0.72042302  0.80806699  1
  O  O19  1  0.09736900  0.72042302  0.19193300  1
