# generated using pymatgen
data_BaLa3In2Sn2PdAu3
_symmetry_space_group_name_H-M   'P 1'
_cell_length_a   4.56081390
_cell_length_b   7.72844601
_cell_length_c   8.67842007
_cell_angle_alpha   90.00000000
_cell_angle_beta   90.00000000
_cell_angle_gamma   90.00000000
_symmetry_Int_Tables_number   1
_chemical_formula_structural   BaLa3In2Sn2PdAu3
_chemical_formula_sum   'Ba1 La3 In2 Sn2 Pd1 Au3'
_cell_volume   305.89698525
_cell_formula_units_Z   1
loop_
 _symmetry_equiv_pos_site_id
 _symmetry_equiv_pos_as_xyz
  1  'x, y, z'
loop_
 _atom_site_type_symbol
 _atom_site_label
 _atom_site_symmetry_multiplicity
 _atom_site_fract_x
 _atom_site_fract_y
 _atom_site_fract_z
 _atom_site_occupancy
  Ba  Ba0  1  0.25000001  0.02937400  0.32118900  1
  La  La1  1  0.25000001  0.52937400  0.17881100  1
  La  La2  1  0.75000002  0.97062600  0.67881099  1
  La  La3  1  0.75000002  0.47062600  0.82118899  1
  In  In4  1  0.25000001  0.14568600  0.93463799  1
  In  In5  1  0.25000001  0.64568600  0.56536200  1
  Sn  Sn6  1  0.75000002  0.85431400  0.06536200  1
  Sn  Sn7  1  0.75000002  0.35431400  0.43463800  1
  Pd  Pd8  1  0.25000001  0.27894000  0.62157100  1
  Au  Au9  1  0.25000001  0.77894000  0.87842899  1
  Au  Au10  1  0.75000002  0.72106000  0.37842900  1
  Au  Au11  1  0.75000002  0.22106000  0.12157100  1
