# generated using pymatgen
data_LiAlSiGe2
_symmetry_space_group_name_H-M   'P 1'
_cell_length_a   4.03334999
_cell_length_b   4.03334999
_cell_length_c   6.18842840
_cell_angle_alpha   109.01879883
_cell_angle_beta   109.01879883
_cell_angle_gamma   90.00000000
_symmetry_Int_Tables_number   1
_chemical_formula_structural   LiAlSiGe2
_chemical_formula_sum   'Li1 Al1 Si1 Ge2'
_cell_volume   89.34430161
_cell_formula_units_Z   1
loop_
 _symmetry_equiv_pos_site_id
 _symmetry_equiv_pos_as_xyz
  1  'x, y, z'
loop_
 _atom_site_type_symbol
 _atom_site_label
 _atom_site_symmetry_multiplicity
 _atom_site_fract_x
 _atom_site_fract_y
 _atom_site_fract_z
 _atom_site_occupancy
  Li  Li0  1  0.00000000  0.00000000  0.00000000  1
  Al  Al1  1  0.75000000  0.25000000  0.49999999  1
  Si  Si2  1  0.24999999  0.75000000  0.49999999  1
  Ge  Ge3  1  0.64098399  0.64098400  0.28196799  1
  Ge  Ge4  1  0.35901600  0.35901600  0.71803199  1
