# generated using pymatgen
data_ErAl2Si4Ni
_symmetry_space_group_name_H-M   'P 1'
_cell_length_a   4.22848988
_cell_length_b   4.22849035
_cell_length_c   8.19196033
_cell_angle_alpha   90.00000000
_cell_angle_beta   90.00000000
_cell_angle_gamma   120.00000000
_symmetry_Int_Tables_number   1
_chemical_formula_structural   ErAl2Si4Ni
_chemical_formula_sum   'Er1 Al2 Si4 Ni1'
_cell_volume   126.84960280
_cell_formula_units_Z   1
loop_
 _symmetry_equiv_pos_site_id
 _symmetry_equiv_pos_as_xyz
  1  'x, y, z'
loop_
 _atom_site_type_symbol
 _atom_site_label
 _atom_site_symmetry_multiplicity
 _atom_site_fract_x
 _atom_site_fract_y
 _atom_site_fract_z
 _atom_site_occupancy
  Er  Er0  1  0.66666670  0.33333333  0.91707596  1
  Al  Al1  1  0.66666670  0.33333333  0.58292398  1
  Al  Al2  1  0.33333337  0.66666666  0.41707598  1
  Ni  Ni3  1  0.33333337  0.66666666  0.08292400  1
  Si  Si4  1  0.00000000  0.00000000  0.74999997  1
  Si  Si5  1  0.00000000  0.00000000  0.24999999  1
  Si  Si6  1  0.33333337  0.66666666  0.74999997  1
  Si  Si7  1  0.66666670  0.33333333  0.24999999  1
