# generated using pymatgen
data_TaPdS6
_symmetry_space_group_name_H-M   'P 1'
_cell_length_a   5.03696060
_cell_length_b   5.03696060
_cell_length_c   5.03696108
_cell_angle_alpha   98.18717957
_cell_angle_beta   98.18717957
_cell_angle_gamma   98.18717194
_symmetry_Int_Tables_number   1
_chemical_formula_structural   TaPdS6
_chemical_formula_sum   'Ta1 Pd1 S6'
_cell_volume   123.46275572
_cell_formula_units_Z   1
loop_
 _symmetry_equiv_pos_site_id
 _symmetry_equiv_pos_as_xyz
  1  'x, y, z'
loop_
 _atom_site_type_symbol
 _atom_site_label
 _atom_site_symmetry_multiplicity
 _atom_site_fract_x
 _atom_site_fract_y
 _atom_site_fract_z
 _atom_site_occupancy
  Ta  Ta0  1  0.50000002  0.50000001  0.49999996  1
  Pd  Pd1  1  0.00000000  0.00000000  0.00000000  1
  S  S2  1  0.69790002  0.73962602  0.07034094  1
  S  S3  1  0.30210001  0.26037401  0.92965897  1
  S  S4  1  0.26037402  0.92965902  0.30209995  1
  S  S5  1  0.92965902  0.30210001  0.26037395  1
  S  S6  1  0.73962602  0.07034100  0.69789996  1
  S  S7  1  0.07034101  0.69790002  0.73962597  1
