# generated using pymatgen
data_K3Na(CuCl3)4
_symmetry_space_group_name_H-M   'P 1'
_cell_length_a   4.07531881
_cell_length_b   9.18048286
_cell_length_c   15.17879772
_cell_angle_alpha   90.00000000
_cell_angle_beta   90.00000000
_cell_angle_gamma   90.00000000
_symmetry_Int_Tables_number   1
_chemical_formula_structural   K3Na(CuCl3)4
_chemical_formula_sum   'K3 Na1 Cu4 Cl12'
_cell_volume   567.89034770
_cell_formula_units_Z   1
loop_
 _symmetry_equiv_pos_site_id
 _symmetry_equiv_pos_as_xyz
  1  'x, y, z'
loop_
 _atom_site_type_symbol
 _atom_site_label
 _atom_site_symmetry_multiplicity
 _atom_site_fract_x
 _atom_site_fract_y
 _atom_site_fract_z
 _atom_site_occupancy
  K  K0  1  0.75000003  0.56645601  0.17454500  1
  K  K1  1  0.25000001  0.43354401  0.82545502  1
  Na  Na2  1  0.75000003  0.06645600  0.32545501  1
  K  K3  1  0.25000001  0.93354401  0.67454501  1
  Cu  Cu4  1  0.25000001  0.66367501  0.44102401  1
  Cu  Cu5  1  0.75000003  0.33632500  0.55897601  1
  Cu  Cu6  1  0.25000001  0.16367500  0.05897600  1
  Cu  Cu7  1  0.75000003  0.83632501  0.94102402  1
  Cl  Cl8  1  0.75000003  0.83185101  0.50544201  1
  Cl  Cl9  1  0.25000001  0.16814900  0.49455801  1
  Cl  Cl10  1  0.75000003  0.33185100  0.99455802  1
  Cl  Cl11  1  0.25000001  0.66814901  0.00544200  1
  Cl  Cl12  1  0.25000001  0.52414401  0.60506701  1
  Cl  Cl13  1  0.75000003  0.47585601  0.39493301  1
  Cl  Cl14  1  0.25000001  0.02414400  0.89493302  1
  Cl  Cl15  1  0.75000003  0.97585601  0.10506700  1
  Cl  Cl16  1  0.25000001  0.78614301  0.28668201  1
  Cl  Cl17  1  0.75000003  0.21385700  0.71331801  1
  Cl  Cl18  1  0.25000001  0.28614300  0.21331800  1
  Cl  Cl19  1  0.75000003  0.71385701  0.78668201  1
