# generated using pymatgen
data_ErZr2Ga4Pd7Au
_symmetry_space_group_name_H-M   'P 1'
_cell_length_a   6.44969988
_cell_length_b   6.44969988
_cell_length_c   6.44969988
_cell_angle_alpha   90.00000000
_cell_angle_beta   90.00000000
_cell_angle_gamma   90.00000000
_symmetry_Int_Tables_number   1
_chemical_formula_structural   ErZr2Ga4Pd7Au
_chemical_formula_sum   'Er1 Zr2 Ga4 Pd7 Au1'
_cell_volume   268.29866935
_cell_formula_units_Z   1
loop_
 _symmetry_equiv_pos_site_id
 _symmetry_equiv_pos_as_xyz
  1  'x, y, z'
loop_
 _atom_site_type_symbol
 _atom_site_label
 _atom_site_symmetry_multiplicity
 _atom_site_fract_x
 _atom_site_fract_y
 _atom_site_fract_z
 _atom_site_occupancy
  Er  Er0  1  0.50000001  0.00000000  0.00000000  1
  Zr  Zr1  1  0.00000000  0.00000000  0.50000001  1
  Zr  Zr2  1  0.00000000  0.50000001  -0.00000000  1
  Ga  Ga3  1  0.00000000  0.00000000  0.00000000  1
  Ga  Ga4  1  0.71039601  0.71039601  0.71039601  1
  Pd  Pd5  1  0.71039601  0.28960401  0.71039601  1
  Pd  Pd6  1  0.28960401  0.71039601  0.71039601  1
  Ga  Ga7  1  0.71039601  0.71039601  0.28960401  1
  Pd  Pd8  1  0.71039601  0.28960401  0.28960401  1
  Pd  Pd9  1  0.28960401  0.28960401  0.28960401  1
  Pd  Pd10  1  0.28960401  0.71039601  0.28960401  1
  Ga  Ga11  1  0.28960401  0.28960401  0.71039601  1
  Pd  Pd12  1  0.00000000  0.50000001  0.50000001  1
  Au  Au13  1  0.50000001  0.50000001  0.00000000  1
  Pd  Pd14  1  0.50000001  0.00000000  0.50000001  1
