# generated using pymatgen
data_MnFeP3
_symmetry_space_group_name_H-M   'P 1'
_cell_length_a   3.20069003
_cell_length_b   4.52552080
_cell_length_c   4.52552080
_cell_angle_alpha   60.93038177
_cell_angle_beta   69.29069519
_cell_angle_gamma   69.29069519
_symmetry_Int_Tables_number   1
_chemical_formula_structural   MnFeP3
_chemical_formula_sum   'Mn1 Fe1 P3'
_cell_volume   52.24983154
_cell_formula_units_Z   1
loop_
 _symmetry_equiv_pos_site_id
 _symmetry_equiv_pos_as_xyz
  1  'x, y, z'
loop_
 _atom_site_type_symbol
 _atom_site_label
 _atom_site_symmetry_multiplicity
 _atom_site_fract_x
 _atom_site_fract_y
 _atom_site_fract_z
 _atom_site_occupancy
  Mn  Mn0  1  0.00000000  0.00000000  0.00000000  1
  Fe  Fe1  1  0.49999998  0.70215099  0.29784897  1
  P  P2  1  0.49999999  0.29784900  0.70215097  1
  P  P3  1  0.19980399  0.30019600  0.30019599  1
  P  P4  1  0.80019598  0.69980399  0.69980395  1
