# generated using pymatgen
data_K3Tl5HgSeS9Br
_symmetry_space_group_name_H-M   'P 1'
_cell_length_a   4.02098322
_cell_length_b   9.04197025
_cell_length_c   14.82634544
_cell_angle_alpha   89.97659302
_cell_angle_beta   90.00000000
_cell_angle_gamma   90.00000000
_symmetry_Int_Tables_number   1
_chemical_formula_structural   K3Tl5HgSeS9Br
_chemical_formula_sum   'K3 Tl5 Hg1 Se1 S9 Br1'
_cell_volume   539.05045010
_cell_formula_units_Z   1
loop_
 _symmetry_equiv_pos_site_id
 _symmetry_equiv_pos_as_xyz
  1  'x, y, z'
loop_
 _atom_site_type_symbol
 _atom_site_label
 _atom_site_symmetry_multiplicity
 _atom_site_fract_x
 _atom_site_fract_y
 _atom_site_fract_z
 _atom_site_occupancy
  K  K0  1  0.49999997  0.93231297  0.82349199  1
  K  K1  1  0.49999997  0.43643099  0.67607699  1
  Tl  Tl2  1  -0.00000000  0.06268800  0.17855500  1
  K  K3  1  -0.00000000  0.56356998  0.32225800  1
  Tl  Tl4  1  0.49999997  0.66593898  0.06034100  1
  Tl  Tl5  1  0.49999997  0.16988200  0.44150599  1
  Tl  Tl6  1  -0.00000000  0.33371799  0.94261499  1
  Tl  Tl7  1  -0.00000000  0.83021298  0.55561799  1
  Hg  Hg8  1  0.49999997  0.66086298  0.48686699  1
  Se  Se9  1  0.49999997  0.16425400  0.01237800  1
  S  S10  1  -0.00000000  0.33843599  0.51096099  1
  S  S11  1  -0.00000000  0.83824798  0.99515299  1
  S  S12  1  0.49999997  0.52500399  0.89332599  1
  S  S13  1  0.49999997  0.02137700  0.60607799  1
  S  S14  1  -0.00000000  0.47601299  0.10906700  1
  S  S15  1  -0.00000000  0.97862297  0.39151000  1
  S  S16  1  0.49999997  0.79084298  0.21899000  1
  Br  Br17  1  0.49999997  0.29126999  0.28197000  1
  S  S18  1  -0.00000000  0.22124199  0.78091899  1
  S  S19  1  0.00000000  0.69907298  0.71231899  1
