# generated using pymatgen
data_Li3CuO3
_symmetry_space_group_name_H-M   'P 1'
_cell_length_a   5.90028858
_cell_length_b   6.02118778
_cell_length_c   6.48055601
_cell_angle_alpha   63.83738327
_cell_angle_beta   89.25415039
_cell_angle_gamma   87.44270325
_symmetry_Int_Tables_number   1
_chemical_formula_structural   Li3CuO3
_chemical_formula_sum   'Li6 Cu2 O6'
_cell_volume   206.43333705
_cell_formula_units_Z   2
loop_
 _symmetry_equiv_pos_site_id
 _symmetry_equiv_pos_as_xyz
  1  'x, y, z'
loop_
 _atom_site_type_symbol
 _atom_site_label
 _atom_site_symmetry_multiplicity
 _atom_site_fract_x
 _atom_site_fract_y
 _atom_site_fract_z
 _atom_site_occupancy
  Li  Li0  1  0.06536795  0.76105898  0.44916599  1
  Li  Li1  1  0.93455297  0.23903099  0.55066997  1
  Li  Li2  1  0.13751895  0.77698398  0.98405798  1
  Li  Li3  1  0.86251297  0.22298599  0.01588799  1
  Li  Li4  1  0.42945097  0.26774099  0.74742297  1
  Li  Li5  1  0.57038094  0.73236098  0.25257499  1
  Cu  Cu6  1  0.62728294  0.81100198  0.68989398  1
  Cu  Cu7  1  0.37281998  0.18893300  0.31014199  1
  O  O8  1  0.23869299  0.10549300  0.09564799  1
  O  O9  1  0.76132593  0.89453898  0.90443797  1
  O  O10  1  0.25528897  0.47239899  0.34179799  1
  O  O11  1  0.74468395  0.52754299  0.65822497  1
  O  O12  1  0.30562094  0.92531498  0.63000499  1
  O  O13  1  0.69449698  0.07461600  0.37006798  1
