# generated using pymatgen
data_K2Na8Cu2AgO7
_symmetry_space_group_name_H-M   'P 1'
_cell_length_a   3.96688700
_cell_length_b   9.42369366
_cell_length_c   12.22554874
_cell_angle_alpha   90.00000000
_cell_angle_beta   90.00000000
_cell_angle_gamma   90.00000000
_symmetry_Int_Tables_number   1
_chemical_formula_structural   K2Na8Cu2AgO7
_chemical_formula_sum   'K2 Na8 Cu2 Ag1 O7'
_cell_volume   457.02436132
_cell_formula_units_Z   1
loop_
 _symmetry_equiv_pos_site_id
 _symmetry_equiv_pos_as_xyz
  1  'x, y, z'
loop_
 _atom_site_type_symbol
 _atom_site_label
 _atom_site_symmetry_multiplicity
 _atom_site_fract_x
 _atom_site_fract_y
 _atom_site_fract_z
 _atom_site_occupancy
  K  K0  1  0.50000000  0.42814002  0.86444302  1
  K  K1  1  0.00000000  0.07186000  0.36444301  1
  Na  Na2  1  0.50000000  0.62686302  0.61345701  1
  Na  Na3  1  0.50000000  0.37313701  0.38654301  1
  Na  Na4  1  -0.00000000  0.30507001  0.62766501  1
  Na  Na5  1  -0.00000000  0.92814003  0.63555701  1
  Na  Na6  1  0.00000000  0.87313703  0.11345700  1
  Na  Na7  1  0.00000000  0.69493003  0.37233501  1
  Na  Na8  1  0.50000000  0.19493001  0.12766500  1
  Na  Na9  1  0.50000000  0.80507003  0.87233502  1
  Cu  Cu10  1  0.00000000  0.12686300  0.88654302  1
  Cu  Cu11  1  0.50000000  0.57186002  0.13555700  1
  Ag  Ag12  1  0.50000000  0.85996203  0.26931301  1
  O  O13  1  -0.00000000  0.61698102  0.96234702  1
  O  O14  1  -0.00000000  0.64003802  0.76931302  1
  O  O15  1  0.50000000  0.11698100  0.53765301  1
  O  O16  1  0.00000000  0.35996201  0.23068700  1
  O  O17  1  0.50000000  0.88301903  0.46234701  1
  O  O18  1  0.50000000  0.14003801  0.73068702  1
  O  O19  1  0.00000000  0.38301901  0.03765300  1
