# generated using pymatgen
data_Cu3AgHg(S3F2)3
_symmetry_space_group_name_H-M   'P 1'
_cell_length_a   5.79110003
_cell_length_b   5.79109955
_cell_length_c   11.85469913
_cell_angle_alpha   90.00000000
_cell_angle_beta   90.00000000
_cell_angle_gamma   120.00000000
_symmetry_Int_Tables_number   1
_chemical_formula_structural   Cu3AgHg(S3F2)3
_chemical_formula_sum   'Cu3 Ag1 Hg1 S9 F6'
_cell_volume   344.30494858
_cell_formula_units_Z   1
loop_
 _symmetry_equiv_pos_site_id
 _symmetry_equiv_pos_as_xyz
  1  'x, y, z'
loop_
 _atom_site_type_symbol
 _atom_site_label
 _atom_site_symmetry_multiplicity
 _atom_site_fract_x
 _atom_site_fract_y
 _atom_site_fract_z
 _atom_site_occupancy
  Cu  Cu0  1  0.00000000  0.00000000  0.00000000  1
  Hg  Hg1  1  0.00000000  0.00000000  0.49999999  1
  Ag  Ag2  1  0.66666664  0.33333331  0.49688699  1
  Cu  Cu3  1  0.33333328  0.66666662  0.99688699  1
  Cu  Cu4  1  0.33333328  0.66666662  0.50311299  1
  S  S5  1  0.66666664  0.33333331  0.00311300  1
  S  S6  1  0.66666664  0.33333331  0.74999999  1
  S  S7  1  0.33333328  0.66666662  0.25000000  1
  S  S8  1  0.66817295  0.66731096  0.86754799  1
  S  S9  1  0.99913797  0.33182598  0.86754799  1
  F  F10  1  0.33182697  0.33268898  0.36754800  1
  S  S11  1  0.00086198  0.33268898  0.13245200  1
  S  S12  1  0.33268800  0.00086100  0.86754799  1
  F  F13  1  0.00086195  0.66817396  0.36754800  1
  S  S14  1  0.66731195  0.66817396  0.13245200  1
  F  F15  1  0.99913795  0.66731096  0.63245199  1
  F  F16  1  0.66731193  0.99913894  0.36754800  1
  F  F17  1  0.33268797  0.33182598  0.63245199  1
  S  S18  1  0.33182693  0.99913894  0.13245200  1
  F  F19  1  0.66817300  0.00086100  0.63245199  1
