# generated using pymatgen
data_Na2LiCu4SeO4
_symmetry_space_group_name_H-M   'P 1'
_cell_length_a   6.02209377
_cell_length_b   6.30155134
_cell_length_c   6.30155134
_cell_angle_alpha   76.80193329
_cell_angle_beta   61.45647049
_cell_angle_gamma   61.45647049
_symmetry_Int_Tables_number   1
_chemical_formula_structural   Na2LiCu4SeO4
_chemical_formula_sum   'Na2 Li1 Cu4 Se1 O4'
_cell_volume   184.53589824
_cell_formula_units_Z   1
loop_
 _symmetry_equiv_pos_site_id
 _symmetry_equiv_pos_as_xyz
  1  'x, y, z'
loop_
 _atom_site_type_symbol
 _atom_site_label
 _atom_site_symmetry_multiplicity
 _atom_site_fract_x
 _atom_site_fract_y
 _atom_site_fract_z
 _atom_site_occupancy
  Cu  Cu0  1  0.29149103  0.40845499  0.99999997  1
  Na  Na1  1  0.29149107  0.99999998  0.40845494  1
  Li  Li2  1  0.69994602  0.00000000  0.59154501  1
  Na  Na3  1  0.75215505  0.49999999  0.49999998  1
  Cu  Cu4  1  0.69994605  0.59154499  -0.00000002  1
  Cu  Cu5  1  0.25215504  0.49999999  0.49999997  1
  Cu  Cu6  1  0.05919700  0.00000000  0.00000000  1
  Se  Se7  1  0.00067402  0.27854399  0.72145498  1
  O  O8  1  0.42092607  0.99999998  0.99999994  1
  O  O9  1  0.27921705  0.72145598  0.72145596  1
  O  O10  1  0.00067304  0.72145598  0.27854395  1
  O  O11  1  0.72212903  0.27854399  0.27854500  1
