# generated using pymatgen
data_Be2SiTcBC
_symmetry_space_group_name_H-M   'P 1'
_cell_length_a   4.07635212
_cell_length_b   4.07635164
_cell_length_c   5.51514101
_cell_angle_alpha   90.00000000
_cell_angle_beta   90.00000000
_cell_angle_gamma   120.00000000
_symmetry_Int_Tables_number   1
_chemical_formula_structural   Be2SiTcBC
_chemical_formula_sum   'Be2 Si1 Tc1 B1 C1'
_cell_volume   79.36528594
_cell_formula_units_Z   1
loop_
 _symmetry_equiv_pos_site_id
 _symmetry_equiv_pos_as_xyz
  1  'x, y, z'
loop_
 _atom_site_type_symbol
 _atom_site_label
 _atom_site_symmetry_multiplicity
 _atom_site_fract_x
 _atom_site_fract_y
 _atom_site_fract_z
 _atom_site_occupancy
  Be  Be0  1  0.33333329  0.66666665  0.75000000  1
  Be  Be1  1  0.66666663  0.33333333  0.25000000  1
  Si  Si2  1  0.33333329  0.66666665  0.25000000  1
  Tc  Tc3  1  0.66666663  0.33333333  0.75000000  1
  B  B4  1  0.00000000  0.00000000  0.00000000  1
  C  C5  1  0.00000000  0.00000000  0.50000000  1
