# generated using pymatgen
data_Be2B2RuC3N
_symmetry_space_group_name_H-M   'P 1'
_cell_length_a   4.72368670
_cell_length_b   4.72368670
_cell_length_c   4.72368670
_cell_angle_alpha   60.00000000
_cell_angle_beta   60.00000000
_cell_angle_gamma   60.00000000
_symmetry_Int_Tables_number   1
_chemical_formula_structural   Be2B2RuC3N
_chemical_formula_sum   'Be2 B2 Ru1 C3 N1'
_cell_volume   74.52950836
_cell_formula_units_Z   1
loop_
 _symmetry_equiv_pos_site_id
 _symmetry_equiv_pos_as_xyz
  1  'x, y, z'
loop_
 _atom_site_type_symbol
 _atom_site_label
 _atom_site_symmetry_multiplicity
 _atom_site_fract_x
 _atom_site_fract_y
 _atom_site_fract_z
 _atom_site_occupancy
  B  B0  1  0.25000001  0.25000001  0.25000001  1
  Be  Be1  1  0.75000002  0.75000002  0.75000002  1
  Be  Be2  1  0.74626502  0.74626502  0.25373501  1
  B  B3  1  0.25373501  0.74626502  0.74626502  1
  C  C4  1  0.25373501  0.74626502  0.25373501  1
  N  N5  1  0.25373501  0.25373501  0.74626502  1
  Ru  Ru6  1  0.74626502  0.25373501  0.25373501  1
  C  C7  1  0.74626502  0.25373501  0.74626502  1
  C  C8  1  0.00000000  0.00000000  0.00000000  1
