# generated using pymatgen
data_Na2Li2Cd(CuO5)2
_symmetry_space_group_name_H-M   'P 1'
_cell_length_a   7.12148714
_cell_length_b   7.12148714
_cell_length_c   7.12148714
_cell_angle_alpha   60.00000000
_cell_angle_beta   60.00000000
_cell_angle_gamma   60.00000000
_symmetry_Int_Tables_number   1
_chemical_formula_structural   Na2Li2Cd(CuO5)2
_chemical_formula_sum   'Na2 Li2 Cd1 Cu2 O10'
_cell_volume   255.38599966
_cell_formula_units_Z   1
loop_
 _symmetry_equiv_pos_site_id
 _symmetry_equiv_pos_as_xyz
  1  'x, y, z'
loop_
 _atom_site_type_symbol
 _atom_site_label
 _atom_site_symmetry_multiplicity
 _atom_site_fract_x
 _atom_site_fract_y
 _atom_site_fract_z
 _atom_site_occupancy
  Li  Li0  1  0.12560300  0.62319102  0.12560300  1
  Na  Na1  1  0.12560300  0.12560300  0.12560300  1
  Na  Na2  1  0.12560300  0.12560300  0.62319102  1
  Li  Li3  1  0.62319102  0.12560300  0.12560300  1
  Cd  Cd4  1  0.87262503  0.38212701  0.87262403  1
  Cu  Cu5  1  0.87262503  0.87262403  0.87262403  1
  O  O6  1  0.87262503  0.87262403  0.38212701  1
  Cu  Cu7  1  0.38212801  0.87262403  0.87262403  1
  O  O8  1  0.50000001  0.50000001  0.50000001  1
  O  O9  1  0.74863102  0.74863102  0.25136901  1
  O  O10  1  0.25136901  0.74863102  0.74863102  1
  O  O11  1  0.25136901  0.74863102  0.25136901  1
  O  O12  1  0.25136901  0.25136901  0.74863102  1
  O  O13  1  0.74863102  0.25136901  0.25136901  1
  O  O14  1  0.74863102  0.25136901  0.74863102  1
  O  O15  1  0.25000001  0.25000001  0.25000001  1
  O  O16  1  0.75000002  0.75000002  0.75000002  1
