# generated using pymatgen
data_YErCoSi4Ni
_symmetry_space_group_name_H-M   'P 1'
_cell_length_a   4.33155823
_cell_length_b   4.34717417
_cell_length_c   8.51237488
_cell_angle_alpha   90.00000000
_cell_angle_beta   104.73963928
_cell_angle_gamma   90.00000000
_symmetry_Int_Tables_number   1
_chemical_formula_structural   YErCoSi4Ni
_chemical_formula_sum   'Y1 Er1 Co1 Si4 Ni1'
_cell_volume   155.01356789
_cell_formula_units_Z   1
loop_
 _symmetry_equiv_pos_site_id
 _symmetry_equiv_pos_as_xyz
  1  'x, y, z'
loop_
 _atom_site_type_symbol
 _atom_site_label
 _atom_site_symmetry_multiplicity
 _atom_site_fract_x
 _atom_site_fract_y
 _atom_site_fract_z
 _atom_site_occupancy
  Er  Er0  1  0.10584199  0.24999999  0.21168399  1
  Y  Y1  1  0.89415794  0.74999997  0.78831596  1
  Co  Co2  1  0.31284998  0.24999999  0.62569998  1
  Ni  Ni3  1  0.68714996  0.74999997  0.37429997  1
  Si  Si4  1  0.54606596  0.74999997  0.09213198  1
  Si  Si5  1  0.74831095  0.24999999  0.49662197  1
  Si  Si6  1  0.45393397  0.24999999  0.90786796  1
  Si  Si7  1  0.25168898  0.74999997  0.50337798  1
