# generated using pymatgen
data_K2BaCu3Ge(SeS)3
_symmetry_space_group_name_H-M   'P 1'
_cell_length_a   7.20299959
_cell_length_b   7.20299959
_cell_length_c   8.08145428
_cell_angle_alpha   98.59381866
_cell_angle_beta   98.59381866
_cell_angle_gamma   119.83949280
_symmetry_Int_Tables_number   1
_chemical_formula_structural   K2BaCu3Ge(SeS)3
_chemical_formula_sum   'K2 Ba1 Cu3 Ge1 Se3 S3'
_cell_volume   347.16337093
_cell_formula_units_Z   1
loop_
 _symmetry_equiv_pos_site_id
 _symmetry_equiv_pos_as_xyz
  1  'x, y, z'
loop_
 _atom_site_type_symbol
 _atom_site_label
 _atom_site_symmetry_multiplicity
 _atom_site_fract_x
 _atom_site_fract_y
 _atom_site_fract_z
 _atom_site_occupancy
  Ba  Ba0  1  0.32685005  0.67315004  -0.00000000  1
  K  K1  1  0.67317304  0.32682702  -0.00000001  1
  Cu  Cu2  1  0.99999703  0.00000300  -0.00000001  1
  K  K3  1  0.16602705  0.83397305  0.49999997  1
  Cu  Cu4  1  0.83403403  0.16596601  0.49999997  1
  Ge  Ge5  1  0.44862204  0.44869303  0.34139398  1
  Cu  Cu6  1  0.55130705  0.55137803  0.65860596  1
  Se  Se7  1  0.09904203  0.41606202  0.25067499  1
  Se  Se8  1  0.41977902  0.10090901  0.25032798  1
  Se  Se9  1  0.89909106  0.58022103  0.74967195  1
  S  S10  1  0.58393807  0.90095805  0.74932496  1
  S  S11  1  0.73344806  0.73530904  0.25031898  1
  S  S12  1  0.26469102  0.26655202  0.74968096  1
