# generated using pymatgen
data_LiTeH2Cl5O3
_symmetry_space_group_name_H-M   'P 1'
_cell_length_a   4.96791506
_cell_length_b   5.02031708
_cell_length_c   6.82050180
_cell_angle_alpha   90.00000000
_cell_angle_beta   90.00000000
_cell_angle_gamma   90.00000000
_symmetry_Int_Tables_number   1
_chemical_formula_structural   LiTeH2Cl5O3
_chemical_formula_sum   'Li1 Te1 H2 Cl5 O3'
_cell_volume   170.10678532
_cell_formula_units_Z   1
loop_
 _symmetry_equiv_pos_site_id
 _symmetry_equiv_pos_as_xyz
  1  'x, y, z'
loop_
 _atom_site_type_symbol
 _atom_site_label
 _atom_site_symmetry_multiplicity
 _atom_site_fract_x
 _atom_site_fract_y
 _atom_site_fract_z
 _atom_site_occupancy
  Li  Li0  1  0.86652299  0.00506500  0.00000000  1
  H  H1  1  0.13347700  0.50506499  0.50000001  1
  Cl  Cl2  1  0.33913800  0.47876299  -0.00000000  1
  H  H3  1  0.66086199  0.97876298  0.50000001  1
  O  O4  1  0.66860699  0.41497199  0.00000000  1
  Te  Te5  1  0.30007300  0.80890899  0.00000000  1
  Cl  Cl6  1  0.18704200  0.33210699  0.19363101  1
  O  O7  1  0.81295799  0.83210699  0.30636901  1
  Cl  Cl8  1  0.69992699  0.30890900  0.50000001  1
  Cl  Cl9  1  0.33139300  0.91497199  0.50000001  1
  O  O10  1  0.81295799  0.83210699  0.69363102  1
  Cl  Cl11  1  0.18704200  0.33210699  0.80636902  1
