# generated using pymatgen
data_La2Y3ErIn4GaCuSn3PAuS
_symmetry_space_group_name_H-M   'P 1'
_cell_length_a   5.96203995
_cell_length_b   8.70251846
_cell_length_c   8.70251846
_cell_angle_alpha   120.00000000
_cell_angle_beta   90.00000000
_cell_angle_gamma   90.00000000
_symmetry_Int_Tables_number   1
_chemical_formula_structural   La2Y3ErIn4GaCuSn3PAuS
_chemical_formula_sum   'La2 Y3 Er1 In4 Ga1 Cu1 Sn3 P1 Au1 S1'
_cell_volume   391.03480992
_cell_formula_units_Z   1
loop_
 _symmetry_equiv_pos_site_id
 _symmetry_equiv_pos_as_xyz
  1  'x, y, z'
loop_
 _atom_site_type_symbol
 _atom_site_label
 _atom_site_symmetry_multiplicity
 _atom_site_fract_x
 _atom_site_fract_y
 _atom_site_fract_z
 _atom_site_occupancy
  Er  Er0  1  1.00000001  0.33333332  0.66666666  1
  La  La1  1  -0.00000000  0.66666664  0.33333334  1
  Y  Y2  1  0.50000000  0.66666664  0.33333334  1
  Y  Y3  1  0.50000000  0.33333332  0.66666666  1
  Y  Y4  1  0.25000000  0.26200699  0.00000001  1
  La  La5  1  0.25000000  0.73799297  0.73799300  1
  Ga  Ga6  1  0.25000000  0.99999996  0.26200702  1
  In  In7  1  0.75000001  0.73799297  0.00000002  1
  In  In8  1  0.75000001  0.26200699  0.26200700  1
  In  In9  1  0.75000001  0.99999996  0.73799301  1
  In  In10  1  0.25000000  0.60494697  0.00000001  1
  Sn  Sn11  1  0.25000000  0.39505298  0.39505300  1
  Au  Au12  1  0.25000000  0.99999996  0.60494701  1
  Sn  Sn13  1  0.75000001  0.39505298  0.00000001  1
  Cu  Cu14  1  0.75000001  0.60494697  0.60494700  1
  Sn  Sn15  1  0.75000001  0.99999996  0.39505301  1
  S  S16  1  0.00000000  0.00000000  0.00000000  1
  P  P17  1  0.50000000  0.00000000  -0.00000000  1
