# generated using pymatgen
data_Y2InGa2Ge4Rh
_symmetry_space_group_name_H-M   'P 1'
_cell_length_a   4.52949810
_cell_length_b   4.52949810
_cell_length_c   10.53903961
_cell_angle_alpha   90.00000000
_cell_angle_beta   90.00000000
_cell_angle_gamma   90.00000000
_symmetry_Int_Tables_number   1
_chemical_formula_structural   Y2InGa2Ge4Rh
_chemical_formula_sum   'Y2 In1 Ga2 Ge4 Rh1'
_cell_volume   216.22265738
_cell_formula_units_Z   1
loop_
 _symmetry_equiv_pos_site_id
 _symmetry_equiv_pos_as_xyz
  1  'x, y, z'
loop_
 _atom_site_type_symbol
 _atom_site_label
 _atom_site_symmetry_multiplicity
 _atom_site_fract_x
 _atom_site_fract_y
 _atom_site_fract_z
 _atom_site_occupancy
  Y  Y0  1  0.00000000  0.49999999  0.24939001  1
  Y  Y1  1  0.49999999  0.00000000  0.75061003  1
  Ga  Ga2  1  0.00000000  0.00000000  0.50000002  1
  In  In3  1  0.49999999  0.49999999  0.50000002  1
  Ga  Ga4  1  0.00000000  0.49999999  0.87488303  1
  Ge  Ge5  1  0.49999999  0.00000000  0.12511700  1
  Ge  Ge6  1  0.00000000  0.00000000  0.00000000  1
  Ge  Ge7  1  0.49999999  0.49999999  0.00000000  1
  Ge  Ge8  1  0.00000000  0.49999999  0.62988302  1
  Rh  Rh9  1  0.49999999  0.00000000  0.37011701  1
