# generated using pymatgen
data_ErHf2ZrFe8
_symmetry_space_group_name_H-M   'P 1'
_cell_length_a   4.94474506
_cell_length_b   4.94474506
_cell_length_c   8.56100273
_cell_angle_alpha   73.21418762
_cell_angle_beta   73.21418762
_cell_angle_gamma   60.00001144
_symmetry_Int_Tables_number   1
_chemical_formula_structural   ErHf2ZrFe8
_chemical_formula_sum   'Er1 Hf2 Zr1 Fe8'
_cell_volume   170.90090667
_cell_formula_units_Z   1
loop_
 _symmetry_equiv_pos_site_id
 _symmetry_equiv_pos_as_xyz
  1  'x, y, z'
loop_
 _atom_site_type_symbol
 _atom_site_label
 _atom_site_symmetry_multiplicity
 _atom_site_fract_x
 _atom_site_fract_y
 _atom_site_fract_z
 _atom_site_occupancy
  Er  Er0  1  0.99988398  0.99988401  0.00034803  1
  Zr  Zr1  1  0.50000599  0.50000601  0.49998201  1
  Hf  Hf2  1  0.12538300  0.12538300  0.62385100  1
  Hf  Hf3  1  0.62464399  0.62464401  0.12606802  1
  Fe  Fe4  1  0.05966299  0.56398201  0.81237300  1
  Fe  Fe5  1  0.56057600  0.06389000  0.31164401  1
  Fe  Fe6  1  0.56398200  0.05966300  0.81237300  1
  Fe  Fe7  1  0.06388999  0.56057601  0.31164401  1
  Fe  Fe8  1  0.81208698  0.81208701  0.56373902  1
  Fe  Fe9  1  0.31201199  0.31201200  0.06396401  1
  Fe  Fe10  1  0.56398199  0.56398201  0.81237301  1
  Fe  Fe11  1  0.06389000  0.06389000  0.31164400  1
