# generated using pymatgen
data_Mn4Fe6CoNiP8
_symmetry_space_group_name_H-M   'P 1'
_cell_length_a   2.96544504
_cell_length_b   9.10841751
_cell_length_c   9.15723038
_cell_angle_alpha   90.17316437
_cell_angle_beta   90.00000000
_cell_angle_gamma   90.00000000
_symmetry_Int_Tables_number   1
_chemical_formula_structural   Mn4Fe6CoNiP8
_chemical_formula_sum   'Mn4 Fe6 Co1 Ni1 P8'
_cell_volume   247.34034719
_cell_formula_units_Z   1
loop_
 _symmetry_equiv_pos_site_id
 _symmetry_equiv_pos_as_xyz
  1  'x, y, z'
loop_
 _atom_site_type_symbol
 _atom_site_label
 _atom_site_symmetry_multiplicity
 _atom_site_fract_x
 _atom_site_fract_y
 _atom_site_fract_z
 _atom_site_occupancy
  Mn  Mn0  1  -0.00000000  0.17648200  0.68207800  1
  Mn  Mn1  1  -0.00000000  0.82351799  0.31792199  1
  Mn  Mn2  1  0.00000000  0.32176200  0.17388500  1
  Mn  Mn3  1  0.00000000  0.67823800  0.82611499  1
  Fe  Fe4  1  0.00000000  0.50000000  0.49999999  1
  Fe  Fe5  1  0.00000000  0.00000000  0.00000000  1
  Ni  Ni6  1  -0.00000000  0.62580800  0.12650999  1
  Co  Co7  1  -0.00000000  0.37419200  0.87349000  1
  Fe  Fe8  1  0.00000000  0.87586999  0.62709899  1
  Fe  Fe9  1  -0.00000000  0.12413000  0.37290100  1
  P  P10  1  0.49999999  0.78719599  0.07274799  1
  Fe  Fe11  1  0.49999999  0.21280400  0.92725200  1
  P  P12  1  0.49999999  0.57196300  0.28752599  1
  P  P13  1  0.49999999  0.42803700  0.71247400  1
  P  P14  1  0.49999999  0.07333300  0.21322500  1
  P  P15  1  0.49999999  0.92666699  0.78677499  1
  P  P16  1  0.49999999  0.00000000  0.50000000  1
  Fe  Fe17  1  0.49999999  0.50000000  -0.00000001  1
  P  P18  1  0.49999999  0.71518800  0.57251999  1
  P  P19  1  0.49999999  0.28481200  0.42748000  1
