# generated using pymatgen
data_LiYMnGa4Fe2Co4Cu2Ni3
_symmetry_space_group_name_H-M   'P 1'
_cell_length_a   4.87867785
_cell_length_b   4.87867785
_cell_length_c   12.69466877
_cell_angle_alpha   78.92144775
_cell_angle_beta   78.92144775
_cell_angle_gamma   60.00000000
_symmetry_Int_Tables_number   1
_chemical_formula_structural   LiYMnGa4Fe2Co4Cu2Ni3
_chemical_formula_sum   'Li1 Y1 Mn1 Ga4 Fe2 Co4 Cu2 Ni3'
_cell_volume   255.14892859
_cell_formula_units_Z   1
loop_
 _symmetry_equiv_pos_site_id
 _symmetry_equiv_pos_as_xyz
  1  'x, y, z'
loop_
 _atom_site_type_symbol
 _atom_site_label
 _atom_site_symmetry_multiplicity
 _atom_site_fract_x
 _atom_site_fract_y
 _atom_site_fract_z
 _atom_site_occupancy
  Mn  Mn0  1  0.05142300  0.05142300  0.84573098  1
  Li  Li1  1  0.94857705  0.94857701  0.15426898  1
  Y  Y2  1  0.14737601  0.14737600  0.55787199  1
  Co  Co3  1  0.85262404  0.85262401  0.44212798  1
  Co  Co4  1  0.50000003  0.50000001  0.49999998  1
  Fe  Fe5  1  0.27820001  0.27820000  0.16539999  1
  Cu  Cu6  1  0.72180004  0.72180001  0.83459997  1
  Cu  Cu7  1  0.38821902  0.38821901  0.83534298  1
  Ni  Ni8  1  0.61178103  0.61178101  0.16465699  1
  Ga  Ga9  1  0.50000002  0.00000000  -0.00000000  1
  Ga  Ga10  1  0.00000001  0.50000001  -0.00000000  1
  Ga  Ga11  1  0.50000003  0.50000001  -0.00000001  1
  Ga  Ga12  1  0.60890103  0.60890101  0.67248098  1
  Fe  Fe13  1  0.60890102  0.10971700  0.67248098  1
  Co  Co14  1  0.10971701  0.60890101  0.67248098  1
  Ni  Ni15  1  0.39109902  0.39109901  0.32751899  1
  Co  Co16  1  0.39109903  0.89028301  0.32751898  1
  Ni  Ni17  1  0.89028304  0.39109901  0.32751898  1
