# generated using pymatgen
data_Mn4Fe12SiNi
_symmetry_space_group_name_H-M   'P 1'
_cell_length_a   4.77708006
_cell_length_b   4.77708054
_cell_length_c   11.69867706
_cell_angle_alpha   90.00000000
_cell_angle_beta   90.00000000
_cell_angle_gamma   120.00000000
_symmetry_Int_Tables_number   1
_chemical_formula_structural   Mn4Fe12SiNi
_chemical_formula_sum   'Mn4 Fe12 Si1 Ni1'
_cell_volume   231.20246871
_cell_formula_units_Z   1
loop_
 _symmetry_equiv_pos_site_id
 _symmetry_equiv_pos_as_xyz
  1  'x, y, z'
loop_
 _atom_site_type_symbol
 _atom_site_label
 _atom_site_symmetry_multiplicity
 _atom_site_fract_x
 _atom_site_fract_y
 _atom_site_fract_z
 _atom_site_occupancy
  Mn  Mn0  1  0.00000000  0.00000000  0.00015500  1
  Mn  Mn1  1  0.33333336  0.66666665  0.66509100  1
  Mn  Mn2  1  0.66666667  0.33333333  0.33441900  1
  Mn  Mn3  1  0.16940401  0.33880799  0.21132000  1
  Fe  Fe4  1  0.50075499  0.00151000  0.87106900  1
  Fe  Fe5  1  0.83487602  0.66975198  0.54129000  1
  Fe  Fe6  1  0.16940403  0.83059598  0.21132000  1
  Fe  Fe7  1  0.50075502  0.49924499  0.87106900  1
  Fe  Fe8  1  0.83487600  0.16512400  0.54129000  1
  Si  Si9  1  0.33333336  0.66666665  0.04359000  1
  Fe  Fe10  1  0.66666667  0.33333333  0.70809100  1
  Fe  Fe11  1  0.00000000  0.00000000  0.37715600  1
  Fe  Fe12  1  0.66119203  0.83059598  0.21132000  1
  Fe  Fe13  1  0.99849001  0.49924499  0.87106900  1
  Ni  Ni14  1  0.33024800  0.16512400  0.54129000  1
  Fe  Fe15  1  0.00000000  0.00000000  0.74469500  1
  Fe  Fe16  1  0.33333336  0.66666665  0.41691300  1
  Fe  Fe17  1  0.66666667  0.33333333  0.08885300  1
