# generated using pymatgen
data_LaEuIn4
_symmetry_space_group_name_H-M   'P 1'
_cell_length_a   5.09414005
_cell_length_b   5.09413958
_cell_length_c   7.98433495
_cell_angle_alpha   90.00000000
_cell_angle_beta   90.00000000
_cell_angle_gamma   120.00000000
_symmetry_Int_Tables_number   1
_chemical_formula_structural   LaEuIn4
_chemical_formula_sum   'La1 Eu1 In4'
_cell_volume   179.43662834
_cell_formula_units_Z   1
loop_
 _symmetry_equiv_pos_site_id
 _symmetry_equiv_pos_as_xyz
  1  'x, y, z'
loop_
 _atom_site_type_symbol
 _atom_site_label
 _atom_site_symmetry_multiplicity
 _atom_site_fract_x
 _atom_site_fract_y
 _atom_site_fract_z
 _atom_site_occupancy
  Eu  Eu0  1  0.00000000  0.00000000  0.24852200  1
  La  La1  1  0.00000000  0.00000000  0.74852201  1
  In  In2  1  0.33333328  0.66666662  0.04775200  1
  In  In3  1  0.66666664  0.33333331  0.54775200  1
  In  In4  1  0.33333328  0.66666662  0.45672600  1
  In  In5  1  0.66666664  0.33333331  0.95672601  1
