# generated using pymatgen
data_KNa2ZrCu2O9
_symmetry_space_group_name_H-M   'P 1'
_cell_length_a   6.25727940
_cell_length_b   6.25727940
_cell_length_c   8.29009342
_cell_angle_alpha   67.82758331
_cell_angle_beta   67.82758331
_cell_angle_gamma   60.00000763
_symmetry_Int_Tables_number   1
_chemical_formula_structural   KNa2ZrCu2O9
_chemical_formula_sum   'K1 Na2 Zr1 Cu2 O9'
_cell_volume   253.00539600
_cell_formula_units_Z   1
loop_
 _symmetry_equiv_pos_site_id
 _symmetry_equiv_pos_as_xyz
  1  'x, y, z'
loop_
 _atom_site_type_symbol
 _atom_site_label
 _atom_site_symmetry_multiplicity
 _atom_site_fract_x
 _atom_site_fract_y
 _atom_site_fract_z
 _atom_site_occupancy
  Na  Na0  1  0.00000000  0.00000000  0.00000000  1
  K  K1  1  0.78620597  0.78620598  0.64138201  1
  Na  Na2  1  0.21379399  0.21379400  0.35861799  1
  Cu  Cu3  1  0.49999998  0.49999999  0.50000000  1
  Zr  Zr4  1  0.62086098  0.62086099  0.13741702  1
  Cu  Cu5  1  0.37913899  0.37913899  0.86258298  1
  O  O6  1  0.49999999  0.00000000  0.00000001  1
  O  O7  1  -0.00000000  0.49999999  0.00000001  1
  O  O8  1  0.49999998  0.49999999  0.00000002  1
  O  O9  1  0.30391999  0.71466998  0.67748999  1
  O  O10  1  0.71466998  0.30391999  0.67748999  1
  O  O11  1  0.30391999  0.30391999  0.67748998  1
  O  O12  1  0.69607998  0.69607998  0.32251002  1
  O  O13  1  0.28532999  0.69607998  0.32251001  1
  O  O14  1  0.69607998  0.28532999  0.32251001  1
