# generated using pymatgen
data_YAlCu3Ni
_symmetry_space_group_name_H-M   'P 1'
_cell_length_a   3.89971209
_cell_length_b   5.11461782
_cell_length_c   5.11461782
_cell_angle_alpha   120.00000000
_cell_angle_beta   90.00000000
_cell_angle_gamma   90.00000000
_symmetry_Int_Tables_number   1
_chemical_formula_structural   YAlCu3Ni
_chemical_formula_sum   'Y1 Al1 Cu3 Ni1'
_cell_volume   88.34654128
_cell_formula_units_Z   1
loop_
 _symmetry_equiv_pos_site_id
 _symmetry_equiv_pos_as_xyz
  1  'x, y, z'
loop_
 _atom_site_type_symbol
 _atom_site_label
 _atom_site_symmetry_multiplicity
 _atom_site_fract_x
 _atom_site_fract_y
 _atom_site_fract_z
 _atom_site_occupancy
  Y  Y0  1  -0.00000000  0.33333334  0.66666667  1
  Al  Al1  1  0.00000000  0.00000000  0.00000000  1
  Cu  Cu2  1  -0.00000000  0.66666669  0.33333333  1
  Cu  Cu3  1  0.49999999  0.33760901  0.16880500  1
  Ni  Ni4  1  0.49999999  0.83119602  0.66239200  1
  Cu  Cu5  1  0.49999999  0.83119602  0.16880499  1
