# generated using pymatgen
data_Na2MnFeO5
_symmetry_space_group_name_H-M   'P 1'
_cell_length_a   3.89093494
_cell_length_b   3.89093494
_cell_length_c   8.72043037
_cell_angle_alpha   90.00000000
_cell_angle_beta   90.00000000
_cell_angle_gamma   90.00000000
_symmetry_Int_Tables_number   1
_chemical_formula_structural   Na2MnFeO5
_chemical_formula_sum   'Na2 Mn1 Fe1 O5'
_cell_volume   132.02186333
_cell_formula_units_Z   1
loop_
 _symmetry_equiv_pos_site_id
 _symmetry_equiv_pos_as_xyz
  1  'x, y, z'
loop_
 _atom_site_type_symbol
 _atom_site_label
 _atom_site_symmetry_multiplicity
 _atom_site_fract_x
 _atom_site_fract_y
 _atom_site_fract_z
 _atom_site_occupancy
  Na  Na0  1  0.00000000  0.00000000  0.00000000  1
  Na  Na1  1  0.00000000  0.00000000  0.49999998  1
  Mn  Mn2  1  0.50000001  0.50000001  0.27040799  1
  Fe  Fe3  1  0.50000001  0.50000001  0.72959197  1
  O  O4  1  0.50000001  0.00000000  0.22844899  1
  O  O5  1  0.50000001  0.00000000  0.77155097  1
  O  O6  1  0.50000001  0.50000001  0.49999998  1
  O  O7  1  0.00000000  0.50000001  0.22844899  1
  O  O8  1  0.00000000  0.50000001  0.77155097  1
