# generated using pymatgen
data_K4BrCl7
_symmetry_space_group_name_H-M   'P 1'
_cell_length_a   4.90272903
_cell_length_b   8.23527145
_cell_length_c   8.94186592
_cell_angle_alpha   90.00000000
_cell_angle_beta   90.00000000
_cell_angle_gamma   90.00000000
_symmetry_Int_Tables_number   1
_chemical_formula_structural   K4BrCl7
_chemical_formula_sum   'K4 Br1 Cl7'
_cell_volume   361.03055903
_cell_formula_units_Z   1
loop_
 _symmetry_equiv_pos_site_id
 _symmetry_equiv_pos_as_xyz
  1  'x, y, z'
loop_
 _atom_site_type_symbol
 _atom_site_label
 _atom_site_symmetry_multiplicity
 _atom_site_fract_x
 _atom_site_fract_y
 _atom_site_fract_z
 _atom_site_occupancy
  K  K0  1  0.74999999  0.98873695  0.81178601  1
  K  K1  1  0.25000000  0.51126297  0.31178600  1
  K  K2  1  0.25000000  0.01126300  0.18821400  1
  K  K3  1  0.74999999  0.48873697  0.68821401  1
  Cl  Cl4  1  0.74999999  0.35355698  0.06691000  1
  Cl  Cl5  1  0.25000000  0.64644296  0.93309001  1
  Cl  Cl6  1  0.74999999  0.85355695  0.43309000  1
  Cl  Cl7  1  0.25000000  0.14644299  0.56691001  1
  Cl  Cl8  1  0.25000000  0.77749696  0.60836501  1
  Cl  Cl9  1  0.25000000  0.27749698  0.89163501  1
  Cl  Cl10  1  0.74999999  0.72250296  0.10836500  1
  Br  Br11  1  0.74999999  0.22250299  0.39163500  1
