# generated using pymatgen
data_YZnCu6
_symmetry_space_group_name_H-M   'P 1'
_cell_length_a   5.50607014
_cell_length_b   5.50607014
_cell_length_c   6.10212231
_cell_angle_alpha   63.18185043
_cell_angle_beta   63.18185043
_cell_angle_gamma   59.99999619
_symmetry_Int_Tables_number   1
_chemical_formula_structural   YZnCu6
_chemical_formula_sum   'Y1 Zn1 Cu6'
_cell_volume   136.75441107
_cell_formula_units_Z   1
loop_
 _symmetry_equiv_pos_site_id
 _symmetry_equiv_pos_as_xyz
  1  'x, y, z'
loop_
 _atom_site_type_symbol
 _atom_site_label
 _atom_site_symmetry_multiplicity
 _atom_site_fract_x
 _atom_site_fract_y
 _atom_site_fract_z
 _atom_site_occupancy
  Cu  Cu0  1  0.50000000  0.50000001  0.50000003  1
  Y  Y1  1  0.00000000  0.00000000  0.00000000  1
  Cu  Cu2  1  0.76667401  0.37075201  0.77083203  1
  Cu  Cu3  1  0.09174199  0.76667402  0.77083203  1
  Zn  Zn4  1  0.62924799  0.90825802  0.22916804  1
  Cu  Cu5  1  0.90825801  0.23332601  0.22916803  1
  Cu  Cu6  1  0.23332599  0.62924802  0.22916803  1
  Cu  Cu7  1  0.37075201  0.09174200  0.77083201  1
