# generated using pymatgen
data_YErAl2Si5
_symmetry_space_group_name_H-M   'P 1'
_cell_length_a   3.85013199
_cell_length_b   9.05254555
_cell_length_c   9.05254555
_cell_angle_alpha   119.90757751
_cell_angle_beta   90.00000000
_cell_angle_gamma   90.00000000
_symmetry_Int_Tables_number   1
_chemical_formula_structural   YErAl2Si5
_chemical_formula_sum   'Y2 Er2 Al4 Si10'
_cell_volume   273.49626327
_cell_formula_units_Z   2
loop_
 _symmetry_equiv_pos_site_id
 _symmetry_equiv_pos_as_xyz
  1  'x, y, z'
loop_
 _atom_site_type_symbol
 _atom_site_label
 _atom_site_symmetry_multiplicity
 _atom_site_fract_x
 _atom_site_fract_y
 _atom_site_fract_z
 _atom_site_occupancy
  Y  Y0  1  -0.00000000  0.00000900  0.00000900  1
  Y  Y1  1  0.50000000  0.66643204  0.33357203  1
  Er  Er2  1  0.50000000  0.33357202  0.66643203  1
  Er  Er3  1  0.50000000  0.68531904  0.68531905  1
  Al  Al4  1  0.50000000  0.31439902  0.99995805  1
  Al  Al5  1  0.50000000  0.99995806  0.31439904  1
  Al  Al6  1  0.50000000  0.31469102  0.31469102  1
  Al  Al7  1  0.50000000  0.68561404  0.00005602  1
  Si  Si8  1  0.50000000  0.00005600  0.68561402  1
  Si  Si9  1  -0.00000000  0.50000503  0.50000503  1
  Si  Si10  1  1.00000000  0.50000803  0.00000802  1
  Si  Si11  1  -0.00000000  0.00000800  0.50000802  1
  Si  Si12  1  -0.00000000  0.81666105  0.18335103  1
  Si  Si13  1  -0.00000000  0.81671505  0.63320205  1
  Si  Si14  1  -0.00000000  0.36680602  0.18329402  1
  Si  Si15  1  1.00000000  0.18335101  0.81666104  1
  Si  Si16  1  -0.00000000  0.63320204  0.81671505  1
  Si  Si17  1  -0.00000000  0.18329401  0.36680602  1
