# generated using pymatgen
data_YCdInAg
_symmetry_space_group_name_H-M   'P 1'
_cell_length_a   4.63363600
_cell_length_b   4.63363600
_cell_length_c   5.67393112
_cell_angle_alpha   114.09976959
_cell_angle_beta   114.09976959
_cell_angle_gamma   90.00000000
_symmetry_Int_Tables_number   1
_chemical_formula_structural   YCdInAg
_chemical_formula_sum   'Y1 Cd1 In1 Ag1'
_cell_volume   99.45817742
_cell_formula_units_Z   1
loop_
 _symmetry_equiv_pos_site_id
 _symmetry_equiv_pos_as_xyz
  1  'x, y, z'
loop_
 _atom_site_type_symbol
 _atom_site_label
 _atom_site_symmetry_multiplicity
 _atom_site_fract_x
 _atom_site_fract_y
 _atom_site_fract_z
 _atom_site_occupancy
  Y  Y0  1  0.50000001  0.50000001  0.00000002  1
  Cd  Cd1  1  0.25000002  0.75000001  0.50000002  1
  Ag  Ag2  1  0.75000001  0.25000000  0.50000002  1
  In  In3  1  0.00000000  0.00000000  0.00000000  1
