# generated using pymatgen
data_MnAlFeSi
_symmetry_space_group_name_H-M   'P 1'
_cell_length_a   3.19297409
_cell_length_b   3.42685199
_cell_length_c   4.90121317
_cell_angle_alpha   69.53762054
_cell_angle_beta   90.00000000
_cell_angle_gamma   90.00000000
_symmetry_Int_Tables_number   1
_chemical_formula_structural   MnAlFeSi
_chemical_formula_sum   'Mn1 Al1 Fe1 Si1'
_cell_volume   50.24449304
_cell_formula_units_Z   1
loop_
 _symmetry_equiv_pos_site_id
 _symmetry_equiv_pos_as_xyz
  1  'x, y, z'
loop_
 _atom_site_type_symbol
 _atom_site_label
 _atom_site_symmetry_multiplicity
 _atom_site_fract_x
 _atom_site_fract_y
 _atom_site_fract_z
 _atom_site_occupancy
  Mn  Mn0  1  0.00000000  0.85162902  0.29674195  1
  Al  Al1  1  0.49999999  0.13822600  0.72354797  1
  Fe  Fe2  1  0.49999999  0.45202601  0.09594798  1
  Si  Si3  1  0.00000000  0.55812001  0.88375994  1
