# generated using pymatgen
data_Hf2Nb5ReSiW3
_symmetry_space_group_name_H-M   'P 1'
_cell_length_a   6.59652805
_cell_length_b   6.69547510
_cell_length_c   6.77512455
_cell_angle_alpha   113.82607269
_cell_angle_beta   90.00000000
_cell_angle_gamma   90.00000000
_symmetry_Int_Tables_number   1
_chemical_formula_structural   Hf2Nb5ReSiW3
_chemical_formula_sum   'Hf2 Nb5 Re1 Si1 W3'
_cell_volume   273.73405383
_cell_formula_units_Z   1
loop_
 _symmetry_equiv_pos_site_id
 _symmetry_equiv_pos_as_xyz
  1  'x, y, z'
loop_
 _atom_site_type_symbol
 _atom_site_label
 _atom_site_symmetry_multiplicity
 _atom_site_fract_x
 _atom_site_fract_y
 _atom_site_fract_z
 _atom_site_occupancy
  Nb  Nb0  1  0.86042699  0.13996600  0.88605000  1
  Hf  Hf1  1  0.36042700  0.86003400  0.61395003  1
  Hf  Hf2  1  0.13957300  0.86003400  0.11395003  1
  Nb  Nb3  1  0.63957299  0.13996600  0.38605000  1
  Re  Re4  1  0.13520500  0.34676600  0.68303301  1
  Nb  Nb5  1  0.63520499  0.65323400  0.81696702  1
  Nb  Nb6  1  0.86479499  0.65323400  0.31696702  1
  Nb  Nb7  1  0.36479500  0.34676600  0.18303301  1
  W  W8  1  0.50151700  0.27611800  0.79586101  1
  W  W9  1  0.00151700  0.72388200  0.70413903  1
  Si  Si10  1  0.49848300  0.72388200  0.20413903  1
  W  W11  1  0.99848299  0.27611800  0.29586101  1
