# generated using pymatgen
data_LiFeCoNi
_symmetry_space_group_name_H-M   'P 1'
_cell_length_a   3.44149995
_cell_length_b   5.58106422
_cell_length_c   5.58106375
_cell_angle_alpha   120.00000000
_cell_angle_beta   90.00000000
_cell_angle_gamma   90.00000000
_symmetry_Int_Tables_number   1
_chemical_formula_structural   LiFeCoNi
_chemical_formula_sum   'Li2 Fe2 Co2 Ni2'
_cell_volume   92.83514122
_cell_formula_units_Z   2
loop_
 _symmetry_equiv_pos_site_id
 _symmetry_equiv_pos_as_xyz
  1  'x, y, z'
loop_
 _atom_site_type_symbol
 _atom_site_label
 _atom_site_symmetry_multiplicity
 _atom_site_fract_x
 _atom_site_fract_y
 _atom_site_fract_z
 _atom_site_occupancy
  Li  Li0  1  0.75000001  0.33333332  0.66666667  1
  Li  Li1  1  0.25000000  0.66666663  0.33333332  1
  Fe  Fe2  1  0.25000000  0.10709299  0.21418600  1
  Fe  Fe3  1  0.25000000  0.78581396  0.89290699  1
  Co  Co4  1  0.25000000  0.10709299  0.89290701  1
  Ni  Ni5  1  0.75000001  0.89290695  0.78581399  1
  Co  Co6  1  0.75000001  0.21418599  0.10709300  1
  Ni  Ni7  1  0.75000001  0.89290695  0.10709298  1
