# generated using pymatgen
data_LaEuCuAs2Se
_symmetry_space_group_name_H-M   'P 1'
_cell_length_a   3.93522191
_cell_length_b   3.93522191
_cell_length_c   10.12870598
_cell_angle_alpha   90.00000000
_cell_angle_beta   90.00000000
_cell_angle_gamma   120.00000000
_symmetry_Int_Tables_number   1
_chemical_formula_structural   LaEuCuAs2Se
_chemical_formula_sum   'La1 Eu1 Cu1 As2 Se1'
_cell_volume   135.83855445
_cell_formula_units_Z   1
loop_
 _symmetry_equiv_pos_site_id
 _symmetry_equiv_pos_as_xyz
  1  'x, y, z'
loop_
 _atom_site_type_symbol
 _atom_site_label
 _atom_site_symmetry_multiplicity
 _atom_site_fract_x
 _atom_site_fract_y
 _atom_site_fract_z
 _atom_site_occupancy
  Eu  Eu0  1  0.00000000  0.00000000  0.50000000  1
  La  La1  1  0.00000000  0.00000000  0.00000000  1
  Cu  Cu2  1  0.33333332  0.66666664  0.28611000  1
  As  As3  1  0.33333332  0.66666664  0.79786000  1
  Se  Se4  1  0.66666667  0.33333332  0.20214000  1
  As  As5  1  0.66666667  0.33333332  0.71389000  1
