# generated using pymatgen
data_YLuInGaSnGePd
_symmetry_space_group_name_H-M   'P 1'
_cell_length_a   4.68710089
_cell_length_b   4.68710089
_cell_length_c   7.55495596
_cell_angle_alpha   90.00000000
_cell_angle_beta   90.00000000
_cell_angle_gamma   90.00000000
_symmetry_Int_Tables_number   1
_chemical_formula_structural   YLuInGaSnGePd
_chemical_formula_sum   'Y1 Lu1 In1 Ga1 Sn1 Ge1 Pd1'
_cell_volume   165.97418324
_cell_formula_units_Z   1
loop_
 _symmetry_equiv_pos_site_id
 _symmetry_equiv_pos_as_xyz
  1  'x, y, z'
loop_
 _atom_site_type_symbol
 _atom_site_label
 _atom_site_symmetry_multiplicity
 _atom_site_fract_x
 _atom_site_fract_y
 _atom_site_fract_z
 _atom_site_occupancy
  Y  Y0  1  0.00000000  0.00000000  0.00000000  1
  Lu  Lu1  1  0.50000001  0.50000001  -0.00000000  1
  In  In2  1  0.50000001  0.00000000  0.30000700  1
  Ga  Ga3  1  0.00000000  0.50000001  0.30000700  1
  Sn  Sn4  1  0.50000001  0.00000000  0.69999300  1
  Pd  Pd5  1  0.00000000  0.50000001  0.69999300  1
  Ge  Ge6  1  0.00000000  0.00000000  0.50000000  1
