# generated using pymatgen
data_La3In5
_symmetry_space_group_name_H-M   'P 1'
_cell_length_a   5.63279915
_cell_length_b   7.14959192
_cell_length_c   7.14959240
_cell_angle_alpha   60.00000381
_cell_angle_beta   90.00000000
_cell_angle_gamma   90.00000000
_symmetry_Int_Tables_number   1
_chemical_formula_structural   La3In5
_chemical_formula_sum   'La3 In5'
_cell_volume   249.35463862
_cell_formula_units_Z   1
loop_
 _symmetry_equiv_pos_site_id
 _symmetry_equiv_pos_as_xyz
  1  'x, y, z'
loop_
 _atom_site_type_symbol
 _atom_site_label
 _atom_site_symmetry_multiplicity
 _atom_site_fract_x
 _atom_site_fract_y
 _atom_site_fract_z
 _atom_site_occupancy
  La  La0  1  0.74999998  0.66666667  0.66666670  1
  La  La1  1  0.24999999  0.33333333  0.33333335  1
  La  La2  1  0.74999998  0.16421100  0.67157802  1
  In  In3  1  0.24999999  0.32842100  0.83579003  1
  In  In4  1  0.24999999  0.83578900  0.83579004  1
  In  In5  1  0.74999998  0.16421100  0.16421001  1
  In  In6  1  0.74999998  0.67157900  0.16421002  1
  In  In7  1  0.24999999  0.83578900  0.32842203  1
