# generated using pymatgen
data_LiYFeCu(NiP2)2
_symmetry_space_group_name_H-M   'P 1'
_cell_length_a   3.95567012
_cell_length_b   5.92686987
_cell_length_c   7.13804388
_cell_angle_alpha   90.00000000
_cell_angle_beta   90.00000000
_cell_angle_gamma   109.49389648
_symmetry_Int_Tables_number   1
_chemical_formula_structural   LiYFeCu(NiP2)2
_chemical_formula_sum   'Li1 Y1 Fe1 Cu1 Ni2 P4'
_cell_volume   157.75662398
_cell_formula_units_Z   1
loop_
 _symmetry_equiv_pos_site_id
 _symmetry_equiv_pos_as_xyz
  1  'x, y, z'
loop_
 _atom_site_type_symbol
 _atom_site_label
 _atom_site_symmetry_multiplicity
 _atom_site_fract_x
 _atom_site_fract_y
 _atom_site_fract_z
 _atom_site_occupancy
  Y  Y0  1  0.44767089  0.89534197  0.75000001  1
  Li  Li1  1  0.55232897  0.10465800  0.25000000  1
  Cu  Cu2  1  0.72770193  0.45540399  0.75000001  1
  Fe  Fe3  1  0.27229794  0.54459598  0.25000000  1
  Ni  Ni4  1  0.16546496  0.33092999  0.94276102  1
  Ni  Ni5  1  0.83453491  0.66906998  0.05723900  1
  P  P6  1  0.83453491  0.66906998  0.44276101  1
  P  P7  1  0.16546496  0.33092999  0.55723901  1
  P  P8  1  0.00000000  0.00000000  0.00000000  1
  P  P9  1  0.00000000  0.00000000  0.50000001  1
