# generated using pymatgen
data_NaCa(CuO4)2
_symmetry_space_group_name_H-M   'P 1'
_cell_length_a   4.70348978
_cell_length_b   4.70349026
_cell_length_c   7.29443121
_cell_angle_alpha   90.00000000
_cell_angle_beta   90.00000000
_cell_angle_gamma   120.00000000
_symmetry_Int_Tables_number   1
_chemical_formula_structural   NaCa(CuO4)2
_chemical_formula_sum   'Na1 Ca1 Cu2 O8'
_cell_volume   139.75344369
_cell_formula_units_Z   1
loop_
 _symmetry_equiv_pos_site_id
 _symmetry_equiv_pos_as_xyz
  1  'x, y, z'
loop_
 _atom_site_type_symbol
 _atom_site_label
 _atom_site_symmetry_multiplicity
 _atom_site_fract_x
 _atom_site_fract_y
 _atom_site_fract_z
 _atom_site_occupancy
  Na  Na0  1  0.00000000  0.00000000  0.84142298  1
  Ca  Ca1  1  0.66666670  0.33333333  0.31050699  1
  Cu  Cu2  1  0.66666670  0.33333333  0.66039498  1
  Cu  Cu3  1  0.33333336  0.66666666  0.15081400  1
  O  O4  1  0.66666670  0.33333333  0.82883498  1
  O  O5  1  0.33333336  0.66666666  0.98293897  1
  O  O6  1  0.19090903  0.80908999  0.20815399  1
  O  O7  1  0.52410003  0.47589999  0.60555498  1
  O  O8  1  0.19090902  0.38181800  0.20815399  1
  O  O9  1  0.61818105  0.80908999  0.20815399  1
  O  O10  1  0.95180005  0.47589999  0.60555498  1
  O  O11  1  0.52410003  0.04820000  0.60555498  1
