# generated using pymatgen
data_Li(MgCu)2
_symmetry_space_group_name_H-M   'P 1'
_cell_length_a   4.01797199
_cell_length_b   5.39228868
_cell_length_c   5.39228868
_cell_angle_alpha   60.95234680
_cell_angle_beta   68.12601471
_cell_angle_gamma   68.12601471
_symmetry_Int_Tables_number   1
_chemical_formula_structural   Li(MgCu)2
_chemical_formula_sum   'Li1 Mg2 Cu2'
_cell_volume   92.09803070
_cell_formula_units_Z   1
loop_
 _symmetry_equiv_pos_site_id
 _symmetry_equiv_pos_as_xyz
  1  'x, y, z'
loop_
 _atom_site_type_symbol
 _atom_site_label
 _atom_site_symmetry_multiplicity
 _atom_site_fract_x
 _atom_site_fract_y
 _atom_site_fract_z
 _atom_site_occupancy
  Li  Li0  1  0.79647600  0.70352399  0.70352401  1
  Mg  Mg1  1  0.20352400  0.29647600  0.29647600  1
  Mg  Mg2  1  0.00000000  0.00000000  0.00000000  1
  Cu  Cu3  1  0.50000000  0.27697300  0.72302700  1
  Cu  Cu4  1  0.50000001  0.72302699  0.27697301  1
