# generated using pymatgen
data_NaLiCuNiO2
_symmetry_space_group_name_H-M   'P 1'
_cell_length_a   3.28980994
_cell_length_b   3.83222604
_cell_length_c   6.59456301
_cell_angle_alpha   106.89145660
_cell_angle_beta   104.44399261
_cell_angle_gamma   90.00000000
_symmetry_Int_Tables_number   1
_chemical_formula_structural   NaLiCuNiO2
_chemical_formula_sum   'Na1 Li1 Cu1 Ni1 O2'
_cell_volume   76.80218990
_cell_formula_units_Z   1
loop_
 _symmetry_equiv_pos_site_id
 _symmetry_equiv_pos_as_xyz
  1  'x, y, z'
loop_
 _atom_site_type_symbol
 _atom_site_label
 _atom_site_symmetry_multiplicity
 _atom_site_fract_x
 _atom_site_fract_y
 _atom_site_fract_z
 _atom_site_occupancy
  Li  Li0  1  0.64915401  0.14915400  0.29830801  1
  Na  Na1  1  0.35084601  0.85084600  0.70169204  1
  Ni  Ni2  1  0.00000000  0.50000000  0.00000001  1
  Cu  Cu3  1  0.00000000  0.00000000  0.00000000  1
  O  O4  1  0.16055701  0.66055700  0.32111402  1
  O  O5  1  0.83944302  0.33944300  0.67888603  1
