# generated using pymatgen
data_La2In2Sn3PdAu4
_symmetry_space_group_name_H-M   'P 1'
_cell_length_a   4.55689287
_cell_length_b   7.33507013
_cell_length_c   7.80542278
_cell_angle_alpha   90.00000000
_cell_angle_beta   90.00000000
_cell_angle_gamma   90.00000000
_symmetry_Int_Tables_number   1
_chemical_formula_structural   La2In2Sn3PdAu4
_chemical_formula_sum   'La2 In2 Sn3 Pd1 Au4'
_cell_volume   260.89726189
_cell_formula_units_Z   1
loop_
 _symmetry_equiv_pos_site_id
 _symmetry_equiv_pos_as_xyz
  1  'x, y, z'
loop_
 _atom_site_type_symbol
 _atom_site_label
 _atom_site_symmetry_multiplicity
 _atom_site_fract_x
 _atom_site_fract_y
 _atom_site_fract_z
 _atom_site_occupancy
  La  La0  1  0.25000001  0.01424800  0.31717801  1
  In  In1  1  0.25000001  0.51424799  0.18282201  1
  In  In2  1  0.75000002  0.98575198  0.68282202  1
  La  La3  1  0.75000002  0.48575199  0.81717802  1
  Sn  Sn4  1  0.75000002  0.84520498  0.06827600  1
  Sn  Sn5  1  0.25000001  0.15479500  0.93172403  1
  Pd  Pd6  1  0.25000001  0.65479499  0.56827602  1
  Au  Au7  1  0.75000002  0.34520499  0.43172401  1
  Sn  Sn8  1  0.25000001  0.79159199  0.88755902  1
  Au  Au9  1  0.75000002  0.20840800  0.11244100  1
  Au  Au10  1  0.75000002  0.70840799  0.38755901  1
  Au  Au11  1  0.25000001  0.29159199  0.61244102  1
