# generated using pymatgen
data_NaLiCuRuO3
_symmetry_space_group_name_H-M   'P 1'
_cell_length_a   4.00863218
_cell_length_b   4.00863218
_cell_length_c   6.92423248
_cell_angle_alpha   106.82586670
_cell_angle_beta   106.82586670
_cell_angle_gamma   90.00000000
_symmetry_Int_Tables_number   1
_chemical_formula_structural   NaLiCuRuO3
_chemical_formula_sum   'Na1 Li1 Cu1 Ru1 O3'
_cell_volume   101.51626569
_cell_formula_units_Z   1
loop_
 _symmetry_equiv_pos_site_id
 _symmetry_equiv_pos_as_xyz
  1  'x, y, z'
loop_
 _atom_site_type_symbol
 _atom_site_label
 _atom_site_symmetry_multiplicity
 _atom_site_fract_x
 _atom_site_fract_y
 _atom_site_fract_z
 _atom_site_occupancy
  Li  Li0  1  0.64962294  0.64962296  0.29924595  1
  Na  Na1  1  0.35037697  0.35037698  0.70075395  1
  Ru  Ru2  1  0.00000000  0.00000000  0.00000000  1
  Cu  Cu3  1  -0.00000002  0.49999997  -0.00000002  1
  O  O4  1  0.49999997  0.00000000  -0.00000001  1
  O  O5  1  0.74999995  0.24999998  0.49999995  1
  O  O6  1  0.24999996  0.74999995  0.49999995  1
