# generated using pymatgen
data_ErZr2In4Sn3(SbAu)3
_symmetry_space_group_name_H-M   'P 1'
_cell_length_a   6.15535784
_cell_length_b   8.27356339
_cell_length_c   8.27356339
_cell_angle_alpha   119.99098969
_cell_angle_beta   90.00000000
_cell_angle_gamma   90.00000000
_symmetry_Int_Tables_number   1
_chemical_formula_structural   ErZr2In4Sn3(SbAu)3
_chemical_formula_sum   'Er1 Zr2 In4 Sn3 Sb3 Au3'
_cell_volume   364.92915218
_cell_formula_units_Z   1
loop_
 _symmetry_equiv_pos_site_id
 _symmetry_equiv_pos_as_xyz
  1  'x, y, z'
loop_
 _atom_site_type_symbol
 _atom_site_label
 _atom_site_symmetry_multiplicity
 _atom_site_fract_x
 _atom_site_fract_y
 _atom_site_fract_z
 _atom_site_occupancy
  Er  Er0  1  0.50000301  0.66660195  0.33341894  1
  Zr  Zr1  1  0.50000301  0.33341897  0.66660194  1
  Zr  Zr2  1  0.00000300  0.33333331  0.66651628  1
  In  In3  1  0.00000300  0.66658095  0.33339794  1
  In  In4  1  0.24996901  0.73817694  0.73817691  1
  In  In5  1  0.25001401  0.26182798  0.99995493  1
  Sn  Sn6  1  0.25001401  0.99995492  0.26182792  1
  In  In7  1  0.74996902  0.26182298  0.26182297  1
  Sn  Sn8  1  0.75001402  0.73817194  0.00004495  1
  Sn  Sn9  1  0.75001402  0.00004500  0.73817196  1
  Au  Au10  1  0.24999501  0.38883497  0.38883495  1
  Sb  Sb11  1  0.25000101  0.61106695  0.00000996  1
  Au  Au12  1  0.25000101  0.00000900  0.61106597  1
  Au  Au13  1  0.74999502  0.61116495  0.61116493  1
  Sb  Sb14  1  0.75000102  0.38893297  0.99998992  1
  Sb  Sb15  1  0.75000102  0.99999092  0.38893392  1
