# generated using pymatgen
data_Li6Fe2CuNi2P3
_symmetry_space_group_name_H-M   'P 1'
_cell_length_a   3.87378931
_cell_length_b   3.87378931
_cell_length_c   16.22725105
_cell_angle_alpha   83.14480591
_cell_angle_beta   83.14480591
_cell_angle_gamma   60.00001144
_symmetry_Int_Tables_number   1
_chemical_formula_structural   Li6Fe2CuNi2P3
_chemical_formula_sum   'Li6 Fe2 Cu1 Ni2 P3'
_cell_volume   208.87335497
_cell_formula_units_Z   1
loop_
 _symmetry_equiv_pos_site_id
 _symmetry_equiv_pos_as_xyz
  1  'x, y, z'
loop_
 _atom_site_type_symbol
 _atom_site_label
 _atom_site_symmetry_multiplicity
 _atom_site_fract_x
 _atom_site_fract_y
 _atom_site_fract_z
 _atom_site_occupancy
  Li  Li0  1  0.50000002  0.50000000  0.50000000  1
  Li  Li1  1  0.05204100  0.05204100  0.84387698  1
  Li  Li2  1  0.94795904  0.94795901  0.15612302  1
  Li  Li3  1  0.13705001  0.13705000  0.58884999  1
  Li  Li4  1  0.86295003  0.86295001  0.41115001  1
  Li  Li5  1  0.24811001  0.24811000  0.25567000  1
  Cu  Cu6  1  0.75189003  0.75189001  0.74433000  1
  Fe  Fe7  1  0.35171001  0.35171000  0.94486999  1
  Fe  Fe8  1  0.64829002  0.64829001  0.05513001  1
  P  P9  1  0.00000000  0.00000000  0.00000000  1
  Ni  Ni10  1  0.20116801  0.20116800  0.39649600  1
  Ni  Ni11  1  0.79883203  0.79883201  0.60350401  1
  P  P12  1  0.40013102  0.40013100  0.79960699  1
  P  P13  1  0.59986902  0.59986901  0.20039301  1
