# generated using pymatgen
data_HoErAl2Si5
_symmetry_space_group_name_H-M   'P 1'
_cell_length_a   3.83965397
_cell_length_b   6.46944189
_cell_length_c   6.46944284
_cell_angle_alpha   119.99999237
_cell_angle_beta   90.00000000
_cell_angle_gamma   90.00000000
_symmetry_Int_Tables_number   1
_chemical_formula_structural   HoErAl2Si5
_chemical_formula_sum   'Ho1 Er1 Al2 Si5'
_cell_volume   139.17346792
_cell_formula_units_Z   1
loop_
 _symmetry_equiv_pos_site_id
 _symmetry_equiv_pos_as_xyz
  1  'x, y, z'
loop_
 _atom_site_type_symbol
 _atom_site_label
 _atom_site_symmetry_multiplicity
 _atom_site_fract_x
 _atom_site_fract_y
 _atom_site_fract_z
 _atom_site_occupancy
  Er  Er0  1  0.50000000  0.58479199  -0.00000004  1
  Ho  Ho1  1  0.50000000  0.41520799  0.41520796  1
  Al  Al2  1  0.50000000  0.00000000  0.58479199  1
  Al  Al3  1  -0.00000000  0.33333333  0.66666663  1
  Si  Si4  1  -0.00000000  0.66666665  0.33333328  1
  Si  Si5  1  0.50000000  0.00000000  -0.00000000  1
  Si  Si6  1  -0.00000000  0.24488699  0.99999997  1
  Si  Si7  1  -0.00000000  0.75511298  0.75511293  1
  Si  Si8  1  0.00000000  0.00000000  0.24488700  1
