# generated using pymatgen
data_NaLiCu5SeO11
_symmetry_space_group_name_H-M   'P 1'
_cell_length_a   6.98328590
_cell_length_b   6.98328590
_cell_length_c   6.98328590
_cell_angle_alpha   109.47122192
_cell_angle_beta   109.47122192
_cell_angle_gamma   109.47122192
_symmetry_Int_Tables_number   1
_chemical_formula_structural   NaLiCu5SeO11
_chemical_formula_sum   'Na1 Li1 Cu5 Se1 O11'
_cell_volume   262.15464508
_cell_formula_units_Z   1
loop_
 _symmetry_equiv_pos_site_id
 _symmetry_equiv_pos_as_xyz
  1  'x, y, z'
loop_
 _atom_site_type_symbol
 _atom_site_label
 _atom_site_symmetry_multiplicity
 _atom_site_fract_x
 _atom_site_fract_y
 _atom_site_fract_z
 _atom_site_occupancy
  Li  Li0  1  0.00000003  0.50000002  0.50000003  1
  Na  Na1  1  0.50000004  0.50000002  0.00000004  1
  Cu  Cu2  1  0.50000000  0.00000000  0.50000001  1
  Cu  Cu3  1  0.29535007  1.00000004  0.00000006  1
  Cu  Cu4  1  0.00000000  0.00000000  0.29535000  1
  Cu  Cu5  1  0.00000002  0.29535001  0.00000002  1
  Cu  Cu6  1  0.70465005  0.70465003  0.70465006  1
  Se  Se7  1  0.00000005  0.75809003  0.75809004  1
  O  O8  1  0.75809006  0.75809003  0.00000006  1
  O  O9  1  0.75809001  0.00000000  0.75809002  1
  O  O10  1  0.00000002  0.24191001  0.24191001  1
  O  O11  1  0.24191002  0.24191001  1.00000002  1
  O  O12  1  0.24191000  0.00000000  0.24191001  1
  O  O13  1  0.25000003  0.50000002  0.75000003  1
  O  O14  1  0.50000005  0.75000003  0.25000005  1
  O  O15  1  0.75000002  0.25000001  0.50000003  1
  O  O16  1  0.75000004  0.50000002  0.25000005  1
  O  O17  1  0.25000005  0.75000003  0.50000005  1
  O  O18  1  0.50000002  0.25000001  0.75000003  1
