# generated using pymatgen
data_NbO4
_symmetry_space_group_name_H-M   'P 1'
_cell_length_a   4.90073919
_cell_length_b   4.90073919
_cell_length_c   4.90073919
_cell_angle_alpha   109.47122192
_cell_angle_beta   109.47122192
_cell_angle_gamma   109.47122192
_symmetry_Int_Tables_number   1
_chemical_formula_structural   NbO4
_chemical_formula_sum   'Nb1 O4'
_cell_volume   90.60723159
_cell_formula_units_Z   1
loop_
 _symmetry_equiv_pos_site_id
 _symmetry_equiv_pos_as_xyz
  1  'x, y, z'
loop_
 _atom_site_type_symbol
 _atom_site_label
 _atom_site_symmetry_multiplicity
 _atom_site_fract_x
 _atom_site_fract_y
 _atom_site_fract_z
 _atom_site_occupancy
  O  O0  1  0.00000000  0.00000000  0.00000000  1
  Nb  Nb1  1  0.00000004  0.65037100  0.00000004  1
  O  O2  1  0.65037098  0.00000000  0.99999998  1
  O  O3  1  0.34962901  0.34962900  0.34962902  1
  O  O4  1  0.00000000  0.00000000  0.65037098  1
