# generated using pymatgen
data_YMgAlGa3Ge4
_symmetry_space_group_name_H-M   'P 1'
_cell_length_a   4.29070187
_cell_length_b   4.29070187
_cell_length_c   10.41949177
_cell_angle_alpha   90.00000000
_cell_angle_beta   90.00000000
_cell_angle_gamma   90.00000000
_symmetry_Int_Tables_number   1
_chemical_formula_structural   YMgAlGa3Ge4
_chemical_formula_sum   'Y1 Mg1 Al1 Ga3 Ge4'
_cell_volume   191.82411988
_cell_formula_units_Z   1
loop_
 _symmetry_equiv_pos_site_id
 _symmetry_equiv_pos_as_xyz
  1  'x, y, z'
loop_
 _atom_site_type_symbol
 _atom_site_label
 _atom_site_symmetry_multiplicity
 _atom_site_fract_x
 _atom_site_fract_y
 _atom_site_fract_z
 _atom_site_occupancy
  Y  Y0  1  0.50000002  0.00000000  0.25498801  1
  Mg  Mg1  1  0.00000000  0.50000002  0.74501202  1
  Ga  Ga2  1  0.00000000  0.00000000  0.50000001  1
  Al  Al3  1  0.50000002  0.00000000  0.87504302  1
  Ge  Ge4  1  0.00000000  0.50000002  0.12495700  1
  Ga  Ga5  1  0.50000002  0.50000002  0.50000001  1
  Ga  Ga6  1  0.50000002  0.50000002  0.00000000  1
  Ge  Ge7  1  0.00000000  0.00000000  0.00000000  1
  Ge  Ge8  1  0.50000002  0.00000000  0.63612501  1
  Ge  Ge9  1  0.00000000  0.50000002  0.36387501  1
