# generated using pymatgen
data_YEr3Ga4SiGe7
_symmetry_space_group_name_H-M   'P 1'
_cell_length_a   4.31858587
_cell_length_b   8.75357437
_cell_length_c   9.57634068
_cell_angle_alpha   117.19637299
_cell_angle_beta   103.03122711
_cell_angle_gamma   90.00000000
_symmetry_Int_Tables_number   1
_chemical_formula_structural   YEr3Ga4SiGe7
_chemical_formula_sum   'Y1 Er3 Ga4 Si1 Ge7'
_cell_volume   311.47405742
_cell_formula_units_Z   1
loop_
 _symmetry_equiv_pos_site_id
 _symmetry_equiv_pos_as_xyz
  1  'x, y, z'
loop_
 _atom_site_type_symbol
 _atom_site_label
 _atom_site_symmetry_multiplicity
 _atom_site_fract_x
 _atom_site_fract_y
 _atom_site_fract_z
 _atom_site_occupancy
  Er  Er0  1  0.79957002  0.29956998  0.59914002  1
  Er  Er1  1  1.00000003  0.73688295  1.00000001  1
  Y  Y2  1  0.20043000  0.70042995  0.40085997  1
  Er  Er3  1  1.00000003  0.26311698  1.00000004  1
  Ga  Ga4  1  0.79891102  0.94876793  0.59782197  1
  Ga  Ga5  1  0.20108901  0.05123200  0.40217802  1
  Ga  Ga6  1  0.20108900  0.35094597  0.40217800  1
  Ga  Ga7  1  0.79891102  0.64905395  0.59782199  1
  Si  Si8  1  0.42621101  0.42621097  0.85242201  1
  Ge  Ge9  1  0.57306302  0.07306299  0.14612601  1
  Ge  Ge10  1  0.42693700  0.92693693  0.85387398  1
  Ge  Ge11  1  0.57378901  0.57378896  0.14757798  1
  Ge  Ge12  1  0.64735502  0.39696497  0.29470999  1
  Ge  Ge13  1  0.35264500  0.60303496  0.70529000  1
  Ge  Ge14  1  0.35264601  0.10225599  0.70529103  1
  Ge  Ge15  1  0.64735401  0.89774393  0.29470896  1
