# generated using pymatgen
data_AlGa2GePd4
_symmetry_space_group_name_H-M   'P 1'
_cell_length_a   4.99841738
_cell_length_b   4.99841738
_cell_length_c   4.99841738
_cell_angle_alpha   90.11686707
_cell_angle_beta   90.11686707
_cell_angle_gamma   89.88313293
_symmetry_Int_Tables_number   1
_chemical_formula_structural   AlGa2GePd4
_chemical_formula_sum   'Al1 Ga2 Ge1 Pd4'
_cell_volume   124.88056259
_cell_formula_units_Z   1
loop_
 _symmetry_equiv_pos_site_id
 _symmetry_equiv_pos_as_xyz
  1  'x, y, z'
loop_
 _atom_site_type_symbol
 _atom_site_label
 _atom_site_symmetry_multiplicity
 _atom_site_fract_x
 _atom_site_fract_y
 _atom_site_fract_z
 _atom_site_occupancy
  Al  Al0  1  0.24999997  0.50303998  0.00304002  1
  Ga  Ga1  1  0.99695995  0.24999999  0.49696002  1
  Ge  Ge2  1  0.50303995  0.99695996  0.75000002  1
  Ga  Ga3  1  0.74999996  0.50278298  0.00278304  1
  Pd  Pd4  1  0.99721694  0.74999997  0.49721704  1
  Pd  Pd5  1  0.50278295  0.99721696  0.25000004  1
  Pd  Pd6  1  0.50365097  0.50365098  0.49634901  1
  Pd  Pd7  1  0.99634893  0.99634896  0.00365106  1
