# generated using pymatgen
data_K3Na2LiTlHgS2(ClO)2
_symmetry_space_group_name_H-M   'P 1'
_cell_length_a   4.06317616
_cell_length_b   6.97552395
_cell_length_c   13.08486080
_cell_angle_alpha   84.47233582
_cell_angle_beta   81.06797791
_cell_angle_gamma   73.06748199
_symmetry_Int_Tables_number   1
_chemical_formula_structural   K3Na2LiTlHgS2(ClO)2
_chemical_formula_sum   'K3 Na2 Li1 Tl1 Hg1 S2 Cl2 O2'
_cell_volume   349.96870227
_cell_formula_units_Z   1
loop_
 _symmetry_equiv_pos_site_id
 _symmetry_equiv_pos_as_xyz
  1  'x, y, z'
loop_
 _atom_site_type_symbol
 _atom_site_label
 _atom_site_symmetry_multiplicity
 _atom_site_fract_x
 _atom_site_fract_y
 _atom_site_fract_z
 _atom_site_occupancy
  Na  Na0  1  0.30594703  0.49999999  0.50000001  1
  K  K1  1  0.34148802  0.46544199  0.84675001  1
  K  K2  1  0.65368002  0.53455799  0.15325000  1
  Na  Na3  1  0.70387604  0.93550198  0.63556801  1
  K  K4  1  0.27494600  0.06449800  0.36443200  1
  Tl  Tl5  1  0.99931497  0.00000000  -0.00000001  1
  Li  Li6  1  0.66371303  0.74659498  0.92838301  1
  Hg  Hg7  1  0.33869101  0.25340499  0.07161700  1
  Cl  Cl8  1  0.99277098  0.21029000  0.80393400  1
  Cl  Cl9  1  0.00699506  0.78970998  0.19606601  1
  O  O10  1  0.35395003  0.63428599  0.65321601  1
  O  O11  1  0.64145201  0.36571399  0.34678400  1
  S  S12  1  0.14671801  0.19941900  0.54932001  1
  S  S13  1  0.89545703  0.80058098  0.45068000  1
