# generated using pymatgen
data_Li3NiO5
_symmetry_space_group_name_H-M   'P 1'
_cell_length_a   5.33833218
_cell_length_b   5.35760069
_cell_length_c   7.48787308
_cell_angle_alpha   108.51583862
_cell_angle_beta   108.32746124
_cell_angle_gamma   94.10606384
_symmetry_Int_Tables_number   1
_chemical_formula_structural   Li3NiO5
_chemical_formula_sum   'Li6 Ni2 O10'
_cell_volume   189.24191849
_cell_formula_units_Z   2
loop_
 _symmetry_equiv_pos_site_id
 _symmetry_equiv_pos_as_xyz
  1  'x, y, z'
loop_
 _atom_site_type_symbol
 _atom_site_label
 _atom_site_symmetry_multiplicity
 _atom_site_fract_x
 _atom_site_fract_y
 _atom_site_fract_z
 _atom_site_occupancy
  Li  Li0  1  0.16491103  0.54661803  0.12107602  1
  Li  Li1  1  0.52251299  0.15075401  0.86081101  1
  Li  Li2  1  0.48472205  0.95810205  0.47805504  1
  Li  Li3  1  0.77294800  0.45417102  0.70865802  1
  Li  Li4  1  0.00974100  0.00078900  0.01992400  1
  Li  Li5  1  0.98890103  0.99661005  0.50461803  1
  Ni  Ni6  1  0.66357600  0.37436302  0.26049701  1
  Ni  Ni7  1  0.33982403  0.62929103  0.76695003  1
  O  O8  1  0.27275005  0.79175604  0.62445904  1
  O  O9  1  0.72237199  0.24123701  0.42254600  1
  O  O10  1  0.32265901  0.32383902  0.65758002  1
  O  O11  1  0.14026004  0.65908403  0.88275304  1
  O  O12  1  0.86518699  0.32980002  0.14709500  1
  O  O13  1  0.37732900  0.25311501  0.09456200  1
  O  O14  1  0.67224102  0.67718903  0.36380902  1
  O  O15  1  0.63767803  0.73805203  0.90651504  1
  O  O16  1  0.82543997  0.10919401  0.74830200  1
  O  O17  1  0.14483006  0.89766904  0.27319904  1
