# generated using pymatgen
data_BeAl(B2N)2
_symmetry_space_group_name_H-M   'P 1'
_cell_length_a   2.91874003
_cell_length_b   2.91873908
_cell_length_c   12.39473438
_cell_angle_alpha   90.00000000
_cell_angle_beta   90.00000000
_cell_angle_gamma   120.00000763
_symmetry_Int_Tables_number   1
_chemical_formula_structural   BeAl(B2N)2
_chemical_formula_sum   'Be1 Al1 B4 N2'
_cell_volume   91.44469396
_cell_formula_units_Z   1
loop_
 _symmetry_equiv_pos_site_id
 _symmetry_equiv_pos_as_xyz
  1  'x, y, z'
loop_
 _atom_site_type_symbol
 _atom_site_label
 _atom_site_symmetry_multiplicity
 _atom_site_fract_x
 _atom_site_fract_y
 _atom_site_fract_z
 _atom_site_occupancy
  Al  Al0  1  0.00000000  0.00000000  0.00000000  1
  Be  Be1  1  0.00000000  0.00000000  0.49999998  1
  B  B2  1  0.33333330  0.66666667  0.24999999  1
  B  B3  1  0.66666665  0.33333333  0.74999998  1
  B  B4  1  0.66666665  0.33333333  0.57739498  1
  N  N5  1  0.33333330  0.66666667  0.07739500  1
  N  N6  1  0.66666665  0.33333333  0.92260497  1
  B  B7  1  0.33333330  0.66666667  0.42260499  1
