# generated using pymatgen
data_KUTlIn2Sn2Hg2Au5S2
_symmetry_space_group_name_H-M   'P 1'
_cell_length_a   4.33154202
_cell_length_b   7.52560472
_cell_length_c   20.63349724
_cell_angle_alpha   90.00000000
_cell_angle_beta   90.00000000
_cell_angle_gamma   106.72550964
_symmetry_Int_Tables_number   1
_chemical_formula_structural   KUTlIn2Sn2Hg2Au5S2
_chemical_formula_sum   'K1 U1 Tl1 In2 Sn2 Hg2 Au5 S2'
_cell_volume   644.14516898
_cell_formula_units_Z   1
loop_
 _symmetry_equiv_pos_site_id
 _symmetry_equiv_pos_as_xyz
  1  'x, y, z'
loop_
 _atom_site_type_symbol
 _atom_site_label
 _atom_site_symmetry_multiplicity
 _atom_site_fract_x
 _atom_site_fract_y
 _atom_site_fract_z
 _atom_site_occupancy
  K  K0  1  0.74496997  0.48994000  0.13549601  1
  U  U1  1  0.25502997  0.51006000  0.63549602  1
  Tl  Tl2  1  0.94370795  0.88741601  0.49619802  1
  Hg  Hg3  1  0.05629199  0.11258400  0.99619804  1
  Hg  Hg4  1  0.70521998  0.41044000  0.98890704  1
  In  In5  1  0.29477997  0.58956000  0.48890702  1
  Au  Au6  1  0.98382595  0.96765201  0.34900401  1
  Au  Au7  1  0.01617400  0.03234800  0.84900403  1
  In  In8  1  0.65911798  0.31823600  0.80433003  1
  Au  Au9  1  0.34088196  0.68176401  0.30433001  1
  Au  Au10  1  0.61868599  0.23737200  0.37538301  1
  Au  Au11  1  0.38131396  0.76262801  0.87538303  1
  Sn  Sn12  1  0.88290596  0.76581201  0.67407502  1
  S  S13  1  0.11709399  0.23418800  0.17407501  1
  Sn  Sn14  1  0.62413699  0.24827400  0.60170802  1
  S  S15  1  0.37586296  0.75172601  0.10170800  1
