# generated using pymatgen
data_LaYIn2Au
_symmetry_space_group_name_H-M   'P 1'
_cell_length_a   4.78954411
_cell_length_b   4.78954506
_cell_length_c   7.70025015
_cell_angle_alpha   90.00000000
_cell_angle_beta   90.00000000
_cell_angle_gamma   119.99999237
_symmetry_Int_Tables_number   1
_chemical_formula_structural   LaYIn2Au
_chemical_formula_sum   'La1 Y1 In2 Au1'
_cell_volume   152.97622484
_cell_formula_units_Z   1
loop_
 _symmetry_equiv_pos_site_id
 _symmetry_equiv_pos_as_xyz
  1  'x, y, z'
loop_
 _atom_site_type_symbol
 _atom_site_label
 _atom_site_symmetry_multiplicity
 _atom_site_fract_x
 _atom_site_fract_y
 _atom_site_fract_z
 _atom_site_occupancy
  Y  Y0  1  0.00000000  0.00000000  0.00000000  1
  La  La1  1  0.66666665  0.33333333  0.62955799  1
  In  In2  1  0.33333332  0.66666666  0.37044199  1
  In  In3  1  0.66666665  0.33333333  0.23865800  1
  Au  Au4  1  0.33333332  0.66666666  0.76134199  1
