# generated using pymatgen
data_KNa5SrCu(HgO4)2
_symmetry_space_group_name_H-M   'P 1'
_cell_length_a   5.84913778
_cell_length_b   5.84913778
_cell_length_c   8.36025143
_cell_angle_alpha   90.00000000
_cell_angle_beta   90.00000000
_cell_angle_gamma   90.00000000
_symmetry_Int_Tables_number   1
_chemical_formula_structural   KNa5SrCu(HgO4)2
_chemical_formula_sum   'K1 Na5 Sr1 Cu1 Hg2 O8'
_cell_volume   286.02437296
_cell_formula_units_Z   1
loop_
 _symmetry_equiv_pos_site_id
 _symmetry_equiv_pos_as_xyz
  1  'x, y, z'
loop_
 _atom_site_type_symbol
 _atom_site_label
 _atom_site_symmetry_multiplicity
 _atom_site_fract_x
 _atom_site_fract_y
 _atom_site_fract_z
 _atom_site_occupancy
  Na  Na0  1  0.50000002  0.50000002  0.00000000  1
  Sr  Sr1  1  0.00000000  0.00000000  0.00000000  1
  Na  Na2  1  0.50000002  0.00000000  0.24106699  1
  Na  Na3  1  0.00000000  0.50000002  0.75893296  1
  Hg  Hg4  1  0.50000002  0.50000002  0.49999997  1
  K  K5  1  0.00000000  0.00000000  0.49999997  1
  Na  Na6  1  0.00000000  0.50000002  0.25399699  1
  Cu  Cu7  1  0.50000002  0.00000000  0.74600296  1
  O  O8  1  0.00000000  0.50000002  0.03192800  1
  Na  Na9  1  0.77157203  0.27157201  0.32469398  1
  O  O10  1  0.22842801  0.27157201  0.32469398  1
  Hg  Hg11  1  0.77157203  0.72842803  0.32469398  1
  O  O12  1  0.22842801  0.72842803  0.32469398  1
  O  O13  1  0.27157201  0.77157203  0.67530597  1
  O  O14  1  0.72842803  0.77157203  0.67530597  1
  O  O15  1  0.27157201  0.22842801  0.67530597  1
  O  O16  1  0.72842803  0.22842801  0.67530597  1
  O  O17  1  0.50000002  0.00000000  0.96807195  1
