# generated using pymatgen
data_PrY4AlGa5Si3Ge4
_symmetry_space_group_name_H-M   'P 1'
_cell_length_a   4.19687986
_cell_length_b   4.28643084
_cell_length_c   21.91873741
_cell_angle_alpha   95.61135101
_cell_angle_beta   95.49375916
_cell_angle_gamma   90.00000000
_symmetry_Int_Tables_number   1
_chemical_formula_structural   PrY4AlGa5Si3Ge4
_chemical_formula_sum   'Pr1 Y4 Al1 Ga5 Si3 Ge4'
_cell_volume   390.60060362
_cell_formula_units_Z   1
loop_
 _symmetry_equiv_pos_site_id
 _symmetry_equiv_pos_as_xyz
  1  'x, y, z'
loop_
 _atom_site_type_symbol
 _atom_site_label
 _atom_site_symmetry_multiplicity
 _atom_site_fract_x
 _atom_site_fract_y
 _atom_site_fract_z
 _atom_site_occupancy
  Y  Y0  1  0.95821704  0.20821801  0.91643500  1
  Y  Y1  1  0.29079102  0.54079002  0.58158100  1
  Y  Y2  1  0.62415103  0.87415204  0.24830301  1
  Y  Y3  1  0.37630402  0.12630401  0.75260800  1
  Pr  Pr4  1  0.70916603  0.45916702  0.41833301  1
  Ga  Ga5  1  0.04120801  0.79120803  0.08241600  1
  Ga  Ga6  1  0.81996803  0.06996800  0.63993600  1
  Al  Al7  1  0.15313501  0.40313402  0.30626900  1
  Si  Si8  1  0.43082102  0.68082103  0.86164200  1
  Ga  Ga9  1  0.76396603  0.01396600  0.52793200  1
  Ga  Ga10  1  0.09703501  0.34703501  0.19407000  1
  Ga  Ga11  1  0.84747904  0.59747902  0.69495801  1
  Ge  Ge12  1  0.18060802  0.93060804  0.36121600  1
  Si  Si13  1  0.51367302  0.26367301  0.02734601  1
  Si  Si14  1  0.90271104  0.65271003  0.80542101  1
  Ge  Ge15  1  0.23560502  0.98560504  0.47121000  1
  Ge  Ge16  1  0.56897502  0.31897601  0.13795101  1
  Ge  Ge17  1  0.48618703  0.73618803  0.97237500  1
