# generated using pymatgen
data_ErSc(InAu2)2
_symmetry_space_group_name_H-M   'P 1'
_cell_length_a   4.63185310
_cell_length_b   6.27407980
_cell_length_c   6.27407932
_cell_angle_alpha   120.00000000
_cell_angle_beta   90.00000000
_cell_angle_gamma   90.00000000
_symmetry_Int_Tables_number   1
_chemical_formula_structural   ErSc(InAu2)2
_chemical_formula_sum   'Er1 Sc1 In2 Au4'
_cell_volume   157.90120802
_cell_formula_units_Z   1
loop_
 _symmetry_equiv_pos_site_id
 _symmetry_equiv_pos_as_xyz
  1  'x, y, z'
loop_
 _atom_site_type_symbol
 _atom_site_label
 _atom_site_symmetry_multiplicity
 _atom_site_fract_x
 _atom_site_fract_y
 _atom_site_fract_z
 _atom_site_occupancy
  Er  Er0  1  0.24999999  0.66666667  0.33333330  1
  Sc  Sc1  1  0.74999998  0.33333333  0.66666666  1
  In  In2  1  0.74999998  0.85361000  0.14638895  1
  In  In3  1  0.74999998  0.29277900  0.14638898  1
  Au  Au4  1  0.74999998  0.85361000  0.70721996  1
  Au  Au5  1  0.24999999  0.14639000  0.85361100  1
  Au  Au6  1  0.24999999  0.70722100  0.85361097  1
  Au  Au7  1  0.24999999  0.14639000  0.29278000  1
