# generated using pymatgen
data_Cs4Ba2SeS5Br2
_symmetry_space_group_name_H-M   'P 1'
_cell_length_a   4.34670019
_cell_length_b   9.43825626
_cell_length_c   12.69798851
_cell_angle_alpha   93.10575104
_cell_angle_beta   90.00000000
_cell_angle_gamma   90.00000000
_symmetry_Int_Tables_number   1
_chemical_formula_structural   Cs4Ba2SeS5Br2
_chemical_formula_sum   'Cs4 Ba2 Se1 S5 Br2'
_cell_volume   520.17327603
_cell_formula_units_Z   1
loop_
 _symmetry_equiv_pos_site_id
 _symmetry_equiv_pos_as_xyz
  1  'x, y, z'
loop_
 _atom_site_type_symbol
 _atom_site_label
 _atom_site_symmetry_multiplicity
 _atom_site_fract_x
 _atom_site_fract_y
 _atom_site_fract_z
 _atom_site_occupancy
  Ba  Ba0  1  0.24999999  0.30900599  0.11796800  1
  Cs  Cs1  1  0.74999997  0.69099398  0.88203198  1
  Cs  Cs2  1  0.74999997  0.11541800  0.33027399  1
  Ba  Ba3  1  0.24999999  0.88458197  0.66972598  1
  Cs  Cs4  1  0.74999997  0.09619000  0.89174699  1
  Cs  Cs5  1  0.24999999  0.90380997  0.10825299  1
  S  S6  1  0.74999997  0.10975500  0.12011900  1
  Se  Se7  1  0.24999999  0.89024497  0.87988098  1
  Br  Br8  1  0.74999997  0.13171800  0.61813099  1
  S  S9  1  0.24999999  0.86828198  0.38186899  1
  S  S10  1  0.24999999  0.36528899  0.37595499  1
  Br  Br11  1  0.74999997  0.63471098  0.62404499  1
  S  S12  1  0.74999997  0.60504098  0.13322499  1
  S  S13  1  0.24999999  0.39495899  0.86677498  1
