# generated using pymatgen
data_TiAlInSnPd3Au
_symmetry_space_group_name_H-M   'P 1'
_cell_length_a   5.21301222
_cell_length_b   5.21301222
_cell_length_c   5.21301222
_cell_angle_alpha   90.00000000
_cell_angle_beta   90.00000000
_cell_angle_gamma   90.00000000
_symmetry_Int_Tables_number   1
_chemical_formula_structural   TiAlInSnPd3Au
_chemical_formula_sum   'Ti1 Al1 In1 Sn1 Pd3 Au1'
_cell_volume   141.66619472
_cell_formula_units_Z   1
loop_
 _symmetry_equiv_pos_site_id
 _symmetry_equiv_pos_as_xyz
  1  'x, y, z'
loop_
 _atom_site_type_symbol
 _atom_site_label
 _atom_site_symmetry_multiplicity
 _atom_site_fract_x
 _atom_site_fract_y
 _atom_site_fract_z
 _atom_site_occupancy
  Ti  Ti0  1  0.83979096  0.83979096  0.83979096  1
  Al  Al1  1  0.66020897  0.16020899  0.33979099  1
  In  In2  1  0.33979099  0.66020897  0.16020899  1
  Sn  Sn3  1  0.16020899  0.33979099  0.66020897  1
  Au  Au4  1  0.14352299  0.14352299  0.14352299  1
  Pd  Pd5  1  0.35647699  0.85647696  0.64352297  1
  Pd  Pd6  1  0.64352297  0.35647699  0.85647696  1
  Pd  Pd7  1  0.85647696  0.64352297  0.35647699  1
