# generated using pymatgen
data_BaSr2LiCu4AsP3
_symmetry_space_group_name_H-M   'P 1'
_cell_length_a   6.11823320
_cell_length_b   6.15417814
_cell_length_c   6.96235943
_cell_angle_alpha   90.00000000
_cell_angle_beta   109.63137054
_cell_angle_gamma   90.00000000
_symmetry_Int_Tables_number   1
_chemical_formula_structural   BaSr2LiCu4AsP3
_chemical_formula_sum   'Ba1 Sr2 Li1 Cu4 As1 P3'
_cell_volume   246.91369288
_cell_formula_units_Z   1
loop_
 _symmetry_equiv_pos_site_id
 _symmetry_equiv_pos_as_xyz
  1  'x, y, z'
loop_
 _atom_site_type_symbol
 _atom_site_label
 _atom_site_symmetry_multiplicity
 _atom_site_fract_x
 _atom_site_fract_y
 _atom_site_fract_z
 _atom_site_occupancy
  Li  Li0  1  0.30516899  0.64006499  0.10603001  1
  Ba  Ba1  1  0.19483100  0.14006500  0.39397001  1
  Sr  Sr2  1  0.69483099  0.35993499  0.89397003  1
  Sr  Sr3  1  0.80516898  0.85993498  0.60603003  1
  Cu  Cu4  1  0.43720299  0.90571598  0.82374602  1
  Cu  Cu5  1  0.06279700  0.40571599  0.67625401  1
  Cu  Cu6  1  0.56279699  0.09428400  0.17625402  1
  Cu  Cu7  1  0.93720298  0.59428399  0.32374603  1
  P  P8  1  0.80512698  0.85625998  0.07209803  1
  P  P9  1  0.69487299  0.35625999  0.42790203  1
  As  As10  1  0.19487300  0.14374000  0.92790202  1
  P  P11  1  0.30512699  0.64373999  0.57209802  1
