# generated using pymatgen
data_Li3MgZn2Cu
_symmetry_space_group_name_H-M   'P 1'
_cell_length_a   4.69896507
_cell_length_b   4.69896507
_cell_length_c   7.38136387
_cell_angle_alpha   71.43989563
_cell_angle_beta   71.43989563
_cell_angle_gamma   60.00001144
_symmetry_Int_Tables_number   1
_chemical_formula_structural   Li3MgZn2Cu
_chemical_formula_sum   'Li3 Mg1 Zn2 Cu1'
_cell_volume   131.26780109
_cell_formula_units_Z   1
loop_
 _symmetry_equiv_pos_site_id
 _symmetry_equiv_pos_as_xyz
  1  'x, y, z'
loop_
 _atom_site_type_symbol
 _atom_site_label
 _atom_site_symmetry_multiplicity
 _atom_site_fract_x
 _atom_site_fract_y
 _atom_site_fract_z
 _atom_site_occupancy
  Li  Li0  1  0.65050603  0.65050602  0.04848198  1
  Li  Li1  1  0.34698502  0.34698501  0.95904498  1
  Mg  Mg2  1  0.50218502  0.50218501  0.49344498  1
  Li  Li3  1  0.79067204  0.79067202  0.62798397  1
  Zn  Zn4  1  0.20892401  0.20892401  0.37322799  1
  Zn  Zn5  1  0.07244200  0.07244200  0.78267399  1
  Cu  Cu6  1  0.92828604  0.92828603  0.21514197  1
