# generated using pymatgen
data_Mn2GaFe14Si3
_symmetry_space_group_name_H-M   'P 1'
_cell_length_a   3.59980893
_cell_length_b   3.59980893
_cell_length_c   17.86257553
_cell_angle_alpha   90.00000000
_cell_angle_beta   90.00000000
_cell_angle_gamma   90.00000000
_symmetry_Int_Tables_number   1
_chemical_formula_structural   Mn2GaFe14Si3
_chemical_formula_sum   'Mn2 Ga1 Fe14 Si3'
_cell_volume   231.47440609
_cell_formula_units_Z   1
loop_
 _symmetry_equiv_pos_site_id
 _symmetry_equiv_pos_as_xyz
  1  'x, y, z'
loop_
 _atom_site_type_symbol
 _atom_site_label
 _atom_site_symmetry_multiplicity
 _atom_site_fract_x
 _atom_site_fract_y
 _atom_site_fract_z
 _atom_site_occupancy
  Mn  Mn0  1  0.00000000  0.00000000  0.20545101  1
  Fe  Fe1  1  0.00000000  0.00000000  0.40078901  1
  Mn  Mn2  1  0.00000000  0.00000000  0.59921102  1
  Fe  Fe3  1  0.00000000  0.00000000  0.79454902  1
  Fe  Fe4  1  0.50000001  0.50000001  0.00000000  1
  Fe  Fe5  1  0.50000001  0.50000001  0.20396401  1
  Fe  Fe6  1  0.50000001  0.50000001  0.40074101  1
  Fe  Fe7  1  0.50000001  0.50000001  0.59925902  1
  Fe  Fe8  1  0.50000001  0.50000001  0.79603602  1
  Fe  Fe9  1  0.50000001  0.00000000  0.10624400  1
  Ga  Ga10  1  0.50000001  0.00000000  0.30262001  1
  Fe  Fe11  1  0.50000001  0.00000000  0.50000001  1
  Fe  Fe12  1  0.50000001  0.00000000  0.69738002  1
  Fe  Fe13  1  0.50000001  0.00000000  0.89375602  1
  Si  Si14  1  -0.00000000  0.50000001  0.10624400  1
  Si  Si15  1  -0.00000000  0.50000001  0.30262001  1
  Fe  Fe16  1  -0.00000000  0.50000001  0.50000001  1
  Si  Si17  1  -0.00000000  0.50000001  0.69738002  1
  Fe  Fe18  1  -0.00000000  0.50000001  0.89375602  1
  Fe  Fe19  1  0.00000000  0.00000000  0.00000000  1
