# generated using pymatgen
data_K3Cl2O
_symmetry_space_group_name_H-M   'P 1'
_cell_length_a   4.08008003
_cell_length_b   7.32530260
_cell_length_c   10.41967869
_cell_angle_alpha   98.30326080
_cell_angle_beta   101.29071808
_cell_angle_gamma   90.00000000
_symmetry_Int_Tables_number   1
_chemical_formula_structural   K3Cl2O
_chemical_formula_sum   'K6 Cl4 O2'
_cell_volume   302.06477745
_cell_formula_units_Z   2
loop_
 _symmetry_equiv_pos_site_id
 _symmetry_equiv_pos_as_xyz
  1  'x, y, z'
loop_
 _atom_site_type_symbol
 _atom_site_label
 _atom_site_symmetry_multiplicity
 _atom_site_fract_x
 _atom_site_fract_y
 _atom_site_fract_z
 _atom_site_occupancy
  K  K0  1  0.64595200  0.05452900  0.29190400  1
  K  K1  1  0.35404801  0.94547100  0.70809598  1
  K  K2  1  0.71341401  0.42582600  0.42682800  1
  K  K3  1  0.28658601  0.57417400  0.57317198  1
  K  K4  1  0.04877700  0.14936500  0.09755400  1
  K  K5  1  0.95122301  0.85063500  0.90244598  1
  O  O6  1  0.75057601  0.78553800  0.50115199  1
  Cl  Cl7  1  0.91861200  0.17990600  0.83722399  1
  Cl  Cl8  1  0.58362000  0.36481700  0.16724000  1
  O  O9  1  0.24942400  0.21446200  0.49884799  1
  Cl  Cl10  1  0.41638001  0.63518300  0.83275997  1
  Cl  Cl11  1  0.08138801  0.82009400  0.16277599  1
