# generated using pymatgen
data_Na2Cu6GeSe4S3
_symmetry_space_group_name_H-M   'P 1'
_cell_length_a   3.85514927
_cell_length_b   3.85514927
_cell_length_c   25.25140572
_cell_angle_alpha   85.62205505
_cell_angle_beta   85.62205505
_cell_angle_gamma   60.00001144
_symmetry_Int_Tables_number   1
_chemical_formula_structural   Na2Cu6GeSe4S3
_chemical_formula_sum   'Na2 Cu6 Ge1 Se4 S3'
_cell_volume   323.74639524
_cell_formula_units_Z   1
loop_
 _symmetry_equiv_pos_site_id
 _symmetry_equiv_pos_as_xyz
  1  'x, y, z'
loop_
 _atom_site_type_symbol
 _atom_site_label
 _atom_site_symmetry_multiplicity
 _atom_site_fract_x
 _atom_site_fract_y
 _atom_site_fract_z
 _atom_site_occupancy
  Na  Na0  1  0.29167900  0.29167900  0.12496300  1
  Na  Na1  1  0.70834501  0.70834501  0.87496498  1
  Cu  Cu2  1  0.41667400  0.41667401  0.74997799  1
  Cu  Cu3  1  0.54167200  0.54167201  0.37498399  1
  Cu  Cu4  1  0.00002300  0.00002300  0.99993098  1
  Cu  Cu5  1  0.83334201  0.83334201  0.49997399  1
  Cu  Cu6  1  0.91668501  0.91668501  0.24994500  1
  Ge  Ge7  1  0.12501000  0.12501000  0.62496999  1
  Cu  Cu8  1  0.57292500  0.57292501  0.28122500  1
  Se  Se9  1  0.15623900  0.15623900  0.53128299  1
  Se  Se10  1  0.73957401  0.73957401  0.78127799  1
  Se  Se11  1  0.86455101  0.86455101  0.40634700  1
  Se  Se12  1  0.44790300  0.44790301  0.65629099  1
  S  S13  1  0.32292900  0.32292901  0.03121300  1
  S  S14  1  0.03124000  0.03124000  0.90627998  1
  S  S15  1  0.94788301  0.94788301  0.15635100  1
