# generated using pymatgen
data_Li2MnO3
_symmetry_space_group_name_H-M   'P 1'
_cell_length_a   5.21101761
_cell_length_b   5.21111727
_cell_length_c   5.21124983
_cell_angle_alpha   99.74087524
_cell_angle_beta   119.82876587
_cell_angle_gamma   99.73899078
_symmetry_Int_Tables_number   1
_chemical_formula_structural   Li2MnO3
_chemical_formula_sum   'Li4 Mn2 O6'
_cell_volume   115.56222750
_cell_formula_units_Z   2
loop_
 _symmetry_equiv_pos_site_id
 _symmetry_equiv_pos_as_xyz
  1  'x, y, z'
loop_
 _atom_site_type_symbol
 _atom_site_label
 _atom_site_symmetry_multiplicity
 _atom_site_fract_x
 _atom_site_fract_y
 _atom_site_fract_z
 _atom_site_occupancy
  Li  Li0  1  0.16666703  0.49999901  0.83331803  1
  Li  Li1  1  0.83423300  0.49998601  0.16575498  1
  Li  Li2  1  0.66684805  0.99999102  0.33315204  1
  Li  Li3  1  0.00235900  0.00003400  0.99773600  1
  Mn  Mn4  1  0.33067606  0.99998002  0.66922107  1
  Mn  Mn5  1  0.49870902  0.50001901  0.50131001  1
  O  O6  1  0.43085700  0.23378000  0.09824399  1
  O  O7  1  0.90178202  0.76622302  0.56919300  1
  O  O8  1  0.25763005  0.75958902  0.28019605  1
  O  O9  1  0.08121801  0.24233101  0.39075702  1
  O  O10  1  0.60926103  0.75768502  0.91879602  1
  O  O11  1  0.71975999  0.24038301  0.74232297  1
