# generated using pymatgen
data_Mn2Al2Fe3Si5
_symmetry_space_group_name_H-M   'P 1'
_cell_length_a   3.76615000
_cell_length_b   6.30413294
_cell_length_c   7.11129379
_cell_angle_alpha   90.00000000
_cell_angle_beta   90.00000000
_cell_angle_gamma   90.00000000
_symmetry_Int_Tables_number   1
_chemical_formula_structural   Mn2Al2Fe3Si5
_chemical_formula_sum   'Mn2 Al2 Fe3 Si5'
_cell_volume   168.83854352
_cell_formula_units_Z   1
loop_
 _symmetry_equiv_pos_site_id
 _symmetry_equiv_pos_as_xyz
  1  'x, y, z'
loop_
 _atom_site_type_symbol
 _atom_site_label
 _atom_site_symmetry_multiplicity
 _atom_site_fract_x
 _atom_site_fract_y
 _atom_site_fract_z
 _atom_site_occupancy
  Mn  Mn0  1  0.25000000  0.02185500  0.32024201  1
  Al  Al1  1  0.25000000  0.52185501  0.17975801  1
  Al  Al2  1  0.75000000  0.97814501  0.67975802  1
  Mn  Mn3  1  0.75000000  0.47814500  0.82024202  1
  Fe  Fe4  1  0.25000000  0.14136500  0.93790503  1
  Fe  Fe5  1  0.25000000  0.64136501  0.56209502  1
  Si  Si6  1  0.75000000  0.85863501  0.06209500  1
  Fe  Fe7  1  0.75000000  0.35863500  0.43790501  1
  Si  Si8  1  0.25000000  0.27235700  0.62015702  1
  Si  Si9  1  0.25000000  0.77235701  0.87984303  1
  Si  Si10  1  0.75000000  0.72764301  0.37984301  1
  Si  Si11  1  0.75000000  0.22764300  0.12015700  1
