# generated using pymatgen
data_MgAlGa
_symmetry_space_group_name_H-M   'P 1'
_cell_length_a   3.62746310
_cell_length_b   4.48095417
_cell_length_c   4.48233080
_cell_angle_alpha   119.98579407
_cell_angle_beta   90.00000000
_cell_angle_gamma   90.00000000
_symmetry_Int_Tables_number   1
_chemical_formula_structural   MgAlGa
_chemical_formula_sum   'Mg1 Al1 Ga1'
_cell_volume   63.10593311
_cell_formula_units_Z   1
loop_
 _symmetry_equiv_pos_site_id
 _symmetry_equiv_pos_as_xyz
  1  'x, y, z'
loop_
 _atom_site_type_symbol
 _atom_site_label
 _atom_site_symmetry_multiplicity
 _atom_site_fract_x
 _atom_site_fract_y
 _atom_site_fract_z
 _atom_site_occupancy
  Al  Al0  1  -0.00000000  0.99954194  0.99948200  1
  Mg  Mg1  1  0.49999999  0.33344998  0.66689302  1
  Ga  Ga2  1  0.49999999  0.66700796  0.33372499  1
