# generated using pymatgen
data_MnAl2B2C2N
_symmetry_space_group_name_H-M   'P 1'
_cell_length_a   2.90057802
_cell_length_b   2.90057874
_cell_length_c   10.25177479
_cell_angle_alpha   90.00000000
_cell_angle_beta   90.00000000
_cell_angle_gamma   119.99999237
_symmetry_Int_Tables_number   1
_chemical_formula_structural   MnAl2B2C2N
_chemical_formula_sum   'Mn1 Al2 B2 C2 N1'
_cell_volume   74.69627300
_cell_formula_units_Z   1
loop_
 _symmetry_equiv_pos_site_id
 _symmetry_equiv_pos_as_xyz
  1  'x, y, z'
loop_
 _atom_site_type_symbol
 _atom_site_label
 _atom_site_symmetry_multiplicity
 _atom_site_fract_x
 _atom_site_fract_y
 _atom_site_fract_z
 _atom_site_occupancy
  Al  Al0  1  0.66666666  0.33333332  0.75963702  1
  Mn  Mn1  1  0.33333333  0.66666665  0.25963701  1
  Al  Al2  1  0.66666666  0.33333332  0.50028801  1
  B  B3  1  0.33333333  0.66666665  0.00028800  1
  B  B4  1  0.66666666  0.33333332  0.11686100  1
  N  N5  1  0.00000000  0.00000000  0.88215402  1
  C  C6  1  0.00000000  0.00000000  0.38215401  1
  C  C7  1  0.33333333  0.66666665  0.61686101  1
