# generated using pymatgen
data_TaCuPd6
_symmetry_space_group_name_H-M   'P 1'
_cell_length_a   4.65106201
_cell_length_b   5.69844818
_cell_length_c   5.69844818
_cell_angle_alpha   60.00000000
_cell_angle_beta   90.00000000
_cell_angle_gamma   90.00000000
_symmetry_Int_Tables_number   1
_chemical_formula_structural   TaCuPd6
_chemical_formula_sum   'Ta1 Cu1 Pd6'
_cell_volume   130.79645348
_cell_formula_units_Z   1
loop_
 _symmetry_equiv_pos_site_id
 _symmetry_equiv_pos_as_xyz
  1  'x, y, z'
loop_
 _atom_site_type_symbol
 _atom_site_label
 _atom_site_symmetry_multiplicity
 _atom_site_fract_x
 _atom_site_fract_y
 _atom_site_fract_z
 _atom_site_occupancy
  Ta  Ta0  1  0.25000000  0.66040599  0.16979698  1
  Pd  Pd1  1  0.75000000  0.83020298  0.33959398  1
  Cu  Cu2  1  0.75000000  0.33959399  0.83020300  1
  Pd  Pd3  1  0.25000000  0.16979700  0.66040600  1
  Pd  Pd4  1  0.25000000  0.16979700  0.16979700  1
  Pd  Pd5  1  0.75000000  0.83020298  0.83020298  1
  Pd  Pd6  1  0.25000000  0.66666665  0.66666665  1
  Pd  Pd7  1  0.75000000  0.33333333  0.33333333  1
