# generated using pymatgen
data_TaCuPd6
_symmetry_space_group_name_H-M   'P 1'
_cell_length_a   4.35779095
_cell_length_b   5.46585989
_cell_length_c   5.46586037
_cell_angle_alpha   60.00000381
_cell_angle_beta   90.00000000
_cell_angle_gamma   90.00000000
_symmetry_Int_Tables_number   1
_chemical_formula_structural   TaCuPd6
_chemical_formula_sum   'Ta1 Cu1 Pd6'
_cell_volume   112.74935562
_cell_formula_units_Z   1
loop_
 _symmetry_equiv_pos_site_id
 _symmetry_equiv_pos_as_xyz
  1  'x, y, z'
loop_
 _atom_site_type_symbol
 _atom_site_label
 _atom_site_symmetry_multiplicity
 _atom_site_fract_x
 _atom_site_fract_y
 _atom_site_fract_z
 _atom_site_occupancy
  Ta  Ta0  1  0.25000000  0.33333333  0.33333334  1
  Cu  Cu1  1  0.75000001  0.66666667  0.66666669  1
  Pd  Pd2  1  0.75000001  0.66499400  0.16750302  1
  Pd  Pd3  1  0.75000001  0.16750300  0.16750300  1
  Pd  Pd4  1  0.75000001  0.16750300  0.66499400  1
  Pd  Pd5  1  0.25000000  0.33500600  0.83249701  1
  Pd  Pd6  1  0.25000000  0.83249700  0.83249702  1
  Pd  Pd7  1  0.25000000  0.83249700  0.33500603  1
