# generated using pymatgen
data_Sc(AlGa2)3
_symmetry_space_group_name_H-M   'P 1'
_cell_length_a   3.66741991
_cell_length_b   7.25685978
_cell_length_c   7.25685978
_cell_angle_alpha   90.00000000
_cell_angle_beta   90.00000000
_cell_angle_gamma   90.00000000
_symmetry_Int_Tables_number   1
_chemical_formula_structural   Sc(AlGa2)3
_chemical_formula_sum   'Sc1 Al3 Ga6'
_cell_volume   193.13371814
_cell_formula_units_Z   1
loop_
 _symmetry_equiv_pos_site_id
 _symmetry_equiv_pos_as_xyz
  1  'x, y, z'
loop_
 _atom_site_type_symbol
 _atom_site_label
 _atom_site_symmetry_multiplicity
 _atom_site_fract_x
 _atom_site_fract_y
 _atom_site_fract_z
 _atom_site_occupancy
  Al  Al0  1  0.50000001  0.67436802  0.17436801  1
  Sc  Sc1  1  0.50000001  0.32563201  0.82563203  1
  Ga  Ga2  1  0.50000001  0.17436801  0.32563201  1
  Al  Al3  1  0.50000001  0.82563203  0.67436802  1
  Ga  Ga4  1  1.00000002  0.87889703  0.37889701  1
  Al  Al5  1  -0.00000000  0.12110300  0.62110302  1
  Ga  Ga6  1  0.00000000  0.37889701  0.12110300  1
  Ga  Ga7  1  0.00000000  0.62110302  0.87889703  1
  Ga  Ga8  1  0.00000000  0.50000002  0.50000002  1
  Ga  Ga9  1  0.00000000  0.00000000  0.00000000  1
