# generated using pymatgen
data_YGaGe2
_symmetry_space_group_name_H-M   'P 1'
_cell_length_a   4.44734097
_cell_length_b   4.44734097
_cell_length_c   9.93492985
_cell_angle_alpha   90.00000000
_cell_angle_beta   90.00000000
_cell_angle_gamma   90.00000000
_symmetry_Int_Tables_number   1
_chemical_formula_structural   YGaGe2
_chemical_formula_sum   'Y2 Ga2 Ge4'
_cell_volume   196.50140437
_cell_formula_units_Z   2
loop_
 _symmetry_equiv_pos_site_id
 _symmetry_equiv_pos_as_xyz
  1  'x, y, z'
loop_
 _atom_site_type_symbol
 _atom_site_label
 _atom_site_symmetry_multiplicity
 _atom_site_fract_x
 _atom_site_fract_y
 _atom_site_fract_z
 _atom_site_occupancy
  Y  Y0  1  0.00000000  0.50000000  0.74049901  1
  Y  Y1  1  0.50000000  0.00000000  0.25950100  1
  Ga  Ga2  1  0.50000000  0.50000000  0.50000001  1
  Ga  Ga3  1  0.00000000  0.00000000  0.50000001  1
  Ge  Ge4  1  0.50000000  0.50000000  -0.00000000  1
  Ge  Ge5  1  0.00000000  0.00000000  0.00000000  1
  Ge  Ge6  1  0.00000000  0.50000000  0.37260701  1
  Ge  Ge7  1  0.50000000  0.00000000  0.62739301  1
