# generated using pymatgen
data_Li2Cu2PO15
_symmetry_space_group_name_H-M   'P 1'
_cell_length_a   4.83687735
_cell_length_b   7.03519773
_cell_length_c   8.16856480
_cell_angle_alpha   87.38210297
_cell_angle_beta   88.63253021
_cell_angle_gamma   73.45026398
_symmetry_Int_Tables_number   1
_chemical_formula_structural   Li2Cu2PO15
_chemical_formula_sum   'Li2 Cu2 P1 O15'
_cell_volume   266.15269507
_cell_formula_units_Z   1
loop_
 _symmetry_equiv_pos_site_id
 _symmetry_equiv_pos_as_xyz
  1  'x, y, z'
loop_
 _atom_site_type_symbol
 _atom_site_label
 _atom_site_symmetry_multiplicity
 _atom_site_fract_x
 _atom_site_fract_y
 _atom_site_fract_z
 _atom_site_occupancy
  Li  Li0  1  0.78603197  0.73175002  0.00398301  1
  Li  Li1  1  0.21000599  0.27669601  0.50447303  1
  Cu  Cu2  1  0.39034898  0.49426401  0.18235002  1
  Cu  Cu3  1  0.24276296  0.89030202  0.77090006  1
  P  P4  1  0.77165401  0.10629500  0.27752400  1
  O  O5  1  0.60795298  0.50229601  0.69232503  1
  O  O6  1  0.02559299  0.17769000  0.33689802  1
  O  O7  1  0.16558500  0.08173800  0.65833403  1
  O  O8  1  0.15281897  0.53596901  0.05771302  1
  O  O9  1  0.26986998  0.47595501  0.36032303  1
  O  O10  1  0.39924599  0.37406901  0.66938003  1
  O  O11  1  0.56436700  0.10638900  0.42795101  1
  O  O12  1  0.58965000  0.27283201  0.14944400  1
  O  O13  1  0.42659097  0.72859002  0.64500805  1
  O  O14  1  0.42391296  0.90793103  0.91590306  1
  O  O15  1  0.57796098  0.63414902  0.18256502  1
  O  O16  1  0.71935399  0.49002001  0.86228204  1
  O  O17  1  0.84690599  0.45251901  0.55827602  1
  O  O18  1  0.86828497  0.91738203  0.19061502  1
  O  O19  1  0.96640497  0.83856102  0.81731305  1
