# generated using pymatgen
data_BaSrLaInBiAu2
_symmetry_space_group_name_H-M   'P 1'
_cell_length_a   5.84789419
_cell_length_b   5.84789419
_cell_length_c   9.97408676
_cell_angle_alpha   72.95310211
_cell_angle_beta   72.95310211
_cell_angle_gamma   60.00000000
_symmetry_Int_Tables_number   1
_chemical_formula_structural   BaSrLaInBiAu2
_chemical_formula_sum   'Ba1 Sr1 La1 In1 Bi1 Au2'
_cell_volume   277.95595587
_cell_formula_units_Z   1
loop_
 _symmetry_equiv_pos_site_id
 _symmetry_equiv_pos_as_xyz
  1  'x, y, z'
loop_
 _atom_site_type_symbol
 _atom_site_label
 _atom_site_symmetry_multiplicity
 _atom_site_fract_x
 _atom_site_fract_y
 _atom_site_fract_z
 _atom_site_occupancy
  Ba  Ba0  1  0.20840299  0.20840299  0.37479099  1
  La  La1  1  0.79159698  0.79159697  0.62520899  1
  Sr  Sr2  1  0.39180299  0.39180299  0.82459097  1
  In  In3  1  0.60819698  0.60819698  0.17540900  1
  Bi  Bi4  1  0.00000000  0.00000000  0.00000000  1
  Au  Au5  1  0.91049797  0.91049797  0.26850600  1
  Au  Au6  1  0.08950200  0.08950200  0.73149397  1
