# generated using pymatgen
data_TaNb5Cu3TcCS4
_symmetry_space_group_name_H-M   'P 1'
_cell_length_a   6.90812874
_cell_length_b   6.90812874
_cell_length_c   6.90812874
_cell_angle_alpha   89.05162811
_cell_angle_beta   89.05162811
_cell_angle_gamma   89.05162811
_symmetry_Int_Tables_number   1
_chemical_formula_structural   TaNb5Cu3TcCS4
_chemical_formula_sum   'Ta1 Nb5 Tc1 Cu3 C1 S4'
_cell_volume   329.53739305
_cell_formula_units_Z   1
loop_
 _symmetry_equiv_pos_site_id
 _symmetry_equiv_pos_as_xyz
  1  'x, y, z'
loop_
 _atom_site_type_symbol
 _atom_site_label
 _atom_site_symmetry_multiplicity
 _atom_site_fract_x
 _atom_site_fract_y
 _atom_site_fract_z
 _atom_site_occupancy
  Ta  Ta0  1  0.00000000  0.00000000  0.00000000  1
  Nb  Nb1  1  0.75982401  0.43905301  0.57891604  1
  Nb  Nb2  1  0.57891600  0.75982402  0.43905304  1
  Nb  Nb3  1  0.43905300  0.57891601  0.75982404  1
  Nb  Nb4  1  0.24017600  0.56094701  0.42108403  1
  Nb  Nb5  1  0.42108401  0.24017601  0.56094703  1
  Tc  Tc6  1  0.56094701  0.42108401  0.24017603  1
  Cu  Cu7  1  0.87904501  0.61481801  0.25705104  1
  Cu  Cu8  1  0.25705099  0.87904502  0.61481804  1
  Cu  Cu9  1  0.61481801  0.25705101  0.87904504  1
  S  S10  1  0.12095500  0.38518201  0.74294903  1
  S  S11  1  0.74294902  0.12095500  0.38518203  1
  S  S12  1  0.38518200  0.74294902  0.12095503  1
  C  C13  1  0.75631101  0.75631102  0.75631105  1
  S  S14  1  0.24368900  0.24368901  0.24368902  1
