# generated using pymatgen
data_In4SnPd3
_symmetry_space_group_name_H-M   'P 1'
_cell_length_a   5.78211212
_cell_length_b   5.78211212
_cell_length_c   7.07933521
_cell_angle_alpha   114.10308075
_cell_angle_beta   114.10308075
_cell_angle_gamma   90.00000000
_symmetry_Int_Tables_number   1
_chemical_formula_structural   In4SnPd3
_chemical_formula_sum   'In4 Sn1 Pd3'
_cell_volume   193.21908895
_cell_formula_units_Z   1
loop_
 _symmetry_equiv_pos_site_id
 _symmetry_equiv_pos_as_xyz
  1  'x, y, z'
loop_
 _atom_site_type_symbol
 _atom_site_label
 _atom_site_symmetry_multiplicity
 _atom_site_fract_x
 _atom_site_fract_y
 _atom_site_fract_z
 _atom_site_occupancy
  In  In0  1  -0.00000004  0.49999997  -0.00000004  1
  In  In1  1  0.49999990  0.99999994  0.99999985  1
  In  In2  1  0.25485597  0.25485598  0.50971195  1
  In  In3  1  0.74514391  0.74514395  0.49028788  1
  Pd  Pd4  1  0.00000000  0.00000000  0.00000000  1
  Sn  Sn5  1  0.49999994  0.49999997  -0.00000007  1
  Pd  Pd6  1  0.74999994  0.24999998  0.49999992  1
  Pd  Pd7  1  0.24999993  0.74999995  0.49999990  1
