# generated using pymatgen
data_Er3Al5FeSi3
_symmetry_space_group_name_H-M   'P 1'
_cell_length_a   5.32297945
_cell_length_b   5.32297945
_cell_length_c   8.22219181
_cell_angle_alpha   90.00000000
_cell_angle_beta   90.00000000
_cell_angle_gamma   119.53237915
_symmetry_Int_Tables_number   1
_chemical_formula_structural   Er3Al5FeSi3
_chemical_formula_sum   'Er3 Al5 Fe1 Si3'
_cell_volume   202.70058865
_cell_formula_units_Z   1
loop_
 _symmetry_equiv_pos_site_id
 _symmetry_equiv_pos_as_xyz
  1  'x, y, z'
loop_
 _atom_site_type_symbol
 _atom_site_label
 _atom_site_symmetry_multiplicity
 _atom_site_fract_x
 _atom_site_fract_y
 _atom_site_fract_z
 _atom_site_occupancy
  Er  Er0  1  0.33469097  0.66530897  0.70998902  1
  Er  Er1  1  0.67106797  0.32893198  0.82145502  1
  Er  Er2  1  0.67106797  0.32893198  0.17854500  1
  Al  Al3  1  0.33469097  0.66530897  0.29001101  1
  Al  Al4  1  0.99452796  0.00547200  0.75449702  1
  Fe  Fe5  1  0.99452796  0.00547200  0.24550301  1
  Al  Al6  1  0.82740595  0.65564097  0.50000001  1
  Al  Al7  1  0.34435898  0.17259399  0.50000001  1
  Al  Al8  1  0.82897596  0.17102399  0.50000001  1
  Si  Si9  1  0.16936299  0.33740798  -0.00000000  1
  Si  Si10  1  0.66259196  0.83063696  -0.00000000  1
  Si  Si11  1  0.16673898  0.83326096  -0.00000000  1
