# generated using pymatgen
data_YMgFe2Cu2SiP3
_symmetry_space_group_name_H-M   'P 1'
_cell_length_a   6.09049940
_cell_length_b   6.09049940
_cell_length_c   6.09049845
_cell_angle_alpha   60.03920364
_cell_angle_beta   60.03920364
_cell_angle_gamma   60.03920364
_symmetry_Int_Tables_number   1
_chemical_formula_structural   YMgFe2Cu2SiP3
_chemical_formula_sum   'Y1 Mg1 Fe2 Si1 Cu2 P3'
_cell_volume   159.89298194
_cell_formula_units_Z   1
loop_
 _symmetry_equiv_pos_site_id
 _symmetry_equiv_pos_as_xyz
  1  'x, y, z'
loop_
 _atom_site_type_symbol
 _atom_site_label
 _atom_site_symmetry_multiplicity
 _atom_site_fract_x
 _atom_site_fract_y
 _atom_site_fract_z
 _atom_site_occupancy
  Y  Y0  1  0.25076399  0.25076400  0.25076401  1
  Mg  Mg1  1  0.74923598  0.74923599  0.74923604  1
  Fe  Fe2  1  0.00000000  0.00000000  0.00000000  1
  Fe  Fe3  1  0.49999999  0.49999999  0.50000002  1
  P  P4  1  0.25358999  0.76446299  0.73014403  1
  Si  Si5  1  0.73014399  0.25359000  0.76446303  1
  P  P6  1  0.76446298  0.73014399  0.25359002  1
  Cu  Cu7  1  0.74640999  0.23553700  0.26985602  1
  Cu  Cu8  1  0.26985599  0.74640999  0.23553702  1
  P  P9  1  0.23553699  0.26985600  0.74641003  1
