# generated using pymatgen
data_DyTiNi3Rh
_symmetry_space_group_name_H-M   'P 1'
_cell_length_a   4.96073008
_cell_length_b   4.96073008
_cell_length_c   4.96073008
_cell_angle_alpha   60.00000000
_cell_angle_beta   60.00000000
_cell_angle_gamma   60.00000000
_symmetry_Int_Tables_number   1
_chemical_formula_structural   DyTiNi3Rh
_chemical_formula_sum   'Dy1 Ti1 Ni3 Rh1'
_cell_volume   86.32205933
_cell_formula_units_Z   1
loop_
 _symmetry_equiv_pos_site_id
 _symmetry_equiv_pos_as_xyz
  1  'x, y, z'
loop_
 _atom_site_type_symbol
 _atom_site_label
 _atom_site_symmetry_multiplicity
 _atom_site_fract_x
 _atom_site_fract_y
 _atom_site_fract_z
 _atom_site_occupancy
  Ti  Ti0  1  0.00000000  0.00000000  0.00000000  1
  Dy  Dy1  1  0.75000003  0.75000003  0.75000003  1
  Ni  Ni2  1  0.37517801  0.87446803  0.37517701  1
  Ni  Ni3  1  0.37517801  0.37517701  0.37517701  1
  Rh  Rh4  1  0.37517801  0.37517701  0.87446803  1
  Ni  Ni5  1  0.87446903  0.37517701  0.37517701  1
