# generated using pymatgen
data_ErInGaSnPdAu
_symmetry_space_group_name_H-M   'P 1'
_cell_length_a   4.69666576
_cell_length_b   5.72709417
_cell_length_c   5.72709513
_cell_angle_alpha   60.00000381
_cell_angle_beta   90.00000000
_cell_angle_gamma   90.00000000
_symmetry_Int_Tables_number   1
_chemical_formula_structural   ErInGaSnPdAu
_chemical_formula_sum   'Er1 In1 Ga1 Sn1 Pd1 Au1'
_cell_volume   133.41019673
_cell_formula_units_Z   1
loop_
 _symmetry_equiv_pos_site_id
 _symmetry_equiv_pos_as_xyz
  1  'x, y, z'
loop_
 _atom_site_type_symbol
 _atom_site_label
 _atom_site_symmetry_multiplicity
 _atom_site_fract_x
 _atom_site_fract_y
 _atom_site_fract_z
 _atom_site_occupancy
  Er  Er0  1  0.00000000  0.00000000  0.00000000  1
  In  In1  1  0.00000000  0.33333333  0.33333331  1
  Ga  Ga2  1  0.00000000  0.66666666  0.66666662  1
  Sn  Sn3  1  0.50000003  0.00000000  0.49999999  1
  Au  Au4  1  0.50000003  0.49999999  -0.00000002  1
  Pd  Pd5  1  0.50000003  0.49999999  0.49999997  1
