# generated using pymatgen
data_CsRbBrCl2F
_symmetry_space_group_name_H-M   'P 1'
_cell_length_a   3.95316601
_cell_length_b   3.95316601
_cell_length_c   9.58977699
_cell_angle_alpha   90.00000000
_cell_angle_beta   90.00000000
_cell_angle_gamma   90.00000000
_symmetry_Int_Tables_number   1
_chemical_formula_structural   CsRbBrCl2F
_chemical_formula_sum   'Cs1 Rb1 Br1 Cl2 F1'
_cell_volume   149.86444601
_cell_formula_units_Z   1
loop_
 _symmetry_equiv_pos_site_id
 _symmetry_equiv_pos_as_xyz
  1  'x, y, z'
loop_
 _atom_site_type_symbol
 _atom_site_label
 _atom_site_symmetry_multiplicity
 _atom_site_fract_x
 _atom_site_fract_y
 _atom_site_fract_z
 _atom_site_occupancy
  Cs  Cs0  1  0.00000000  0.50000000  0.11432800  1
  Rb  Rb1  1  0.50000000  0.00000000  0.88567200  1
  Br  Br2  1  0.00000000  0.50000000  0.68436300  1
  Cl  Cl3  1  0.50000000  0.00000000  0.31563700  1
  Cl  Cl4  1  0.00000000  0.00000000  0.00000000  1
  F  F5  1  0.50000000  0.50000000  0.00000000  1
