# generated using pymatgen
data_Na3CuO6
_symmetry_space_group_name_H-M   'P 1'
_cell_length_a   5.39663219
_cell_length_b   5.77176380
_cell_length_c   7.76340818
_cell_angle_alpha   90.00000000
_cell_angle_beta   89.83474731
_cell_angle_gamma   90.00000000
_symmetry_Int_Tables_number   1
_chemical_formula_structural   Na3CuO6
_chemical_formula_sum   'Na6 Cu2 O12'
_cell_volume   241.81430271
_cell_formula_units_Z   2
loop_
 _symmetry_equiv_pos_site_id
 _symmetry_equiv_pos_as_xyz
  1  'x, y, z'
loop_
 _atom_site_type_symbol
 _atom_site_label
 _atom_site_symmetry_multiplicity
 _atom_site_fract_x
 _atom_site_fract_y
 _atom_site_fract_z
 _atom_site_occupancy
  Na  Na0  1  0.47744098  0.07229000  0.24789099  1
  Na  Na1  1  0.52255898  0.92771003  0.75210900  1
  Na  Na2  1  0.02255900  0.57229002  0.25210900  1
  Na  Na3  1  0.97744096  0.42771001  0.74789099  1
  Na  Na4  1  0.49999998  0.50000002  1.00000000  1
  Na  Na5  1  0.99999996  0.00000000  0.49999999  1
  Cu  Cu6  1  0.49999998  0.50000002  0.50000000  1
  Cu  Cu7  1  0.00000000  0.00000000  0.00000000  1
  O  O8  1  0.61869398  0.45555302  0.25120899  1
  O  O9  1  0.38130599  0.54444702  0.74879100  1
  O  O10  1  0.88130597  0.95555303  0.24879099  1
  O  O11  1  0.11869400  0.04444700  0.75120901  1
  O  O12  1  0.31292799  0.80028403  0.43801000  1
  O  O13  1  0.68707198  0.19971601  0.56198999  1
  O  O14  1  0.18707199  0.30028401  0.06199000  1
  O  O15  1  0.81292797  0.69971602  0.93801000  1
  O  O16  1  0.19049999  0.30667001  0.44402900  1
  O  O17  1  0.80949997  0.69333002  0.55597099  1
  O  O18  1  0.30949999  0.80667003  0.05597099  1
  O  O19  1  0.69049998  0.19333001  0.94402900  1
