# generated using pymatgen
data_BaErAgPbO6
_symmetry_space_group_name_H-M   'P 1'
_cell_length_a   4.10957718
_cell_length_b   4.10957718
_cell_length_c   13.15013599
_cell_angle_alpha   90.00000000
_cell_angle_beta   90.00000000
_cell_angle_gamma   90.00000000
_symmetry_Int_Tables_number   1
_chemical_formula_structural   BaErAgPbO6
_chemical_formula_sum   'Ba1 Er1 Ag1 Pb1 O6'
_cell_volume   222.08771011
_cell_formula_units_Z   1
loop_
 _symmetry_equiv_pos_site_id
 _symmetry_equiv_pos_as_xyz
  1  'x, y, z'
loop_
 _atom_site_type_symbol
 _atom_site_label
 _atom_site_symmetry_multiplicity
 _atom_site_fract_x
 _atom_site_fract_y
 _atom_site_fract_z
 _atom_site_occupancy
  Er  Er0  1  0.49999998  0.00000000  0.10603400  1
  Ba  Ba1  1  0.00000000  0.49999998  0.89396600  1
  Pb  Pb2  1  0.49999998  0.00000000  0.61649300  1
  Ag  Ag3  1  0.00000000  0.49999998  0.38350700  1
  O  O4  1  0.49999998  0.00000000  0.37810700  1
  O  O5  1  0.00000000  0.49999998  0.62189300  1
  O  O6  1  0.49999998  0.00000000  0.81665300  1
  O  O7  1  0.00000000  0.49999998  0.18334700  1
  O  O8  1  0.49999998  0.49999998  -0.00000000  1
  O  O9  1  0.00000000  0.00000000  0.00000000  1
