# generated using pymatgen
data_LaCeY5ErHRu2CN7
_symmetry_space_group_name_H-M   'P 1'
_cell_length_a   5.76659584
_cell_length_b   5.76659966
_cell_length_c   12.79380798
_cell_angle_alpha   85.68248749
_cell_angle_beta   81.34020996
_cell_angle_gamma   60.00002289
_symmetry_Int_Tables_number   1
_chemical_formula_structural   LaCeY5ErHRu2CN7
_chemical_formula_sum   'La1 Ce1 Y5 Er1 Ru2 H1 C1 N7'
_cell_volume   364.24231155
_cell_formula_units_Z   1
loop_
 _symmetry_equiv_pos_site_id
 _symmetry_equiv_pos_as_xyz
  1  'x, y, z'
loop_
 _atom_site_type_symbol
 _atom_site_label
 _atom_site_symmetry_multiplicity
 _atom_site_fract_x
 _atom_site_fract_y
 _atom_site_fract_z
 _atom_site_occupancy
  Er  Er0  1  0.91596303  0.00000000  0.25195700  1
  La  La1  1  0.24984602  0.33340400  0.25026099  1
  Y  Y2  1  0.58325004  0.66659601  0.25026099  1
  Ce  Ce3  1  0.41675002  0.33340400  0.74973899  1
  Y  Y4  1  0.75015404  0.66659601  0.74973899  1
  Y  Y5  1  0.08403700  0.00000000  0.74804300  1
  Y  Y6  1  0.00000000  0.00000000  0.00000000  1
  Y  Y7  1  0.70880402  0.00000000  0.87637400  1
  Ru  Ru8  1  0.04116301  0.33243300  0.87639199  1
  Ru  Ru9  1  0.37359603  0.66756701  0.87639199  1
  N  N10  1  0.62640403  0.33243300  0.12360799  1
  N  N11  1  0.95883705  0.66756701  0.12360799  1
  N  N12  1  0.29119604  1.00000001  0.12362598  1
  H  H13  1  0.79010105  1.00000001  0.62594098  1
  C  C14  1  0.12478901  0.33471200  0.62596899  1
  N  N15  1  0.45950103  0.66528801  0.62596899  1
  N  N16  1  0.54049903  0.33471200  0.37403099  1
  N  N17  1  0.87521105  0.66528801  0.37403099  1
  N  N18  1  0.20989901  0.00000000  0.37405900  1
