# generated using pymatgen
data_ZrMn2Nb2CuPd5Au
_symmetry_space_group_name_H-M   'P 1'
_cell_length_a   3.78778791
_cell_length_b   6.65828943
_cell_length_c   11.56804371
_cell_angle_alpha   103.94512177
_cell_angle_beta   90.00000000
_cell_angle_gamma   106.52546692
_symmetry_Int_Tables_number   1
_chemical_formula_structural   ZrMn2Nb2CuPd5Au
_chemical_formula_sum   'Zr1 Mn2 Nb2 Cu1 Pd5 Au1'
_cell_volume   270.71590761
_cell_formula_units_Z   1
loop_
 _symmetry_equiv_pos_site_id
 _symmetry_equiv_pos_as_xyz
  1  'x, y, z'
loop_
 _atom_site_type_symbol
 _atom_site_label
 _atom_site_symmetry_multiplicity
 _atom_site_fract_x
 _atom_site_fract_y
 _atom_site_fract_z
 _atom_site_occupancy
  Zr  Zr0  1  0.00000000  0.00000000  0.00000000  1
  Nb  Nb1  1  0.88803597  0.77607197  0.57911996  1
  Nb  Nb2  1  0.11196399  0.22392799  0.42087998  1
  Mn  Mn3  1  0.69996599  0.39993199  0.81319497  1
  Mn  Mn4  1  0.30003396  0.60006798  0.18680498  1
  Cu  Cu5  1  0.50000001  0.00000000  0.49999999  1
  Pd  Pd6  1  0.34098796  0.68197598  0.94913696  1
  Pd  Pd7  1  0.65901199  0.31802399  0.05086299  1
  Pd  Pd8  1  0.04163600  0.08327200  0.78508398  1
  Pd  Pd9  1  0.95836396  0.91672797  0.21491597  1
  Au  Au10  1  0.74050498  0.48100998  0.35177298  1
  Pd  Pd11  1  0.25949497  0.51898998  0.64822697  1
