# generated using pymatgen
data_LiCu2BiO4
_symmetry_space_group_name_H-M   'P 1'
_cell_length_a   5.62023163
_cell_length_b   5.62023163
_cell_length_c   5.78816032
_cell_angle_alpha   60.95517349
_cell_angle_beta   60.95517349
_cell_angle_gamma   60.00000763
_symmetry_Int_Tables_number   1
_chemical_formula_structural   LiCu2BiO4
_chemical_formula_sum   'Li1 Cu2 Bi1 O4'
_cell_volume   131.11594352
_cell_formula_units_Z   1
loop_
 _symmetry_equiv_pos_site_id
 _symmetry_equiv_pos_as_xyz
  1  'x, y, z'
loop_
 _atom_site_type_symbol
 _atom_site_label
 _atom_site_symmetry_multiplicity
 _atom_site_fract_x
 _atom_site_fract_y
 _atom_site_fract_z
 _atom_site_occupancy
  Cu  Cu0  1  0.50000002  0.49999998  0.49999995  1
  Bi  Bi1  1  0.00000000  0.00000000  0.00000000  1
  Li  Li2  1  0.83561602  0.64384898  0.26163095  1
  Cu  Cu3  1  0.25890404  0.83561597  0.26163095  1
  O  O4  1  0.35615103  0.74109598  0.73836894  1
  O  O5  1  0.74109600  0.16438399  0.73836895  1
  O  O6  1  0.16438402  0.35615099  0.73836896  1
  O  O7  1  0.64384900  0.25890399  0.26163097  1
