# generated using pymatgen
data_LiMgFeNi2
_symmetry_space_group_name_H-M   'P 1'
_cell_length_a   3.75883603
_cell_length_b   3.75883603
_cell_length_c   5.56092596
_cell_angle_alpha   109.75315094
_cell_angle_beta   109.75315094
_cell_angle_gamma   90.00000000
_symmetry_Int_Tables_number   1
_chemical_formula_structural   LiMgFeNi2
_chemical_formula_sum   'Li1 Mg1 Fe1 Ni2'
_cell_volume   69.01400207
_cell_formula_units_Z   1
loop_
 _symmetry_equiv_pos_site_id
 _symmetry_equiv_pos_as_xyz
  1  'x, y, z'
loop_
 _atom_site_type_symbol
 _atom_site_label
 _atom_site_symmetry_multiplicity
 _atom_site_fract_x
 _atom_site_fract_y
 _atom_site_fract_z
 _atom_site_occupancy
  Li  Li0  1  0.00000000  0.00000000  0.00000000  1
  Mg  Mg1  1  0.61933095  0.61933098  0.23866194  1
  Fe  Fe2  1  0.38066897  0.38066899  0.76133796  1
  Ni  Ni3  1  0.74999996  0.24999999  0.49999995  1
  Ni  Ni4  1  0.24999995  0.74999997  0.49999995  1
