# generated using pymatgen
data_Li2ErZrTaC3N2
_symmetry_space_group_name_H-M   'P 1'
_cell_length_a   3.94157004
_cell_length_b   3.94157028
_cell_length_c   12.11473560
_cell_angle_alpha   90.00000000
_cell_angle_beta   90.00000000
_cell_angle_gamma   120.00000000
_symmetry_Int_Tables_number   1
_chemical_formula_structural   Li2ErZrTaC3N2
_chemical_formula_sum   'Li2 Er1 Zr1 Ta1 C3 N2'
_cell_volume   162.99830772
_cell_formula_units_Z   1
loop_
 _symmetry_equiv_pos_site_id
 _symmetry_equiv_pos_as_xyz
  1  'x, y, z'
loop_
 _atom_site_type_symbol
 _atom_site_label
 _atom_site_symmetry_multiplicity
 _atom_site_fract_x
 _atom_site_fract_y
 _atom_site_fract_z
 _atom_site_occupancy
  Li  Li0  1  0.66666667  0.33333333  0.43477701  1
  Li  Li1  1  0.33333335  0.66666667  0.93477703  1
  Er  Er2  1  0.33333335  0.66666667  0.56522302  1
  Zr  Zr3  1  0.66666667  0.33333333  0.06522300  1
  Ta  Ta4  1  0.00000000  0.00000000  0.75000002  1
  C  C5  1  0.00000000  0.00000000  0.25000001  1
  N  N6  1  0.66666667  0.33333333  0.63717402  1
  C  C7  1  0.33333335  0.66666667  0.13717400  1
  N  N8  1  0.33333335  0.66666667  0.36282601  1
  C  C9  1  0.66666667  0.33333333  0.86282603  1
