# generated using pymatgen
data_Na5SrCuHg3O8
_symmetry_space_group_name_H-M   'P 1'
_cell_length_a   5.74662590
_cell_length_b   5.74662590
_cell_length_c   8.36281586
_cell_angle_alpha   90.00000000
_cell_angle_beta   90.00000000
_cell_angle_gamma   90.00000000
_symmetry_Int_Tables_number   1
_chemical_formula_structural   Na5SrCuHg3O8
_chemical_formula_sum   'Na5 Sr1 Cu1 Hg3 O8'
_cell_volume   276.17119927
_cell_formula_units_Z   1
loop_
 _symmetry_equiv_pos_site_id
 _symmetry_equiv_pos_as_xyz
  1  'x, y, z'
loop_
 _atom_site_type_symbol
 _atom_site_label
 _atom_site_symmetry_multiplicity
 _atom_site_fract_x
 _atom_site_fract_y
 _atom_site_fract_z
 _atom_site_occupancy
  Na  Na0  1  0.50000001  0.50000001  0.00000000  1
  Sr  Sr1  1  0.00000000  0.00000000  0.00000000  1
  Na  Na2  1  0.00000000  0.50000001  0.24128000  1
  Na  Na3  1  0.50000001  0.00000000  0.75872001  1
  Hg  Hg4  1  0.00000000  0.00000000  0.50000001  1
  Na  Na5  1  0.50000001  0.50000001  0.50000001  1
  Cu  Cu6  1  0.50000001  0.00000000  0.25942900  1
  Na  Na7  1  0.00000000  0.50000001  0.74057101  1
  O  O8  1  0.00000000  0.50000001  0.96456102  1
  Hg  Hg9  1  0.76807401  0.73192601  0.66741201  1
  Hg  Hg10  1  0.26807400  0.23192600  0.33258801  1
  O  O11  1  0.76807401  0.26807400  0.66741201  1
  O  O12  1  0.23192600  0.26807400  0.66741201  1
  O  O13  1  0.23192600  0.73192601  0.66741201  1
  O  O14  1  0.26807400  0.76807401  0.33258801  1
  O  O15  1  0.73192601  0.23192600  0.33258801  1
  O  O16  1  0.50000001  0.00000000  0.03543900  1
  O  O17  1  0.73192601  0.76807401  0.33258801  1
