# generated using pymatgen
data_LaEuBe2B3C2N5
_symmetry_space_group_name_H-M   'P 1'
_cell_length_a   5.82605934
_cell_length_b   5.82605934
_cell_length_c   5.82605934
_cell_angle_alpha   60.00000000
_cell_angle_beta   60.00000000
_cell_angle_gamma   60.00000000
_symmetry_Int_Tables_number   1
_chemical_formula_structural   LaEuBe2B3C2N5
_chemical_formula_sum   'La1 Eu1 Be2 B3 C2 N5'
_cell_volume   139.83301239
_cell_formula_units_Z   1
loop_
 _symmetry_equiv_pos_site_id
 _symmetry_equiv_pos_as_xyz
  1  'x, y, z'
loop_
 _atom_site_type_symbol
 _atom_site_label
 _atom_site_symmetry_multiplicity
 _atom_site_fract_x
 _atom_site_fract_y
 _atom_site_fract_z
 _atom_site_occupancy
  Eu  Eu0  1  0.00000000  0.00000000  0.00000000  1
  La  La1  1  0.49999999  0.49999999  0.49999999  1
  Be  Be2  1  0.09962300  0.40037699  0.09962300  1
  B  B3  1  0.59962299  0.90037699  0.59962299  1
  Be  Be4  1  0.40037699  0.40037699  0.09962300  1
  B  B5  1  0.90037699  0.90037699  0.59962299  1
  N  N6  1  0.09962300  0.40037699  0.40037699  1
  B  B7  1  0.59962299  0.90037699  0.90037699  1
  N  N8  1  0.09962300  0.09962300  0.40037699  1
  N  N9  1  0.59962299  0.59962299  0.90037699  1
  N  N10  1  0.40037699  0.09962300  0.09962300  1
  C  C11  1  0.90037699  0.59962299  0.59962299  1
  N  N12  1  0.40037699  0.09962300  0.40037699  1
  C  C13  1  0.90037699  0.59962299  0.90037699  1
