# generated using pymatgen
data_CdCu2BiPO5
_symmetry_space_group_name_H-M   'P 1'
_cell_length_a   5.62161160
_cell_length_b   5.62161160
_cell_length_c   6.58541441
_cell_angle_alpha   64.73388672
_cell_angle_beta   64.73389435
_cell_angle_gamma   59.99998856
_symmetry_Int_Tables_number   1
_chemical_formula_structural   CdCu2BiPO5
_chemical_formula_sum   'Cd1 Cu2 Bi1 P1 O5'
_cell_volume   156.82340847
_cell_formula_units_Z   1
loop_
 _symmetry_equiv_pos_site_id
 _symmetry_equiv_pos_as_xyz
  1  'x, y, z'
loop_
 _atom_site_type_symbol
 _atom_site_label
 _atom_site_symmetry_multiplicity
 _atom_site_fract_x
 _atom_site_fract_y
 _atom_site_fract_z
 _atom_site_occupancy
  Cu  Cu0  1  0.00000000  0.00000000  0.00000000  1
  Cu  Cu1  1  0.32951602  0.32951600  0.01145199  1
  Cd  Cd2  1  0.67048403  0.67048401  0.98854799  1
  Bi  Bi3  1  0.50000002  0.50000001  0.49999999  1
  P  P4  1  0.08672702  0.41420500  0.74681799  1
  O  O5  1  0.41420503  0.75225001  0.74681798  1
  O  O6  1  0.75225001  0.08672700  0.74681802  1
  O  O7  1  0.24775004  0.91327301  0.25318196  1
  O  O8  1  0.58579501  0.24775000  0.25318200  1
  O  O9  1  0.91327303  0.58579501  0.25318199  1
