# generated using pymatgen
data_Y2Ga3SiGe4
_symmetry_space_group_name_H-M   'P 1'
_cell_length_a   4.52750301
_cell_length_b   4.52750301
_cell_length_c   10.89059162
_cell_angle_alpha   90.00000000
_cell_angle_beta   90.00000000
_cell_angle_gamma   90.00000000
_symmetry_Int_Tables_number   1
_chemical_formula_structural   Y2Ga3SiGe4
_chemical_formula_sum   'Y2 Ga3 Si1 Ge4'
_cell_volume   223.23843495
_cell_formula_units_Z   1
loop_
 _symmetry_equiv_pos_site_id
 _symmetry_equiv_pos_as_xyz
  1  'x, y, z'
loop_
 _atom_site_type_symbol
 _atom_site_label
 _atom_site_symmetry_multiplicity
 _atom_site_fract_x
 _atom_site_fract_y
 _atom_site_fract_z
 _atom_site_occupancy
  Y  Y0  1  -0.00000000  0.50000000  0.76146903  1
  Y  Y1  1  0.50000000  0.00000000  0.23853101  1
  Ga  Ga2  1  0.00000000  0.00000000  0.00000000  1
  Ga  Ga3  1  0.50000000  0.50000000  -0.00000000  1
  Ga  Ga4  1  -0.00000000  0.50000000  0.36223201  1
  Si  Si5  1  0.50000000  0.00000000  0.63776802  1
  Ge  Ge6  1  0.00000000  0.00000000  0.50000002  1
  Ge  Ge7  1  0.50000000  0.50000000  0.50000002  1
  Ge  Ge8  1  -0.00000000  0.50000000  0.12999700  1
  Ge  Ge9  1  0.50000000  0.00000000  0.87000303  1
