# generated using pymatgen
data_MnCo3Ni7P
_symmetry_space_group_name_H-M   'P 1'
_cell_length_a   4.46044016
_cell_length_b   4.46044064
_cell_length_c   7.33361721
_cell_angle_alpha   90.00000000
_cell_angle_beta   90.00000000
_cell_angle_gamma   119.99999237
_symmetry_Int_Tables_number   1
_chemical_formula_structural   MnCo3Ni7P
_chemical_formula_sum   'Mn1 Co3 Ni7 P1'
_cell_volume   126.35847725
_cell_formula_units_Z   1
loop_
 _symmetry_equiv_pos_site_id
 _symmetry_equiv_pos_as_xyz
  1  'x, y, z'
loop_
 _atom_site_type_symbol
 _atom_site_label
 _atom_site_symmetry_multiplicity
 _atom_site_fract_x
 _atom_site_fract_y
 _atom_site_fract_z
 _atom_site_occupancy
  Mn  Mn0  1  0.00000000  0.00000000  0.49999999  1
  Co  Co1  1  0.00000000  0.00000000  0.00000000  1
  Co  Co2  1  0.16984797  0.33969598  0.74999998  1
  Co  Co3  1  0.16984794  0.83015296  0.74999998  1
  Ni  Ni4  1  0.66030492  0.83015296  0.74999998  1
  Ni  Ni5  1  0.83015192  0.66030397  0.24999999  1
  Ni  Ni6  1  0.83015196  0.16984699  0.24999999  1
  Ni  Ni7  1  0.33969498  0.16984699  0.24999999  1
  Ni  Ni8  1  0.66666662  0.33333332  0.56232798  1
  Ni  Ni9  1  0.33333327  0.66666663  0.43767199  1
  Ni  Ni10  1  0.33333327  0.66666663  0.06232800  1
  P  P11  1  0.66666662  0.33333332  0.93767197  1
