# generated using pymatgen
data_K2Na4CuSe(ClO)2
_symmetry_space_group_name_H-M   'P 1'
_cell_length_a   4.38759804
_cell_length_b   7.59772778
_cell_length_c   10.40202618
_cell_angle_alpha   104.19791412
_cell_angle_beta   90.00000000
_cell_angle_gamma   90.00000000
_symmetry_Int_Tables_number   1
_chemical_formula_structural   K2Na4CuSe(ClO)2
_chemical_formula_sum   'K2 Na4 Cu1 Se1 Cl2 O2'
_cell_volume   336.16758714
_cell_formula_units_Z   1
loop_
 _symmetry_equiv_pos_site_id
 _symmetry_equiv_pos_as_xyz
  1  'x, y, z'
loop_
 _atom_site_type_symbol
 _atom_site_label
 _atom_site_symmetry_multiplicity
 _atom_site_fract_x
 _atom_site_fract_y
 _atom_site_fract_z
 _atom_site_occupancy
  Na  Na0  1  0.50000000  0.75159902  0.74876001  1
  Na  Na1  1  -0.00000000  0.24626001  0.74382202  1
  K  K2  1  0.50000000  0.24840101  0.25124000  1
  K  K3  1  -0.00000000  0.75374002  0.25617799  1
  Cu  Cu4  1  -0.00000000  0.50000001  0.50000000  1
  Na  Na5  1  0.50000000  0.00000000  0.50000001  1
  Na  Na6  1  0.50000000  0.50000001  -0.00000001  1
  Cl  Cl7  1  0.00000000  0.00000000  0.00000000  1
  Cl  Cl8  1  -0.00000000  0.56041201  0.67944601  1
  Se  Se9  1  0.50000000  0.05916500  0.67903802  1
  O  O10  1  -0.00000000  0.43958801  0.32055400  1
  O  O11  1  0.50000000  0.94083502  0.32096199  1
