# generated using pymatgen
data_YErSc(AlSi2)2
_symmetry_space_group_name_H-M   'P 1'
_cell_length_a   3.99482012
_cell_length_b   6.39214802
_cell_length_c   6.39214754
_cell_angle_alpha   120.00000000
_cell_angle_beta   90.00000000
_cell_angle_gamma   90.00000000
_symmetry_Int_Tables_number   1
_chemical_formula_structural   YErSc(AlSi2)2
_chemical_formula_sum   'Y1 Er1 Sc1 Al2 Si4'
_cell_volume   141.35835210
_cell_formula_units_Z   1
loop_
 _symmetry_equiv_pos_site_id
 _symmetry_equiv_pos_as_xyz
  1  'x, y, z'
loop_
 _atom_site_type_symbol
 _atom_site_label
 _atom_site_symmetry_multiplicity
 _atom_site_fract_x
 _atom_site_fract_y
 _atom_site_fract_z
 _atom_site_occupancy
  Er  Er0  1  0.49999999  0.00000000  0.58870600  1
  Y  Y1  1  0.49999999  0.58870598  0.99999997  1
  Sc  Sc2  1  0.49999999  0.41129399  0.41129398  1
  Al  Al3  1  0.49999999  0.00000000  -0.00000000  1
  Al  Al4  1  0.99999997  0.75958098  0.75958096  1
  Si  Si5  1  0.99999997  0.24041899  0.99999998  1
  Si  Si6  1  -0.00000000  0.00000000  0.24041900  1
  Si  Si7  1  0.99999997  0.33333332  0.66666665  1
  Si  Si8  1  -0.00000000  0.66666665  0.33333330  1
