# generated using pymatgen
data_EuEr2AlCo4Si3Ni4
_symmetry_space_group_name_H-M   'P 1'
_cell_length_a   6.09127188
_cell_length_b   6.09127188
_cell_length_c   7.51729918
_cell_angle_alpha   90.00000000
_cell_angle_beta   90.00000000
_cell_angle_gamma   120.00000000
_symmetry_Int_Tables_number   1
_chemical_formula_structural   EuEr2AlCo4Si3Ni4
_chemical_formula_sum   'Eu1 Er2 Al1 Co4 Si3 Ni4'
_cell_volume   241.55077478
_cell_formula_units_Z   1
loop_
 _symmetry_equiv_pos_site_id
 _symmetry_equiv_pos_as_xyz
  1  'x, y, z'
loop_
 _atom_site_type_symbol
 _atom_site_label
 _atom_site_symmetry_multiplicity
 _atom_site_fract_x
 _atom_site_fract_y
 _atom_site_fract_z
 _atom_site_occupancy
  Eu  Eu0  1  0.00000000  0.00000000  0.49999999  1
  Er  Er1  1  0.33333332  0.66666664  0.19911300  1
  Er  Er2  1  0.66666667  0.33333332  0.80088698  1
  Al  Al3  1  0.00000000  0.00000000  0.00000000  1
  Co  Co4  1  0.33333332  0.66666664  0.66301398  1
  Co  Co5  1  0.66666667  0.33333332  0.33698599  1
  Co  Co6  1  0.32468600  0.16234299  0.16058400  1
  Co  Co7  1  0.67531399  0.83765697  0.83941598  1
  Si  Si8  1  1.00000001  0.49999998  0.49999999  1
  Si  Si9  1  0.50000000  0.49999998  0.49999999  1
  Ni  Ni10  1  0.83765701  0.16234299  0.16058400  1
  Ni  Ni11  1  0.16234298  0.83765697  0.83941598  1
  Si  Si12  1  0.50000001  0.00000000  0.49999999  1
  Ni  Ni13  1  0.83765700  0.67531398  0.16058400  1
  Ni  Ni14  1  0.16234299  0.32468599  0.83941598  1
