# generated using pymatgen
data_YIn7Sn2Pd3Au
_symmetry_space_group_name_H-M   'P 1'
_cell_length_a   6.52391195
_cell_length_b   7.20496464
_cell_length_c   8.59837055
_cell_angle_alpha   96.24996185
_cell_angle_beta   112.29460907
_cell_angle_gamma   90.00000000
_symmetry_Int_Tables_number   1
_chemical_formula_structural   YIn7Sn2Pd3Au
_chemical_formula_sum   'Y1 In7 Sn2 Pd3 Au1'
_cell_volume   371.35201090
_cell_formula_units_Z   1
loop_
 _symmetry_equiv_pos_site_id
 _symmetry_equiv_pos_as_xyz
  1  'x, y, z'
loop_
 _atom_site_type_symbol
 _atom_site_label
 _atom_site_symmetry_multiplicity
 _atom_site_fract_x
 _atom_site_fract_y
 _atom_site_fract_z
 _atom_site_occupancy
  Y  Y0  1  0.78861202  0.08230400  0.81737807  1
  In  In1  1  0.97123402  0.41769600  0.18262204  1
  In  In2  1  0.21138801  0.91769601  0.18262201  1
  In  In3  1  0.02876600  0.58230401  0.81737804  1
  In  In4  1  0.21282901  0.18188800  0.55911503  1
  In  In5  1  0.65371402  0.31811200  0.44088504  1
  In  In6  1  0.78717102  0.81811201  0.44088504  1
  In  In7  1  0.34628601  0.68188801  0.55911503  1
  Sn  Sn8  1  0.42855701  0.25000000  0.00000001  1
  Sn  Sn9  1  0.57144301  0.75000001  0.00000001  1
  Au  Au10  1  0.60546601  0.42700000  0.77963106  1
  Pd  Pd11  1  0.82583502  0.07300000  0.22036904  1
  Pd  Pd12  1  0.39453401  0.57300001  0.22036902  1
  Pd  Pd13  1  0.17416500  0.92700001  0.77963104  1
