# generated using pymatgen
data_CeY3Al2ZnSi5
_symmetry_space_group_name_H-M   'P 1'
_cell_length_a   3.71164799
_cell_length_b   6.81193209
_cell_length_c   9.80788040
_cell_angle_alpha   90.00000000
_cell_angle_beta   90.00000000
_cell_angle_gamma   105.80934906
_symmetry_Int_Tables_number   1
_chemical_formula_structural   CeY3Al2ZnSi5
_chemical_formula_sum   'Ce1 Y3 Al2 Zn1 Si5'
_cell_volume   238.59737809
_cell_formula_units_Z   1
loop_
 _symmetry_equiv_pos_site_id
 _symmetry_equiv_pos_as_xyz
  1  'x, y, z'
loop_
 _atom_site_type_symbol
 _atom_site_label
 _atom_site_symmetry_multiplicity
 _atom_site_fract_x
 _atom_site_fract_y
 _atom_site_fract_z
 _atom_site_occupancy
  Y  Y0  1  0.75084401  0.50168801  0.24999999  1
  Ce  Ce1  1  0.24915601  0.49831201  0.74999997  1
  Y  Y2  1  0.00000000  0.00000000  0.49999998  1
  Y  Y3  1  0.00000000  0.00000000  0.00000000  1
  Al  Al4  1  0.47033702  0.94067402  0.24999999  1
  Al  Al5  1  0.52966300  0.05932600  0.74999997  1
  Zn  Zn6  1  0.92197402  0.84394801  0.74999997  1
  Si  Si7  1  0.36940702  0.73881401  0.06009000  1
  Si  Si8  1  0.07802600  0.15605200  0.24999999  1
  Si  Si9  1  0.36940702  0.73881401  0.43990998  1
  Si  Si10  1  0.63059301  0.26118600  0.93990996  1
  Si  Si11  1  0.63059301  0.26118600  0.56008998  1
