# generated using pymatgen
data_MnFe5
_symmetry_space_group_name_H-M   'P 1'
_cell_length_a   4.74313211
_cell_length_b   4.74313211
_cell_length_c   8.20628357
_cell_angle_alpha   73.20227814
_cell_angle_beta   73.20227814
_cell_angle_gamma   60.00000000
_symmetry_Int_Tables_number   1
_chemical_formula_structural   MnFe5
_chemical_formula_sum   'Mn2 Fe10'
_cell_volume   150.72017105
_cell_formula_units_Z   2
loop_
 _symmetry_equiv_pos_site_id
 _symmetry_equiv_pos_as_xyz
  1  'x, y, z'
loop_
 _atom_site_type_symbol
 _atom_site_label
 _atom_site_symmetry_multiplicity
 _atom_site_fract_x
 _atom_site_fract_y
 _atom_site_fract_z
 _atom_site_occupancy
  Mn  Mn0  1  0.62285293  0.62285298  0.13144105  1
  Mn  Mn1  1  0.00346800  0.00346800  0.98959604  1
  Fe  Fe2  1  0.49777695  0.49777698  0.50666906  1
  Fe  Fe3  1  0.12607199  0.12607200  0.62178403  1
  Fe  Fe4  1  0.06018697  0.56368098  0.81245106  1
  Fe  Fe5  1  0.56057196  0.06383400  0.31176003  1
  Fe  Fe6  1  0.56368096  0.06018700  0.81245105  1
  Fe  Fe7  1  0.06383397  0.56057198  0.31176004  1
  Fe  Fe8  1  0.81165891  0.81165897  0.56502308  1
  Fe  Fe9  1  0.31238397  0.31238399  0.06284803  1
  Fe  Fe10  1  0.56368094  0.56368098  0.81245107  1
  Fe  Fe11  1  0.06383399  0.06383400  0.31176002  1
