# generated using pymatgen
data_Nb2In3Sb2Se2S9
_symmetry_space_group_name_H-M   'P 1'
_cell_length_a   5.78620625
_cell_length_b   5.78620625
_cell_length_c   13.85229588
_cell_angle_alpha   96.09115601
_cell_angle_beta   96.09115601
_cell_angle_gamma   119.46804047
_symmetry_Int_Tables_number   1
_chemical_formula_structural   Nb2In3Sb2Se2S9
_chemical_formula_sum   'Nb2 In3 Sb2 Se2 S9'
_cell_volume   394.72883597
_cell_formula_units_Z   1
loop_
 _symmetry_equiv_pos_site_id
 _symmetry_equiv_pos_as_xyz
  1  'x, y, z'
loop_
 _atom_site_type_symbol
 _atom_site_label
 _atom_site_symmetry_multiplicity
 _atom_site_fract_x
 _atom_site_fract_y
 _atom_site_fract_z
 _atom_site_occupancy
  In  In0  1  0.91603297  0.91603297  0.83206599  1
  Nb  Nb1  1  0.08396700  0.08396700  0.16793400  1
  In  In2  1  0.74999997  0.24999999  0.50000000  1
  In  In3  1  0.91823697  0.41823699  0.83647400  1
  Nb  Nb4  1  0.08176300  0.58176298  0.16352599  1
  Sb  Sb5  1  0.41823700  0.91823697  0.83647400  1
  S  S6  1  0.58176298  0.08176300  0.16352599  1
  Sb  Sb7  1  0.25000000  0.74999997  0.50000000  1
  S  S8  1  0.16405700  0.83594297  -0.00000001  1
  Se  Se9  1  0.33317300  0.99922497  0.33239799  1
  S  S10  1  0.41200499  0.41200499  0.82401001  1
  S  S11  1  0.83594297  0.16405699  -0.00000001  1
  Se  Se12  1  0.58799498  0.58799498  0.17598999  1
  S  S13  1  0.00077501  0.66682698  0.66760201  1
  S  S14  1  0.99922496  0.33317299  0.33239799  1
  S  S15  1  0.66682697  0.00077500  0.66760200  1
  S  S16  1  0.28665599  0.28665599  0.57331200  1
  S  S17  1  0.71334398  0.71334398  0.42668799  1
