# generated using pymatgen
data_ScMnAl4(FeSi4)2
_symmetry_space_group_name_H-M   'P 1'
_cell_length_a   3.86414003
_cell_length_b   5.29033184
_cell_length_c   12.90555286
_cell_angle_alpha   90.00000000
_cell_angle_beta   90.00000000
_cell_angle_gamma   111.42036438
_symmetry_Int_Tables_number   1
_chemical_formula_structural   ScMnAl4(FeSi4)2
_chemical_formula_sum   'Sc1 Mn1 Al4 Fe2 Si8'
_cell_volume   245.59955633
_cell_formula_units_Z   1
loop_
 _symmetry_equiv_pos_site_id
 _symmetry_equiv_pos_as_xyz
  1  'x, y, z'
loop_
 _atom_site_type_symbol
 _atom_site_label
 _atom_site_symmetry_multiplicity
 _atom_site_fract_x
 _atom_site_fract_y
 _atom_site_fract_z
 _atom_site_occupancy
  Mn  Mn0  1  0.86556197  0.73112403  0.75000001  1
  Sc  Sc1  1  0.13443799  0.26887601  0.25000000  1
  Al  Al2  1  0.42679597  0.85359203  0.38241400  1
  Al  Al3  1  0.57320399  0.14640801  0.61758601  1
  Al  Al4  1  0.57320399  0.14640801  0.88241401  1
  Al  Al5  1  0.42679597  0.85359203  0.11758600  1
  Si  Si6  1  0.15876799  0.31753601  0.75000001  1
  Fe  Fe7  1  0.84123197  0.68246402  0.25000000  1
  Fe  Fe8  1  0.11194299  0.22388601  0.45930100  1
  Si  Si9  1  0.88805697  0.77611403  0.54069901  1
  Si  Si10  1  0.88805697  0.77611403  0.95930101  1
  Si  Si11  1  0.11194299  0.22388601  0.04069900  1
  Si  Si12  1  0.71819998  0.43640001  0.08922600  1
  Si  Si13  1  0.28179998  0.56360002  0.91077401  1
  Si  Si14  1  0.28179998  0.56360002  0.58922601  1
  Si  Si15  1  0.71819998  0.43640001  0.41077400  1
