# generated using pymatgen
data_DyErLu2In2GePd2Au
_symmetry_space_group_name_H-M   'P 1'
_cell_length_a   4.20154715
_cell_length_b   7.19276094
_cell_length_c   7.19276094
_cell_angle_alpha   90.00000000
_cell_angle_beta   90.00000000
_cell_angle_gamma   90.00000000
_symmetry_Int_Tables_number   1
_chemical_formula_structural   DyErLu2In2GePd2Au
_chemical_formula_sum   'Dy1 Er1 Lu2 In2 Ge1 Pd2 Au1'
_cell_volume   217.37044486
_cell_formula_units_Z   1
loop_
 _symmetry_equiv_pos_site_id
 _symmetry_equiv_pos_as_xyz
  1  'x, y, z'
loop_
 _atom_site_type_symbol
 _atom_site_label
 _atom_site_symmetry_multiplicity
 _atom_site_fract_x
 _atom_site_fract_y
 _atom_site_fract_z
 _atom_site_occupancy
  Er  Er0  1  0.49999998  0.67705501  0.17705500  1
  Dy  Dy1  1  0.49999998  0.32294500  0.82294501  1
  Lu  Lu2  1  0.49999998  0.17705500  0.32294500  1
  Lu  Lu3  1  0.49999998  0.82294501  0.67705501  1
  In  In4  1  -0.00000000  0.50000000  0.50000000  1
  In  In5  1  0.00000000  0.00000000  0.00000000  1
  Pd  Pd6  1  0.00000000  0.87551601  0.37551600  1
  Ge  Ge7  1  0.99999997  0.12448400  0.62448400  1
  Pd  Pd8  1  -0.00000000  0.37551600  0.12448400  1
  Au  Au9  1  0.99999997  0.62448400  0.87551601  1
