# generated using pymatgen
data_LiMgGaNiGe
_symmetry_space_group_name_H-M   'P 1'
_cell_length_a   4.24215412
_cell_length_b   4.24215412
_cell_length_c   5.78750896
_cell_angle_alpha   111.49944305
_cell_angle_beta   111.49944305
_cell_angle_gamma   90.00000000
_symmetry_Int_Tables_number   1
_chemical_formula_structural   LiMgGaNiGe
_chemical_formula_sum   'Li1 Mg1 Ga1 Ni1 Ge1'
_cell_volume   89.07015967
_cell_formula_units_Z   1
loop_
 _symmetry_equiv_pos_site_id
 _symmetry_equiv_pos_as_xyz
  1  'x, y, z'
loop_
 _atom_site_type_symbol
 _atom_site_label
 _atom_site_symmetry_multiplicity
 _atom_site_fract_x
 _atom_site_fract_y
 _atom_site_fract_z
 _atom_site_occupancy
  Li  Li0  1  0.99947090  0.99947094  0.99894187  1
  Mg  Mg1  1  0.41416996  0.41416998  0.82833993  1
  Ga  Ga2  1  0.26257195  0.76257196  0.52514393  1
  Ge  Ge3  1  0.76257195  0.26257199  0.52514394  1
  Ni  Ni4  1  0.65521594  0.65521596  0.31043193  1
