# generated using pymatgen
data_Na3LiYO5
_symmetry_space_group_name_H-M   'P 1'
_cell_length_a   3.77807212
_cell_length_b   5.95918322
_cell_length_c   8.02688694
_cell_angle_alpha   89.79610443
_cell_angle_beta   90.00000000
_cell_angle_gamma   108.48133850
_symmetry_Int_Tables_number   1
_chemical_formula_structural   Na3LiYO5
_chemical_formula_sum   'Na3 Li1 Y1 O5'
_cell_volume   171.39768744
_cell_formula_units_Z   1
loop_
 _symmetry_equiv_pos_site_id
 _symmetry_equiv_pos_as_xyz
  1  'x, y, z'
loop_
 _atom_site_type_symbol
 _atom_site_label
 _atom_site_symmetry_multiplicity
 _atom_site_fract_x
 _atom_site_fract_y
 _atom_site_fract_z
 _atom_site_occupancy
  Y  Y0  1  0.73468196  0.46936400  0.29338698  1
  Na  Na1  1  0.26531797  0.53063600  0.70661296  1
  Na  Na2  1  0.00000000  0.00000000  0.49999997  1
  Na  Na3  1  0.49999995  1.00000000  -0.00000001  1
  Li  Li4  1  0.45120395  0.90240800  0.29771098  1
  O  O5  1  0.85875895  0.71751800  0.96522294  1
  O  O6  1  0.14124098  0.28248200  0.03477700  1
  O  O7  1  0.54879598  0.09759200  0.70228896  1
  O  O8  1  0.17361198  0.34722400  0.43317997  1
  O  O9  1  0.82638795  0.65277600  0.56681996  1
