# generated using pymatgen
data_K2TlIn(CuSe4)2
_symmetry_space_group_name_H-M   'P 1'
_cell_length_a   6.80549192
_cell_length_b   6.82667732
_cell_length_c   11.90829945
_cell_angle_alpha   90.00000000
_cell_angle_beta   90.00000000
_cell_angle_gamma   119.89739990
_symmetry_Int_Tables_number   1
_chemical_formula_structural   K2TlIn(CuSe4)2
_chemical_formula_sum   'K2 Tl1 In1 Cu2 Se8'
_cell_volume   479.62007406
_cell_formula_units_Z   1
loop_
 _symmetry_equiv_pos_site_id
 _symmetry_equiv_pos_as_xyz
  1  'x, y, z'
loop_
 _atom_site_type_symbol
 _atom_site_label
 _atom_site_symmetry_multiplicity
 _atom_site_fract_x
 _atom_site_fract_y
 _atom_site_fract_z
 _atom_site_occupancy
  K  K0  1  0.50000001  0.00000000  0.74999997  1
  K  K1  1  0.50000001  0.00000000  0.24999999  1
  Tl  Tl2  1  0.75838605  0.51972502  0.49999998  1
  In  In3  1  0.24161404  0.48027502  0.49999998  1
  Cu  Cu4  1  0.76133905  0.51972502  -0.00000000  1
  Cu  Cu5  1  0.23866104  0.48027502  -0.00000000  1
  Se  Se6  1  0.34357601  0.15326601  -0.00000000  1
  Se  Se7  1  0.65642407  0.84673403  -0.00000000  1
  Se  Se8  1  0.19031006  0.84673403  0.49999998  1
  Se  Se9  1  0.80969002  0.15326601  0.49999998  1
  Se  Se10  1  0.50000004  0.50000002  0.32633399  1
  Se  Se11  1  0.00000004  0.50000002  0.17366599  1
  Se  Se12  1  0.50000004  0.50000002  0.67366597  1
  Se  Se13  1  0.00000004  0.50000002  0.82633397  1
