# generated using pymatgen
data_KBaCaYTl3AuSe2
_symmetry_space_group_name_H-M   'P 1'
_cell_length_a   8.00721645
_cell_length_b   8.00721645
_cell_length_c   8.00721741
_cell_angle_alpha   60.72271347
_cell_angle_beta   60.72271347
_cell_angle_gamma   60.72271347
_symmetry_Int_Tables_number   1
_chemical_formula_structural   KBaCaYTl3AuSe2
_chemical_formula_sum   'K1 Ba1 Ca1 Y1 Tl3 Au1 Se2'
_cell_volume   368.93993334
_cell_formula_units_Z   1
loop_
 _symmetry_equiv_pos_site_id
 _symmetry_equiv_pos_as_xyz
  1  'x, y, z'
loop_
 _atom_site_type_symbol
 _atom_site_label
 _atom_site_symmetry_multiplicity
 _atom_site_fract_x
 _atom_site_fract_y
 _atom_site_fract_z
 _atom_site_occupancy
  K  K0  1  0.26718901  0.26718900  0.26718899  1
  Ba  Ba1  1  0.76718903  0.76718901  0.76718896  1
  Ca  Ca2  1  0.00648900  0.00648900  0.00648900  1
  Y  Y3  1  0.50648902  0.50648901  0.50648897  1
  Tl  Tl4  1  0.82348702  0.24370500  0.68762897  1
  Tl  Tl5  1  0.68762903  0.82348701  0.24370497  1
  Tl  Tl6  1  0.24370502  0.68762901  0.82348697  1
  Se  Se7  1  0.32348701  0.18762900  0.74370498  1
  Se  Se8  1  0.18762902  0.74370501  0.32348698  1
  Au  Au9  1  0.74370502  0.32348700  0.18762898  1
