# generated using pymatgen
data_KNa2(CuO4)3
_symmetry_space_group_name_H-M   'P 1'
_cell_length_a   7.38964605
_cell_length_b   7.46864605
_cell_length_c   7.46864605
_cell_angle_alpha   60.59262085
_cell_angle_beta   60.34929276
_cell_angle_gamma   60.34929276
_symmetry_Int_Tables_number   1
_chemical_formula_structural   KNa2(CuO4)3
_chemical_formula_sum   'K1 Na2 Cu3 O12'
_cell_volume   294.30193462
_cell_formula_units_Z   1
loop_
 _symmetry_equiv_pos_site_id
 _symmetry_equiv_pos_as_xyz
  1  'x, y, z'
loop_
 _atom_site_type_symbol
 _atom_site_label
 _atom_site_symmetry_multiplicity
 _atom_site_fract_x
 _atom_site_fract_y
 _atom_site_fract_z
 _atom_site_occupancy
  Na  Na0  1  0.62291999  0.12708000  0.62708004  1
  K  K1  1  0.37708000  0.87292000  0.37292004  1
  Na  Na2  1  0.00000000  0.00000000  0.00000000  1
  Cu  Cu3  1  0.00000001  0.50000000  0.50000002  1
  Cu  Cu4  1  0.50000000  0.50000000  0.00000003  1
  Cu  Cu5  1  0.00000001  0.50000000  1.00000003  1
  O  O6  1  0.06675200  0.18324800  0.68324802  1
  O  O7  1  0.67767099  0.57232900  0.07232904  1
  O  O8  1  0.06918301  0.57107600  0.67070103  1
  O  O9  1  0.68903999  0.17070100  0.07107603  1
  O  O10  1  0.68903999  0.57107600  0.67070105  1
  O  O11  1  0.06918300  0.17070100  0.07107601  1
  O  O12  1  0.93324799  0.81675200  0.31675206  1
  O  O13  1  0.32232900  0.42767100  0.92767104  1
  O  O14  1  0.93081698  0.42892400  0.32929905  1
  O  O15  1  0.31096001  0.82929900  0.92892405  1
  O  O16  1  0.31096000  0.42892400  0.32929903  1
  O  O17  1  0.93081699  0.82929900  0.92892407  1
