# generated using pymatgen
data_KLiNi2PO9
_symmetry_space_group_name_H-M   'P 1'
_cell_length_a   4.61165810
_cell_length_b   5.02455711
_cell_length_c   8.59863377
_cell_angle_alpha   89.82709503
_cell_angle_beta   90.00000000
_cell_angle_gamma   90.00000000
_symmetry_Int_Tables_number   1
_chemical_formula_structural   KLiNi2PO9
_chemical_formula_sum   'K1 Li1 Ni2 P1 O9'
_cell_volume   199.24267466
_cell_formula_units_Z   1
loop_
 _symmetry_equiv_pos_site_id
 _symmetry_equiv_pos_as_xyz
  1  'x, y, z'
loop_
 _atom_site_type_symbol
 _atom_site_label
 _atom_site_symmetry_multiplicity
 _atom_site_fract_x
 _atom_site_fract_y
 _atom_site_fract_z
 _atom_site_occupancy
  Li  Li0  1  0.75824298  0.75419198  0.33994904  1
  K  K1  1  0.25824299  0.24580799  0.66005104  1
  Ni  Ni2  1  0.17082200  0.25598499  0.14414401  1
  Ni  Ni3  1  0.67082199  0.74401498  0.85585606  1
  O  O4  1  0.82213498  0.25585799  0.15777001  1
  P  P5  1  0.32213499  0.74414198  0.84223006  1
  O  O6  1  0.27186999  0.00862300  0.25012401  1
  O  O7  1  0.77186998  0.99137698  0.74987606  1
  O  O8  1  0.27157499  0.52272899  0.23179103  1
  O  O9  1  0.77157498  0.47727099  0.76820905  1
  O  O10  1  0.29564499  0.23927099  0.97402605  1
  O  O11  1  0.79564498  0.76072898  0.02597402  1
  O  O12  1  0.76121898  0.25349599  0.48285803  1
  O  O13  1  0.26121899  0.74650398  0.51714204  1
