# generated using pymatgen
data_NaYTl3CuS8
_symmetry_space_group_name_H-M   'P 1'
_cell_length_a   8.00330353
_cell_length_b   8.00330353
_cell_length_c   8.00330353
_cell_angle_alpha   60.00000000
_cell_angle_beta   60.00000000
_cell_angle_gamma   60.00000000
_symmetry_Int_Tables_number   1
_chemical_formula_structural   NaYTl3CuS8
_chemical_formula_sum   'Na1 Y1 Tl3 Cu1 S8'
_cell_volume   362.48735901
_cell_formula_units_Z   1
loop_
 _symmetry_equiv_pos_site_id
 _symmetry_equiv_pos_as_xyz
  1  'x, y, z'
loop_
 _atom_site_type_symbol
 _atom_site_label
 _atom_site_symmetry_multiplicity
 _atom_site_fract_x
 _atom_site_fract_y
 _atom_site_fract_z
 _atom_site_occupancy
  Na  Na0  1  0.74999997  0.74999997  0.74999997  1
  Y  Y1  1  0.00000000  0.00000000  0.00000000  1
  Tl  Tl2  1  0.37499999  0.37499999  0.87499997  1
  Cu  Cu3  1  0.37499999  0.37499999  0.37499999  1
  Tl  Tl4  1  0.37499999  0.87499997  0.37499999  1
  Tl  Tl5  1  0.87499997  0.37499999  0.37499999  1
  S  S6  1  0.62041198  0.62041098  0.13876600  1
  S  S7  1  0.62041198  0.62041098  0.62041098  1
  S  S8  1  0.62041198  0.13876600  0.62041098  1
  S  S9  1  0.13876700  0.62041098  0.62041098  1
  S  S10  1  0.12958800  0.12958900  0.61123398  1
  S  S11  1  0.12958800  0.12958900  0.12958900  1
  S  S12  1  0.12958800  0.61123398  0.12958900  1
  S  S13  1  0.61123298  0.12958900  0.12958900  1
