# generated using pymatgen
data_SrLi3
_symmetry_space_group_name_H-M   'P 1'
_cell_length_a   4.16294956
_cell_length_b   4.16294956
_cell_length_c   11.23619270
_cell_angle_alpha   90.00000000
_cell_angle_beta   90.00000000
_cell_angle_gamma   90.69869232
_symmetry_Int_Tables_number   1
_chemical_formula_structural   SrLi3
_chemical_formula_sum   'Sr1 Li3'
_cell_volume   194.71041623
_cell_formula_units_Z   1
loop_
 _symmetry_equiv_pos_site_id
 _symmetry_equiv_pos_as_xyz
  1  'x, y, z'
loop_
 _atom_site_type_symbol
 _atom_site_label
 _atom_site_symmetry_multiplicity
 _atom_site_fract_x
 _atom_site_fract_y
 _atom_site_fract_z
 _atom_site_occupancy
  Li  Li0  1  0.25735699  0.24264299  0.12558500  1
  Sr  Sr1  1  0.75735698  0.74264296  0.87441502  1
  Li  Li2  1  0.71864298  0.78135696  0.10334800  1
  Li  Li3  1  0.21864299  0.28135699  0.89665202  1
