# generated using pymatgen
data_BaNaSr3CaMgCu
_symmetry_space_group_name_H-M   'P 1'
_cell_length_a   5.73953819
_cell_length_b   5.73953819
_cell_length_c   10.14723206
_cell_angle_alpha   90.00000000
_cell_angle_beta   90.00000000
_cell_angle_gamma   120.00000000
_symmetry_Int_Tables_number   1
_chemical_formula_structural   BaNaSr3CaMgCu
_chemical_formula_sum   'Ba1 Na1 Sr3 Ca1 Mg1 Cu1'
_cell_volume   289.48903885
_cell_formula_units_Z   1
loop_
 _symmetry_equiv_pos_site_id
 _symmetry_equiv_pos_as_xyz
  1  'x, y, z'
loop_
 _atom_site_type_symbol
 _atom_site_label
 _atom_site_symmetry_multiplicity
 _atom_site_fract_x
 _atom_site_fract_y
 _atom_site_fract_z
 _atom_site_occupancy
  Ba  Ba0  1  0.66666665  0.33333334  0.42184900  1
  Sr  Sr1  1  0.33333334  0.66666668  0.92184899  1
  Mg  Mg2  1  0.33333334  0.66666668  0.57815100  1
  Sr  Sr3  1  0.66666665  0.33333334  0.07815100  1
  Sr  Sr4  1  0.00000000  0.00000000  0.25000000  1
  Ca  Ca5  1  0.00000000  0.00000000  0.75000000  1
  Na  Na6  1  0.33333334  0.66666668  0.25000000  1
  Cu  Cu7  1  0.66666665  0.33333334  0.75000000  1
