# generated using pymatgen
data_ScAl3Ga4
_symmetry_space_group_name_H-M   'P 1'
_cell_length_a   4.12923717
_cell_length_b   4.12923717
_cell_length_c   8.27752972
_cell_angle_alpha   90.00000000
_cell_angle_beta   90.00000000
_cell_angle_gamma   90.00000000
_symmetry_Int_Tables_number   1
_chemical_formula_structural   ScAl3Ga4
_chemical_formula_sum   'Sc1 Al3 Ga4'
_cell_volume   141.13684526
_cell_formula_units_Z   1
loop_
 _symmetry_equiv_pos_site_id
 _symmetry_equiv_pos_as_xyz
  1  'x, y, z'
loop_
 _atom_site_type_symbol
 _atom_site_label
 _atom_site_symmetry_multiplicity
 _atom_site_fract_x
 _atom_site_fract_y
 _atom_site_fract_z
 _atom_site_occupancy
  Al  Al0  1  0.00000000  0.00000000  0.00000000  1
  Al  Al1  1  0.00000000  0.00000000  0.50000002  1
  Al  Al2  1  0.49999998  0.49999998  -0.00000000  1
  Sc  Sc3  1  0.49999998  0.49999998  0.50000002  1
  Ga  Ga4  1  0.49999998  0.00000000  0.25581701  1
  Ga  Ga5  1  0.49999998  0.00000000  0.74418303  1
  Ga  Ga6  1  0.00000000  0.49999998  0.25581701  1
  Ga  Ga7  1  0.00000000  0.49999998  0.74418303  1
