# generated using pymatgen
data_YHfMn2AlFe4CuGe3
_symmetry_space_group_name_H-M   'P 1'
_cell_length_a   5.42473078
_cell_length_b   5.42983198
_cell_length_c   9.00768185
_cell_angle_alpha   90.00039673
_cell_angle_beta   90.00054169
_cell_angle_gamma   60.28175354
_symmetry_Int_Tables_number   1
_chemical_formula_structural   YHfMn2AlFe4CuGe3
_chemical_formula_sum   'Y1 Hf1 Mn2 Al1 Fe4 Cu1 Ge3'
_cell_volume   230.42748699
_cell_formula_units_Z   1
loop_
 _symmetry_equiv_pos_site_id
 _symmetry_equiv_pos_as_xyz
  1  'x, y, z'
loop_
 _atom_site_type_symbol
 _atom_site_label
 _atom_site_symmetry_multiplicity
 _atom_site_fract_x
 _atom_site_fract_y
 _atom_site_fract_z
 _atom_site_occupancy
  Y  Y0  1  0.99997801  0.99999504  0.00058397  1
  Hf  Hf1  1  0.49998800  0.00000300  0.24633699  1
  Mn  Mn2  1  0.99998601  0.50000302  0.24644098  1
  Mn  Mn3  1  0.49998600  0.50000202  0.24628299  1
  Fe  Fe4  1  0.49999501  0.99999904  0.75325600  1
  Fe  Fe5  1  0.99998401  0.50000602  0.75320499  1
  Al  Al6  1  0.49998600  0.49999902  0.75256300  1
  Cu  Cu7  1  0.99998601  0.00000400  0.33671398  1
  Ge  Ge8  1  0.99999101  0.99999104  0.66287298  1
  Fe  Fe9  1  0.66635601  0.66619803  0.50128299  1
  Fe  Fe10  1  0.33360800  0.33380501  0.50128300  1
  Ge  Ge11  1  0.66626301  0.66586403  0.99959000  1
  Ge  Ge12  1  0.33369200  0.33413201  0.99958701  1
