# generated using pymatgen
data_CsRbSrH2Cl
_symmetry_space_group_name_H-M   'P 1'
_cell_length_a   3.34462404
_cell_length_b   3.34462380
_cell_length_c   17.69102287
_cell_angle_alpha   90.00000000
_cell_angle_beta   90.00000000
_cell_angle_gamma   120.00000000
_symmetry_Int_Tables_number   1
_chemical_formula_structural   CsRbSrH2Cl
_chemical_formula_sum   'Cs1 Rb1 Sr1 H2 Cl1'
_cell_volume   171.38711150
_cell_formula_units_Z   1
loop_
 _symmetry_equiv_pos_site_id
 _symmetry_equiv_pos_as_xyz
  1  'x, y, z'
loop_
 _atom_site_type_symbol
 _atom_site_label
 _atom_site_symmetry_multiplicity
 _atom_site_fract_x
 _atom_site_fract_y
 _atom_site_fract_z
 _atom_site_occupancy
  Cs  Cs0  1  0.66666664  0.33333331  0.24999999  1
  Sr  Sr1  1  0.33333329  0.66666663  0.74999996  1
  Rb  Rb2  1  0.00000000  0.00000000  0.16165699  1
  H  H3  1  0.00000000  0.00000000  0.33834298  1
  Cl  Cl4  1  0.00000000  0.00000000  0.66165697  1
  H  H5  1  0.00000000  0.00000000  0.83834296  1
