# generated using pymatgen
data_LaDyZr2GaGe2Pd9
_symmetry_space_group_name_H-M   'P 1'
_cell_length_a   5.57184601
_cell_length_b   6.99184084
_cell_length_c   7.38561821
_cell_angle_alpha   90.00000000
_cell_angle_beta   90.00000000
_cell_angle_gamma   90.00000000
_symmetry_Int_Tables_number   1
_chemical_formula_structural   LaDyZr2GaGe2Pd9
_chemical_formula_sum   'La1 Dy1 Zr2 Ga1 Ge2 Pd9'
_cell_volume   287.72492947
_cell_formula_units_Z   1
loop_
 _symmetry_equiv_pos_site_id
 _symmetry_equiv_pos_as_xyz
  1  'x, y, z'
loop_
 _atom_site_type_symbol
 _atom_site_label
 _atom_site_symmetry_multiplicity
 _atom_site_fract_x
 _atom_site_fract_y
 _atom_site_fract_z
 _atom_site_occupancy
  La  La0  1  0.14276400  0.75000002  0.52815598  1
  Dy  Dy1  1  0.85723600  0.25000001  0.47184399  1
  Zr  Zr2  1  0.64276400  0.25000001  0.97184397  1
  Zr  Zr3  1  0.35723600  0.75000002  0.02815600  1
  Ga  Ga4  1  0.85612800  0.75000002  0.87754298  1
  Ge  Ge5  1  0.14387200  0.25000001  0.12245700  1
  Ge  Ge6  1  0.35612800  0.25000001  0.62245698  1
  Pd  Pd7  1  0.64387200  0.75000002  0.37754299  1
  Pd  Pd8  1  0.59392600  0.55125501  0.67715298  1
  Pd  Pd9  1  0.40607400  0.44874501  0.32284699  1
  Pd  Pd10  1  0.09392600  0.44874501  0.82284698  1
  Pd  Pd11  1  0.40607400  0.05125500  0.32284699  1
  Pd  Pd12  1  0.90607400  0.55125501  0.17715299  1
  Pd  Pd13  1  0.59392600  0.94874502  0.67715298  1
  Pd  Pd14  1  0.90607400  0.94874502  0.17715299  1
  Pd  Pd15  1  0.09392600  0.05125500  0.82284698  1
