# generated using pymatgen
data_KLiCuO4
_symmetry_space_group_name_H-M   'P 1'
_cell_length_a   3.58813405
_cell_length_b   4.79235697
_cell_length_c   6.00182772
_cell_angle_alpha   110.52479553
_cell_angle_beta   90.00000000
_cell_angle_gamma   90.00000000
_symmetry_Int_Tables_number   1
_chemical_formula_structural   KLiCuO4
_chemical_formula_sum   'K1 Li1 Cu1 O4'
_cell_volume   96.65373768
_cell_formula_units_Z   1
loop_
 _symmetry_equiv_pos_site_id
 _symmetry_equiv_pos_as_xyz
  1  'x, y, z'
loop_
 _atom_site_type_symbol
 _atom_site_label
 _atom_site_symmetry_multiplicity
 _atom_site_fract_x
 _atom_site_fract_y
 _atom_site_fract_z
 _atom_site_occupancy
  Li  Li0  1  0.00000000  0.00000000  0.00000000  1
  K  K1  1  0.49999999  0.50000001  0.50000001  1
  O  O2  1  0.49999999  0.50000001  0.00000000  1
  Cu  Cu3  1  -0.00000000  0.15561900  0.42478500  1
  O  O4  1  0.49999999  0.67204301  0.90776301  1
  O  O5  1  0.49999999  0.32795700  0.09223700  1
  O  O6  1  0.99999999  0.84438101  0.57521501  1
