# generated using pymatgen
data_TiAlSi2NiRh
_symmetry_space_group_name_H-M   'P 1'
_cell_length_a   4.92724323
_cell_length_b   4.92724323
_cell_length_c   4.92724323
_cell_angle_alpha   60.00000000
_cell_angle_beta   60.00000000
_cell_angle_gamma   60.00000000
_symmetry_Int_Tables_number   1
_chemical_formula_structural   TiAlSi2NiRh
_chemical_formula_sum   'Ti1 Al1 Si2 Ni1 Rh1'
_cell_volume   84.58571160
_cell_formula_units_Z   1
loop_
 _symmetry_equiv_pos_site_id
 _symmetry_equiv_pos_as_xyz
  1  'x, y, z'
loop_
 _atom_site_type_symbol
 _atom_site_label
 _atom_site_symmetry_multiplicity
 _atom_site_fract_x
 _atom_site_fract_y
 _atom_site_fract_z
 _atom_site_occupancy
  Ti  Ti0  1  0.24999999  0.24999999  0.24999999  1
  Al  Al1  1  0.49999999  0.49999999  0.49999999  1
  Si  Si2  1  0.87499997  0.87499997  0.87499997  1
  Si  Si3  1  0.87499997  0.37499999  0.87499997  1
  Ni  Ni4  1  0.87499997  0.87499997  0.37499999  1
  Rh  Rh5  1  0.37499999  0.87499997  0.87499997  1
