# generated using pymatgen
data_Cu3SbPSe2
_symmetry_space_group_name_H-M   'P 1'
_cell_length_a   3.63054109
_cell_length_b   6.39753199
_cell_length_c   6.98895836
_cell_angle_alpha   115.47407532
_cell_angle_beta   105.05428314
_cell_angle_gamma   90.00000000
_symmetry_Int_Tables_number   1
_chemical_formula_structural   Cu3SbPSe2
_chemical_formula_sum   'Cu3 Sb1 P1 Se2'
_cell_volume   140.35127873
_cell_formula_units_Z   1
loop_
 _symmetry_equiv_pos_site_id
 _symmetry_equiv_pos_as_xyz
  1  'x, y, z'
loop_
 _atom_site_type_symbol
 _atom_site_label
 _atom_site_symmetry_multiplicity
 _atom_site_fract_x
 _atom_site_fract_y
 _atom_site_fract_z
 _atom_site_occupancy
  Cu  Cu0  1  0.75590793  0.78784798  0.51181497  1
  Cu  Cu1  1  0.24183698  0.21664499  0.48367399  1
  Sb  Sb2  1  0.50149895  0.50177999  0.00299798  1
  Cu  Cu3  1  0.13473897  0.47017999  0.26947799  1
  Se  Se4  1  0.86580394  0.52174699  0.73160796  1
  P  P5  1  0.61835192  0.95129397  0.23670498  1
  Se  Se6  1  0.38186098  0.05050600  0.76372198  1
