# generated using pymatgen
data_RbSrTl2HgTe3I
_symmetry_space_group_name_H-M   'P 1'
_cell_length_a   8.48849583
_cell_length_b   8.48849583
_cell_length_c   8.48849583
_cell_angle_alpha   60.00000000
_cell_angle_beta   60.00000000
_cell_angle_gamma   60.00000000
_symmetry_Int_Tables_number   1
_chemical_formula_structural   RbSrTl2HgTe3I
_chemical_formula_sum   'Rb1 Sr1 Tl2 Hg1 Te3 I1'
_cell_volume   432.49114562
_cell_formula_units_Z   1
loop_
 _symmetry_equiv_pos_site_id
 _symmetry_equiv_pos_as_xyz
  1  'x, y, z'
loop_
 _atom_site_type_symbol
 _atom_site_label
 _atom_site_symmetry_multiplicity
 _atom_site_fract_x
 _atom_site_fract_y
 _atom_site_fract_z
 _atom_site_occupancy
  Hg  Hg0  1  0.75000000  0.75000000  0.75000000  1
  Rb  Rb1  1  0.25000000  0.25000000  0.25000000  1
  Sr  Sr2  1  0.00000000  0.00000000  0.00000000  1
  Tl  Tl3  1  0.76151500  0.23848500  0.23848500  1
  Te  Te4  1  0.23848500  0.23848500  0.76151500  1
  Tl  Tl5  1  0.76151500  0.76151500  0.23848500  1
  Te  Te6  1  0.23848500  0.76151500  0.76151500  1
  Te  Te7  1  0.76151500  0.23848500  0.76151500  1
  I  I8  1  0.23848500  0.76151500  0.23848500  1
