# generated using pymatgen
data_Na4Cu2AsSe7
_symmetry_space_group_name_H-M   'P 1'
_cell_length_a   6.95595884
_cell_length_b   7.00099421
_cell_length_c   9.25682259
_cell_angle_alpha   90.00000000
_cell_angle_beta   72.97055817
_cell_angle_gamma   90.00000000
_symmetry_Int_Tables_number   1
_chemical_formula_structural   Na4Cu2AsSe7
_chemical_formula_sum   'Na4 Cu2 As1 Se7'
_cell_volume   431.02919431
_cell_formula_units_Z   1
loop_
 _symmetry_equiv_pos_site_id
 _symmetry_equiv_pos_as_xyz
  1  'x, y, z'
loop_
 _atom_site_type_symbol
 _atom_site_label
 _atom_site_symmetry_multiplicity
 _atom_site_fract_x
 _atom_site_fract_y
 _atom_site_fract_z
 _atom_site_occupancy
  Na  Na0  1  0.24623301  0.74999998  0.06250299  1
  Na  Na1  1  0.75376703  0.24999999  0.93749699  1
  Na  Na2  1  0.26771401  0.74999998  0.54905200  1
  Na  Na3  1  0.73228603  0.24999999  0.45094798  1
  Cu  Cu4  1  0.70529903  0.74999998  0.68746398  1
  Cu  Cu5  1  0.29470101  0.24999999  0.31253599  1
  Se  Se6  1  0.90346004  0.74999998  0.83732198  1
  As  As7  1  0.12002601  0.24999999  0.55664401  1
  Se  Se8  1  0.49894202  0.00282800  0.73062100  1
  Se  Se9  1  0.50105802  0.50282799  0.26937898  1
  Se  Se10  1  0.50105802  0.99717197  0.26937898  1
  Se  Se11  1  0.49894202  0.49717199  0.73062100  1
  Se  Se12  1  0.87997404  0.74999998  0.44335597  1
  Se  Se13  1  0.09654000  0.24999999  0.16267800  1
