# generated using pymatgen
data_LiYAg2
_symmetry_space_group_name_H-M   'P 1'
_cell_length_a   4.12975979
_cell_length_b   4.12975979
_cell_length_c   7.37905312
_cell_angle_alpha   73.74993134
_cell_angle_beta   73.74993134
_cell_angle_gamma   60.00000381
_symmetry_Int_Tables_number   1
_chemical_formula_structural   LiYAg2
_chemical_formula_sum   'Li1 Y1 Ag2'
_cell_volume   103.14218275
_cell_formula_units_Z   1
loop_
 _symmetry_equiv_pos_site_id
 _symmetry_equiv_pos_as_xyz
  1  'x, y, z'
loop_
 _atom_site_type_symbol
 _atom_site_label
 _atom_site_symmetry_multiplicity
 _atom_site_fract_x
 _atom_site_fract_y
 _atom_site_fract_z
 _atom_site_occupancy
  Li  Li0  1  0.50000004  0.50000000  0.49999996  1
  Y  Y1  1  0.00000000  0.00000000  0.00000000  1
  Ag  Ag2  1  0.74316606  0.74316601  0.77050194  1
  Ag  Ag3  1  0.25683402  0.25683400  0.22949798  1
