# generated using pymatgen
data_Mg5In
_symmetry_space_group_name_H-M   'P 1'
_cell_length_a   3.25436997
_cell_length_b   6.44341946
_cell_length_c   7.53616142
_cell_angle_alpha   104.71676636
_cell_angle_beta   90.00000000
_cell_angle_gamma   104.62753296
_symmetry_Int_Tables_number   1
_chemical_formula_structural   Mg5In
_chemical_formula_sum   'Mg5 In1'
_cell_volume   147.54158612
_cell_formula_units_Z   1
loop_
 _symmetry_equiv_pos_site_id
 _symmetry_equiv_pos_as_xyz
  1  'x, y, z'
loop_
 _atom_site_type_symbol
 _atom_site_label
 _atom_site_symmetry_multiplicity
 _atom_site_fract_x
 _atom_site_fract_y
 _atom_site_fract_z
 _atom_site_occupancy
  Mg  Mg0  1  0.38396196  0.76792402  0.26590701  1
  Mg  Mg1  1  0.00904300  0.01808600  0.00187200  1
  Mg  Mg2  1  0.71492698  0.42985401  0.93408099  1
  Mg  Mg3  1  0.33721096  0.67442202  0.67868500  1
  Mg  Mg4  1  0.05616099  0.11232200  0.61172099  1
  In  In5  1  0.66536498  0.33073001  0.34106700  1
