# generated using pymatgen
data_BaCuTeSO2
_symmetry_space_group_name_H-M   'P 1'
_cell_length_a   3.57136989
_cell_length_b   3.57136989
_cell_length_c   7.95613003
_cell_angle_alpha   90.00000000
_cell_angle_beta   90.00000000
_cell_angle_gamma   90.00000000
_symmetry_Int_Tables_number   1
_chemical_formula_structural   BaCuTeSO2
_chemical_formula_sum   'Ba1 Cu1 Te1 S1 O2'
_cell_volume   101.47791534
_cell_formula_units_Z   1
loop_
 _symmetry_equiv_pos_site_id
 _symmetry_equiv_pos_as_xyz
  1  'x, y, z'
loop_
 _atom_site_type_symbol
 _atom_site_label
 _atom_site_symmetry_multiplicity
 _atom_site_fract_x
 _atom_site_fract_y
 _atom_site_fract_z
 _atom_site_occupancy
  Ba  Ba0  1  0.00000000  0.50000002  0.13456300  1
  Cu  Cu1  1  0.50000002  0.00000000  0.86543700  1
  Te  Te2  1  0.00000000  0.50000002  0.67664100  1
  S  S3  1  0.50000002  0.00000000  0.32335900  1
  O  O4  1  0.50000002  0.50000002  0.00000000  1
  O  O5  1  0.00000000  0.00000000  0.00000000  1
