# generated using pymatgen
data_LaDyYErGa3Si2Ge3
_symmetry_space_group_name_H-M   'P 1'
_cell_length_a   4.27097416
_cell_length_b   6.92226696
_cell_length_c   7.42988205
_cell_angle_alpha   90.00000000
_cell_angle_beta   90.00000000
_cell_angle_gamma   90.00000000
_symmetry_Int_Tables_number   1
_chemical_formula_structural   LaDyYErGa3Si2Ge3
_chemical_formula_sum   'La1 Dy1 Y1 Er1 Ga3 Si2 Ge3'
_cell_volume   219.66315001
_cell_formula_units_Z   1
loop_
 _symmetry_equiv_pos_site_id
 _symmetry_equiv_pos_as_xyz
  1  'x, y, z'
loop_
 _atom_site_type_symbol
 _atom_site_label
 _atom_site_symmetry_multiplicity
 _atom_site_fract_x
 _atom_site_fract_y
 _atom_site_fract_z
 _atom_site_occupancy
  Er  Er0  1  0.24999999  0.49743600  0.70016300  1
  Dy  Dy1  1  0.24999999  0.99743601  0.79983699  1
  Y  Y2  1  0.74999997  0.50256400  0.29983700  1
  La  La3  1  0.74999997  0.00256400  0.20016300  1
  Ga  Ga4  1  0.24999999  0.81463500  0.41173600  1
  Ga  Ga5  1  0.24999999  0.31463500  0.08826400  1
  Ga  Ga6  1  0.74999997  0.18536500  0.58826400  1
  Si  Si7  1  0.74999997  0.68536500  0.91173599  1
  Si  Si8  1  0.24999999  0.20185400  0.41423900  1
  Ge  Ge9  1  0.24999999  0.70185400  0.08576100  1
  Ge  Ge10  1  0.74999997  0.79814600  0.58576100  1
  Ge  Ge11  1  0.74999997  0.29814600  0.91423899  1
