# generated using pymatgen
data_Cu4SeS7
_symmetry_space_group_name_H-M   'P 1'
_cell_length_a   6.01289415
_cell_length_b   6.01289415
_cell_length_c   6.01289415
_cell_angle_alpha   90.00000000
_cell_angle_beta   90.00000000
_cell_angle_gamma   90.00000000
_symmetry_Int_Tables_number   1
_chemical_formula_structural   Cu4SeS7
_chemical_formula_sum   'Cu4 Se1 S7'
_cell_volume   217.39556340
_cell_formula_units_Z   1
loop_
 _symmetry_equiv_pos_site_id
 _symmetry_equiv_pos_as_xyz
  1  'x, y, z'
loop_
 _atom_site_type_symbol
 _atom_site_label
 _atom_site_symmetry_multiplicity
 _atom_site_fract_x
 _atom_site_fract_y
 _atom_site_fract_z
 _atom_site_occupancy
  Cu  Cu0  1  0.11953500  0.88046498  0.38046499  1
  Cu  Cu1  1  0.88046498  0.38046499  0.11953500  1
  Cu  Cu2  1  0.38046499  0.11953500  0.88046498  1
  Cu  Cu3  1  0.61953498  0.61953498  0.61953498  1
  Se  Se4  1  0.50491899  0.49508099  0.99508097  1
  S  S5  1  0.49508099  0.99508097  0.50491899  1
  S  S6  1  0.99508097  0.50491899  0.49508099  1
  S  S7  1  0.00491900  0.00491900  0.00491900  1
  S  S8  1  0.88242498  0.11757500  0.61757498  1
  S  S9  1  0.11757500  0.61757498  0.88242498  1
  S  S10  1  0.61757498  0.88242498  0.11757500  1
  S  S11  1  0.38242499  0.38242499  0.38242499  1
