# generated using pymatgen
data_La7YTl2SnTe4AsSe2
_symmetry_space_group_name_H-M   'P 1'
_cell_length_a   7.01613712
_cell_length_b   9.71212769
_cell_length_c   9.71212864
_cell_angle_alpha   120.00000000
_cell_angle_beta   90.00000000
_cell_angle_gamma   90.00000000
_symmetry_Int_Tables_number   1
_chemical_formula_structural   La7YTl2SnTe4AsSe2
_chemical_formula_sum   'La7 Y1 Tl2 Sn1 Te4 As1 Se2'
_cell_volume   573.13576398
_cell_formula_units_Z   1
loop_
 _symmetry_equiv_pos_site_id
 _symmetry_equiv_pos_as_xyz
  1  'x, y, z'
loop_
 _atom_site_type_symbol
 _atom_site_label
 _atom_site_symmetry_multiplicity
 _atom_site_fract_x
 _atom_site_fract_y
 _atom_site_fract_z
 _atom_site_occupancy
  Y  Y0  1  0.25000000  0.73123803  0.00000002  1
  La  La1  1  0.25000000  1.00000005  0.73123801  1
  La  La2  1  0.25000000  0.26876201  0.26876200  1
  La  La3  1  0.74999999  1.00000005  0.26876202  1
  La  La4  1  0.49999999  0.66666670  0.33333334  1
  La  La5  1  0.74999999  0.26876201  0.00000001  1
  La  La6  1  0.49999999  0.33333335  0.66666666  1
  La  La7  1  0.74999999  0.73123803  0.73123800  1
  Tl  Tl8  1  -0.00000000  0.66666670  0.33333334  1
  Tl  Tl9  1  -0.00000000  0.33333335  0.66666666  1
  Sn  Sn10  1  0.74999999  0.38644302  0.38644300  1
  Te  Te11  1  0.25000000  0.00000000  0.38644299  1
  Te  Te12  1  0.25000000  0.61355703  0.61355700  1
  Te  Te13  1  0.25000000  0.38644302  0.00000001  1
  As  As14  1  0.74999999  0.00000000  0.61355698  1
  Te  Te15  1  0.74999999  0.61355703  0.00000002  1
  Se  Se16  1  0.00000000  0.00000000  0.00000000  1
  Se  Se17  1  0.49999999  0.00000000  -0.00000000  1
