# generated using pymatgen
data_HfMn2Fe8Si2Ge3
_symmetry_space_group_name_H-M   'P 1'
_cell_length_a   6.51205206
_cell_length_b   6.51671267
_cell_length_c   6.92872000
_cell_angle_alpha   76.41286469
_cell_angle_beta   66.88610077
_cell_angle_gamma   75.26874542
_symmetry_Int_Tables_number   1
_chemical_formula_structural   HfMn2Fe8Si2Ge3
_chemical_formula_sum   'Hf1 Mn2 Fe8 Si2 Ge3'
_cell_volume   258.50825911
_cell_formula_units_Z   1
loop_
 _symmetry_equiv_pos_site_id
 _symmetry_equiv_pos_as_xyz
  1  'x, y, z'
loop_
 _atom_site_type_symbol
 _atom_site_label
 _atom_site_symmetry_multiplicity
 _atom_site_fract_x
 _atom_site_fract_y
 _atom_site_fract_z
 _atom_site_occupancy
  Mn  Mn0  1  0.65173302  0.40571600  0.73038003  1
  Hf  Hf1  1  0.65148006  0.90572799  0.73048801  1
  Mn  Mn2  1  0.34827301  0.09428200  0.26962102  1
  Fe  Fe3  1  0.34851304  0.59427600  0.26952000  1
  Fe  Fe4  1  0.89198206  0.97645699  0.20472702  1
  Fe  Fe5  1  0.10802003  0.52354200  0.79527299  1
  Fe  Fe6  1  0.89209203  0.47642600  0.20480204  1
  Fe  Fe7  1  0.10790700  0.02357400  0.79519601  1
  Ge  Ge8  1  0.20529503  0.44035700  0.03179400  1
  Fe  Fe9  1  0.20523706  0.94033599  0.03178298  1
  Fe  Fe10  1  0.79470700  0.05964000  0.96820705  1
  Ge  Ge11  1  0.79476703  0.55966500  0.96821403  1
  Fe  Fe12  1  0.18284002  0.28987700  0.65396600  1
  Si  Si13  1  0.18283005  0.78983599  0.65393198  1
  Ge  Ge14  1  0.81716201  0.21012200  0.34603204  1
  Si  Si15  1  0.81716104  0.71016699  0.34606502  1
