# generated using pymatgen
data_Li2MnNiHN
_symmetry_space_group_name_H-M   'P 1'
_cell_length_a   3.10212803
_cell_length_b   4.74686193
_cell_length_c   4.74686193
_cell_angle_alpha   89.80405426
_cell_angle_beta   90.00000000
_cell_angle_gamma   90.00000000
_symmetry_Int_Tables_number   1
_chemical_formula_structural   Li2MnNiHN
_chemical_formula_sum   'Li2 Mn1 Ni1 H1 N1'
_cell_volume   69.89890597
_cell_formula_units_Z   1
loop_
 _symmetry_equiv_pos_site_id
 _symmetry_equiv_pos_as_xyz
  1  'x, y, z'
loop_
 _atom_site_type_symbol
 _atom_site_label
 _atom_site_symmetry_multiplicity
 _atom_site_fract_x
 _atom_site_fract_y
 _atom_site_fract_z
 _atom_site_occupancy
  Li  Li0  1  0.50000000  0.50000002  0.50000002  1
  Mn  Mn1  1  0.00000000  0.00000000  0.00000000  1
  Li  Li2  1  0.50000000  0.79663203  0.20336801  1
  N  N3  1  0.50000000  0.20336801  0.79663203  1
  Ni  Ni4  1  -0.00000000  0.68596803  0.68596803  1
  H  H5  1  -0.00000000  0.31403201  0.31403201  1
