# generated using pymatgen
data_Na3Li(CuO3)4
_symmetry_space_group_name_H-M   'P 1'
_cell_length_a   5.34675407
_cell_length_b   5.54790211
_cell_length_c   7.63106585
_cell_angle_alpha   90.00000000
_cell_angle_beta   90.00000000
_cell_angle_gamma   90.00000000
_symmetry_Int_Tables_number   1
_chemical_formula_structural   Na3Li(CuO3)4
_chemical_formula_sum   'Na3 Li1 Cu4 O12'
_cell_volume   226.36235279
_cell_formula_units_Z   1
loop_
 _symmetry_equiv_pos_site_id
 _symmetry_equiv_pos_as_xyz
  1  'x, y, z'
loop_
 _atom_site_type_symbol
 _atom_site_label
 _atom_site_symmetry_multiplicity
 _atom_site_fract_x
 _atom_site_fract_y
 _atom_site_fract_z
 _atom_site_occupancy
  Na  Na0  1  0.01485100  0.93901598  0.75000002  1
  Na  Na1  1  0.51485099  0.56098399  0.25000001  1
  Li  Li2  1  0.48514899  0.43901599  0.75000002  1
  Na  Na3  1  0.98514899  0.06098400  0.25000001  1
  Cu  Cu4  1  0.49999999  0.00000000  0.50000001  1
  Cu  Cu5  1  0.00000000  0.49999999  0.50000001  1
  Cu  Cu6  1  0.00000000  0.49999999  0.00000000  1
  Cu  Cu7  1  0.49999999  0.00000000  0.00000000  1
  O  O8  1  0.70546799  0.29588999  0.45366401  1
  O  O9  1  0.20546800  0.20411000  0.54633601  1
  O  O10  1  0.79453199  0.79588998  0.04633600  1
  O  O11  1  0.29453200  0.70410999  0.95366402  1
  O  O12  1  0.29453200  0.70410999  0.54633601  1
  O  O13  1  0.79453199  0.79588998  0.45366401  1
  O  O14  1  0.20546800  0.20411000  0.95366402  1
  O  O15  1  0.70546799  0.29588999  0.04633600  1
  O  O16  1  0.08772000  0.47934599  0.25000001  1
  O  O17  1  0.58771999  0.02065400  0.75000002  1
  O  O18  1  0.41227999  0.97934598  0.25000001  1
  O  O19  1  0.91227999  0.52065399  0.75000002  1
