# generated using pymatgen
data_TaTiNbCuPdS2N
_symmetry_space_group_name_H-M   'P 1'
_cell_length_a   4.91807652
_cell_length_b   4.91807652
_cell_length_c   4.91807652
_cell_angle_alpha   98.30089569
_cell_angle_beta   98.30089569
_cell_angle_gamma   98.30089569
_symmetry_Int_Tables_number   1
_chemical_formula_structural   TaTiNbCuPdS2N
_chemical_formula_sum   'Ta1 Ti1 Nb1 Cu1 Pd1 S2 N1'
_cell_volume   114.80640411
_cell_formula_units_Z   1
loop_
 _symmetry_equiv_pos_site_id
 _symmetry_equiv_pos_as_xyz
  1  'x, y, z'
loop_
 _atom_site_type_symbol
 _atom_site_label
 _atom_site_symmetry_multiplicity
 _atom_site_fract_x
 _atom_site_fract_y
 _atom_site_fract_z
 _atom_site_occupancy
  Ta  Ta0  1  0.00000000  0.00000000  0.00000000  1
  Ti  Ti1  1  0.49999996  0.49999999  0.49999998  1
  Cu  Cu2  1  0.29338798  0.29338799  0.94011502  1
  Nb  Nb3  1  0.29338794  0.94011498  0.29338795  1
  S  S4  1  0.70661199  0.05988500  0.70661200  1
  N  N5  1  0.70661194  0.70661198  0.05988494  1
  S  S6  1  0.05988495  0.70661198  0.70661199  1
  Pd  Pd7  1  0.94011497  0.29338799  0.29338796  1
