# generated using pymatgen
data_HoErHf2Ga7GePd3Rh
_symmetry_space_group_name_H-M   'P 1'
_cell_length_a   5.44312000
_cell_length_b   8.08043194
_cell_length_c   8.08043194
_cell_angle_alpha   120.00000000
_cell_angle_beta   90.00000000
_cell_angle_gamma   90.00000000
_symmetry_Int_Tables_number   1
_chemical_formula_structural   HoErHf2Ga7GePd3Rh
_chemical_formula_sum   'Ho1 Er1 Hf2 Ga7 Ge1 Pd3 Rh1'
_cell_volume   307.78517251
_cell_formula_units_Z   1
loop_
 _symmetry_equiv_pos_site_id
 _symmetry_equiv_pos_as_xyz
  1  'x, y, z'
loop_
 _atom_site_type_symbol
 _atom_site_label
 _atom_site_symmetry_multiplicity
 _atom_site_fract_x
 _atom_site_fract_y
 _atom_site_fract_z
 _atom_site_occupancy
  Er  Er0  1  0.75000000  0.75715100  0.75715095  1
  Hf  Hf1  1  0.25000000  0.75715100  -0.00000002  1
  Hf  Hf2  1  0.25000000  0.00000000  0.75715097  1
  Ga  Ga3  1  0.75000000  0.99999999  0.24284896  1
  Ga  Ga4  1  0.75000000  0.24284900  -0.00000001  1
  Ho  Ho5  1  0.25000000  0.24284900  0.24284899  1
  Ga  Ga6  1  -0.00000000  0.66666666  0.33333330  1
  Ga  Ga7  1  0.50000000  0.33333333  0.66666664  1
  Ga  Ga8  1  -0.00000000  0.33333333  0.66666664  1
  Ga  Ga9  1  0.50000000  0.66666666  0.33333330  1
  Pd  Pd10  1  0.75000000  0.39129300  0.39129298  1
  Ga  Ga11  1  0.25000000  0.39129300  -0.00000001  1
  Ge  Ge12  1  0.25000000  0.99999999  0.39129296  1
  Pd  Pd13  1  0.75000000  0.00000000  0.60870698  1
  Rh  Rh14  1  0.75000000  0.60870700  -0.00000002  1
  Pd  Pd15  1  0.25000000  0.60870700  0.60870696  1
