# generated using pymatgen
data_Cu4Se2S7
_symmetry_space_group_name_H-M   'P 1'
_cell_length_a   7.07043982
_cell_length_b   7.07043982
_cell_length_c   7.08908510
_cell_angle_alpha   60.08697128
_cell_angle_beta   60.08697128
_cell_angle_gamma   60.00000381
_symmetry_Int_Tables_number   1
_chemical_formula_structural   Cu4Se2S7
_chemical_formula_sum   'Cu4 Se2 S7'
_cell_volume   250.92141386
_cell_formula_units_Z   1
loop_
 _symmetry_equiv_pos_site_id
 _symmetry_equiv_pos_as_xyz
  1  'x, y, z'
loop_
 _atom_site_type_symbol
 _atom_site_label
 _atom_site_symmetry_multiplicity
 _atom_site_fract_x
 _atom_site_fract_y
 _atom_site_fract_z
 _atom_site_occupancy
  Cu  Cu0  1  0.40045799  0.40045799  0.79862600  1
  Cu  Cu1  1  0.79655197  0.39850899  0.40643002  1
  Cu  Cu2  1  0.39850899  0.79655197  0.40643002  1
  Cu  Cu3  1  0.39850899  0.39850899  0.40643001  1
  Se  Se4  1  0.00041700  0.00041700  0.99874897  1
  Se  Se5  1  0.14330099  0.14330100  0.57009699  1
  S  S6  1  0.56839198  0.14291100  0.14578602  1
  S  S7  1  0.14291099  0.56839198  0.14578602  1
  S  S8  1  0.14291099  0.14291100  0.14578600  1
  S  S9  1  0.63977398  0.63977398  0.08067803  1
  S  S10  1  0.10642000  0.63092398  0.63173201  1
  S  S11  1  0.63092398  0.10642000  0.63173200  1
  S  S12  1  0.63092398  0.63092398  0.63173202  1
