# generated using pymatgen
data_K2TlCuAsS7
_symmetry_space_group_name_H-M   'P 1'
_cell_length_a   6.96190023
_cell_length_b   7.62519264
_cell_length_c   8.74545193
_cell_angle_alpha   73.29597473
_cell_angle_beta   66.54493713
_cell_angle_gamma   62.83809280
_symmetry_Int_Tables_number   1
_chemical_formula_structural   K2TlCuAsS7
_chemical_formula_sum   'K2 Tl1 Cu1 As1 S7'
_cell_volume   375.73847406
_cell_formula_units_Z   1
loop_
 _symmetry_equiv_pos_site_id
 _symmetry_equiv_pos_as_xyz
  1  'x, y, z'
loop_
 _atom_site_type_symbol
 _atom_site_label
 _atom_site_symmetry_multiplicity
 _atom_site_fract_x
 _atom_site_fract_y
 _atom_site_fract_z
 _atom_site_occupancy
  K  K0  1  0.19179599  0.43036600  0.18604200  1
  K  K1  1  0.80820396  0.56963401  0.81395803  1
  Tl  Tl2  1  0.41707198  0.79936301  0.36649300  1
  Cu  Cu3  1  0.58292797  0.20063700  0.63350703  1
  S  S4  1  0.88509495  0.05395200  0.17585804  1
  As  As5  1  0.11490500  0.94604801  0.82414199  1
  S  S6  1  0.76616096  0.00000000  0.00000003  1
  S  S7  1  0.23383899  0.00000000  0.00000001  1
  S  S8  1  0.11217599  0.16197600  0.61367201  1
  S  S9  1  0.88782396  0.83802401  0.38632801  1
  S  S10  1  0.28596899  0.64851801  0.77954401  1
  S  S11  1  0.71403096  0.35148200  0.22045602  1
