# generated using pymatgen
data_LiYFeCu(NiP2)2
_symmetry_space_group_name_H-M   'P 1'
_cell_length_a   3.88755012
_cell_length_b   5.89663124
_cell_length_c   7.21526909
_cell_angle_alpha   90.00000000
_cell_angle_beta   90.00000000
_cell_angle_gamma   109.24702454
_symmetry_Int_Tables_number   1
_chemical_formula_structural   LiYFeCu(NiP2)2
_chemical_formula_sum   'Li1 Y1 Fe1 Cu1 Ni2 P4'
_cell_volume   156.15407587
_cell_formula_units_Z   1
loop_
 _symmetry_equiv_pos_site_id
 _symmetry_equiv_pos_as_xyz
  1  'x, y, z'
loop_
 _atom_site_type_symbol
 _atom_site_label
 _atom_site_symmetry_multiplicity
 _atom_site_fract_x
 _atom_site_fract_y
 _atom_site_fract_z
 _atom_site_occupancy
  Y  Y0  1  0.45250502  0.90501004  0.74999999  1
  Li  Li1  1  0.54749499  0.09499000  0.25000000  1
  Cu  Cu2  1  0.73103800  0.46207602  0.74999999  1
  Fe  Fe3  1  0.26896201  0.53792402  0.25000000  1
  Ni  Ni4  1  0.16461101  0.32922201  0.94165599  1
  Ni  Ni5  1  0.83538900  0.67077803  0.05834400  1
  P  P6  1  0.83538900  0.67077803  0.44165599  1
  P  P7  1  0.16461101  0.32922201  0.55834399  1
  P  P8  1  0.00000000  0.00000000  0.00000000  1
  P  P9  1  0.00000000  0.00000000  0.49999999  1
