# generated using pymatgen
data_Na2O2
_symmetry_space_group_name_H-M   'P 1'
_cell_length_a   5.42580414
_cell_length_b   7.48975801
_cell_length_c   9.66570950
_cell_angle_alpha   90.00000000
_cell_angle_beta   106.30036163
_cell_angle_gamma   90.00000000
_symmetry_Int_Tables_number   1
_chemical_formula_structural   Na2O2
_chemical_formula_sum   'Na8 O8'
_cell_volume   377.00575138
_cell_formula_units_Z   4
loop_
 _symmetry_equiv_pos_site_id
 _symmetry_equiv_pos_as_xyz
  1  'x, y, z'
loop_
 _atom_site_type_symbol
 _atom_site_label
 _atom_site_symmetry_multiplicity
 _atom_site_fract_x
 _atom_site_fract_y
 _atom_site_fract_z
 _atom_site_occupancy
  Na  Na0  1  0.17565299  0.75000000  0.63437200  1
  Na  Na1  1  0.54128098  0.25000000  0.36562799  1
  Na  Na2  1  0.70941497  0.75000000  0.21212098  1
  Na  Na3  1  0.49729398  0.25000000  0.78787900  1
  Na  Na4  1  0.61881797  0.50000000  -0.00000002  1
  Na  Na5  1  0.99874296  0.25000000  0.79189398  1
  Na  Na6  1  0.20684899  0.75000000  0.20810600  1
  Na  Na7  1  0.61881797  1.00000000  -0.00000002  1
  O  O8  1  0.73162197  0.01044200  0.78841199  1
  O  O9  1  0.37717798  0.75000000  0.01393899  1
  O  O10  1  0.36323898  0.25000000  0.98606100  1
  O  O11  1  0.94320996  0.51044200  0.21158797  1
  O  O12  1  0.56781998  0.75000000  0.40079099  1
  O  O13  1  0.94320996  0.98955800  0.21158797  1
  O  O14  1  0.16702899  0.25000000  0.59920900  1
  O  O15  1  0.73162197  0.48955800  0.78841199  1
