# generated using pymatgen
data_Cu3GeTe3Se
_symmetry_space_group_name_H-M   'P 1'
_cell_length_a   6.21742821
_cell_length_b   6.21742821
_cell_length_c   7.52622366
_cell_angle_alpha   114.39663696
_cell_angle_beta   114.39663696
_cell_angle_gamma   90.00000000
_symmetry_Int_Tables_number   1
_chemical_formula_structural   Cu3GeTe3Se
_chemical_formula_sum   'Cu3 Ge1 Te3 Se1'
_cell_volume   236.13923439
_cell_formula_units_Z   1
loop_
 _symmetry_equiv_pos_site_id
 _symmetry_equiv_pos_as_xyz
  1  'x, y, z'
loop_
 _atom_site_type_symbol
 _atom_site_label
 _atom_site_symmetry_multiplicity
 _atom_site_fract_x
 _atom_site_fract_y
 _atom_site_fract_z
 _atom_site_occupancy
  Cu  Cu0  1  0.00000000  0.00000000  0.00000000  1
  Cu  Cu1  1  0.74999998  0.24999999  0.50000000  1
  Cu  Cu2  1  0.24999999  0.74999998  0.50000000  1
  Ge  Ge3  1  0.49999999  0.49999998  0.00000000  1
  Te  Te4  1  0.87474798  0.87474797  0.27618801  1
  Te  Te5  1  0.40143999  0.40143999  0.27618800  1
  Te  Te6  1  0.12525200  0.59856098  0.72381300  1
  Se  Se7  1  0.59855998  0.12525100  0.72381100  1
