# generated using pymatgen
data_MnFe8SiNiP2
_symmetry_space_group_name_H-M   'P 1'
_cell_length_a   3.79790401
_cell_length_b   6.85753727
_cell_length_c   8.73827648
_cell_angle_alpha   75.22738647
_cell_angle_beta   77.44866180
_cell_angle_gamma   73.92385864
_symmetry_Int_Tables_number   1
_chemical_formula_structural   MnFe8SiNiP2
_chemical_formula_sum   'Mn1 Fe8 Si1 Ni1 P2'
_cell_volume   208.80135203
_cell_formula_units_Z   1
loop_
 _symmetry_equiv_pos_site_id
 _symmetry_equiv_pos_as_xyz
  1  'x, y, z'
loop_
 _atom_site_type_symbol
 _atom_site_label
 _atom_site_symmetry_multiplicity
 _atom_site_fract_x
 _atom_site_fract_y
 _atom_site_fract_z
 _atom_site_occupancy
  Mn  Mn0  1  0.19213203  0.38445999  0.23127599  1
  Fe  Fe1  1  0.57823102  0.23423799  0.60929997  1
  Fe  Fe2  1  0.02258407  0.96896197  0.98586999  1
  Fe  Fe3  1  0.40371606  0.82404697  0.36852099  1
  Fe  Fe4  1  0.79958705  0.59890698  0.80191897  1
  Si  Si5  1  0.39591901  0.08529600  0.12286599  1
  Fe  Fe6  1  0.99525906  0.75980298  0.24967898  1
  Ni  Ni7  1  0.61070704  0.43535799  0.34322798  1
  Fe  Fe8  1  0.19884201  0.12277100  0.47954498  1
  Fe  Fe9  1  0.38484105  0.59723698  0.63308098  1
  P  P10  1  0.97631003  0.26669499  0.78068496  1
  P  P11  1  0.62317907  0.93414797  0.81949398  1
  Fe  Fe12  1  0.21199204  0.60147898  0.97453698  1
