# generated using pymatgen
data_Li5Mn2CuO8
_symmetry_space_group_name_H-M   'P 1'
_cell_length_a   5.93283081
_cell_length_b   5.93521118
_cell_length_c   5.93724155
_cell_angle_alpha   119.86000824
_cell_angle_beta   90.39350891
_cell_angle_gamma   119.63590240
_symmetry_Int_Tables_number   1
_chemical_formula_structural   Li5Mn2CuO8
_chemical_formula_sum   'Li5 Mn2 Cu1 O8'
_cell_volume   148.44654551
_cell_formula_units_Z   1
loop_
 _symmetry_equiv_pos_site_id
 _symmetry_equiv_pos_as_xyz
  1  'x, y, z'
loop_
 _atom_site_type_symbol
 _atom_site_label
 _atom_site_symmetry_multiplicity
 _atom_site_fract_x
 _atom_site_fract_y
 _atom_site_fract_z
 _atom_site_occupancy
  Li  Li0  1  0.00000000  0.00000000  0.50000000  1
  Li  Li1  1  0.00000002  0.50000002  0.00000003  1
  Li  Li2  1  0.00000002  0.50000002  0.50000002  1
  Li  Li3  1  0.50000000  0.00000000  0.49999997  1
  Li  Li4  1  0.50000000  0.00000000  -0.00000002  1
  Mn  Mn5  1  0.50000002  0.50000002  0.50000000  1
  Cu  Cu6  1  0.50000002  0.50000002  0.00000000  1
  Mn  Mn7  1  0.00000000  0.00000000  0.00000000  1
  O  O8  1  0.27055200  0.01786400  0.25281899  1
  O  O9  1  0.73496302  0.48188602  0.25245099  1
  O  O10  1  0.26503702  0.51811402  0.74754901  1
  O  O11  1  0.72944704  0.98213604  0.74718201  1
  O  O12  1  0.27235000  0.00453600  0.77666298  1
  O  O13  1  0.27225502  0.49476902  0.26722601  1
  O  O14  1  0.72774502  0.50523102  0.73277398  1
  O  O15  1  0.72765004  0.99546404  0.22333701  1
