# generated using pymatgen
data_Cd2InSnAu2
_symmetry_space_group_name_H-M   'P 1'
_cell_length_a   5.13344908
_cell_length_b   5.47036219
_cell_length_c   5.47036171
_cell_angle_alpha   120.00000000
_cell_angle_beta   90.00000000
_cell_angle_gamma   90.00000000
_symmetry_Int_Tables_number   1
_chemical_formula_structural   Cd2InSnAu2
_chemical_formula_sum   'Cd2 In1 Sn1 Au2'
_cell_volume   133.03686891
_cell_formula_units_Z   1
loop_
 _symmetry_equiv_pos_site_id
 _symmetry_equiv_pos_as_xyz
  1  'x, y, z'
loop_
 _atom_site_type_symbol
 _atom_site_label
 _atom_site_symmetry_multiplicity
 _atom_site_fract_x
 _atom_site_fract_y
 _atom_site_fract_z
 _atom_site_occupancy
  In  In0  1  0.49999999  0.00000000  -0.00000000  1
  Cd  Cd1  1  0.00000000  0.00000000  0.66778799  1
  Cd  Cd2  1  0.99999998  0.33221198  0.33221198  1
  Au  Au3  1  0.99999998  0.66778796  -0.00000003  1
  Sn  Sn4  1  0.49999999  0.33333331  0.66666664  1
  Au  Au5  1  0.49999999  0.66666663  0.33333329  1
