# generated using pymatgen
data_LiEuFe6(PC)2
_symmetry_space_group_name_H-M   'P 1'
_cell_length_a   5.04324389
_cell_length_b   5.04324341
_cell_length_c   6.86371994
_cell_angle_alpha   90.00000000
_cell_angle_beta   90.00000000
_cell_angle_gamma   120.00000000
_symmetry_Int_Tables_number   1
_chemical_formula_structural   LiEuFe6(PC)2
_chemical_formula_sum   'Li1 Eu1 Fe6 P2 C2'
_cell_volume   151.18548121
_cell_formula_units_Z   1
loop_
 _symmetry_equiv_pos_site_id
 _symmetry_equiv_pos_as_xyz
  1  'x, y, z'
loop_
 _atom_site_type_symbol
 _atom_site_label
 _atom_site_symmetry_multiplicity
 _atom_site_fract_x
 _atom_site_fract_y
 _atom_site_fract_z
 _atom_site_occupancy
  Eu  Eu0  1  0.00000000  0.00000000  0.00000000  1
  Li  Li1  1  0.00000000  0.00000000  0.50000000  1
  Fe  Fe2  1  0.50000001  0.00000000  0.29091600  1
  Fe  Fe3  1  0.49999999  0.50000001  0.29091600  1
  Fe  Fe4  1  1.00000000  0.50000001  0.29091600  1
  Fe  Fe5  1  0.50000001  0.00000000  0.70908401  1
  Fe  Fe6  1  0.49999999  0.50000001  0.70908401  1
  Fe  Fe7  1  1.00000000  0.50000001  0.70908401  1
  P  P8  1  0.33333331  0.66666668  1.00000001  1
  P  P9  1  0.66666667  0.33333334  -0.00000000  1
  C  C10  1  0.33333331  0.66666668  0.50000000  1
  C  C11  1  0.66666667  0.33333334  0.50000000  1
