# generated using pymatgen
data_Tl3CuSb5Se11
_symmetry_space_group_name_H-M   'P 1'
_cell_length_a   3.97188807
_cell_length_b   8.91396141
_cell_length_c   14.46718025
_cell_angle_alpha   90.00000000
_cell_angle_beta   90.00000000
_cell_angle_gamma   90.00000000
_symmetry_Int_Tables_number   1
_chemical_formula_structural   Tl3CuSb5Se11
_chemical_formula_sum   'Tl3 Cu1 Sb5 Se11'
_cell_volume   512.21423404
_cell_formula_units_Z   1
loop_
 _symmetry_equiv_pos_site_id
 _symmetry_equiv_pos_as_xyz
  1  'x, y, z'
loop_
 _atom_site_type_symbol
 _atom_site_label
 _atom_site_symmetry_multiplicity
 _atom_site_fract_x
 _atom_site_fract_y
 _atom_site_fract_z
 _atom_site_occupancy
  Cu  Cu0  1  0.25000000  0.43732298  0.32220499  1
  Tl  Tl1  1  0.25000000  0.93732296  0.17779500  1
  Tl  Tl2  1  0.74999999  0.56267697  0.67779499  1
  Tl  Tl3  1  0.74999999  0.06267700  0.82220499  1
  Sb  Sb4  1  0.25000000  0.17024599  0.55658599  1
  Sb  Sb5  1  0.25000000  0.67024597  0.94341398  1
  Sb  Sb6  1  0.74999999  0.82975396  0.44341399  1
  Sb  Sb7  1  0.74999999  0.32975398  0.05658600  1
  Sb  Sb8  1  0.25000000  0.02123800  0.38980599  1
  Se  Se9  1  0.25000000  0.52123798  0.11019400  1
  Se  Se10  1  0.74999999  0.97876195  0.61019399  1
  Se  Se11  1  0.74999999  0.47876198  0.88980598  1
  Se  Se12  1  0.25000000  0.15694499  0.98531098  1
  Se  Se13  1  0.25000000  0.65694497  0.51468899  1
  Se  Se14  1  0.74999999  0.84305496  0.01468900  1
  Se  Se15  1  0.74999999  0.34305498  0.48531099  1
  Se  Se16  1  0.25000000  0.29396499  0.72056699  1
  Se  Se17  1  0.25000000  0.79396496  0.77943299  1
  Se  Se18  1  0.74999999  0.70603497  0.27943300  1
  Se  Se19  1  0.74999999  0.20603499  0.22056700  1
