# generated using pymatgen
data_YNiBPRuRh
_symmetry_space_group_name_H-M   'P 1'
_cell_length_a   2.96420908
_cell_length_b   5.67110586
_cell_length_c   5.67110634
_cell_angle_alpha   120.00000000
_cell_angle_beta   90.00000000
_cell_angle_gamma   90.00000000
_symmetry_Int_Tables_number   1
_chemical_formula_structural   YNiBPRuRh
_chemical_formula_sum   'Y1 Ni1 B1 P1 Ru1 Rh1'
_cell_volume   82.56101243
_cell_formula_units_Z   1
loop_
 _symmetry_equiv_pos_site_id
 _symmetry_equiv_pos_as_xyz
  1  'x, y, z'
loop_
 _atom_site_type_symbol
 _atom_site_label
 _atom_site_symmetry_multiplicity
 _atom_site_fract_x
 _atom_site_fract_y
 _atom_site_fract_z
 _atom_site_occupancy
  Y  Y0  1  0.00000000  0.00000000  0.00000000  1
  Ni  Ni1  1  -0.00000000  0.66666669  0.33333333  1
  Ru  Ru2  1  0.99999997  0.33333334  0.66666665  1
  B  B3  1  0.49999999  0.50000002  0.49999999  1
  P  P4  1  0.49999999  0.50000002  0.99999997  1
  Rh  Rh5  1  0.49999999  0.00000000  0.49999998  1
