# generated using pymatgen
data_KNaLi2ClO9
_symmetry_space_group_name_H-M   'P 1'
_cell_length_a   5.04999495
_cell_length_b   6.62853575
_cell_length_c   6.62853575
_cell_angle_alpha   68.83049011
_cell_angle_beta   67.60880280
_cell_angle_gamma   67.60880280
_symmetry_Int_Tables_number   1
_chemical_formula_structural   KNaLi2ClO9
_chemical_formula_sum   'K1 Na1 Li2 Cl1 O9'
_cell_volume   183.53148118
_cell_formula_units_Z   1
loop_
 _symmetry_equiv_pos_site_id
 _symmetry_equiv_pos_as_xyz
  1  'x, y, z'
loop_
 _atom_site_type_symbol
 _atom_site_label
 _atom_site_symmetry_multiplicity
 _atom_site_fract_x
 _atom_site_fract_y
 _atom_site_fract_z
 _atom_site_occupancy
  K  K0  1  0.64436500  0.19777300  0.51349801  1
  Na  Na1  1  0.35563498  0.80222700  0.48650205  1
  Li  Li2  1  0.14436499  0.51349800  0.19777303  1
  Li  Li3  1  0.85563500  0.48650200  0.80222703  1
  O  O4  1  0.25000000  0.00000000  -0.00000000  1
  O  O5  1  0.75000001  0.00000000  -0.00000000  1
  Cl  Cl6  1  0.87218799  0.79157000  0.46405504  1
  O  O7  1  0.12781200  0.20843000  0.53594501  1
  O  O8  1  0.37218799  0.46405500  0.79157003  1
  O  O9  1  0.62781199  0.53594500  0.20843003  1
  O  O10  1  0.92238799  0.91333200  0.24189305  1
  O  O11  1  0.07761200  0.08666800  0.75810701  1
  O  O12  1  0.42238800  0.24189300  0.91333202  1
  O  O13  1  0.57761199  0.75810700  0.08666804  1
