# generated using pymatgen
data_YMgMnCu3SiP6
_symmetry_space_group_name_H-M   'P 1'
_cell_length_a   4.05458021
_cell_length_b   4.05458021
_cell_length_c   12.70685863
_cell_angle_alpha   99.18036652
_cell_angle_beta   99.18036652
_cell_angle_gamma   90.00000000
_symmetry_Int_Tables_number   1
_chemical_formula_structural   YMgMnCu3SiP6
_chemical_formula_sum   'Y1 Mg1 Mn1 Cu3 Si1 P6'
_cell_volume   203.50925948
_cell_formula_units_Z   1
loop_
 _symmetry_equiv_pos_site_id
 _symmetry_equiv_pos_as_xyz
  1  'x, y, z'
loop_
 _atom_site_type_symbol
 _atom_site_label
 _atom_site_symmetry_multiplicity
 _atom_site_fract_x
 _atom_site_fract_y
 _atom_site_fract_z
 _atom_site_occupancy
  Y  Y0  1  0.64887595  0.64887596  0.29775197  1
  Mg  Mg1  1  0.35112397  0.35112398  0.70224798  1
  Mn  Mn2  1  0.44749795  0.94749794  0.89499597  1
  Cu  Cu3  1  0.94749793  0.44749797  0.89499597  1
  Cu  Cu4  1  0.55250197  0.05250200  0.10500399  1
  Cu  Cu5  1  0.05250199  0.55250197  0.10500399  1
  P  P6  1  0.74999995  0.24999998  0.49999998  1
  P  P7  1  0.24999997  0.74999995  0.49999998  1
  P  P8  1  0.49999996  0.49999997  -0.00000002  1
  Si  Si9  1  0.89487793  0.89487794  0.78975596  1
  P  P10  1  0.10512199  0.10512199  0.21024399  1
  P  P11  1  0.80225894  0.80225895  0.60451796  1
  P  P12  1  0.19774098  0.19774099  0.39548199  1
