# generated using pymatgen
data_Tb2ErAlFe15
_symmetry_space_group_name_H-M   'P 1'
_cell_length_a   6.55423832
_cell_length_b   6.55423832
_cell_length_c   6.55423784
_cell_angle_alpha   83.31954193
_cell_angle_beta   83.31954193
_cell_angle_gamma   83.31953430
_symmetry_Int_Tables_number   1
_chemical_formula_structural   Tb2ErAlFe15
_chemical_formula_sum   'Tb2 Er1 Al1 Fe15'
_cell_volume   276.23463764
_cell_formula_units_Z   1
loop_
 _symmetry_equiv_pos_site_id
 _symmetry_equiv_pos_as_xyz
  1  'x, y, z'
loop_
 _atom_site_type_symbol
 _atom_site_label
 _atom_site_symmetry_multiplicity
 _atom_site_fract_x
 _atom_site_fract_y
 _atom_site_fract_z
 _atom_site_occupancy
  Er  Er0  1  0.34699499  0.34699500  0.34699503  1
  Tb  Tb1  1  0.65300498  0.65300500  0.65300505  1
  Tb  Tb2  1  0.00000000  0.00000000  0.49999999  1
  Fe  Fe3  1  -0.00000002  0.50000000  0.00000003  1
  Fe  Fe4  1  0.50000000  0.00000000  0.00000003  1
  Fe  Fe5  1  0.09993700  0.09993700  0.09993701  1
  Al  Al6  1  0.90006297  0.90006300  0.90006307  1
  Fe  Fe7  1  0.68814399  0.31185600  0.00000005  1
  Fe  Fe8  1  0.31185600  0.00000000  0.68814400  1
  Fe  Fe9  1  -0.00000002  0.68814400  0.31185603  1
  Fe  Fe10  1  0.68814397  1.00000001  0.31185608  1
  Fe  Fe11  1  -0.00000001  0.31185600  0.68814400  1
  Fe  Fe12  1  0.31185598  0.68814400  0.00000005  1
  Fe  Fe13  1  0.16438498  0.65234500  0.65234503  1
  Fe  Fe14  1  0.65234498  0.65234500  0.16438507  1
  Fe  Fe15  1  0.65234500  0.16438500  0.65234503  1
  Fe  Fe16  1  0.83561499  0.34765500  0.34765505  1
  Fe  Fe17  1  0.34765499  0.34765500  0.83561502  1
  Fe  Fe18  1  0.34765497  0.83561500  0.34765506  1
