# generated using pymatgen
data_ErIn2GaPd4
_symmetry_space_group_name_H-M   'P 1'
_cell_length_a   4.13124514
_cell_length_b   5.48143101
_cell_length_c   7.14549780
_cell_angle_alpha   90.00000000
_cell_angle_beta   90.00000000
_cell_angle_gamma   90.00000000
_symmetry_Int_Tables_number   1
_chemical_formula_structural   ErIn2GaPd4
_chemical_formula_sum   'Er1 In2 Ga1 Pd4'
_cell_volume   161.81076365
_cell_formula_units_Z   1
loop_
 _symmetry_equiv_pos_site_id
 _symmetry_equiv_pos_as_xyz
  1  'x, y, z'
loop_
 _atom_site_type_symbol
 _atom_site_label
 _atom_site_symmetry_multiplicity
 _atom_site_fract_x
 _atom_site_fract_y
 _atom_site_fract_z
 _atom_site_occupancy
  Ga  Ga0  1  0.74999998  0.86795600  0.82023902  1
  Er  Er1  1  0.24999999  0.36795600  0.67976102  1
  In  In2  1  0.24999999  0.13204400  0.17976101  1
  In  In3  1  0.74999998  0.63204400  0.32023901  1
  Pd  Pd4  1  0.74999998  0.37706400  0.96392203  1
  Pd  Pd5  1  0.24999999  0.87706400  0.53607802  1
  Pd  Pd6  1  0.24999999  0.62293600  0.03607800  1
  Pd  Pd7  1  0.74999998  0.12293600  0.46392201  1
