# generated using pymatgen
data_Li(MgGe)2
_symmetry_space_group_name_H-M   'P 1'
_cell_length_a   4.36819601
_cell_length_b   4.36819601
_cell_length_c   5.88161755
_cell_angle_alpha   111.79846954
_cell_angle_beta   111.79846954
_cell_angle_gamma   90.00000000
_symmetry_Int_Tables_number   1
_chemical_formula_structural   Li(MgGe)2
_chemical_formula_sum   'Li1 Mg2 Ge2'
_cell_volume   95.50649039
_cell_formula_units_Z   1
loop_
 _symmetry_equiv_pos_site_id
 _symmetry_equiv_pos_as_xyz
  1  'x, y, z'
loop_
 _atom_site_type_symbol
 _atom_site_label
 _atom_site_symmetry_multiplicity
 _atom_site_fract_x
 _atom_site_fract_y
 _atom_site_fract_z
 _atom_site_occupancy
  Li  Li0  1  0.00000000  0.00000000  0.00000000  1
  Mg  Mg1  1  0.61500196  0.61500198  0.23000395  1
  Mg  Mg2  1  0.38499897  0.38499899  0.76999798  1
  Ge  Ge3  1  0.74999997  0.24999999  0.49999997  1
  Ge  Ge4  1  0.24999996  0.74999998  0.49999996  1
