# generated using pymatgen
data_Er3Fe15CoRh
_symmetry_space_group_name_H-M   'P 1'
_cell_length_a   6.47467089
_cell_length_b   6.47467089
_cell_length_c   6.48733664
_cell_angle_alpha   83.32950592
_cell_angle_beta   83.32950592
_cell_angle_gamma   83.06727600
_symmetry_Int_Tables_number   1
_chemical_formula_structural   Er3Fe15CoRh
_chemical_formula_sum   'Er3 Fe15 Co1 Rh1'
_cell_volume   266.69942376
_cell_formula_units_Z   1
loop_
 _symmetry_equiv_pos_site_id
 _symmetry_equiv_pos_as_xyz
  1  'x, y, z'
loop_
 _atom_site_type_symbol
 _atom_site_label
 _atom_site_symmetry_multiplicity
 _atom_site_fract_x
 _atom_site_fract_y
 _atom_site_fract_z
 _atom_site_occupancy
  Er  Er0  1  0.66483896  0.66483900  0.64484095  1
  Er  Er1  1  0.33516098  0.33516100  0.35515898  1
  Fe  Fe2  1  0.71579898  0.28420100  0.99999997  1
  Er  Er3  1  0.00049897  0.71245199  0.28647298  1
  Co  Co4  1  0.28754796  0.99950099  0.71352696  1
  Fe  Fe5  1  0.99950098  0.28754800  0.71352695  1
  Fe  Fe6  1  0.71245099  0.00049900  0.28647297  1
  Fe  Fe7  1  0.28420097  0.71579899  0.99999997  1
  Fe  Fe8  1  0.00000000  0.00000000  0.50000000  1
  Fe  Fe9  1  0.49999999  0.00000000  -0.00000002  1
  Fe  Fe10  1  -0.00000002  0.50000000  -0.00000002  1
  Fe  Fe11  1  0.34397898  0.34397900  0.85262898  1
  Fe  Fe12  1  0.84776698  0.34268800  0.34336795  1
  Fe  Fe13  1  0.34268796  0.84776699  0.34336796  1
  Fe  Fe14  1  0.65602097  0.65602100  0.14737095  1
  Fe  Fe15  1  0.15223297  0.65731200  0.65663197  1
  Fe  Fe16  1  0.65731199  0.15223300  0.65663197  1
  Fe  Fe17  1  0.90395195  0.90395199  0.90311794  1
  Fe  Fe18  1  0.09604799  0.09604800  0.09688199  1
  Rh  Rh19  1  0.49999997  0.50000000  -0.00000004  1
