# generated using pymatgen
data_Te3WSe4SIBrO
_symmetry_space_group_name_H-M   'P 1'
_cell_length_a   3.30389810
_cell_length_b   3.30389738
_cell_length_c   37.62313461
_cell_angle_alpha   90.00000000
_cell_angle_beta   90.00000000
_cell_angle_gamma   120.00000763
_symmetry_Int_Tables_number   1
_chemical_formula_structural   Te3WSe4SIBrO
_chemical_formula_sum   'Te3 W1 Se4 S1 I1 Br1 O1'
_cell_volume   355.66306606
_cell_formula_units_Z   1
loop_
 _symmetry_equiv_pos_site_id
 _symmetry_equiv_pos_as_xyz
  1  'x, y, z'
loop_
 _atom_site_type_symbol
 _atom_site_label
 _atom_site_symmetry_multiplicity
 _atom_site_fract_x
 _atom_site_fract_y
 _atom_site_fract_z
 _atom_site_occupancy
  Te  Te0  1  0.66666666  0.33333335  0.58113398  1
  Te  Te1  1  0.66666666  0.33333335  0.47956298  1
  Se  Se2  1  0.00000000  0.00000000  0.90607296  1
  W  W3  1  0.00000000  0.00000000  0.53033598  1
  Te  Te4  1  0.66666666  0.33333335  0.71822097  1
  Se  Se5  1  0.66666666  0.33333335  0.34242899  1
  Br  Br6  1  0.66666666  0.33333335  0.95070396  1
  S  S7  1  0.66666666  0.33333335  0.86144696  1
  Se  Se8  1  0.00000000  0.00000000  0.67744297  1
  O  O9  1  0.00000000  0.00000000  0.30165999  1
  Se  Se10  1  0.00000000  0.00000000  0.75900197  1
  I  I11  1  0.00000000  0.00000000  0.38323998  1
