# generated using pymatgen
data_Na3LiNiPSO11
_symmetry_space_group_name_H-M   'P 1'
_cell_length_a   5.84386253
_cell_length_b   5.84522581
_cell_length_c   7.73354197
_cell_angle_alpha   68.23062134
_cell_angle_beta   68.22215271
_cell_angle_gamma   68.84027863
_symmetry_Int_Tables_number   1
_chemical_formula_structural   Na3LiNiPSO11
_chemical_formula_sum   'Na3 Li1 Ni1 P1 S1 O11'
_cell_volume   220.04461813
_cell_formula_units_Z   1
loop_
 _symmetry_equiv_pos_site_id
 _symmetry_equiv_pos_as_xyz
  1  'x, y, z'
loop_
 _atom_site_type_symbol
 _atom_site_label
 _atom_site_symmetry_multiplicity
 _atom_site_fract_x
 _atom_site_fract_y
 _atom_site_fract_z
 _atom_site_occupancy
  Na  Na0  1  0.50026699  0.50030700  0.50041699  1
  Na  Na1  1  0.99100398  0.50125500  0.99717496  1
  Na  Na2  1  0.50121298  0.99104200  0.99716900  1
  Li  Li3  1  0.08195300  0.08185800  0.71104298  1
  P  P4  1  0.91665998  0.91680600  0.28851300  1
  Ni  Ni5  1  0.67618798  0.67600300  0.78363099  1
  O  O6  1  0.31355399  0.31363000  0.22540600  1
  S  S7  1  0.47589999  0.47581000  0.01642501  1
  O  O8  1  0.17144800  0.17127000  0.87738598  1
  O  O9  1  0.83136598  0.83153300  0.11800601  1
  O  O10  1  0.64304299  0.64266000  0.92448098  1
  O  O11  1  0.35046999  0.35077300  0.08247100  1
  O  O12  1  0.23698399  0.23709100  0.47505499  1
  O  O13  1  0.75920398  0.75923800  0.52173500  1
  O  O14  1  0.25657699  0.81334600  0.25933002  1
  O  O15  1  0.81310299  0.25655800  0.25951498  1
  O  O16  1  0.74187999  0.18586900  0.74221596  1
  O  O17  1  0.18618699  0.74195300  0.74202701  1
