# generated using pymatgen
data_AcLa2Mg
_symmetry_space_group_name_H-M   'P 1'
_cell_length_a   5.23292780
_cell_length_b   5.23292780
_cell_length_c   6.43430185
_cell_angle_alpha   113.99412537
_cell_angle_beta   113.99412537
_cell_angle_gamma   90.00000000
_symmetry_Int_Tables_number   1
_chemical_formula_structural   AcLa2Mg
_chemical_formula_sum   'La2 Ac1 Mg1'
_cell_volume   144.14374731
_cell_formula_units_Z   1
loop_
 _symmetry_equiv_pos_site_id
 _symmetry_equiv_pos_as_xyz
  1  'x, y, z'
loop_
 _atom_site_type_symbol
 _atom_site_label
 _atom_site_symmetry_multiplicity
 _atom_site_fract_x
 _atom_site_fract_y
 _atom_site_fract_z
 _atom_site_occupancy
  La  La0  1  0.75000000  0.25000000  0.49999996  1
  Ac  Ac1  1  0.24999996  0.75000000  0.49999995  1
  La  La2  1  0.49999998  0.50000000  -0.00000006  1
  Mg  Mg3  1  0.00000000  0.00000000  0.00000000  1
