# generated using pymatgen
data_LaErLuInSn2Au3
_symmetry_space_group_name_H-M   'P 1'
_cell_length_a   3.48078799
_cell_length_b   8.03660774
_cell_length_c   8.03660774
_cell_angle_alpha   120.00000000
_cell_angle_beta   90.00000000
_cell_angle_gamma   90.00000000
_symmetry_Int_Tables_number   1
_chemical_formula_structural   LaErLuInSn2Au3
_chemical_formula_sum   'La1 Er1 Lu1 In1 Sn2 Au3'
_cell_volume   194.69452848
_cell_formula_units_Z   1
loop_
 _symmetry_equiv_pos_site_id
 _symmetry_equiv_pos_as_xyz
  1  'x, y, z'
loop_
 _atom_site_type_symbol
 _atom_site_label
 _atom_site_symmetry_multiplicity
 _atom_site_fract_x
 _atom_site_fract_y
 _atom_site_fract_z
 _atom_site_occupancy
  Er  Er0  1  0.50000000  0.75941901  -0.00000004  1
  Lu  Lu1  1  0.50000000  0.24058100  0.24058098  1
  La  La2  1  0.50000000  0.00000000  0.75941897  1
  In  In3  1  -0.00000000  0.39149900  -0.00000002  1
  Sn  Sn4  1  -0.00000000  0.60850100  0.60850094  1
  Sn  Sn5  1  0.00000000  0.00000000  0.39149898  1
  Au  Au6  1  0.00000000  0.00000000  0.00000000  1
  Au  Au7  1  0.50000000  0.33333334  0.66666662  1
  Au  Au8  1  0.50000000  0.66666667  0.33333329  1
