# generated using pymatgen
data_TiAl2GaNiPd
_symmetry_space_group_name_H-M   'P 1'
_cell_length_a   4.27652693
_cell_length_b   5.45043993
_cell_length_c   5.45044041
_cell_angle_alpha   60.00000381
_cell_angle_beta   90.00000000
_cell_angle_gamma   90.00000000
_symmetry_Int_Tables_number   1
_chemical_formula_structural   TiAl2GaNiPd
_chemical_formula_sum   'Ti1 Al2 Ga1 Ni1 Pd1'
_cell_volume   110.02338757
_cell_formula_units_Z   1
loop_
 _symmetry_equiv_pos_site_id
 _symmetry_equiv_pos_as_xyz
  1  'x, y, z'
loop_
 _atom_site_type_symbol
 _atom_site_label
 _atom_site_symmetry_multiplicity
 _atom_site_fract_x
 _atom_site_fract_y
 _atom_site_fract_z
 _atom_site_occupancy
  Ti  Ti0  1  0.00000000  0.00000000  0.00000000  1
  Al  Al1  1  0.50000001  0.50000000  0.50000001  1
  Al  Al2  1  0.00000000  0.33333333  0.33333334  1
  Ga  Ga3  1  0.00000000  0.66666667  0.66666669  1
  Ni  Ni4  1  0.50000001  0.00000000  0.50000000  1
  Pd  Pd5  1  0.50000001  0.50000000  0.00000001  1
