# generated using pymatgen
data_Ti2NbSi2
_symmetry_space_group_name_H-M   'P 1'
_cell_length_a   4.91297960
_cell_length_b   4.91297960
_cell_length_c   4.91297960
_cell_angle_alpha   109.47122192
_cell_angle_beta   109.47122192
_cell_angle_gamma   109.47122192
_symmetry_Int_Tables_number   1
_chemical_formula_structural   Ti2NbSi2
_chemical_formula_sum   'Ti2 Nb1 Si2'
_cell_volume   91.28784853
_cell_formula_units_Z   1
loop_
 _symmetry_equiv_pos_site_id
 _symmetry_equiv_pos_as_xyz
  1  'x, y, z'
loop_
 _atom_site_type_symbol
 _atom_site_label
 _atom_site_symmetry_multiplicity
 _atom_site_fract_x
 _atom_site_fract_y
 _atom_site_fract_z
 _atom_site_occupancy
  Ti  Ti0  1  0.00000000  0.00000000  0.00000000  1
  Si  Si1  1  0.50000002  0.50000000  0.50000002  1
  Nb  Nb2  1  0.00000003  0.50000000  0.00000003  1
  Si  Si3  1  0.00000000  0.00000000  0.49999998  1
  Ti  Ti4  1  0.50000005  1.00000001  1.00000003  1
