# generated using pymatgen
data_ZrScTaGaPd4
_symmetry_space_group_name_H-M   'P 1'
_cell_length_a   5.33996487
_cell_length_b   5.33996487
_cell_length_c   5.33996487
_cell_angle_alpha   90.00000000
_cell_angle_beta   90.00000000
_cell_angle_gamma   90.00000000
_symmetry_Int_Tables_number   1
_chemical_formula_structural   ZrScTaGaPd4
_chemical_formula_sum   'Zr1 Sc1 Ta1 Ga1 Pd4'
_cell_volume   152.27029847
_cell_formula_units_Z   1
loop_
 _symmetry_equiv_pos_site_id
 _symmetry_equiv_pos_as_xyz
  1  'x, y, z'
loop_
 _atom_site_type_symbol
 _atom_site_label
 _atom_site_symmetry_multiplicity
 _atom_site_fract_x
 _atom_site_fract_y
 _atom_site_fract_z
 _atom_site_occupancy
  Ta  Ta0  1  0.50000001  0.25000001  0.00000000  1
  Sc  Sc1  1  0.50000001  0.75000002  0.00000000  1
  Zr  Zr2  1  0.25000001  0.00000000  0.50000001  1
  Ga  Ga3  1  0.75000002  0.00000000  0.50000001  1
  Pd  Pd4  1  0.00000000  0.50000001  0.25000001  1
  Pd  Pd5  1  0.00000000  0.50000001  0.75000002  1
  Pd  Pd6  1  0.50000001  0.50000001  0.50000001  1
  Pd  Pd7  1  0.00000000  0.00000000  0.00000000  1
