# generated using pymatgen
data_BaPrY4In(Si2Ge)2
_symmetry_space_group_name_H-M   'P 1'
_cell_length_a   4.43216085
_cell_length_b   4.44798088
_cell_length_c   16.74194717
_cell_angle_alpha   90.00000000
_cell_angle_beta   90.00000000
_cell_angle_gamma   90.00000000
_symmetry_Int_Tables_number   1
_chemical_formula_structural   BaPrY4In(Si2Ge)2
_chemical_formula_sum   'Ba1 Pr1 Y4 In1 Si4 Ge2'
_cell_volume   330.05353815
_cell_formula_units_Z   1
loop_
 _symmetry_equiv_pos_site_id
 _symmetry_equiv_pos_as_xyz
  1  'x, y, z'
loop_
 _atom_site_type_symbol
 _atom_site_label
 _atom_site_symmetry_multiplicity
 _atom_site_fract_x
 _atom_site_fract_y
 _atom_site_fract_z
 _atom_site_occupancy
  Ba  Ba0  1  0.25000001  0.00000000  0.09879600  1
  Pr  Pr1  1  0.25000001  0.50000001  0.60351603  1
  Y  Y2  1  0.75000002  0.50000001  0.39699502  1
  Y  Y3  1  0.75000002  0.00000000  0.89954904  1
  Y  Y4  1  0.25000001  0.00000000  0.30761502  1
  Y  Y5  1  0.25000001  0.00000000  0.45421702  1
  Si  Si6  1  0.25000001  0.50000001  0.93736405  1
  Si  Si7  1  0.75000002  0.50000001  0.06186600  1
  In  In8  1  0.75000002  0.00000000  0.57218103  1
  Si  Si9  1  0.25000001  0.50000001  0.23799701  1
  Ge  Ge10  1  0.25000001  0.00000000  0.74848904  1
  Si  Si11  1  0.75000002  0.00000000  0.23928201  1
  Ge  Ge12  1  0.75000002  0.50000001  0.75313304  1
