# generated using pymatgen
data_K3Tl5
_symmetry_space_group_name_H-M   'P 1'
_cell_length_a   6.33836699
_cell_length_b   7.70364380
_cell_length_c   7.70364428
_cell_angle_alpha   60.00000381
_cell_angle_beta   90.00000000
_cell_angle_gamma   90.00000000
_symmetry_Int_Tables_number   1
_chemical_formula_structural   K3Tl5
_chemical_formula_sum   'K3 Tl5'
_cell_volume   325.76201557
_cell_formula_units_Z   1
loop_
 _symmetry_equiv_pos_site_id
 _symmetry_equiv_pos_as_xyz
  1  'x, y, z'
loop_
 _atom_site_type_symbol
 _atom_site_label
 _atom_site_symmetry_multiplicity
 _atom_site_fract_x
 _atom_site_fract_y
 _atom_site_fract_z
 _atom_site_occupancy
  K  K0  1  0.75000000  0.66642901  0.16678503  1
  K  K1  1  0.75000000  0.16678600  0.16678501  1
  K  K2  1  0.75000000  0.16678600  0.66642803  1
  Tl  Tl3  1  0.25000000  0.33357100  0.83321504  1
  Tl  Tl4  1  0.25000000  0.83321401  0.83321505  1
  Tl  Tl5  1  0.25000000  0.83321401  0.33357204  1
  Tl  Tl6  1  0.25000000  0.33333334  0.33333335  1
  Tl  Tl7  1  0.75000000  0.66666667  0.66666671  1
