# generated using pymatgen
data_LaYSn6Pd3Au
_symmetry_space_group_name_H-M   'P 1'
_cell_length_a   3.49794102
_cell_length_b   6.33827400
_cell_length_c   15.43185139
_cell_angle_alpha   90.00000000
_cell_angle_beta   90.00000000
_cell_angle_gamma   90.00000000
_symmetry_Int_Tables_number   1
_chemical_formula_structural   LaYSn6Pd3Au
_chemical_formula_sum   'La1 Y1 Sn6 Pd3 Au1'
_cell_volume   342.13816678
_cell_formula_units_Z   1
loop_
 _symmetry_equiv_pos_site_id
 _symmetry_equiv_pos_as_xyz
  1  'x, y, z'
loop_
 _atom_site_type_symbol
 _atom_site_label
 _atom_site_symmetry_multiplicity
 _atom_site_fract_x
 _atom_site_fract_y
 _atom_site_fract_z
 _atom_site_occupancy
  Y  Y0  1  0.50000000  0.79221800  0.91195398  1
  La  La1  1  0.00000000  0.20778200  0.41195399  1
  Sn  Sn2  1  0.50000000  0.69949900  0.37164299  1
  Sn  Sn3  1  0.00000000  0.30050100  0.87164298  1
  Sn  Sn4  1  0.00000000  0.85927500  0.64346198  1
  Sn  Sn5  1  0.50000000  0.14072500  0.14346200  1
  Sn  Sn6  1  0.00000000  0.64866600  0.10313100  1
  Sn  Sn7  1  0.50000000  0.35133400  0.60313098  1
  Pd  Pd8  1  0.50000000  0.95771500  0.51418199  1
  Pd  Pd9  1  0.00000000  0.04228500  0.01418200  1
  Au  Au10  1  0.50000000  0.39861800  0.00091800  1
  Pd  Pd11  1  0.00000000  0.60138200  0.50091799  1
