# generated using pymatgen
data_BaSrLi5Si4
_symmetry_space_group_name_H-M   'P 1'
_cell_length_a   4.07241488
_cell_length_b   6.46537209
_cell_length_c   7.73431158
_cell_angle_alpha   114.70629120
_cell_angle_beta   105.26414490
_cell_angle_gamma   90.00000000
_symmetry_Int_Tables_number   1
_chemical_formula_structural   BaSrLi5Si4
_chemical_formula_sum   'Ba1 Sr1 Li5 Si4'
_cell_volume   177.06229070
_cell_formula_units_Z   1
loop_
 _symmetry_equiv_pos_site_id
 _symmetry_equiv_pos_as_xyz
  1  'x, y, z'
loop_
 _atom_site_type_symbol
 _atom_site_label
 _atom_site_symmetry_multiplicity
 _atom_site_fract_x
 _atom_site_fract_y
 _atom_site_fract_z
 _atom_site_occupancy
  Li  Li0  1  0.00000001  0.49999998  -0.00000002  1
  Sr  Sr1  1  0.12759001  0.12758900  0.25517900  1
  Ba  Ba2  1  0.87241006  0.87241097  0.74482099  1
  Li  Li3  1  0.33020803  0.52159898  0.66041599  1
  Li  Li4  1  0.33020802  0.13881700  0.66041600  1
  Li  Li5  1  0.66979205  0.86118297  0.33958398  1
  Li  Li6  1  0.66979204  0.47840098  0.33958400  1
  Si  Si7  1  0.21712203  0.71712098  0.43424297  1
  Si  Si8  1  0.78287804  0.28287899  0.56575701  1
  Si  Si9  1  0.50000003  0.18638799  0.00000001  1
  Si  Si10  1  0.50000004  0.81361197  -0.00000002  1
