# generated using pymatgen
data_NaLi3Cu2PO11
_symmetry_space_group_name_H-M   'P 1'
_cell_length_a   3.78792095
_cell_length_b   7.08233500
_cell_length_c   7.08233500
_cell_angle_alpha   90.00000000
_cell_angle_beta   90.00000000
_cell_angle_gamma   90.00000000
_symmetry_Int_Tables_number   1
_chemical_formula_structural   NaLi3Cu2PO11
_chemical_formula_sum   'Na1 Li3 Cu2 P1 O11'
_cell_volume   190.00010350
_cell_formula_units_Z   1
loop_
 _symmetry_equiv_pos_site_id
 _symmetry_equiv_pos_as_xyz
  1  'x, y, z'
loop_
 _atom_site_type_symbol
 _atom_site_label
 _atom_site_symmetry_multiplicity
 _atom_site_fract_x
 _atom_site_fract_y
 _atom_site_fract_z
 _atom_site_occupancy
  Li  Li0  1  0.00000000  0.00000000  0.00000000  1
  Na  Na1  1  0.50000001  0.50000000  0.50000000  1
  Li  Li2  1  0.10567300  0.85752300  0.38517900  1
  Li  Li3  1  0.10567300  0.14247700  0.61482100  1
  Cu  Cu4  1  0.60567301  0.88517900  0.64247700  1
  Cu  Cu5  1  0.60567301  0.11482100  0.35752300  1
  P  P6  1  0.39432701  0.64247700  0.11482100  1
  O  O7  1  0.39432701  0.35752300  0.88517900  1
  O  O8  1  0.89432701  0.61482100  0.85752300  1
  O  O9  1  0.89432701  0.38517900  0.14247700  1
  O  O10  1  0.89677901  0.33801500  0.79618300  1
  O  O11  1  0.89677901  0.66198500  0.20381700  1
  O  O12  1  0.39677901  0.29618300  0.16198500  1
  O  O13  1  0.39677901  0.70381700  0.83801500  1
  O  O14  1  0.60322101  0.16198500  0.70381700  1
  O  O15  1  0.60322101  0.83801500  0.29618300  1
  O  O16  1  0.10322100  0.20381700  0.33801500  1
  O  O17  1  0.10322100  0.79618300  0.66198500  1
