# generated using pymatgen
data_LiY(CoNi4)2
_symmetry_space_group_name_H-M   'P 1'
_cell_length_a   4.97396612
_cell_length_b   4.97396517
_cell_length_c   6.95790005
_cell_angle_alpha   90.00000000
_cell_angle_beta   90.00000000
_cell_angle_gamma   120.00000763
_symmetry_Int_Tables_number   1
_chemical_formula_structural   LiY(CoNi4)2
_chemical_formula_sum   'Li1 Y1 Co2 Ni8'
_cell_volume   149.07827077
_cell_formula_units_Z   1
loop_
 _symmetry_equiv_pos_site_id
 _symmetry_equiv_pos_as_xyz
  1  'x, y, z'
loop_
 _atom_site_type_symbol
 _atom_site_label
 _atom_site_symmetry_multiplicity
 _atom_site_fract_x
 _atom_site_fract_y
 _atom_site_fract_z
 _atom_site_occupancy
  Y  Y0  1  0.00000000  0.00000000  0.50000000  1
  Li  Li1  1  0.00000000  0.00000000  0.00000000  1
  Ni  Ni2  1  0.66666667  0.33333334  -0.00000000  1
  Ni  Ni3  1  0.33333336  0.66666669  0.99999999  1
  Co  Co4  1  0.50000001  0.50000002  0.70798700  1
  Co  Co5  1  0.49999999  0.00000000  0.70798700  1
  Ni  Ni6  1  1.00000000  0.50000002  0.70798700  1
  Ni  Ni7  1  0.50000001  0.50000002  0.29201300  1
  Ni  Ni8  1  0.49999999  0.00000000  0.29201300  1
  Ni  Ni9  1  1.00000000  0.50000002  0.29201300  1
  Ni  Ni10  1  0.33333336  0.66666669  0.50000000  1
  Ni  Ni11  1  0.66666667  0.33333334  0.50000000  1
