# generated using pymatgen
data_LiCuO4
_symmetry_space_group_name_H-M   'P 1'
_cell_length_a   3.74655604
_cell_length_b   3.74655604
_cell_length_c   5.55996227
_cell_angle_alpha   109.68950653
_cell_angle_beta   109.68950653
_cell_angle_gamma   90.00000000
_symmetry_Int_Tables_number   1
_chemical_formula_structural   LiCuO4
_chemical_formula_sum   'Li1 Cu1 O4'
_cell_volume   68.61459627
_cell_formula_units_Z   1
loop_
 _symmetry_equiv_pos_site_id
 _symmetry_equiv_pos_as_xyz
  1  'x, y, z'
loop_
 _atom_site_type_symbol
 _atom_site_label
 _atom_site_symmetry_multiplicity
 _atom_site_fract_x
 _atom_site_fract_y
 _atom_site_fract_z
 _atom_site_occupancy
  Li  Li0  1  0.75000001  0.25000000  0.50000005  1
  Cu  Cu1  1  0.00000000  0.00000000  0.00000000  1
  O  O2  1  0.96059802  0.46059801  0.92119608  1
  O  O3  1  0.79763804  0.79763801  0.59527608  1
  O  O4  1  0.53940200  0.03940200  0.07880402  1
  O  O5  1  0.20236201  0.20236200  0.40472403  1
