# generated using pymatgen
data_RbTl2HgI2Cl3
_symmetry_space_group_name_H-M   'P 1'
_cell_length_a   8.53176689
_cell_length_b   8.53176689
_cell_length_c   8.53176689
_cell_angle_alpha   60.00000000
_cell_angle_beta   60.00000000
_cell_angle_gamma   60.00000000
_symmetry_Int_Tables_number   1
_chemical_formula_structural   RbTl2HgI2Cl3
_chemical_formula_sum   'Rb1 Tl2 Hg1 I2 Cl3'
_cell_volume   439.13893577
_cell_formula_units_Z   1
loop_
 _symmetry_equiv_pos_site_id
 _symmetry_equiv_pos_as_xyz
  1  'x, y, z'
loop_
 _atom_site_type_symbol
 _atom_site_label
 _atom_site_symmetry_multiplicity
 _atom_site_fract_x
 _atom_site_fract_y
 _atom_site_fract_z
 _atom_site_occupancy
  Hg  Hg0  1  0.24999999  0.24999999  0.24999999  1
  Rb  Rb1  1  0.74999997  0.74999997  0.74999997  1
  Tl  Tl2  1  0.00000000  0.00000000  0.00000000  1
  Tl  Tl3  1  0.24670399  0.24670399  0.75329597  1
  Cl  Cl4  1  0.75329597  0.24670399  0.75329597  1
  Cl  Cl5  1  0.24670399  0.75329597  0.24670399  1
  I  I6  1  0.24670399  0.75329597  0.75329597  1
  Cl  Cl7  1  0.75329597  0.24670399  0.24670399  1
  I  I8  1  0.75329597  0.75329597  0.24670399  1
