# generated using pymatgen
data_YEr2AlGa4SiGe3
_symmetry_space_group_name_H-M   'P 1'
_cell_length_a   4.05984402
_cell_length_b   6.89999199
_cell_length_c   7.57484579
_cell_angle_alpha   90.00000000
_cell_angle_beta   90.00000000
_cell_angle_gamma   90.00000000
_symmetry_Int_Tables_number   1
_chemical_formula_structural   YEr2AlGa4SiGe3
_chemical_formula_sum   'Y1 Er2 Al1 Ga4 Si1 Ge3'
_cell_volume   212.19333096
_cell_formula_units_Z   1
loop_
 _symmetry_equiv_pos_site_id
 _symmetry_equiv_pos_as_xyz
  1  'x, y, z'
loop_
 _atom_site_type_symbol
 _atom_site_label
 _atom_site_symmetry_multiplicity
 _atom_site_fract_x
 _atom_site_fract_y
 _atom_site_fract_z
 _atom_site_occupancy
  Er  Er0  1  0.25000000  0.01211700  0.81404902  1
  Er  Er1  1  0.75000000  0.98788300  0.18595101  1
  Y  Y2  1  0.25000000  0.51211700  0.68595102  1
  Al  Al3  1  0.75000000  0.48788300  0.31404901  1
  Ga  Ga4  1  0.75000000  0.86057600  0.55903102  1
  Ga  Ga5  1  0.25000000  0.13942400  0.44096901  1
  Ga  Ga6  1  0.75000000  0.36057600  0.94096903  1
  Ga  Ga7  1  0.25000000  0.63942400  0.05903100  1
  Si  Si8  1  0.25000000  0.28642900  0.11139400  1
  Ge  Ge9  1  0.75000000  0.71357100  0.88860602  1
  Ge  Ge10  1  0.25000000  0.78642900  0.38860601  1
  Ge  Ge11  1  0.75000000  0.21357100  0.61139402  1
