# generated using pymatgen
data_Sc2AlSiGe2
_symmetry_space_group_name_H-M   'P 1'
_cell_length_a   5.63712311
_cell_length_b   5.63712311
_cell_length_c   5.63712311
_cell_angle_alpha   60.00000000
_cell_angle_beta   60.00000000
_cell_angle_gamma   60.00000000
_symmetry_Int_Tables_number   1
_chemical_formula_structural   Sc2AlSiGe2
_chemical_formula_sum   'Sc2 Al1 Si1 Ge2'
_cell_volume   126.66527208
_cell_formula_units_Z   1
loop_
 _symmetry_equiv_pos_site_id
 _symmetry_equiv_pos_as_xyz
  1  'x, y, z'
loop_
 _atom_site_type_symbol
 _atom_site_label
 _atom_site_symmetry_multiplicity
 _atom_site_fract_x
 _atom_site_fract_y
 _atom_site_fract_z
 _atom_site_occupancy
  Sc  Sc0  1  0.75000000  0.75000000  0.75000000  1
  Sc  Sc1  1  0.00000000  0.00000000  0.00000000  1
  Al  Al2  1  0.37487800  0.87536400  0.37487900  1
  Ge  Ge3  1  0.37487800  0.37487900  0.37487900  1
  Si  Si4  1  0.37487800  0.37487900  0.87536400  1
  Ge  Ge5  1  0.87536300  0.37487900  0.37487900  1
