# generated using pymatgen
data_LiCe(MgCu)2
_symmetry_space_group_name_H-M   'P 1'
_cell_length_a   4.46063185
_cell_length_b   4.46063137
_cell_length_c   7.35475206
_cell_angle_alpha   90.00000000
_cell_angle_beta   90.00000000
_cell_angle_gamma   120.00000763
_symmetry_Int_Tables_number   1
_chemical_formula_structural   LiCe(MgCu)2
_chemical_formula_sum   'Li1 Ce1 Mg2 Cu2'
_cell_volume   126.73347703
_cell_formula_units_Z   1
loop_
 _symmetry_equiv_pos_site_id
 _symmetry_equiv_pos_as_xyz
  1  'x, y, z'
loop_
 _atom_site_type_symbol
 _atom_site_label
 _atom_site_symmetry_multiplicity
 _atom_site_fract_x
 _atom_site_fract_y
 _atom_site_fract_z
 _atom_site_occupancy
  Li  Li0  1  0.00000000  0.00000000  0.26676900  1
  Ce  Ce1  1  0.00000000  0.00000000  0.73933799  1
  Mg  Mg2  1  0.66666671  0.33333335  0.51384000  1
  Mg  Mg3  1  0.66666671  0.33333335  0.96940099  1
  Cu  Cu4  1  0.33333339  0.66666670  0.03870700  1
  Cu  Cu5  1  0.33333339  0.66666670  0.47194500  1
