# generated using pymatgen
data_K2BaLiIO2
_symmetry_space_group_name_H-M   'P 1'
_cell_length_a   5.85508919
_cell_length_b   6.44610023
_cell_length_c   6.44610071
_cell_angle_alpha   60.00000381
_cell_angle_beta   90.00000000
_cell_angle_gamma   90.00000000
_symmetry_Int_Tables_number   1
_chemical_formula_structural   K2BaLiIO2
_chemical_formula_sum   'K2 Ba1 Li1 I1 O2'
_cell_volume   210.69697679
_cell_formula_units_Z   1
loop_
 _symmetry_equiv_pos_site_id
 _symmetry_equiv_pos_as_xyz
  1  'x, y, z'
loop_
 _atom_site_type_symbol
 _atom_site_label
 _atom_site_symmetry_multiplicity
 _atom_site_fract_x
 _atom_site_fract_y
 _atom_site_fract_z
 _atom_site_occupancy
  Ba  Ba0  1  0.49999998  0.00000000  0.00000000  1
  K  K1  1  0.72689398  0.70708397  0.00000001  1
  K  K2  1  0.72689398  0.29291599  0.70708399  1
  Li  Li3  1  0.72689398  0.00000000  0.29291599  1
  O  O4  1  0.27310599  0.70708397  0.29291601  1
  I  I5  1  0.27310599  0.00000000  0.70708398  1
  O  O6  1  0.27310599  0.29291599  0.99999998  1
