# generated using pymatgen
data_ScTiCoSiRh2
_symmetry_space_group_name_H-M   'P 1'
_cell_length_a   5.03024578
_cell_length_b   5.03024578
_cell_length_c   5.03024578
_cell_angle_alpha   60.00000000
_cell_angle_beta   60.00000000
_cell_angle_gamma   60.00000000
_symmetry_Int_Tables_number   1
_chemical_formula_structural   ScTiCoSiRh2
_chemical_formula_sum   'Sc1 Ti1 Co1 Si1 Rh2'
_cell_volume   90.00209497
_cell_formula_units_Z   1
loop_
 _symmetry_equiv_pos_site_id
 _symmetry_equiv_pos_as_xyz
  1  'x, y, z'
loop_
 _atom_site_type_symbol
 _atom_site_label
 _atom_site_symmetry_multiplicity
 _atom_site_fract_x
 _atom_site_fract_y
 _atom_site_fract_z
 _atom_site_occupancy
  Ti  Ti0  1  0.75000002  0.75000002  0.75000002  1
  Sc  Sc1  1  0.00000000  0.00000000  0.00000000  1
  Co  Co2  1  0.37500001  0.87500002  0.37500001  1
  Si  Si3  1  0.37500001  0.37500001  0.37500001  1
  Rh  Rh4  1  0.37500001  0.37500001  0.87500002  1
  Rh  Rh5  1  0.87500002  0.37500001  0.37500001  1
