# generated using pymatgen
data_La7YInCuSn2(SbAu)3
_symmetry_space_group_name_H-M   'P 1'
_cell_length_a   6.44920588
_cell_length_b   9.47739506
_cell_length_c   9.47739601
_cell_angle_alpha   119.98562622
_cell_angle_beta   90.00000000
_cell_angle_gamma   90.00000000
_symmetry_Int_Tables_number   1
_chemical_formula_structural   La7YInCuSn2(SbAu)3
_chemical_formula_sum   'La7 Y1 In1 Cu1 Sn2 Sb3 Au3'
_cell_volume   501.73889577
_cell_formula_units_Z   1
loop_
 _symmetry_equiv_pos_site_id
 _symmetry_equiv_pos_as_xyz
  1  'x, y, z'
loop_
 _atom_site_type_symbol
 _atom_site_label
 _atom_site_symmetry_multiplicity
 _atom_site_fract_x
 _atom_site_fract_y
 _atom_site_fract_z
 _atom_site_occupancy
  Y  Y0  1  0.25013300  0.73529298  0.73529294  1
  La  La1  1  0.24991700  0.26473999  0.99998696  1
  La  La2  1  0.24991700  0.99998798  0.26474094  1
  La  La3  1  0.75013301  0.26470699  0.26470698  1
  La  La4  1  0.74991701  0.73525998  0.00001296  1
  La  La5  1  0.74991701  0.00001200  0.73525898  1
  La  La6  1  0.49998001  0.66666665  0.33323262  1
  La  La7  1  0.49998001  0.33326099  0.66669496  1
  In  In8  1  0.99998002  0.33333333  0.66676730  1
  Sn  Sn9  1  0.99998002  0.66673898  0.33330496  1
  Sb  Sb10  1  0.50015401  0.00004200  0.00004200  1
  Cu  Cu11  1  0.00015400  0.99995798  0.99995792  1
  Au  Au12  1  0.24987900  0.38448399  0.38448397  1
  Au  Au13  1  0.25002000  0.61553498  0.99990594  1
  Au  Au14  1  0.25002000  0.99990498  0.61553393  1
  Sb  Sb15  1  0.74987901  0.61551598  0.61551595  1
  Sn  Sn16  1  0.75002001  0.38446499  0.00009398  1
  Sb  Sb17  1  0.75002001  0.00009500  0.38446599  1
