# generated using pymatgen
data_NaYTaNi(CN2)2
_symmetry_space_group_name_H-M   'P 1'
_cell_length_a   5.63557005
_cell_length_b   5.68431902
_cell_length_c   5.63557005
_cell_angle_alpha   119.71671295
_cell_angle_beta   90.00000000
_cell_angle_gamma   119.71671295
_symmetry_Int_Tables_number   1
_chemical_formula_structural   NaYTaNi(CN2)2
_chemical_formula_sum   'Na1 Y1 Ta1 Ni1 C2 N4'
_cell_volume   128.74084558
_cell_formula_units_Z   1
loop_
 _symmetry_equiv_pos_site_id
 _symmetry_equiv_pos_as_xyz
  1  'x, y, z'
loop_
 _atom_site_type_symbol
 _atom_site_label
 _atom_site_symmetry_multiplicity
 _atom_site_fract_x
 _atom_site_fract_y
 _atom_site_fract_z
 _atom_site_occupancy
  Na  Na0  1  0.50000000  0.00000000  0.50000000  1
  Y  Y1  1  0.00000000  0.00000000  0.00000000  1
  Ta  Ta2  1  0.75000003  0.50000003  0.25000004  1
  Ni  Ni3  1  0.25000004  0.50000003  0.75000003  1
  C  C4  1  0.43176103  0.46581603  0.44367103  1
  N  N5  1  0.55632904  0.53418403  0.96594503  1
  C  C6  1  0.00648700  0.01297400  0.50648700  1
  N  N7  1  0.49351307  0.98702606  0.99351307  1
  N  N8  1  0.97785503  0.53418403  0.56823904  1
  N  N9  1  0.03405504  0.46581603  0.02214504  1
