# generated using pymatgen
data_Mn3Al7Si6
_symmetry_space_group_name_H-M   'P 1'
_cell_length_a   3.62181902
_cell_length_b   3.62181902
_cell_length_c   14.50942993
_cell_angle_alpha   90.00000000
_cell_angle_beta   90.00000000
_cell_angle_gamma   90.00000000
_symmetry_Int_Tables_number   1
_chemical_formula_structural   Mn3Al7Si6
_chemical_formula_sum   'Mn3 Al7 Si6'
_cell_volume   190.32850644
_cell_formula_units_Z   1
loop_
 _symmetry_equiv_pos_site_id
 _symmetry_equiv_pos_as_xyz
  1  'x, y, z'
loop_
 _atom_site_type_symbol
 _atom_site_label
 _atom_site_symmetry_multiplicity
 _atom_site_fract_x
 _atom_site_fract_y
 _atom_site_fract_z
 _atom_site_occupancy
  Mn  Mn0  1  0.00000000  0.00000000  0.00000000  1
  Al  Al1  1  0.50000000  0.50000000  -0.00000000  1
  Al  Al2  1  0.50000000  0.50000000  0.24876100  1
  Al  Al3  1  0.50000000  0.50000000  0.50000000  1
  Al  Al4  1  0.50000000  0.50000000  0.75123900  1
  Mn  Mn5  1  0.50000000  0.00000000  0.12193900  1
  Al  Al6  1  0.50000000  0.00000000  0.37515800  1
  Al  Al7  1  0.50000000  0.00000000  0.62484200  1
  Mn  Mn8  1  0.50000000  0.00000000  0.87806100  1
  Si  Si9  1  0.00000000  0.50000000  0.12193900  1
  Al  Al10  1  0.00000000  0.50000000  0.37515800  1
  Si  Si11  1  0.00000000  0.50000000  0.62484200  1
  Si  Si12  1  0.00000000  0.50000000  0.87806100  1
  Si  Si13  1  0.00000000  0.00000000  0.24974700  1
  Si  Si14  1  0.00000000  0.00000000  0.50000000  1
  Si  Si15  1  0.00000000  0.00000000  0.75025300  1
