# generated using pymatgen
data_HoErGa3Ge2Pd
_symmetry_space_group_name_H-M   'P 1'
_cell_length_a   4.69982290
_cell_length_b   5.85360003
_cell_length_c   5.85359955
_cell_angle_alpha   120.00000000
_cell_angle_beta   90.00000000
_cell_angle_gamma   90.00000000
_symmetry_Int_Tables_number   1
_chemical_formula_structural   HoErGa3Ge2Pd
_chemical_formula_sum   'Ho1 Er1 Ga3 Ge2 Pd1'
_cell_volume   139.46273484
_cell_formula_units_Z   1
loop_
 _symmetry_equiv_pos_site_id
 _symmetry_equiv_pos_as_xyz
  1  'x, y, z'
loop_
 _atom_site_type_symbol
 _atom_site_label
 _atom_site_symmetry_multiplicity
 _atom_site_fract_x
 _atom_site_fract_y
 _atom_site_fract_z
 _atom_site_occupancy
  Er  Er0  1  0.25000001  0.66666665  0.33333332  1
  Ho  Ho1  1  0.75000002  0.33333333  0.66666668  1
  Ga  Ga2  1  0.75000002  0.83063698  0.16936298  1
  Ga  Ga3  1  0.75000002  0.33872599  0.16936300  1
  Pd  Pd4  1  0.75000002  0.83063698  0.66127400  1
  Ga  Ga5  1  0.25000001  0.16936300  0.83063702  1
  Ge  Ge6  1  0.25000001  0.66127399  0.83063701  1
  Ge  Ge7  1  0.25000001  0.16936300  0.33872601  1
