# generated using pymatgen
data_Li
_symmetry_space_group_name_H-M   'P 1'
_cell_length_a   3.48290801
_cell_length_b   3.48479366
_cell_length_c   12.46126175
_cell_angle_alpha   85.99538422
_cell_angle_beta   81.96665192
_cell_angle_gamma   60.01789856
_symmetry_Int_Tables_number   1
_chemical_formula_structural   Li
_chemical_formula_sum   Li3
_cell_volume   129.72007710
_cell_formula_units_Z   3
loop_
 _symmetry_equiv_pos_site_id
 _symmetry_equiv_pos_as_xyz
  1  'x, y, z'
loop_
 _atom_site_type_symbol
 _atom_site_label
 _atom_site_symmetry_multiplicity
 _atom_site_fract_x
 _atom_site_fract_y
 _atom_site_fract_z
 _atom_site_occupancy
  Li  Li0  1  0.07524500  0.84951000  0.00000001  1
  Li  Li1  1  0.81008200  0.51624500  0.86359099  1
  Li  Li2  1  0.67367300  0.51624500  0.13640900  1
