# generated using pymatgen
data_YErAl2Si3Ni
_symmetry_space_group_name_H-M   'P 1'
_cell_length_a   4.02694416
_cell_length_b   5.33359337
_cell_length_c   6.86459589
_cell_angle_alpha   90.00000000
_cell_angle_beta   90.00000000
_cell_angle_gamma   112.17938232
_symmetry_Int_Tables_number   1
_chemical_formula_structural   YErAl2Si3Ni
_chemical_formula_sum   'Y1 Er1 Al2 Si3 Ni1'
_cell_volume   136.52887633
_cell_formula_units_Z   1
loop_
 _symmetry_equiv_pos_site_id
 _symmetry_equiv_pos_as_xyz
  1  'x, y, z'
loop_
 _atom_site_type_symbol
 _atom_site_label
 _atom_site_symmetry_multiplicity
 _atom_site_fract_x
 _atom_site_fract_y
 _atom_site_fract_z
 _atom_site_occupancy
  Er  Er0  1  0.43598397  0.87196799  0.75000001  1
  Y  Y1  1  0.56401598  0.12803200  0.25000000  1
  Al  Al2  1  0.15120299  0.30240600  0.94617402  1
  Al  Al3  1  0.84879696  0.69759399  0.05382600  1
  Si  Si4  1  0.84879696  0.69759399  0.44617401  1
  Ni  Ni5  1  0.15120299  0.30240600  0.55382601  1
  Si  Si6  1  0.71500797  0.43001599  0.75000001  1
  Si  Si7  1  0.28499198  0.56998399  0.25000000  1
