# generated using pymatgen
data_NaSr3CoCu(RuO6)2
_symmetry_space_group_name_H-M   'P 1'
_cell_length_a   5.64573479
_cell_length_b   5.66790390
_cell_length_c   9.81087208
_cell_angle_alpha   73.64496613
_cell_angle_beta   73.32836914
_cell_angle_gamma   60.15462494
_symmetry_Int_Tables_number   1
_chemical_formula_structural   NaSr3CoCu(RuO6)2
_chemical_formula_sum   'Na1 Sr3 Co1 Cu1 Ru2 O12'
_cell_volume   257.19250820
_cell_formula_units_Z   1
loop_
 _symmetry_equiv_pos_site_id
 _symmetry_equiv_pos_as_xyz
  1  'x, y, z'
loop_
 _atom_site_type_symbol
 _atom_site_label
 _atom_site_symmetry_multiplicity
 _atom_site_fract_x
 _atom_site_fract_y
 _atom_site_fract_z
 _atom_site_occupancy
  Na  Na0  1  0.87474406  0.87502001  0.37558396  1
  Sr  Sr1  1  0.37490803  0.37506201  0.87562301  1
  Sr  Sr2  1  0.62509205  0.62493801  0.12437797  1
  Sr  Sr3  1  0.12525601  0.12498000  0.62441702  1
  Cu  Cu4  1  0.50000004  0.50000001  0.49999999  1
  Co  Co5  1  0.00000000  0.00000000  0.00000000  1
  Ru  Ru6  1  0.25001402  0.25000800  0.24998999  1
  Ru  Ru7  1  0.74998606  0.74999201  0.75000998  1
  O  O8  1  0.12980803  0.61193601  0.12941398  1
  O  O9  1  0.62973202  0.11218200  0.62942900  1
  O  O10  1  0.61298402  0.12968500  0.12864598  1
  O  O11  1  0.11353403  0.62947401  0.62847000  1
  O  O12  1  0.88646504  0.37052701  0.37152997  1
  O  O13  1  0.38701705  0.87031501  0.87135399  1
  O  O14  1  0.37026605  0.88781901  0.37057097  1
  O  O15  1  0.87019104  0.38806401  0.87058499  1
  O  O16  1  0.37160203  0.36991001  0.37171299  1
  O  O17  1  0.87172206  0.87042101  0.87184598  1
  O  O18  1  0.12827901  0.12957800  0.12815500  1
  O  O19  1  0.62839705  0.63009101  0.62828698  1
