# generated using pymatgen
data_CeY6ErSi7Ni
_symmetry_space_group_name_H-M   'P 1'
_cell_length_a   5.28096485
_cell_length_b   5.82542706
_cell_length_c   9.54951286
_cell_angle_alpha   94.63881683
_cell_angle_beta   90.00000000
_cell_angle_gamma   90.00000000
_symmetry_Int_Tables_number   1
_chemical_formula_structural   CeY6ErSi7Ni
_chemical_formula_sum   'Ce1 Y6 Er1 Si7 Ni1'
_cell_volume   292.81769463
_cell_formula_units_Z   1
loop_
 _symmetry_equiv_pos_site_id
 _symmetry_equiv_pos_as_xyz
  1  'x, y, z'
loop_
 _atom_site_type_symbol
 _atom_site_label
 _atom_site_symmetry_multiplicity
 _atom_site_fract_x
 _atom_site_fract_y
 _atom_site_fract_z
 _atom_site_occupancy
  Er  Er0  1  0.16721100  0.67722800  0.44820003  1
  Ce  Ce1  1  0.66721102  0.82277199  0.05180002  1
  Y  Y2  1  0.83278902  0.32277200  0.55180002  1
  Y  Y3  1  0.33278901  0.17722800  0.94820003  1
  Y  Y4  1  0.91506803  0.40732100  0.17133901  1
  Y  Y5  1  0.41506801  0.09267900  0.32866101  1
  Y  Y6  1  0.08493200  0.59267900  0.82866104  1
  Y  Y7  1  0.58493202  0.90732099  0.67133904  1
  Si  Si8  1  0.66585802  0.68713000  0.40103403  1
  Si  Si9  1  0.16585800  0.81286999  0.09896602  1
  Si  Si10  1  0.33414201  0.31287000  0.59896602  1
  Ni  Ni11  1  0.83414202  0.18713000  0.90103403  1
  Si  Si12  1  0.42230901  0.50038000  0.19869402  1
  Si  Si13  1  0.92230903  0.99961999  0.30130603  1
  Si  Si14  1  0.57769102  0.49962000  0.80130603  1
  Si  Si15  1  0.07769100  0.00038000  0.69869402  1
