# generated using pymatgen
data_Li3Fe2CoNi6
_symmetry_space_group_name_H-M   'P 1'
_cell_length_a   3.93726993
_cell_length_b   6.80543423
_cell_length_c   6.96655416
_cell_angle_alpha   104.81747437
_cell_angle_beta   90.00000000
_cell_angle_gamma   106.81449127
_symmetry_Int_Tables_number   1
_chemical_formula_structural   Li3Fe2CoNi6
_chemical_formula_sum   'Li3 Fe2 Co1 Ni6'
_cell_volume   172.19190711
_cell_formula_units_Z   1
loop_
 _symmetry_equiv_pos_site_id
 _symmetry_equiv_pos_as_xyz
  1  'x, y, z'
loop_
 _atom_site_type_symbol
 _atom_site_label
 _atom_site_symmetry_multiplicity
 _atom_site_fract_x
 _atom_site_fract_y
 _atom_site_fract_z
 _atom_site_occupancy
  Li  Li0  1  0.85257894  0.70515799  0.67634104  1
  Li  Li1  1  0.14761597  0.29523199  0.82658003  1
  Li  Li2  1  0.14826597  0.29653199  0.32165802  1
  Fe  Fe3  1  0.85413394  0.70826799  0.17701702  1
  Fe  Fe4  1  0.50060501  0.00121000  0.00615100  1
  Co  Co5  1  0.49901190  0.99802398  0.49363803  1
  Ni  Ni6  1  0.65461598  0.30923199  0.57793202  1
  Ni  Ni7  1  0.66003498  0.32006999  0.07951901  1
  Ni  Ni8  1  0.34502293  0.69004599  0.41163003  1
  Ni  Ni9  1  0.34503193  0.69006399  0.93326804  1
  Ni  Ni10  1  0.99626391  0.99252798  0.49052703  1
  Ni  Ni11  1  0.99681891  0.99363798  0.00573802  1
