# generated using pymatgen
data_CsK2Rb(BrCl)2
_symmetry_space_group_name_H-M   'P 1'
_cell_length_a   6.43046999
_cell_length_b   6.43046951
_cell_length_c   11.38389301
_cell_angle_alpha   90.00000000
_cell_angle_beta   90.00000000
_cell_angle_gamma   120.00000000
_symmetry_Int_Tables_number   1
_chemical_formula_structural   CsK2Rb(BrCl)2
_chemical_formula_sum   'Cs1 K2 Rb1 Br2 Cl2'
_cell_volume   407.66820074
_cell_formula_units_Z   1
loop_
 _symmetry_equiv_pos_site_id
 _symmetry_equiv_pos_as_xyz
  1  'x, y, z'
loop_
 _atom_site_type_symbol
 _atom_site_label
 _atom_site_symmetry_multiplicity
 _atom_site_fract_x
 _atom_site_fract_y
 _atom_site_fract_z
 _atom_site_occupancy
  K  K0  1  0.00000000  0.00000000  0.75000000  1
  K  K1  1  0.00000000  0.00000000  0.25000000  1
  Rb  Rb2  1  0.66666666  0.33333334  0.41923900  1
  Cs  Cs3  1  0.33333331  0.66666667  0.91923900  1
  Cl  Cl4  1  0.33333331  0.66666667  0.58076100  1
  Br  Br5  1  0.66666666  0.33333334  0.08076100  1
  Cl  Cl6  1  0.66666666  0.33333334  0.75000000  1
  Br  Br7  1  0.33333331  0.66666667  0.25000000  1
