# generated using pymatgen
data_K2GaCu3(TeSe2)2
_symmetry_space_group_name_H-M   'P 1'
_cell_length_a   4.43077993
_cell_length_b   8.66652489
_cell_length_c   8.97282505
_cell_angle_alpha   114.55574799
_cell_angle_beta   90.00000000
_cell_angle_gamma   104.81068420
_symmetry_Int_Tables_number   1
_chemical_formula_structural   K2GaCu3(TeSe2)2
_chemical_formula_sum   'K2 Ga1 Cu3 Te2 Se4'
_cell_volume   300.75826907
_cell_formula_units_Z   1
loop_
 _symmetry_equiv_pos_site_id
 _symmetry_equiv_pos_as_xyz
  1  'x, y, z'
loop_
 _atom_site_type_symbol
 _atom_site_label
 _atom_site_symmetry_multiplicity
 _atom_site_fract_x
 _atom_site_fract_y
 _atom_site_fract_z
 _atom_site_occupancy
  K  K0  1  0.13610897  0.27221799  0.05130199  1
  K  K1  1  0.86389092  0.72778198  0.94869799  1
  Ga  Ga2  1  0.05619399  0.11238800  0.40033601  1
  Cu  Cu3  1  0.94380589  0.88761198  0.59966398  1
  Cu  Cu4  1  0.68663396  0.37326799  0.43242900  1
  Cu  Cu5  1  0.31336592  0.62673199  0.56757099  1
  Te  Te6  1  0.59362198  0.18724400  0.64716801  1
  Te  Te7  1  0.40637790  0.81275598  0.35283197  1
  Se  Se8  1  0.48605888  0.97211798  0.79131998  1
  Se  Se9  1  0.51394100  0.02788200  0.20868001  1
  Se  Se10  1  0.20198195  0.40396399  0.70422700  1
  Se  Se11  1  0.79801793  0.59603599  0.29577298  1
