# generated using pymatgen
data_La3EuIn2CuSnPd2
_symmetry_space_group_name_H-M   'P 1'
_cell_length_a   5.92706585
_cell_length_b   5.97354364
_cell_length_c   8.36824989
_cell_angle_alpha   102.49730682
_cell_angle_beta   90.00000000
_cell_angle_gamma   119.74295044
_symmetry_Int_Tables_number   1
_chemical_formula_structural   La3EuIn2CuSnPd2
_chemical_formula_sum   'La3 Eu1 In2 Cu1 Sn1 Pd2'
_cell_volume   249.13295130
_cell_formula_units_Z   1
loop_
 _symmetry_equiv_pos_site_id
 _symmetry_equiv_pos_as_xyz
  1  'x, y, z'
loop_
 _atom_site_type_symbol
 _atom_site_label
 _atom_site_symmetry_multiplicity
 _atom_site_fract_x
 _atom_site_fract_y
 _atom_site_fract_z
 _atom_site_occupancy
  Eu  Eu0  1  0.20987097  0.70402298  0.35228502  1
  La  La1  1  0.50584800  0.29597699  0.14771501  1
  La  La2  1  0.79012901  0.29597699  0.64771502  1
  La  La3  1  0.49415198  0.70402298  0.85228503  1
  In  In4  1  0.85372202  0.00000000  0.25000001  1
  In  In5  1  0.14627796  0.99999997  0.75000003  1
  Sn  Sn6  1  0.99816201  0.27040799  0.00316000  1
  Cu  Cu7  1  0.72775398  0.72959198  0.49684002  1
  Pd  Pd8  1  0.00183797  0.72959198  0.99684003  1
  Pd  Pd9  1  0.27224599  0.27040799  0.50316002  1
