# generated using pymatgen
data_LiCoNi3O
_symmetry_space_group_name_H-M   'P 1'
_cell_length_a   4.76176691
_cell_length_b   5.24874878
_cell_length_c   5.78271818
_cell_angle_alpha   90.00000000
_cell_angle_beta   90.00000000
_cell_angle_gamma   90.00000000
_symmetry_Int_Tables_number   1
_chemical_formula_structural   LiCoNi3O
_chemical_formula_sum   'Li2 Co2 Ni6 O2'
_cell_volume   144.52931592
_cell_formula_units_Z   2
loop_
 _symmetry_equiv_pos_site_id
 _symmetry_equiv_pos_as_xyz
  1  'x, y, z'
loop_
 _atom_site_type_symbol
 _atom_site_label
 _atom_site_symmetry_multiplicity
 _atom_site_fract_x
 _atom_site_fract_y
 _atom_site_fract_z
 _atom_site_occupancy
  Li  Li0  1  0.50000001  0.75000003  0.66112698  1
  Li  Li1  1  -0.00000000  0.25000001  0.83887297  1
  Co  Co2  1  0.50000001  0.25000001  0.33887299  1
  Co  Co3  1  -0.00000000  0.75000003  0.16112699  1
  Ni  Ni4  1  0.72974601  0.08063200  0.61373398  1
  Ni  Ni5  1  0.22974600  0.91936804  0.88626597  1
  Ni  Ni6  1  0.77025401  0.58063202  0.88626597  1
  Ni  Ni7  1  0.27025401  0.41936802  0.61373398  1
  Ni  Ni8  1  0.72974601  0.58063202  0.38626599  1
  O  O9  1  0.22974600  0.41936802  0.11373400  1
  O  O10  1  0.77025401  0.08063200  0.11373400  1
  Ni  Ni11  1  0.27025401  0.91936804  0.38626599  1
