# generated using pymatgen
data_Li4MnO3
_symmetry_space_group_name_H-M   'P 1'
_cell_length_a   3.39399600
_cell_length_b   5.89516354
_cell_length_c   12.38886929
_cell_angle_alpha   101.46147919
_cell_angle_beta   90.00000000
_cell_angle_gamma   106.73004913
_symmetry_Int_Tables_number   1
_chemical_formula_structural   Li4MnO3
_chemical_formula_sum   'Li8 Mn2 O6'
_cell_volume   232.21991379
_cell_formula_units_Z   2
loop_
 _symmetry_equiv_pos_site_id
 _symmetry_equiv_pos_as_xyz
  1  'x, y, z'
loop_
 _atom_site_type_symbol
 _atom_site_label
 _atom_site_symmetry_multiplicity
 _atom_site_fract_x
 _atom_site_fract_y
 _atom_site_fract_z
 _atom_site_occupancy
  Li  Li0  1  0.54724401  0.09448800  0.28571800  1
  Li  Li1  1  0.45275610  0.90551200  0.71428200  1
  Li  Li2  1  0.76201606  0.52403200  0.12761701  1
  Li  Li3  1  0.23798405  0.47596800  0.87238299  1
  Li  Li4  1  0.14903903  0.29807800  0.56322399  1
  Li  Li5  1  0.85096108  0.70192200  0.43677600  1
  Li  Li6  1  0.00000000  0.00000000  0.00000000  1
  Li  Li7  1  0.19308204  0.38616400  0.39859200  1
  Mn  Mn8  1  0.80691807  0.61383600  0.60140800  1
  O  O9  1  0.37418509  0.74837000  0.05263901  1
  Mn  Mn10  1  0.62581503  0.25163000  0.94736098  1
  O  O11  1  0.09308702  0.18617400  0.71537999  1
  O  O12  1  0.90691309  0.81382600  0.28462001  1
  O  O13  1  0.12414503  0.24829000  0.16424200  1
  O  O14  1  0.87585509  0.75171000  0.83575800  1
  O  O15  1  0.50000000  0.00000000  0.49999999  1
