# generated using pymatgen
data_Li2CuO4
_symmetry_space_group_name_H-M   'P 1'
_cell_length_a   5.90787935
_cell_length_b   5.90787554
_cell_length_c   6.01954126
_cell_angle_alpha   60.61565781
_cell_angle_beta   60.61613083
_cell_angle_gamma   60.00431824
_symmetry_Int_Tables_number   1
_chemical_formula_structural   Li2CuO4
_chemical_formula_sum   'Li4 Cu2 O8'
_cell_volume   149.93624091
_cell_formula_units_Z   2
loop_
 _symmetry_equiv_pos_site_id
 _symmetry_equiv_pos_as_xyz
  1  'x, y, z'
loop_
 _atom_site_type_symbol
 _atom_site_label
 _atom_site_symmetry_multiplicity
 _atom_site_fract_x
 _atom_site_fract_y
 _atom_site_fract_z
 _atom_site_occupancy
  Li  Li0  1  0.13454199  0.13454100  0.59638102  1
  Li  Li1  1  0.86546996  0.86547100  0.40358505  1
  Li  Li2  1  0.49999595  0.99999899  0.00000704  1
  Li  Li3  1  0.00000198  0.49999700  0.00000501  1
  Cu  Cu4  1  0.49999398  0.50000000  0.00000103  1
  Cu  Cu5  1  0.49999898  0.49999900  0.50000303  1
  O  O6  1  0.27036999  0.27036200  0.18891802  1
  O  O7  1  0.26752099  0.26752000  0.74112702  1
  O  O8  1  0.72384798  0.26752000  0.74110804  1
  O  O9  1  0.26752097  0.72384500  0.74111003  1
  O  O10  1  0.73247698  0.27615400  0.25889603  1
  O  O11  1  0.27615097  0.73247700  0.25889903  1
  O  O12  1  0.73247696  0.73247700  0.25888004  1
  O  O13  1  0.72962996  0.72963800  0.81108305  1
