# generated using pymatgen
data_YEr3Al2CoSi5
_symmetry_space_group_name_H-M   'P 1'
_cell_length_a   4.26241398
_cell_length_b   4.28282404
_cell_length_c   12.81839371
_cell_angle_alpha   90.00000000
_cell_angle_beta   99.57053375
_cell_angle_gamma   90.00000000
_symmetry_Int_Tables_number   1
_chemical_formula_structural   YEr3Al2CoSi5
_chemical_formula_sum   'Y1 Er3 Al2 Co1 Si5'
_cell_volume   230.74502855
_cell_formula_units_Z   1
loop_
 _symmetry_equiv_pos_site_id
 _symmetry_equiv_pos_as_xyz
  1  'x, y, z'
loop_
 _atom_site_type_symbol
 _atom_site_label
 _atom_site_symmetry_multiplicity
 _atom_site_fract_x
 _atom_site_fract_y
 _atom_site_fract_z
 _atom_site_occupancy
  Y  Y0  1  0.68485700  0.50000000  0.36971400  1
  Er  Er1  1  0.31514300  0.50000000  0.63028599  1
  Er  Er2  1  0.00000000  0.00000000  0.00000000  1
  Er  Er3  1  0.87127701  0.99999999  0.74255400  1
  Al  Al4  1  0.12872300  0.00000000  0.25744600  1
  Co  Co5  1  0.58816100  0.00000000  0.17632200  1
  Al  Al6  1  0.41183900  0.00000000  0.82367799  1
  Si  Si7  1  0.77788101  0.99999999  0.55576200  1
  Si  Si8  1  0.22211900  0.00000000  0.44423800  1
  Si  Si9  1  0.91162701  0.50000000  0.82325399  1
  Si  Si10  1  0.08837300  0.50000000  0.17674600  1
  Si  Si11  1  0.50000000  0.50000000  0.00000000  1
