# generated using pymatgen
data_NdY5ErIn4SnGePtAu2
_symmetry_space_group_name_H-M   'P 1'
_cell_length_a   4.33119202
_cell_length_b   8.96464443
_cell_length_c   11.54035664
_cell_angle_alpha   90.00000000
_cell_angle_beta   90.00000000
_cell_angle_gamma   90.00000000
_symmetry_Int_Tables_number   1
_chemical_formula_structural   NdY5ErIn4SnGePtAu2
_chemical_formula_sum   'Nd1 Y5 Er1 In4 Sn1 Ge1 Pt1 Au2'
_cell_volume   448.08430973
_cell_formula_units_Z   1
loop_
 _symmetry_equiv_pos_site_id
 _symmetry_equiv_pos_as_xyz
  1  'x, y, z'
loop_
 _atom_site_type_symbol
 _atom_site_label
 _atom_site_symmetry_multiplicity
 _atom_site_fract_x
 _atom_site_fract_y
 _atom_site_fract_z
 _atom_site_occupancy
  Er  Er0  1  0.25000000  0.89957496  0.08951100  1
  Y  Y1  1  0.25000000  0.30291999  0.11342900  1
  Y  Y2  1  0.75000000  0.59696797  0.17710101  1
  Y  Y3  1  0.75000000  0.09696800  0.32289901  1
  Nd  Nd4  1  0.75000000  0.60042497  0.58951102  1
  Y  Y5  1  0.25000000  0.90303196  0.67710102  1
  In  In6  1  0.25000000  0.80291996  0.38657101  1
  In  In7  1  0.25000000  0.39957498  0.41048901  1
  Y  Y8  1  0.25000000  0.40303198  0.82289903  1
  In  In9  1  0.75000000  0.19707999  0.61342902  1
  Au  Au10  1  0.75000000  0.10042500  0.91048903  1
  In  In11  1  0.75000000  0.69707997  0.88657103  1
  Pt  Pt12  1  0.25000000  0.10196200  0.48036202  1
  Au  Au13  1  0.25000000  0.60196197  0.01963800  1
  Sn  Sn14  1  0.75000000  0.39803798  0.98036203  1
  Ge  Ge15  1  0.75000000  0.89803796  0.51963802  1
