# generated using pymatgen
data_Er2Al3Ga
_symmetry_space_group_name_H-M   'P 1'
_cell_length_a   3.09545994
_cell_length_b   5.13562489
_cell_length_c   8.39980030
_cell_angle_alpha   90.00000000
_cell_angle_beta   100.61787415
_cell_angle_gamma   90.00000000
_symmetry_Int_Tables_number   1
_chemical_formula_structural   Er2Al3Ga
_chemical_formula_sum   'Er2 Al3 Ga1'
_cell_volume   131.24628530
_cell_formula_units_Z   1
loop_
 _symmetry_equiv_pos_site_id
 _symmetry_equiv_pos_as_xyz
  1  'x, y, z'
loop_
 _atom_site_type_symbol
 _atom_site_label
 _atom_site_symmetry_multiplicity
 _atom_site_fract_x
 _atom_site_fract_y
 _atom_site_fract_z
 _atom_site_occupancy
  Al  Al0  1  0.27887101  0.25000001  0.55774199  1
  Er  Er1  1  0.72112902  0.75000002  0.44225799  1
  Al  Al2  1  0.61337601  0.25000001  0.22675200  1
  Er  Er3  1  0.94308602  0.25000001  0.88617198  1
  Al  Al4  1  0.05691400  0.75000002  0.11382800  1
  Ga  Ga5  1  0.38662401  0.75000002  0.77324798  1
