# generated using pymatgen
data_LiMgAg2
_symmetry_space_group_name_H-M   'P 1'
_cell_length_a   3.70283008
_cell_length_b   4.66132307
_cell_length_c   5.75398016
_cell_angle_alpha   90.00000000
_cell_angle_beta   108.76954651
_cell_angle_gamma   90.00000000
_symmetry_Int_Tables_number   1
_chemical_formula_structural   LiMgAg2
_chemical_formula_sum   'Li1 Mg1 Ag2'
_cell_volume   94.03271173
_cell_formula_units_Z   1
loop_
 _symmetry_equiv_pos_site_id
 _symmetry_equiv_pos_as_xyz
  1  'x, y, z'
loop_
 _atom_site_type_symbol
 _atom_site_label
 _atom_site_symmetry_multiplicity
 _atom_site_fract_x
 _atom_site_fract_y
 _atom_site_fract_z
 _atom_site_occupancy
  Li  Li0  1  0.86108998  0.25000000  0.72218002  1
  Mg  Mg1  1  0.13891000  0.74999999  0.27782001  1
  Ag  Ag2  1  0.58912399  0.25000000  0.17824801  1
  Ag  Ag3  1  0.41087599  0.74999999  0.82175202  1
