# generated using pymatgen
data_ErScGa3Ge
_symmetry_space_group_name_H-M   'P 1'
_cell_length_a   4.51268196
_cell_length_b   5.69253588
_cell_length_c   5.75435781
_cell_angle_alpha   77.83588409
_cell_angle_beta   66.91414642
_cell_angle_gamma   66.64865875
_symmetry_Int_Tables_number   1
_chemical_formula_structural   ErScGa3Ge
_chemical_formula_sum   'Er1 Sc1 Ga3 Ge1'
_cell_volume   124.57759057
_cell_formula_units_Z   1
loop_
 _symmetry_equiv_pos_site_id
 _symmetry_equiv_pos_as_xyz
  1  'x, y, z'
loop_
 _atom_site_type_symbol
 _atom_site_label
 _atom_site_symmetry_multiplicity
 _atom_site_fract_x
 _atom_site_fract_y
 _atom_site_fract_z
 _atom_site_occupancy
  Er  Er0  1  0.53593502  0.21671399  0.71141600  1
  Sc  Sc1  1  0.46406502  0.78328596  0.28858402  1
  Ga  Ga2  1  0.16540001  0.38321398  0.28598602  1
  Ga  Ga3  1  0.83460003  0.61678597  0.71401400  1
  Ga  Ga4  1  0.83505203  0.21292099  0.11697497  1
  Ge  Ge5  1  0.16494801  0.78707896  0.88302505  1
