# generated using pymatgen
data_YB2PIrRu
_symmetry_space_group_name_H-M   'P 1'
_cell_length_a   3.12538099
_cell_length_b   5.51603985
_cell_length_c   5.51604128
_cell_angle_alpha   119.99999237
_cell_angle_beta   90.00000000
_cell_angle_gamma   90.00000000
_symmetry_Int_Tables_number   1
_chemical_formula_structural   YB2PIrRu
_chemical_formula_sum   'Y1 B2 P1 Ru1 Ir1'
_cell_volume   82.35472743
_cell_formula_units_Z   1
loop_
 _symmetry_equiv_pos_site_id
 _symmetry_equiv_pos_as_xyz
  1  'x, y, z'
loop_
 _atom_site_type_symbol
 _atom_site_label
 _atom_site_symmetry_multiplicity
 _atom_site_fract_x
 _atom_site_fract_y
 _atom_site_fract_z
 _atom_site_occupancy
  Y  Y0  1  0.00000000  0.00000000  0.00000000  1
  B  B1  1  1.00000000  0.33333334  0.66666663  1
  Ru  Ru2  1  1.00000000  0.66666668  0.33333330  1
  B  B3  1  0.50000000  0.50000001  0.49999997  1
  Ir  Ir4  1  0.50000000  0.00000000  0.49999998  1
  P  P5  1  0.50000000  0.50000001  0.99999995  1
