# generated using pymatgen
data_BaCa2CeIn3Sn(PdAu)2
_symmetry_space_group_name_H-M   'P 1'
_cell_length_a   4.43808222
_cell_length_b   7.55458593
_cell_length_c   8.83313179
_cell_angle_alpha   90.00000000
_cell_angle_beta   90.00000000
_cell_angle_gamma   90.00000000
_symmetry_Int_Tables_number   1
_chemical_formula_structural   BaCa2CeIn3Sn(PdAu)2
_chemical_formula_sum   'Ba1 Ca2 Ce1 In3 Sn1 Pd2 Au2'
_cell_volume   296.15612525
_cell_formula_units_Z   1
loop_
 _symmetry_equiv_pos_site_id
 _symmetry_equiv_pos_as_xyz
  1  'x, y, z'
loop_
 _atom_site_type_symbol
 _atom_site_label
 _atom_site_symmetry_multiplicity
 _atom_site_fract_x
 _atom_site_fract_y
 _atom_site_fract_z
 _atom_site_occupancy
  Ba  Ba0  1  0.24999999  0.53398400  0.17614100  1
  Ce  Ce1  1  0.74999996  0.46601600  0.82385902  1
  Ca  Ca2  1  0.74999996  0.96601601  0.67614102  1
  Ca  Ca3  1  0.24999999  0.03398400  0.32385901  1
  In  In4  1  0.24999999  0.63844901  0.56026901  1
  In  In5  1  0.74999996  0.36155100  0.43973101  1
  Sn  Sn6  1  0.74999996  0.86155101  0.06026900  1
  In  In7  1  0.24999999  0.13844900  0.93973102  1
  Au  Au8  1  0.24999999  0.76477701  0.87104802  1
  Pd  Pd9  1  0.74999996  0.23522300  0.12895200  1
  Au  Au10  1  0.74999996  0.73522301  0.37104801  1
  Pd  Pd11  1  0.24999999  0.26477700  0.62895201  1
