# generated using pymatgen
data_Li3MnO8
_symmetry_space_group_name_H-M   'P 1'
_cell_length_a   5.02065468
_cell_length_b   5.02065468
_cell_length_c   6.29715586
_cell_angle_alpha   90.00000000
_cell_angle_beta   90.00000000
_cell_angle_gamma   113.18558502
_symmetry_Int_Tables_number   1
_chemical_formula_structural   Li3MnO8
_chemical_formula_sum   'Li3 Mn1 O8'
_cell_volume   145.91213898
_cell_formula_units_Z   1
loop_
 _symmetry_equiv_pos_site_id
 _symmetry_equiv_pos_as_xyz
  1  'x, y, z'
loop_
 _atom_site_type_symbol
 _atom_site_label
 _atom_site_symmetry_multiplicity
 _atom_site_fract_x
 _atom_site_fract_y
 _atom_site_fract_z
 _atom_site_occupancy
  Li  Li0  1  0.35674005  0.64326003  0.25000001  1
  Mn  Mn1  1  0.64326005  0.35674002  0.75000002  1
  Li  Li2  1  0.00000000  0.00000000  0.00000000  1
  Li  Li3  1  1.00000004  0.00000000  0.50000001  1
  O  O4  1  0.72768308  0.78276704  0.25000001  1
  O  O5  1  0.27231702  0.21723301  0.75000002  1
  O  O6  1  0.78276708  0.72768304  0.75000002  1
  O  O7  1  0.21723303  0.27231701  0.25000001  1
  O  O8  1  0.24270206  0.75729804  0.03992200  1
  O  O9  1  0.75729805  0.24270201  0.53992201  1
  O  O10  1  0.75729805  0.24270201  0.96007802  1
  O  O11  1  0.24270206  0.75729804  0.46007801  1
