# generated using pymatgen
data_Fe4CuGe2PIr3Rh
_symmetry_space_group_name_H-M   'P 1'
_cell_length_a   5.93587017
_cell_length_b   5.93587017
_cell_length_c   5.93587017
_cell_angle_alpha   90.00000000
_cell_angle_beta   90.00000000
_cell_angle_gamma   90.00000000
_symmetry_Int_Tables_number   1
_chemical_formula_structural   Fe4CuGe2PIr3Rh
_chemical_formula_sum   'Fe4 Cu1 Ge2 P1 Ir3 Rh1'
_cell_volume   209.14774211
_cell_formula_units_Z   1
loop_
 _symmetry_equiv_pos_site_id
 _symmetry_equiv_pos_as_xyz
  1  'x, y, z'
loop_
 _atom_site_type_symbol
 _atom_site_label
 _atom_site_symmetry_multiplicity
 _atom_site_fract_x
 _atom_site_fract_y
 _atom_site_fract_z
 _atom_site_occupancy
  Cu  Cu0  1  0.00000000  0.00000000  0.00000000  1
  Fe  Fe1  1  0.49999999  0.00000000  0.49999999  1
  Fe  Fe2  1  0.49999999  0.49999999  0.00000000  1
  Fe  Fe3  1  0.00000000  0.49999999  0.49999999  1
  Fe  Fe4  1  0.37688199  0.37688199  0.37688199  1
  Ge  Ge5  1  0.12311800  0.62311798  0.87688197  1
  Ir  Ir6  1  0.87688197  0.12311800  0.62311798  1
  Ir  Ir7  1  0.62311798  0.87688197  0.12311800  1
  Ge  Ge8  1  0.62311798  0.62311798  0.62311798  1
  Ir  Ir9  1  0.87688197  0.37688199  0.12311800  1
  P  P10  1  0.12311800  0.87688197  0.37688199  1
  Rh  Rh11  1  0.37688199  0.12311800  0.87688197  1
