# generated using pymatgen
data_KRbTlBr4Cl
_symmetry_space_group_name_H-M   'P 1'
_cell_length_a   6.55687380
_cell_length_b   8.04411793
_cell_length_c   8.04411793
_cell_angle_alpha   120.00000000
_cell_angle_beta   90.00000000
_cell_angle_gamma   90.00000000
_symmetry_Int_Tables_number   1
_chemical_formula_structural   KRbTlBr4Cl
_chemical_formula_sum   'K1 Rb1 Tl1 Br4 Cl1'
_cell_volume   367.43820772
_cell_formula_units_Z   1
loop_
 _symmetry_equiv_pos_site_id
 _symmetry_equiv_pos_as_xyz
  1  'x, y, z'
loop_
 _atom_site_type_symbol
 _atom_site_label
 _atom_site_symmetry_multiplicity
 _atom_site_fract_x
 _atom_site_fract_y
 _atom_site_fract_z
 _atom_site_occupancy
  K  K0  1  0.25000001  0.66666666  0.33333329  1
  Tl  Tl1  1  0.75000002  0.33333333  0.66666662  1
  Rb  Rb2  1  0.75000002  0.83545899  0.16454196  1
  Br  Br3  1  0.75000002  0.32908300  0.16454198  1
  Br  Br4  1  0.75000002  0.83545899  0.67091793  1
  Br  Br5  1  0.25000001  0.16454100  0.83545795  1
  Cl  Cl6  1  0.25000001  0.67091699  0.83545793  1
  Br  Br7  1  0.25000001  0.16454100  0.32908198  1
