# generated using pymatgen
data_KNaYCuAsP2O
_symmetry_space_group_name_H-M   'P 1'
_cell_length_a   4.06110811
_cell_length_b   4.06110811
_cell_length_c   9.62390995
_cell_angle_alpha   90.00000000
_cell_angle_beta   90.00000000
_cell_angle_gamma   90.00000000
_symmetry_Int_Tables_number   1
_chemical_formula_structural   KNaYCuAsP2O
_chemical_formula_sum   'K1 Na1 Y1 Cu1 As1 P2 O1'
_cell_volume   158.72328858
_cell_formula_units_Z   1
loop_
 _symmetry_equiv_pos_site_id
 _symmetry_equiv_pos_as_xyz
  1  'x, y, z'
loop_
 _atom_site_type_symbol
 _atom_site_label
 _atom_site_symmetry_multiplicity
 _atom_site_fract_x
 _atom_site_fract_y
 _atom_site_fract_z
 _atom_site_occupancy
  Y  Y0  1  0.00000000  0.00000000  0.50000000  1
  Na  Na1  1  0.49999999  0.49999999  0.50000000  1
  K  K2  1  0.00000000  0.49999999  0.87273600  1
  Cu  Cu3  1  0.49999999  0.00000000  0.12726400  1
  P  P4  1  0.00000000  0.49999999  0.31956300  1
  P  P5  1  0.49999999  0.00000000  0.68043700  1
  O  O6  1  0.00000000  0.00000000  0.00000000  1
  As  As7  1  0.49999999  0.49999999  0.00000000  1
