# generated using pymatgen
data_TiMnCu4(SeS3)2
_symmetry_space_group_name_H-M   'P 1'
_cell_length_a   5.51050711
_cell_length_b   5.51050711
_cell_length_c   10.41209984
_cell_angle_alpha   90.00000000
_cell_angle_beta   90.00000000
_cell_angle_gamma   90.00000000
_symmetry_Int_Tables_number   1
_chemical_formula_structural   TiMnCu4(SeS3)2
_chemical_formula_sum   'Ti1 Mn1 Cu4 Se2 S6'
_cell_volume   316.17058109
_cell_formula_units_Z   1
loop_
 _symmetry_equiv_pos_site_id
 _symmetry_equiv_pos_as_xyz
  1  'x, y, z'
loop_
 _atom_site_type_symbol
 _atom_site_label
 _atom_site_symmetry_multiplicity
 _atom_site_fract_x
 _atom_site_fract_y
 _atom_site_fract_z
 _atom_site_occupancy
  Cu  Cu0  1  0.49999999  0.49999999  0.50000001  1
  Ti  Ti1  1  0.00000000  0.00000000  0.00000000  1
  Mn  Mn2  1  0.49999999  0.49999999  0.00000000  1
  Cu  Cu3  1  0.00000000  0.00000000  0.50000001  1
  Cu  Cu4  1  0.00000000  0.49999999  0.25358400  1
  Cu  Cu5  1  0.49999999  0.00000000  0.74641601  1
  S  S6  1  0.24373500  0.75509499  0.37254901  1
  Se  Se7  1  0.73293399  0.26882299  0.86241601  1
  S  S8  1  0.75626499  0.24490500  0.37254901  1
  Se  Se9  1  0.26706599  0.73117699  0.86241601  1
  S  S10  1  0.73117699  0.73293399  0.13758400  1
  S  S11  1  0.24490500  0.24373500  0.62745101  1
  S  S12  1  0.26882299  0.26706599  0.13758400  1
  S  S13  1  0.75509499  0.75626499  0.62745101  1
