# generated using pymatgen
data_Li3Cu2Ni3P2
_symmetry_space_group_name_H-M   'P 1'
_cell_length_a   6.27169514
_cell_length_b   6.27169514
_cell_length_c   6.31640482
_cell_angle_alpha   90.21646118
_cell_angle_beta   119.70192719
_cell_angle_gamma   119.81327057
_symmetry_Int_Tables_number   1
_chemical_formula_structural   Li3Cu2Ni3P2
_chemical_formula_sum   'Li3 Cu2 Ni3 P2'
_cell_volume   176.63295066
_cell_formula_units_Z   1
loop_
 _symmetry_equiv_pos_site_id
 _symmetry_equiv_pos_as_xyz
  1  'x, y, z'
loop_
 _atom_site_type_symbol
 _atom_site_label
 _atom_site_symmetry_multiplicity
 _atom_site_fract_x
 _atom_site_fract_y
 _atom_site_fract_z
 _atom_site_occupancy
  Li  Li0  1  0.99233595  0.24863099  0.24096695  1
  Li  Li1  1  0.00766398  0.75136897  0.75903297  1
  Li  Li2  1  0.49999998  0.00000000  0.49999998  1
  Cu  Cu3  1  0.49999996  0.49999998  -0.00000004  1
  Cu  Cu4  1  0.02416699  0.30084999  0.80300199  1
  Ni  Ni5  1  0.49784797  0.22116499  0.19699797  1
  Ni  Ni6  1  0.97583294  0.69914997  0.19699794  1
  P  P7  1  0.50215196  0.77883497  0.80300195  1
  Ni  Ni8  1  0.57171495  0.73663297  0.30834795  1
  P  P9  1  0.42828497  0.26336699  0.69165197  1
