# generated using pymatgen
data_Li
_symmetry_space_group_name_H-M   'P 1'
_cell_length_a   4.07007837
_cell_length_b   4.07007837
_cell_length_c   6.99753761
_cell_angle_alpha   73.09281158
_cell_angle_beta   73.09281158
_cell_angle_gamma   59.99999237
_symmetry_Int_Tables_number   1
_chemical_formula_structural   Li
_chemical_formula_sum   Li4
_cell_volume   94.55825992
_cell_formula_units_Z   4
loop_
 _symmetry_equiv_pos_site_id
 _symmetry_equiv_pos_as_xyz
  1  'x, y, z'
loop_
 _atom_site_type_symbol
 _atom_site_label
 _atom_site_symmetry_multiplicity
 _atom_site_fract_x
 _atom_site_fract_y
 _atom_site_fract_z
 _atom_site_occupancy
  Li  Li0  1  0.49193801  0.49193801  0.52418600  1
  Li  Li1  1  0.00711800  0.00711800  0.97864602  1
  Li  Li2  1  0.12930400  0.12930400  0.61208801  1
  Li  Li3  1  0.62164001  0.62164001  0.13507998  1
