# generated using pymatgen
data_KTiNiP2
_symmetry_space_group_name_H-M   'P 1'
_cell_length_a   3.82944989
_cell_length_b   3.82944989
_cell_length_c   7.98276806
_cell_angle_alpha   103.87811279
_cell_angle_beta   103.87811279
_cell_angle_gamma   90.00000000
_symmetry_Int_Tables_number   1
_chemical_formula_structural   KTiNiP2
_chemical_formula_sum   'K1 Ti1 Ni1 P2'
_cell_volume   110.12412735
_cell_formula_units_Z   1
loop_
 _symmetry_equiv_pos_site_id
 _symmetry_equiv_pos_as_xyz
  1  'x, y, z'
loop_
 _atom_site_type_symbol
 _atom_site_label
 _atom_site_symmetry_multiplicity
 _atom_site_fract_x
 _atom_site_fract_y
 _atom_site_fract_z
 _atom_site_occupancy
  K  K0  1  0.00000000  0.00000000  0.00000000  1
  Ti  Ti1  1  0.75000000  0.25000000  0.49999998  1
  Ni  Ni2  1  0.24999998  0.75000001  0.49999997  1
  P  P3  1  0.33615899  0.33615900  0.67231799  1
  P  P4  1  0.66384099  0.66384101  0.32768196  1
