# generated using pymatgen
data_LiLaMgFe5Cu3P4
_symmetry_space_group_name_H-M   'P 1'
_cell_length_a   2.80586195
_cell_length_b   9.33617783
_cell_length_c   9.33617783
_cell_angle_alpha   120.00000000
_cell_angle_beta   90.00000000
_cell_angle_gamma   90.00000000
_symmetry_Int_Tables_number   1
_chemical_formula_structural   LiLaMgFe5Cu3P4
_chemical_formula_sum   'Li1 La1 Mg1 Fe5 Cu3 P4'
_cell_volume   211.80448961
_cell_formula_units_Z   1
loop_
 _symmetry_equiv_pos_site_id
 _symmetry_equiv_pos_as_xyz
  1  'x, y, z'
loop_
 _atom_site_type_symbol
 _atom_site_label
 _atom_site_symmetry_multiplicity
 _atom_site_fract_x
 _atom_site_fract_y
 _atom_site_fract_z
 _atom_site_occupancy
  Li  Li0  1  1.00000002  0.00000000  0.36229400  1
  La  La1  1  -0.00000000  0.36229400  -0.00000001  1
  Mg  Mg2  1  -0.00000000  0.63770601  0.63770598  1
  Fe  Fe3  1  0.50000001  0.00000000  -0.00000000  1
  Fe  Fe4  1  -0.00000000  0.33333334  0.66666665  1
  Fe  Fe5  1  1.00000002  0.66666667  0.33333332  1
  Cu  Cu6  1  0.50000001  0.31834400  0.48367799  1
  Fe  Fe7  1  0.50000001  0.51632200  0.83466598  1
  P  P8  1  0.50000001  0.16533400  0.68165599  1
  Fe  Fe9  1  0.50000001  0.83466601  0.51632198  1
  P  P10  1  0.50000001  0.68165601  0.16533398  1
  Cu  Cu11  1  0.50000001  0.48367800  0.31834399  1
  Cu  Cu12  1  1.00000002  0.00000000  0.82266199  1
  P  P13  1  -0.00000000  0.82266201  -0.00000002  1
  P  P14  1  -0.00000000  0.17733800  0.17733799  1
