# generated using pymatgen
data_Y2HoInSn2Pd2Au
_symmetry_space_group_name_H-M   'P 1'
_cell_length_a   3.89102602
_cell_length_b   7.49206018
_cell_length_c   7.49205971
_cell_angle_alpha   120.00000000
_cell_angle_beta   90.00000000
_cell_angle_gamma   90.00000000
_symmetry_Int_Tables_number   1
_chemical_formula_structural   Y2HoInSn2Pd2Au
_chemical_formula_sum   'Y2 Ho1 In1 Sn2 Pd2 Au1'
_cell_volume   189.14604032
_cell_formula_units_Z   1
loop_
 _symmetry_equiv_pos_site_id
 _symmetry_equiv_pos_as_xyz
  1  'x, y, z'
loop_
 _atom_site_type_symbol
 _atom_site_label
 _atom_site_symmetry_multiplicity
 _atom_site_fract_x
 _atom_site_fract_y
 _atom_site_fract_z
 _atom_site_occupancy
  Y  Y0  1  0.50000000  0.99999996  0.40448998  1
  Y  Y1  1  0.50000000  0.40448999  1.00000000  1
  Ho  Ho2  1  0.50000000  0.59550998  0.59550999  1
  In  In3  1  -0.00000000  0.74033597  0.99999999  1
  Sn  Sn4  1  -0.00000000  0.99999996  0.74033598  1
  Sn  Sn5  1  -0.00000000  0.25966399  0.25966400  1
  Au  Au6  1  0.99999999  0.66666664  0.33333332  1
  Pd  Pd7  1  0.50000000  0.00000000  -0.00000000  1
  Pd  Pd8  1  0.99999999  0.33333332  0.66666666  1
