# generated using pymatgen
data_TiSiGe
_symmetry_space_group_name_H-M   'P 1'
_cell_length_a   5.36908865
_cell_length_b   5.36908865
_cell_length_c   5.36908865
_cell_angle_alpha   60.00000000
_cell_angle_beta   60.00000000
_cell_angle_gamma   60.00000000
_symmetry_Int_Tables_number   1
_chemical_formula_structural   TiSiGe
_chemical_formula_sum   'Ti2 Si2 Ge2'
_cell_volume   109.44268175
_cell_formula_units_Z   2
loop_
 _symmetry_equiv_pos_site_id
 _symmetry_equiv_pos_as_xyz
  1  'x, y, z'
loop_
 _atom_site_type_symbol
 _atom_site_label
 _atom_site_symmetry_multiplicity
 _atom_site_fract_x
 _atom_site_fract_y
 _atom_site_fract_z
 _atom_site_occupancy
  Ti  Ti0  1  0.75000000  0.75000000  0.75000000  1
  Ti  Ti1  1  0.00000000  0.00000000  0.00000000  1
  Si  Si2  1  0.37484900  0.87545500  0.37484800  1
  Si  Si3  1  0.37484900  0.37484800  0.37484800  1
  Ge  Ge4  1  0.37484900  0.37484800  0.87545500  1
  Ge  Ge5  1  0.87545600  0.37484800  0.37484800  1
