# generated using pymatgen
data_BaCdInBi
_symmetry_space_group_name_H-M   'P 1'
_cell_length_a   4.70269442
_cell_length_b   4.70269442
_cell_length_c   8.95883369
_cell_angle_alpha   74.78384399
_cell_angle_beta   74.78384399
_cell_angle_gamma   59.99999619
_symmetry_Int_Tables_number   1
_chemical_formula_structural   BaCdInBi
_chemical_formula_sum   'Ba1 Cd1 In1 Bi1'
_cell_volume   163.51398574
_cell_formula_units_Z   1
loop_
 _symmetry_equiv_pos_site_id
 _symmetry_equiv_pos_as_xyz
  1  'x, y, z'
loop_
 _atom_site_type_symbol
 _atom_site_label
 _atom_site_symmetry_multiplicity
 _atom_site_fract_x
 _atom_site_fract_y
 _atom_site_fract_z
 _atom_site_occupancy
  Ba  Ba0  1  0.49999999  0.49999999  0.50000003  1
  In  In1  1  0.00000000  0.00000000  0.00000000  1
  Cd  Cd2  1  0.26535300  0.26535299  0.20394101  1
  Bi  Bi3  1  0.73464699  0.73464698  0.79605905  1
