# generated using pymatgen
data_MnV2Cu3PdRh
_symmetry_space_group_name_H-M   'P 1'
_cell_length_a   4.65211105
_cell_length_b   4.65211105
_cell_length_c   4.65211105
_cell_angle_alpha   90.00000000
_cell_angle_beta   90.00000000
_cell_angle_gamma   90.00000000
_symmetry_Int_Tables_number   1
_chemical_formula_structural   MnV2Cu3PdRh
_chemical_formula_sum   'Mn1 V2 Cu3 Pd1 Rh1'
_cell_volume   100.68162594
_cell_formula_units_Z   1
loop_
 _symmetry_equiv_pos_site_id
 _symmetry_equiv_pos_as_xyz
  1  'x, y, z'
loop_
 _atom_site_type_symbol
 _atom_site_label
 _atom_site_symmetry_multiplicity
 _atom_site_fract_x
 _atom_site_fract_y
 _atom_site_fract_z
 _atom_site_occupancy
  V  V0  1  0.49999999  0.25000000  0.00000000  1
  V  V1  1  0.49999999  0.74999999  0.00000000  1
  Mn  Mn2  1  0.25000000  0.00000000  0.49999999  1
  Cu  Cu3  1  0.74999999  0.00000000  0.49999999  1
  Cu  Cu4  1  0.00000000  0.49999999  0.25000000  1
  Cu  Cu5  1  0.00000000  0.49999999  0.74999999  1
  Rh  Rh6  1  0.49999999  0.49999999  0.49999999  1
  Pd  Pd7  1  0.00000000  0.00000000  0.00000000  1
