# generated using pymatgen
data_CuBi2SbTe3AsSe
_symmetry_space_group_name_H-M   'P 1'
_cell_length_a   4.32339859
_cell_length_b   4.32339859
_cell_length_c   19.22754478
_cell_angle_alpha   83.54473877
_cell_angle_beta   83.54473877
_cell_angle_gamma   59.99999237
_symmetry_Int_Tables_number   1
_chemical_formula_structural   CuBi2SbTe3AsSe
_chemical_formula_sum   'Cu1 Bi2 Sb1 Te3 As1 Se1'
_cell_volume   308.61296357
_cell_formula_units_Z   1
loop_
 _symmetry_equiv_pos_site_id
 _symmetry_equiv_pos_as_xyz
  1  'x, y, z'
loop_
 _atom_site_type_symbol
 _atom_site_label
 _atom_site_symmetry_multiplicity
 _atom_site_fract_x
 _atom_site_fract_y
 _atom_site_fract_z
 _atom_site_occupancy
  Cu  Cu0  1  0.90474101  0.90474098  0.28577699  1
  Sb  Sb1  1  0.50550100  0.50550099  0.48349700  1
  Bi  Bi2  1  0.10260900  0.10260900  0.69217300  1
  Bi  Bi3  1  0.69567701  0.69567699  0.91296900  1
  Te  Te4  1  0.39980500  0.39980499  0.80058500  1
  Te  Te5  1  0.19679400  0.19679400  0.40961800  1
  Te  Te6  1  0.80114501  0.80114499  0.59656500  1
  As  As7  1  0.99795201  0.99795198  0.00614399  1
  Se  Se8  1  0.59577601  0.59577599  0.21267200  1
