# generated using pymatgen
data_HfGa4GePd7
_symmetry_space_group_name_H-M   'P 1'
_cell_length_a   5.41199589
_cell_length_b   5.41199589
_cell_length_c   8.91623592
_cell_angle_alpha   90.00000000
_cell_angle_beta   90.00000000
_cell_angle_gamma   120.00000000
_symmetry_Int_Tables_number   1
_chemical_formula_structural   HfGa4GePd7
_chemical_formula_sum   'Hf1 Ga4 Ge1 Pd7'
_cell_volume   226.16588639
_cell_formula_units_Z   1
loop_
 _symmetry_equiv_pos_site_id
 _symmetry_equiv_pos_as_xyz
  1  'x, y, z'
loop_
 _atom_site_type_symbol
 _atom_site_label
 _atom_site_symmetry_multiplicity
 _atom_site_fract_x
 _atom_site_fract_y
 _atom_site_fract_z
 _atom_site_occupancy
  Hf  Hf0  1  0.00000000  0.00000000  0.00000000  1
  Ga  Ga1  1  0.50000001  0.00000000  0.24562100  1
  Ga  Ga2  1  0.50000001  0.50000001  0.24562100  1
  Ge  Ge3  1  1.00000002  0.50000001  0.24562100  1
  Ga  Ga4  1  0.50000001  0.00000000  0.75437901  1
  Ga  Ga5  1  0.50000001  0.50000001  0.75437901  1
  Pd  Pd6  1  1.00000002  0.50000001  0.75437901  1
  Pd  Pd7  1  0.33333334  0.66666668  -0.00000000  1
  Pd  Pd8  1  0.66666668  0.33333334  -0.00000000  1
  Pd  Pd9  1  0.33333334  0.66666668  0.50000000  1
  Pd  Pd10  1  0.66666668  0.33333334  0.50000000  1
  Pd  Pd11  1  0.00000000  0.00000000  0.33655900  1
  Pd  Pd12  1  0.00000000  0.00000000  0.66344101  1
