# generated using pymatgen
data_NaLi2
_symmetry_space_group_name_H-M   'P 1'
_cell_length_a   4.72026205
_cell_length_b   4.72026300
_cell_length_c   7.50472784
_cell_angle_alpha   90.00000000
_cell_angle_beta   90.00000000
_cell_angle_gamma   119.99999237
_symmetry_Int_Tables_number   1
_chemical_formula_structural   NaLi2
_chemical_formula_sum   'Na2 Li4'
_cell_volume   144.80978851
_cell_formula_units_Z   2
loop_
 _symmetry_equiv_pos_site_id
 _symmetry_equiv_pos_as_xyz
  1  'x, y, z'
loop_
 _atom_site_type_symbol
 _atom_site_label
 _atom_site_symmetry_multiplicity
 _atom_site_fract_x
 _atom_site_fract_y
 _atom_site_fract_z
 _atom_site_occupancy
  Li  Li0  1  0.00000000  0.00000000  0.27474401  1
  Na  Na1  1  0.00000000  0.00000000  0.73660702  1
  Na  Na2  1  0.66666666  0.33333333  0.51487501  1
  Li  Li3  1  0.66666666  0.33333333  0.94726702  1
  Li  Li4  1  0.33333333  0.66666667  0.06717000  1
  Li  Li5  1  0.33333333  0.66666667  0.45933701  1
