# generated using pymatgen
data_KNa6Cu3O10
_symmetry_space_group_name_H-M   'P 1'
_cell_length_a   5.71605015
_cell_length_b   6.36164999
_cell_length_c   10.17388439
_cell_angle_alpha   81.16654968
_cell_angle_beta   73.68501282
_cell_angle_gamma   63.30388260
_symmetry_Int_Tables_number   1
_chemical_formula_structural   KNa6Cu3O10
_chemical_formula_sum   'K1 Na6 Cu3 O10'
_cell_volume   317.05029417
_cell_formula_units_Z   1
loop_
 _symmetry_equiv_pos_site_id
 _symmetry_equiv_pos_as_xyz
  1  'x, y, z'
loop_
 _atom_site_type_symbol
 _atom_site_label
 _atom_site_symmetry_multiplicity
 _atom_site_fract_x
 _atom_site_fract_y
 _atom_site_fract_z
 _atom_site_occupancy
  Na  Na0  1  0.06088896  0.69385803  0.61190602  1
  K  K1  1  0.63334697  0.19385801  0.11190601  1
  Na  Na2  1  0.93911095  0.30614201  0.38809402  1
  Na  Na3  1  0.36665294  0.80614203  0.88809403  1
  Na  Na4  1  0.52652194  0.80981403  0.54142903  1
  Na  Na5  1  0.87776493  0.69018603  0.95857103  1
  Na  Na6  1  0.38441497  0.25000001  0.75000000  1
  Cu  Cu7  1  0.12223498  0.30981401  0.04142901  1
  Cu  Cu8  1  0.61558494  0.75000003  0.25000004  1
  Cu  Cu9  1  0.47347797  0.19018601  0.45857101  1
  O  O10  1  0.13778195  0.75000003  0.25000003  1
  O  O11  1  0.86221796  0.25000001  0.75000001  1
  O  O12  1  0.93167295  0.38848001  0.88788502  1
  O  O13  1  0.79196193  0.88848003  0.38788504  1
  O  O14  1  0.26402394  0.99298104  0.16193104  1
  O  O15  1  0.06832696  0.61152002  0.11211503  1
  O  O16  1  0.58106395  0.49298102  0.66193102  1
  O  O17  1  0.73597598  0.00701900  0.83806900  1
  O  O18  1  0.41893596  0.50701902  0.33806902  1
  O  O19  1  0.20803799  0.11152000  0.61211500  1
