# generated using pymatgen
data_BaYTh3ZrTl3Bi2Sb9
_symmetry_space_group_name_H-M   'P 1'
_cell_length_a   7.20690107
_cell_length_b   11.17269230
_cell_length_c   11.17269230
_cell_angle_alpha   120.00000000
_cell_angle_beta   90.00000000
_cell_angle_gamma   90.00000000
_symmetry_Int_Tables_number   1
_chemical_formula_structural   BaYTh3ZrTl3Bi2Sb9
_chemical_formula_sum   'Ba1 Y1 Th3 Zr1 Tl3 Bi2 Sb9'
_cell_volume   779.10298614
_cell_formula_units_Z   1
loop_
 _symmetry_equiv_pos_site_id
 _symmetry_equiv_pos_as_xyz
  1  'x, y, z'
loop_
 _atom_site_type_symbol
 _atom_site_label
 _atom_site_symmetry_multiplicity
 _atom_site_fract_x
 _atom_site_fract_y
 _atom_site_fract_z
 _atom_site_occupancy
  Y  Y0  1  0.95494299  0.66666665  0.33333332  1
  Ba  Ba1  1  0.45494300  0.33333332  0.66666664  1
  Tl  Tl2  1  0.75036399  0.87480697  0.74961397  1
  Tl  Tl3  1  0.25036400  0.74961398  0.87480697  1
  Th  Th4  1  0.25036400  0.12519300  0.87480697  1
  Tl  Tl5  1  0.75036399  0.87480697  0.12519299  1
  Th  Th6  1  0.75036399  0.25038599  0.12519299  1
  Sb  Sb7  1  0.25036400  0.12519300  0.25038599  1
  Zr  Zr8  1  0.93401699  0.45756299  0.91512597  1
  Th  Th9  1  0.43401700  0.91512597  0.45756298  1
  Sb  Sb10  1  0.43401700  0.54243698  0.45756298  1
  Bi  Bi11  1  0.93401699  0.45756299  0.54243698  1
  Bi  Bi12  1  0.93401699  0.08487400  0.54243698  1
  Sb  Sb13  1  0.43401700  0.54243698  0.08487399  1
  Sb  Sb14  1  0.66863799  0.18828699  0.37657399  1
  Sb  Sb15  1  0.16863800  0.37657299  0.18828599  1
  Sb  Sb16  1  0.16863800  0.81171298  0.18828599  1
  Sb  Sb17  1  0.66863799  0.18828699  0.81171397  1
  Sb  Sb18  1  0.66863799  0.62342698  0.81171397  1
  Sb  Sb19  1  0.16863800  0.81171298  0.62342597  1
