# generated using pymatgen
data_ErScCdIn(SnAu)2
_symmetry_space_group_name_H-M   'P 1'
_cell_length_a   4.46360922
_cell_length_b   6.62769604
_cell_length_c   6.62769604
_cell_angle_alpha   120.00000000
_cell_angle_beta   90.00000000
_cell_angle_gamma   90.00000000
_symmetry_Int_Tables_number   1
_chemical_formula_structural   ErScCdIn(SnAu)2
_chemical_formula_sum   'Er1 Sc1 Cd1 In1 Sn2 Au2'
_cell_volume   169.80167198
_cell_formula_units_Z   1
loop_
 _symmetry_equiv_pos_site_id
 _symmetry_equiv_pos_as_xyz
  1  'x, y, z'
loop_
 _atom_site_type_symbol
 _atom_site_label
 _atom_site_symmetry_multiplicity
 _atom_site_fract_x
 _atom_site_fract_y
 _atom_site_fract_z
 _atom_site_occupancy
  Er  Er0  1  0.24999999  0.66666666  0.33333332  1
  Sc  Sc1  1  0.74999996  0.33333333  0.66666665  1
  Cd  Cd2  1  0.24999999  0.14281600  0.85718298  1
  In  In3  1  0.24999999  0.71436699  0.85718298  1
  Sn  Sn4  1  0.24999999  0.14281600  0.28563199  1
  Sn  Sn5  1  0.74999996  0.85718399  0.14281699  1
  Au  Au6  1  0.74999996  0.28563300  0.14281699  1
  Au  Au7  1  0.74999996  0.85718399  0.71436798  1
