# generated using pymatgen
data_Li6CuO7
_symmetry_space_group_name_H-M   'P 1'
_cell_length_a   5.65893412
_cell_length_b   5.65893412
_cell_length_c   5.65893412
_cell_angle_alpha   104.15707397
_cell_angle_beta   112.19187164
_cell_angle_gamma   112.19187164
_symmetry_Int_Tables_number   1
_chemical_formula_structural   Li6CuO7
_chemical_formula_sum   'Li6 Cu1 O7'
_cell_volume   138.61367516
_cell_formula_units_Z   1
loop_
 _symmetry_equiv_pos_site_id
 _symmetry_equiv_pos_as_xyz
  1  'x, y, z'
loop_
 _atom_site_type_symbol
 _atom_site_label
 _atom_site_symmetry_multiplicity
 _atom_site_fract_x
 _atom_site_fract_y
 _atom_site_fract_z
 _atom_site_occupancy
  Li  Li0  1  0.24999996  0.37499999  0.62499997  1
  Li  Li1  1  0.74999996  0.37499999  0.62499995  1
  Li  Li2  1  0.74999996  0.37499999  0.12499993  1
  Li  Li3  1  0.24999989  0.87499997  0.62499992  1
  Li  Li4  1  0.49999991  0.74999997  0.24999990  1
  Li  Li5  1  0.00000000  0.00000000  0.00000000  1
  Cu  Cu6  1  0.20812193  0.54767898  0.33955594  1
  O  O7  1  0.20812192  0.66044297  0.86856495  1
  O  O8  1  0.79187800  0.13143499  0.33955696  1
  O  O9  1  0.79187793  0.66044397  0.45232091  1
  O  O10  1  0.70812200  0.08955600  0.79767898  1
  O  O11  1  0.70812193  0.61856498  0.91044293  1
  O  O12  1  0.29187799  0.08955700  0.38143499  1
  O  O13  1  0.29187798  0.20232099  0.91044400  1
