# generated using pymatgen
data_La7YSn6
_symmetry_space_group_name_H-M   'P 1'
_cell_length_a   8.71708107
_cell_length_b   8.71708107
_cell_length_c   8.71708107
_cell_angle_alpha   109.47122192
_cell_angle_beta   109.47122192
_cell_angle_gamma   109.47122192
_symmetry_Int_Tables_number   1
_chemical_formula_structural   La7YSn6
_chemical_formula_sum   'La7 Y1 Sn6'
_cell_volume   509.90743384
_cell_formula_units_Z   1
loop_
 _symmetry_equiv_pos_site_id
 _symmetry_equiv_pos_as_xyz
  1  'x, y, z'
loop_
 _atom_site_type_symbol
 _atom_site_label
 _atom_site_symmetry_multiplicity
 _atom_site_fract_x
 _atom_site_fract_y
 _atom_site_fract_z
 _atom_site_occupancy
  Y  Y0  1  0.63605006  1.00000002  1.00000005  1
  La  La1  1  1.00000002  0.50000001  0.13605005  1
  La  La2  1  0.50000003  0.63605001  0.50000004  1
  La  La3  1  0.13605000  0.00000000  0.99999998  1
  La  La4  1  0.86395004  0.86395002  0.36395006  1
  La  La5  1  0.00000003  0.50000001  0.63605001  1
  La  La6  1  0.36395002  0.36395001  0.86395001  1
  La  La7  1  0.50000000  0.13605000  0.50000001  1
  Sn  Sn8  1  0.75000003  0.62500001  0.87500003  1
  Sn  Sn9  1  0.25000005  0.87500002  0.62500004  1
  Sn  Sn10  1  0.87500000  0.12500000  0.75000001  1
  Sn  Sn11  1  0.62500002  0.37500001  0.25000003  1
  Sn  Sn12  1  0.12500001  0.25000000  0.37500001  1
  Sn  Sn13  1  0.37500004  0.75000001  0.12500005  1
