# generated using pymatgen
data_K2Na2SrCaO6
_symmetry_space_group_name_H-M   'P 1'
_cell_length_a   5.52203608
_cell_length_b   5.52203560
_cell_length_c   7.99395418
_cell_angle_alpha   90.00000000
_cell_angle_beta   90.00000000
_cell_angle_gamma   120.00000000
_symmetry_Int_Tables_number   1
_chemical_formula_structural   K2Na2SrCaO6
_chemical_formula_sum   'K2 Na2 Sr1 Ca1 O6'
_cell_volume   211.10121264
_cell_formula_units_Z   1
loop_
 _symmetry_equiv_pos_site_id
 _symmetry_equiv_pos_as_xyz
  1  'x, y, z'
loop_
 _atom_site_type_symbol
 _atom_site_label
 _atom_site_symmetry_multiplicity
 _atom_site_fract_x
 _atom_site_fract_y
 _atom_site_fract_z
 _atom_site_occupancy
  Sr  Sr0  1  0.49999997  0.49999999  0.49999999  1
  K  K1  1  0.99999996  0.49999999  0.83333298  1
  K  K2  1  0.49999994  0.99999998  0.16666700  1
  Ca  Ca3  1  0.49999997  0.49999999  0.99999998  1
  Na  Na4  1  0.99999996  0.49999999  0.33333333  1
  Na  Na5  1  0.49999994  0.99999998  0.66666665  1
  O  O6  1  0.84713698  0.15286200  0.49999999  1
  O  O7  1  0.30572499  0.15286200  0.83333298  1
  O  O8  1  0.15286296  0.84713798  0.49999999  1
  O  O9  1  0.69427495  0.84713798  0.83333298  1
  O  O10  1  0.84713695  0.69427398  0.16666700  1
  O  O11  1  0.15286298  0.30572599  0.16666700  1
