# generated using pymatgen
data_BaNaLiCuP4
_symmetry_space_group_name_H-M   'P 1'
_cell_length_a   6.53277588
_cell_length_b   6.67219830
_cell_length_c   6.67219830
_cell_angle_alpha   76.13346100
_cell_angle_beta   60.68885803
_cell_angle_gamma   60.68885803
_symmetry_Int_Tables_number   1
_chemical_formula_structural   BaNaLiCuP4
_chemical_formula_sum   'Ba1 Na1 Li1 Cu1 P4'
_cell_volume   221.12752669
_cell_formula_units_Z   1
loop_
 _symmetry_equiv_pos_site_id
 _symmetry_equiv_pos_as_xyz
  1  'x, y, z'
loop_
 _atom_site_type_symbol
 _atom_site_label
 _atom_site_symmetry_multiplicity
 _atom_site_fract_x
 _atom_site_fract_y
 _atom_site_fract_z
 _atom_site_occupancy
  Ba  Ba0  1  0.25000001  0.00000000  -0.00000001  1
  Na  Na1  1  0.75000003  0.00000000  0.99999996  1
  Li  Li2  1  0.24999997  0.50000000  0.50000004  1
  Cu  Cu3  1  0.74999998  0.50000000  0.50000002  1
  P  P4  1  0.15919796  0.50000000  0.18160404  1
  P  P5  1  0.65919901  0.18160300  0.49999999  1
  P  P6  1  0.84080199  0.50000000  0.81839601  1
  P  P7  1  0.34080094  0.81839701  0.50000007  1
