# generated using pymatgen
data_Er3AlGa4GePd3
_symmetry_space_group_name_H-M   'P 1'
_cell_length_a   4.06467390
_cell_length_b   6.96257496
_cell_length_c   8.15552711
_cell_angle_alpha   90.00000000
_cell_angle_beta   90.00000000
_cell_angle_gamma   90.00000000
_symmetry_Int_Tables_number   1
_chemical_formula_structural   Er3AlGa4GePd3
_chemical_formula_sum   'Er3 Al1 Ga4 Ge1 Pd3'
_cell_volume   230.80628388
_cell_formula_units_Z   1
loop_
 _symmetry_equiv_pos_site_id
 _symmetry_equiv_pos_as_xyz
  1  'x, y, z'
loop_
 _atom_site_type_symbol
 _atom_site_label
 _atom_site_symmetry_multiplicity
 _atom_site_fract_x
 _atom_site_fract_y
 _atom_site_fract_z
 _atom_site_occupancy
  Er  Er0  1  0.25000001  0.53853000  0.18442900  1
  Er  Er1  1  0.75000002  0.46147000  0.81557099  1
  Er  Er2  1  0.25000001  0.03853000  0.31557100  1
  Al  Al3  1  0.75000002  0.96147001  0.68442899  1
  Ga  Ga4  1  0.25000001  0.13709700  0.93655199  1
  Ga  Ga5  1  0.75000002  0.86290301  0.06344800  1
  Ga  Ga6  1  0.25000001  0.63709700  0.56344799  1
  Ga  Ga7  1  0.75000002  0.36290300  0.43655199  1
  Pd  Pd8  1  0.75000002  0.74434900  0.37682599  1
  Ge  Ge9  1  0.25000001  0.25565100  0.62317399  1
  Pd  Pd10  1  0.75000002  0.24434900  0.12317400  1
  Pd  Pd11  1  0.25000001  0.75565100  0.87682599  1
