# generated using pymatgen
data_ZrMnAl2Ga8Fe3Si2
_symmetry_space_group_name_H-M   'P 1'
_cell_length_a   6.99101782
_cell_length_b   6.99101782
_cell_length_c   6.99101782
_cell_angle_alpha   109.47122192
_cell_angle_beta   109.47122192
_cell_angle_gamma   109.47122192
_symmetry_Int_Tables_number   1
_chemical_formula_structural   ZrMnAl2Ga8Fe3Si2
_chemical_formula_sum   'Zr1 Mn1 Al2 Ga8 Fe3 Si2'
_cell_volume   263.02638472
_cell_formula_units_Z   1
loop_
 _symmetry_equiv_pos_site_id
 _symmetry_equiv_pos_as_xyz
  1  'x, y, z'
loop_
 _atom_site_type_symbol
 _atom_site_label
 _atom_site_symmetry_multiplicity
 _atom_site_fract_x
 _atom_site_fract_y
 _atom_site_fract_z
 _atom_site_occupancy
  Mn  Mn0  1  0.50000003  0.50000002  0.50000004  1
  Zr  Zr1  1  0.00000003  0.50000002  0.00000003  1
  Al  Al2  1  0.00000000  0.00000000  0.50000000  1
  Al  Al3  1  0.50000000  0.00000000  0.00000001  1
  Ga  Ga4  1  0.00000004  0.68265002  0.68265003  1
  Ga  Ga5  1  0.68265005  0.68265002  0.00000005  1
  Ga  Ga6  1  0.68265000  0.00000000  0.68265001  1
  Ga  Ga7  1  0.00000002  0.31735001  0.31735002  1
  Si  Si8  1  0.31735002  0.31735001  0.00000003  1
  Ga  Ga9  1  0.31735000  0.00000000  0.31735001  1
  Ga  Ga10  1  0.50000005  0.75000003  0.25000005  1
  Fe  Fe11  1  0.75000002  0.25000001  0.50000003  1
  Fe  Fe12  1  0.25000003  0.50000002  0.75000003  1
  Ga  Ga13  1  0.25000005  0.75000003  0.50000004  1
  Ga  Ga14  1  0.50000002  0.25000001  0.75000002  1
  Si  Si15  1  0.75000003  0.50000002  0.25000004  1
  Fe  Fe16  1  0.00000000  0.00000000  0.00000000  1
