# generated using pymatgen
data_Y2Al4GaGe7
_symmetry_space_group_name_H-M   'P 1'
_cell_length_a   6.02311611
_cell_length_b   6.02311611
_cell_length_c   7.67874002
_cell_angle_alpha   90.00000000
_cell_angle_beta   90.00000000
_cell_angle_gamma   90.00000000
_symmetry_Int_Tables_number   1
_chemical_formula_structural   Y2Al4GaGe7
_chemical_formula_sum   'Y2 Al4 Ga1 Ge7'
_cell_volume   278.56877541
_cell_formula_units_Z   1
loop_
 _symmetry_equiv_pos_site_id
 _symmetry_equiv_pos_as_xyz
  1  'x, y, z'
loop_
 _atom_site_type_symbol
 _atom_site_label
 _atom_site_symmetry_multiplicity
 _atom_site_fract_x
 _atom_site_fract_y
 _atom_site_fract_z
 _atom_site_occupancy
  Y  Y0  1  0.49999999  0.00000000  0.00000000  1
  Y  Y1  1  0.00000000  0.49999999  0.00000000  1
  Al  Al2  1  0.49999999  0.49999999  0.16150200  1
  Al  Al3  1  0.00000000  0.00000000  0.16150200  1
  Ga  Ga4  1  0.00000000  0.00000000  0.83849800  1
  Al  Al5  1  0.49999999  0.49999999  0.83849800  1
  Al  Al6  1  0.80787999  0.69211999  0.35027100  1
  Ge  Ge7  1  0.30787999  0.80787999  0.35027100  1
  Ge  Ge8  1  0.69211999  0.19212000  0.35027100  1
  Ge  Ge9  1  0.19212000  0.30787999  0.35027100  1
  Ge  Ge10  1  0.69211999  0.80787999  0.64972900  1
  Ge  Ge11  1  0.19212000  0.69211999  0.64972900  1
  Ge  Ge12  1  0.80787999  0.30787999  0.64972900  1
  Ge  Ge13  1  0.30787999  0.19212000  0.64972900  1
