# generated using pymatgen
data_LiCu2P3O14
_symmetry_space_group_name_H-M   'P 1'
_cell_length_a   4.87133503
_cell_length_b   6.99101353
_cell_length_c   8.01617718
_cell_angle_alpha   90.00000000
_cell_angle_beta   90.00000000
_cell_angle_gamma   106.07367706
_symmetry_Int_Tables_number   1
_chemical_formula_structural   LiCu2P3O14
_chemical_formula_sum   'Li1 Cu2 P3 O14'
_cell_volume   262.32311536
_cell_formula_units_Z   1
loop_
 _symmetry_equiv_pos_site_id
 _symmetry_equiv_pos_as_xyz
  1  'x, y, z'
loop_
 _atom_site_type_symbol
 _atom_site_label
 _atom_site_symmetry_multiplicity
 _atom_site_fract_x
 _atom_site_fract_y
 _atom_site_fract_z
 _atom_site_occupancy
  Li  Li0  1  0.21371306  0.72725100  0.99815498  1
  P  P1  1  0.78628702  0.27274900  0.49815499  1
  Cu  Cu2  1  0.76509007  0.89643899  0.76672998  1
  Cu  Cu3  1  0.60802104  0.49132400  0.18109400  1
  P  P4  1  0.23491001  0.10356100  0.26672999  1
  P  P5  1  0.39197904  0.50867600  0.68109398  1
  O  O6  1  0.41425105  0.63168900  0.17167500  1
  O  O7  1  0.14276508  0.91398399  0.16500900  1
  O  O8  1  0.57416708  0.90821699  0.91627498  1
  O  O9  1  0.58910706  0.72921900  0.63776799  1
  O  O10  1  0.02933407  0.83304100  0.82303198  1
  O  O11  1  0.41089302  0.27078100  0.13776800  1
  O  O12  1  0.84390104  0.53786900  0.05088000  1
  O  O13  1  0.58574903  0.36831100  0.67167499  1
  O  O14  1  0.97066601  0.16695900  0.32303199  1
  O  O15  1  0.72197204  0.48526800  0.35808099  1
  O  O16  1  0.85723500  0.08601600  0.66500899  1
  O  O17  1  0.27802804  0.51473200  0.85808098  1
  O  O18  1  0.42583301  0.09178300  0.41627499  1
  O  O19  1  0.15609904  0.46213100  0.55087999  1
