# generated using pymatgen
data_LiMgCuNi2
_symmetry_space_group_name_H-M   'P 1'
_cell_length_a   4.08181620
_cell_length_b   4.08181620
_cell_length_c   5.77133942
_cell_angle_alpha   110.70938873
_cell_angle_beta   110.70938873
_cell_angle_gamma   90.00000000
_symmetry_Int_Tables_number   1
_chemical_formula_structural   LiMgCuNi2
_chemical_formula_sum   'Li1 Mg1 Cu1 Ni2'
_cell_volume   83.26903492
_cell_formula_units_Z   1
loop_
 _symmetry_equiv_pos_site_id
 _symmetry_equiv_pos_as_xyz
  1  'x, y, z'
loop_
 _atom_site_type_symbol
 _atom_site_label
 _atom_site_symmetry_multiplicity
 _atom_site_fract_x
 _atom_site_fract_y
 _atom_site_fract_z
 _atom_site_occupancy
  Li  Li0  1  0.00000000  0.00000000  0.00000000  1
  Mg  Mg1  1  0.62160895  0.62160896  0.24321796  1
  Cu  Cu2  1  0.37839097  0.37839098  0.75678195  1
  Ni  Ni3  1  0.24999997  0.74999995  0.49999995  1
  Ni  Ni4  1  0.74999995  0.24999998  0.49999996  1
