# generated using pymatgen
data_LiCaLaYNi4
_symmetry_space_group_name_H-M   'P 1'
_cell_length_a   5.20408106
_cell_length_b   5.20408106
_cell_length_c   5.96858454
_cell_angle_alpha   64.58843994
_cell_angle_beta   64.58843994
_cell_angle_gamma   89.43017578
_symmetry_Int_Tables_number   1
_chemical_formula_structural   LiCaLaYNi4
_chemical_formula_sum   'Li1 Ca1 La1 Y1 Ni4'
_cell_volume   128.83745530
_cell_formula_units_Z   1
loop_
 _symmetry_equiv_pos_site_id
 _symmetry_equiv_pos_as_xyz
  1  'x, y, z'
loop_
 _atom_site_type_symbol
 _atom_site_label
 _atom_site_symmetry_multiplicity
 _atom_site_fract_x
 _atom_site_fract_y
 _atom_site_fract_z
 _atom_site_occupancy
  Li  Li0  1  0.37336498  0.62663499  0.75000003  1
  Y  Y1  1  0.62663499  0.37336499  0.25000002  1
  Ca  Ca2  1  0.11567598  0.88432399  0.25000003  1
  La  La3  1  0.88432399  0.11567600  0.75000003  1
  Ni  Ni4  1  0.70610998  0.86543999  0.24584703  1
  Ni  Ni5  1  0.13455999  0.29389000  0.25415301  1
  Ni  Ni6  1  0.86543998  0.70610999  0.74584704  1
  Ni  Ni7  1  0.29388999  0.13456000  0.75415302  1
