# generated using pymatgen
data_Na3Y(CuO4)2
_symmetry_space_group_name_H-M   'P 1'
_cell_length_a   7.28987503
_cell_length_b   7.28987503
_cell_length_c   7.28987503
_cell_angle_alpha   60.00000000
_cell_angle_beta   60.00000000
_cell_angle_gamma   60.00000000
_symmetry_Int_Tables_number   1
_chemical_formula_structural   Na3Y(CuO4)2
_chemical_formula_sum   'Na3 Y1 Cu2 O8'
_cell_volume   273.93356667
_cell_formula_units_Z   1
loop_
 _symmetry_equiv_pos_site_id
 _symmetry_equiv_pos_as_xyz
  1  'x, y, z'
loop_
 _atom_site_type_symbol
 _atom_site_label
 _atom_site_symmetry_multiplicity
 _atom_site_fract_x
 _atom_site_fract_y
 _atom_site_fract_z
 _atom_site_occupancy
  Na  Na0  1  0.00000000  0.00000000  0.00000000  1
  Y  Y1  1  0.74999999  0.74999999  0.74999999  1
  Na  Na2  1  0.87499999  0.37499999  0.37499999  1
  Na  Na3  1  0.37499999  0.37499999  0.87499999  1
  Cu  Cu4  1  0.37499999  0.37499999  0.37499999  1
  Cu  Cu5  1  0.37499999  0.87499999  0.37499999  1
  O  O6  1  0.58896699  0.13701100  0.13701100  1
  O  O7  1  0.61298899  0.61298899  0.16103300  1
  O  O8  1  0.61298899  0.16103300  0.61298899  1
  O  O9  1  0.61298899  0.61298899  0.61298899  1
  O  O10  1  0.13701100  0.58896699  0.13701100  1
  O  O11  1  0.13701100  0.13701100  0.13701100  1
  O  O12  1  0.16103300  0.61298899  0.61298899  1
  O  O13  1  0.13701100  0.13701100  0.58896699  1
