# generated using pymatgen
data_NaMg3Fe2Cu3NiP8
_symmetry_space_group_name_H-M   'P 1'
_cell_length_a   5.02312183
_cell_length_b   5.02312279
_cell_length_c   10.92091179
_cell_angle_alpha   90.00000000
_cell_angle_beta   90.00000000
_cell_angle_gamma   119.99999237
_symmetry_Int_Tables_number   1
_chemical_formula_structural   NaMg3Fe2Cu3NiP8
_chemical_formula_sum   'Na1 Mg3 Fe2 Cu3 Ni1 P8'
_cell_volume   238.63660981
_cell_formula_units_Z   1
loop_
 _symmetry_equiv_pos_site_id
 _symmetry_equiv_pos_as_xyz
  1  'x, y, z'
loop_
 _atom_site_type_symbol
 _atom_site_label
 _atom_site_symmetry_multiplicity
 _atom_site_fract_x
 _atom_site_fract_y
 _atom_site_fract_z
 _atom_site_occupancy
  Na  Na0  1  0.00000000  0.00000000  0.32810701  1
  Mg  Mg1  1  0.00000000  0.00000000  0.67189301  1
  Mg  Mg2  1  0.00000000  0.00000000  0.00000000  1
  Mg  Mg3  1  -0.00000003  0.49999997  0.13263300  1
  Cu  Cu4  1  0.49999998  0.49999997  0.50000001  1
  Cu  Cu5  1  0.50000002  0.00000000  0.50000001  1
  Cu  Cu6  1  -0.00000003  0.49999997  0.50000001  1
  Fe  Fe7  1  0.66666667  0.33333331  0.68081601  1
  Fe  Fe8  1  0.33333330  0.66666662  0.68081601  1
  P  P9  1  0.33333330  0.66666662  0.31918401  1
  P  P10  1  0.66666667  0.33333331  0.31918401  1
  Ni  Ni11  1  0.49999998  0.49999997  0.86736702  1
  P  P12  1  0.50000002  0.00000000  0.86736702  1
  P  P13  1  -0.00000003  0.49999997  0.86736702  1
  P  P14  1  0.49999998  0.49999997  0.13263300  1
  P  P15  1  0.50000002  0.00000000  0.13263300  1
  P  P16  1  0.33333330  0.66666662  -0.00000000  1
  P  P17  1  0.66666667  0.33333331  -0.00000000  1
