# generated using pymatgen
data_TaTiBRh4
_symmetry_space_group_name_H-M   'P 1'
_cell_length_a   5.58347464
_cell_length_b   5.58347464
_cell_length_c   5.58347416
_cell_angle_alpha   61.68394089
_cell_angle_beta   61.68394089
_cell_angle_gamma   61.68394852
_symmetry_Int_Tables_number   1
_chemical_formula_structural   TaTiBRh4
_chemical_formula_sum   'Ta1 Ti1 B1 Rh4'
_cell_volume   127.72968936
_cell_formula_units_Z   1
loop_
 _symmetry_equiv_pos_site_id
 _symmetry_equiv_pos_as_xyz
  1  'x, y, z'
loop_
 _atom_site_type_symbol
 _atom_site_label
 _atom_site_symmetry_multiplicity
 _atom_site_fract_x
 _atom_site_fract_y
 _atom_site_fract_z
 _atom_site_occupancy
  Ti  Ti0  1  0.00000000  0.00000000  0.00000000  1
  Ta  Ta1  1  0.50000000  0.49999999  0.50000001  1
  B  B2  1  0.00000000  0.00000000  0.50000001  1
  Rh  Rh3  1  0.00000001  0.49999999  -0.00000000  1
  Rh  Rh4  1  0.50000000  0.99999998  1.00000002  1
  Rh  Rh5  1  0.28797300  0.28797299  0.28797301  1
  Rh  Rh6  1  0.71202700  0.71202699  0.71202701  1
