# generated using pymatgen
data_LaDySnPd2Au
_symmetry_space_group_name_H-M   'P 1'
_cell_length_a   4.64244223
_cell_length_b   5.81105852
_cell_length_c   5.81105852
_cell_angle_alpha   81.06177521
_cell_angle_beta   66.45626831
_cell_angle_gamma   66.45626831
_symmetry_Int_Tables_number   1
_chemical_formula_structural   LaDySnPd2Au
_chemical_formula_sum   'La1 Dy1 Sn1 Pd2 Au1'
_cell_volume   131.75242476
_cell_formula_units_Z   1
loop_
 _symmetry_equiv_pos_site_id
 _symmetry_equiv_pos_as_xyz
  1  'x, y, z'
loop_
 _atom_site_type_symbol
 _atom_site_label
 _atom_site_symmetry_multiplicity
 _atom_site_fract_x
 _atom_site_fract_y
 _atom_site_fract_z
 _atom_site_occupancy
  Dy  Dy0  1  0.24999999  0.20943599  0.29056400  1
  La  La1  1  0.74999996  0.79056398  0.70943602  1
  Sn  Sn2  1  0.05677600  0.77729198  0.10915603  1
  Pd  Pd3  1  0.94322395  0.22270799  0.89084400  1
  Au  Au4  1  0.55677597  0.60915598  0.27729202  1
  Pd  Pd5  1  0.44322398  0.39084399  0.72270800  1
