# generated using pymatgen
data_Th2ZrNbW2
_symmetry_space_group_name_H-M   'P 1'
_cell_length_a   3.45986390
_cell_length_b   6.38513184
_cell_length_c   36.46140671
_cell_angle_alpha   89.99690247
_cell_angle_beta   90.00000000
_cell_angle_gamma   90.00000000
_symmetry_Int_Tables_number   1
_chemical_formula_structural   Th2ZrNbW2
_chemical_formula_sum   'Th2 Zr1 Nb1 W2'
_cell_volume   805.49398861
_cell_formula_units_Z   1
loop_
 _symmetry_equiv_pos_site_id
 _symmetry_equiv_pos_as_xyz
  1  'x, y, z'
loop_
 _atom_site_type_symbol
 _atom_site_label
 _atom_site_symmetry_multiplicity
 _atom_site_fract_x
 _atom_site_fract_y
 _atom_site_fract_z
 _atom_site_occupancy
  Th  Th0  1  0.25000001  0.57854801  0.94312896  1
  Zr  Zr1  1  0.75000002  0.42145201  0.05687100  1
  Th  Th2  1  0.75000002  0.07019600  0.95938496  1
  Nb  Nb3  1  0.25000001  0.92980402  0.04061500  1
  W  W4  1  0.25000001  0.31886601  0.00259900  1
  W  W5  1  0.75000002  0.68113402  0.99740095  1
