# generated using pymatgen
data_Na2Ag(TeO4)2
_symmetry_space_group_name_H-M   'P 1'
_cell_length_a   6.87983513
_cell_length_b   6.87983513
_cell_length_c   6.87983513
_cell_angle_alpha   60.00000000
_cell_angle_beta   60.00000000
_cell_angle_gamma   60.00000000
_symmetry_Int_Tables_number   1
_chemical_formula_structural   Na2Ag(TeO4)2
_chemical_formula_sum   'Na2 Ag1 Te2 O8'
_cell_volume   230.26031498
_cell_formula_units_Z   1
loop_
 _symmetry_equiv_pos_site_id
 _symmetry_equiv_pos_as_xyz
  1  'x, y, z'
loop_
 _atom_site_type_symbol
 _atom_site_label
 _atom_site_symmetry_multiplicity
 _atom_site_fract_x
 _atom_site_fract_y
 _atom_site_fract_z
 _atom_site_occupancy
  Na  Na0  1  0.39408199  0.81775599  0.39408099  1
  Na  Na1  1  0.39408199  0.39408099  0.39408099  1
  Te  Te2  1  0.39408199  0.39408099  0.81775599  1
  Te  Te3  1  0.81775699  0.39408099  0.39408099  1
  Ag  Ag4  1  0.00000000  0.00000000  0.00000000  1
  O  O5  1  0.13664800  0.59005599  0.13664800  1
  O  O6  1  0.13664800  0.13664800  0.13664800  1
  O  O7  1  0.13664800  0.13664800  0.59005599  1
  O  O8  1  0.59005599  0.13664800  0.13664800  1
  O  O9  1  0.62887699  0.11336700  0.62887799  1
  O  O10  1  0.11336600  0.62887799  0.62887799  1
  O  O11  1  0.62887699  0.62887799  0.11336700  1
  O  O12  1  0.62887699  0.62887799  0.62887799  1
