# generated using pymatgen
data_LaMg4In
_symmetry_space_group_name_H-M   'P 1'
_cell_length_a   3.59320402
_cell_length_b   5.64080715
_cell_length_c   9.31809330
_cell_angle_alpha   90.00000000
_cell_angle_beta   101.11669922
_cell_angle_gamma   90.00000000
_symmetry_Int_Tables_number   1
_chemical_formula_structural   LaMg4In
_chemical_formula_sum   'La1 Mg4 In1'
_cell_volume   185.32067926
_cell_formula_units_Z   1
loop_
 _symmetry_equiv_pos_site_id
 _symmetry_equiv_pos_as_xyz
  1  'x, y, z'
loop_
 _atom_site_type_symbol
 _atom_site_label
 _atom_site_symmetry_multiplicity
 _atom_site_fract_x
 _atom_site_fract_y
 _atom_site_fract_z
 _atom_site_occupancy
  Mg  Mg0  1  0.00148400  0.99999997  0.00296800  1
  La  La1  1  0.67109400  0.00000000  0.34218800  1
  Mg  Mg2  1  0.33228600  0.00000000  0.66457197  1
  Mg  Mg3  1  0.55458200  0.49999999  0.10916401  1
  Mg  Mg4  1  0.88498500  0.49999999  0.76996998  1
  In  In5  1  0.22223900  0.49999999  0.44447798  1
