# generated using pymatgen
data_ZnInCu2Pd3
_symmetry_space_group_name_H-M   'P 1'
_cell_length_a   6.75213194
_cell_length_b   6.83406830
_cell_length_c   6.83406830
_cell_angle_alpha   75.87481689
_cell_angle_beta   60.39582062
_cell_angle_gamma   60.39582062
_symmetry_Int_Tables_number   1
_chemical_formula_structural   ZnInCu2Pd3
_chemical_formula_sum   'Zn1 In1 Cu2 Pd3'
_cell_volume   238.39528482
_cell_formula_units_Z   1
loop_
 _symmetry_equiv_pos_site_id
 _symmetry_equiv_pos_as_xyz
  1  'x, y, z'
loop_
 _atom_site_type_symbol
 _atom_site_label
 _atom_site_symmetry_multiplicity
 _atom_site_fract_x
 _atom_site_fract_y
 _atom_site_fract_z
 _atom_site_occupancy
  Cu  Cu0  1  0.00000000  0.00000000  0.00000000  1
  Zn  Zn1  1  0.00000003  0.49999999  0.49999997  1
  In  In2  1  0.50000002  0.49999999  0.49999998  1
  Pd  Pd3  1  0.42447901  0.15104300  0.50000000  1
  Pd  Pd4  1  0.92447802  0.49999999  0.15104400  1
  Pd  Pd5  1  0.57552202  0.49999999  0.84895598  1
  Cu  Cu6  1  0.07552105  0.84895698  0.49999995  1
