# generated using pymatgen
data_Li2O2
_symmetry_space_group_name_H-M   'P 1'
_cell_length_a   3.63896346
_cell_length_b   5.32273865
_cell_length_c   5.90514708
_cell_angle_alpha   64.00167847
_cell_angle_beta   89.38617706
_cell_angle_gamma   89.09462738
_symmetry_Int_Tables_number   1
_chemical_formula_structural   Li2O2
_chemical_formula_sum   'Li4 O4'
_cell_volume   102.79023757
_cell_formula_units_Z   2
loop_
 _symmetry_equiv_pos_site_id
 _symmetry_equiv_pos_as_xyz
  1  'x, y, z'
loop_
 _atom_site_type_symbol
 _atom_site_label
 _atom_site_symmetry_multiplicity
 _atom_site_fract_x
 _atom_site_fract_y
 _atom_site_fract_z
 _atom_site_occupancy
  Li  Li0  1  0.30577895  0.55528799  0.52118896  1
  Li  Li1  1  0.30562593  0.83022799  0.98200994  1
  Li  Li2  1  0.30575098  0.19321700  0.75254598  1
  Li  Li3  1  0.30578794  0.69402299  0.75075195  1
  O  O4  1  0.80563492  0.83670199  0.97274593  1
  O  O5  1  0.80579494  0.54823799  0.53044295  1
  O  O6  1  0.29866093  0.91008999  0.25577394  1
  O  O7  1  0.31269296  0.47507699  0.24740496  1
