# generated using pymatgen
data_NaCuO3
_symmetry_space_group_name_H-M   'P 1'
_cell_length_a   5.54934788
_cell_length_b   5.54934788
_cell_length_c   8.77199078
_cell_angle_alpha   108.43995667
_cell_angle_beta   108.43995667
_cell_angle_gamma   90.00000000
_symmetry_Int_Tables_number   1
_chemical_formula_structural   NaCuO3
_chemical_formula_sum   'Na4 Cu4 O12'
_cell_volume   241.60092182
_cell_formula_units_Z   4
loop_
 _symmetry_equiv_pos_site_id
 _symmetry_equiv_pos_as_xyz
  1  'x, y, z'
loop_
 _atom_site_type_symbol
 _atom_site_label
 _atom_site_symmetry_multiplicity
 _atom_site_fract_x
 _atom_site_fract_y
 _atom_site_fract_z
 _atom_site_occupancy
  Na  Na0  1  0.24827302  0.24827301  0.49654602  1
  Na  Na1  1  0.75172706  0.75172703  0.50345406  1
  Na  Na2  1  0.00000000  0.00000000  0.00000000  1
  Na  Na3  1  0.50000004  0.50000002  0.00000004  1
  Cu  Cu4  1  0.87627105  0.37627102  0.75254205  1
  Cu  Cu5  1  0.12372903  0.62372903  0.24745803  1
  Cu  Cu6  1  0.37627105  0.87627104  0.75254205  1
  Cu  Cu7  1  0.62372903  0.12372901  0.24745803  1
  O  O8  1  0.62022805  0.62022803  0.75318505  1
  O  O9  1  0.86704307  0.86704304  0.24681506  1
  O  O10  1  0.13295701  0.13295701  0.75318501  1
  O  O11  1  0.37977203  0.37977202  0.24681503  1
  O  O12  1  0.75000004  0.25000001  0.50000004  1
  O  O13  1  0.00000002  0.50000002  1.00000003  1
  O  O14  1  0.25000004  0.75000003  0.50000004  1
  O  O15  1  0.50000002  0.00000000  0.00000002  1
  O  O16  1  0.62022803  0.13295701  0.75318503  1
  O  O17  1  0.86704305  0.37977202  0.24681504  1
  O  O18  1  0.13295703  0.62022803  0.75318503  1
  O  O19  1  0.37977205  0.86704304  0.24681505  1
