# generated using pymatgen
data_Na2Li3CuO8
_symmetry_space_group_name_H-M   'P 1'
_cell_length_a   5.61533022
_cell_length_b   5.61533022
_cell_length_c   7.15422297
_cell_angle_alpha   90.00000000
_cell_angle_beta   90.00000000
_cell_angle_gamma   116.05701447
_symmetry_Int_Tables_number   1
_chemical_formula_structural   Na2Li3CuO8
_chemical_formula_sum   'Na2 Li3 Cu1 O8'
_cell_volume   202.65728203
_cell_formula_units_Z   1
loop_
 _symmetry_equiv_pos_site_id
 _symmetry_equiv_pos_as_xyz
  1  'x, y, z'
loop_
 _atom_site_type_symbol
 _atom_site_label
 _atom_site_symmetry_multiplicity
 _atom_site_fract_x
 _atom_site_fract_y
 _atom_site_fract_z
 _atom_site_occupancy
  Li  Li0  1  0.00000000  0.00000000  0.50000000  1
  Na  Na1  1  0.00000000  0.00000000  0.00000000  1
  Na  Na2  1  0.68818501  0.31181500  0.25000000  1
  Li  Li3  1  0.31181502  0.68818501  0.75000000  1
  Cu  Cu4  1  0.34846002  0.65154001  0.25000000  1
  Li  Li5  1  0.65154001  0.34846000  0.75000000  1
  O  O6  1  0.24167402  0.75832601  0.44231500  1
  O  O7  1  0.75832601  0.24167400  0.55768500  1
  O  O8  1  0.75832601  0.24167400  0.94231500  1
  O  O9  1  0.24167402  0.75832601  0.05768500  1
  O  O10  1  0.69265902  0.77504801  0.25000000  1
  O  O11  1  0.30734101  0.22495200  0.75000000  1
  O  O12  1  0.22495201  0.30734100  0.25000000  1
  O  O13  1  0.77504802  0.69265801  0.75000000  1
