# generated using pymatgen
data_DyYSiC3
_symmetry_space_group_name_H-M   'P 1'
_cell_length_a   3.70796800
_cell_length_b   3.70796847
_cell_length_c   7.13466787
_cell_angle_alpha   90.00000000
_cell_angle_beta   90.00000000
_cell_angle_gamma   119.99999237
_symmetry_Int_Tables_number   1
_chemical_formula_structural   DyYSiC3
_chemical_formula_sum   'Y1 Dy1 Si1 C3'
_cell_volume   84.95255326
_cell_formula_units_Z   1
loop_
 _symmetry_equiv_pos_site_id
 _symmetry_equiv_pos_as_xyz
  1  'x, y, z'
loop_
 _atom_site_type_symbol
 _atom_site_label
 _atom_site_symmetry_multiplicity
 _atom_site_fract_x
 _atom_site_fract_y
 _atom_site_fract_z
 _atom_site_occupancy
  Y  Y0  1  0.00000000  0.00000000  0.00000000  1
  Dy  Dy1  1  0.00000000  0.00000000  0.50000001  1
  Si  Si2  1  0.66666664  0.33333332  0.75000001  1
  C  C3  1  0.33333328  0.66666664  0.25000000  1
  C  C4  1  0.66666664  0.33333332  0.25000000  1
  C  C5  1  0.33333328  0.66666664  0.75000001  1
