# generated using pymatgen
data_BaLa7Tl8
_symmetry_space_group_name_H-M   'P 1'
_cell_length_a   6.91979790
_cell_length_b   6.91979790
_cell_length_c   10.56420422
_cell_angle_alpha   90.00000000
_cell_angle_beta   90.00000000
_cell_angle_gamma   102.91121674
_symmetry_Int_Tables_number   1
_chemical_formula_structural   BaLa7Tl8
_chemical_formula_sum   'Ba1 La7 Tl8'
_cell_volume   493.06293768
_cell_formula_units_Z   1
loop_
 _symmetry_equiv_pos_site_id
 _symmetry_equiv_pos_as_xyz
  1  'x, y, z'
loop_
 _atom_site_type_symbol
 _atom_site_label
 _atom_site_symmetry_multiplicity
 _atom_site_fract_x
 _atom_site_fract_y
 _atom_site_fract_z
 _atom_site_occupancy
  La  La0  1  0.63628701  0.63628699  0.74999998  1
  La  La1  1  0.36371300  0.36371300  0.24999999  1
  La  La2  1  0.20182302  0.79817699  0.49999999  1
  La  La3  1  0.20182302  0.79817699  -0.00000000  1
  Ba  Ba4  1  0.79817699  0.20182300  0.49999999  1
  La  La5  1  0.79817699  0.20182300  -0.00000000  1
  La  La6  1  0.00518900  0.00518900  0.74999998  1
  La  La7  1  0.99481101  0.99481099  0.24999999  1
  Tl  Tl8  1  0.30517800  0.30517800  0.94492498  1
  Tl  Tl9  1  0.69482201  0.69482199  0.05507500  1
  Tl  Tl10  1  0.30517800  0.30517800  0.55507499  1
  Tl  Tl11  1  0.69482201  0.69482199  0.44492499  1
  Tl  Tl12  1  0.50586299  0.06232300  0.74999998  1
  Tl  Tl13  1  0.93767700  0.49413699  0.24999999  1
  Tl  Tl14  1  0.49413702  0.93767699  0.24999999  1
  Tl  Tl15  1  0.06232301  0.50586299  0.74999998  1
