# generated using pymatgen
data_Na2Sr2TiCu2WO12
_symmetry_space_group_name_H-M   'P 1'
_cell_length_a   5.54707861
_cell_length_b   5.54707861
_cell_length_c   9.59927750
_cell_angle_alpha   73.39391327
_cell_angle_beta   73.39391327
_cell_angle_gamma   60.25150299
_symmetry_Int_Tables_number   1
_chemical_formula_structural   Na2Sr2TiCu2WO12
_chemical_formula_sum   'Na2 Sr2 Ti1 Cu2 W1 O12'
_cell_volume   242.04061920
_cell_formula_units_Z   1
loop_
 _symmetry_equiv_pos_site_id
 _symmetry_equiv_pos_as_xyz
  1  'x, y, z'
loop_
 _atom_site_type_symbol
 _atom_site_label
 _atom_site_symmetry_multiplicity
 _atom_site_fract_x
 _atom_site_fract_y
 _atom_site_fract_z
 _atom_site_occupancy
  Na  Na0  1  0.12467102  0.87532896  0.49999998  1
  Sr  Sr1  1  0.87417099  0.62644497  0.24940098  1
  Sr  Sr2  1  0.37355499  0.12582899  0.75059897  1
  Na  Na3  1  0.62004999  0.37994998  -0.00000001  1
  Ti  Ti4  1  0.99652199  0.75244797  0.87669296  1
  Cu  Cu5  1  0.49879999  0.25181299  0.37313198  1
  W  W6  1  0.24755199  0.00347800  0.12330699  1
  Cu  Cu7  1  0.74818699  0.50119998  0.62686797  1
  O  O8  1  0.41488599  0.08627600  0.24833699  1
  O  O9  1  0.91372399  0.58511398  0.75166297  1
  O  O10  1  0.05974102  0.94025896  0.99999996  1
  O  O11  1  0.58961399  0.41038598  0.49999998  1
  O  O12  1  0.11798601  0.36763198  0.49079698  1
  O  O13  1  0.61589500  0.84428796  0.99018396  1
  O  O14  1  0.15571201  0.38410498  0.00981600  1
  O  O15  1  0.63236800  0.88201396  0.50920297  1
  O  O16  1  0.37001700  0.60979697  0.23497599  1
  O  O17  1  0.86834398  0.11199900  0.73965797  1
  O  O18  1  0.39020300  0.62998297  0.76502397  1
  O  O19  1  0.88800098  0.13165599  0.26034199  1
