# generated using pymatgen
data_NaLi3(CuO2)4
_symmetry_space_group_name_H-M   'P 1'
_cell_length_a   5.68353558
_cell_length_b   5.68874550
_cell_length_c   6.56278086
_cell_angle_alpha   89.99999237
_cell_angle_beta   90.00000000
_cell_angle_gamma   109.45266724
_symmetry_Int_Tables_number   1
_chemical_formula_structural   NaLi3(CuO2)4
_chemical_formula_sum   'Na1 Li3 Cu4 O8'
_cell_volume   200.07665799
_cell_formula_units_Z   1
loop_
 _symmetry_equiv_pos_site_id
 _symmetry_equiv_pos_as_xyz
  1  'x, y, z'
loop_
 _atom_site_type_symbol
 _atom_site_label
 _atom_site_symmetry_multiplicity
 _atom_site_fract_x
 _atom_site_fract_y
 _atom_site_fract_z
 _atom_site_occupancy
  Li  Li0  1  -0.00000003  0.49999999  0.25000000  1
  Na  Na1  1  0.49999996  0.49999999  0.50000001  1
  Li  Li2  1  -0.00000003  0.49999999  0.75000002  1
  Li  Li3  1  0.49999996  0.49999999  1.00000003  1
  Cu  Cu4  1  0.50000000  0.00000000  0.75000002  1
  Cu  Cu5  1  0.50000000  0.00000000  0.25000001  1
  Cu  Cu6  1  0.00000000  0.00000000  0.00000000  1
  Cu  Cu7  1  0.00000000  0.00000000  0.50000002  1
  O  O8  1  0.75687398  0.27062199  0.50000001  1
  O  O9  1  0.75687398  0.27062199  1.00000003  1
  O  O10  1  0.25687398  0.27062199  0.75000002  1
  O  O11  1  0.25687398  0.27062199  0.25000001  1
  O  O12  1  0.24312595  0.72937798  0.50000001  1
  O  O13  1  0.24312595  0.72937798  -0.00000001  1
  O  O14  1  0.74312594  0.72937798  0.75000002  1
  O  O15  1  0.74312594  0.72937798  0.25000000  1
