# generated using pymatgen
data_ZrTi(MnFe4)2
_symmetry_space_group_name_H-M   'P 1'
_cell_length_a   5.00078011
_cell_length_b   5.00078058
_cell_length_c   7.95203209
_cell_angle_alpha   90.00000000
_cell_angle_beta   90.00000000
_cell_angle_gamma   120.00000000
_symmetry_Int_Tables_number   1
_chemical_formula_structural   ZrTi(MnFe4)2
_chemical_formula_sum   'Zr1 Ti1 Mn2 Fe8'
_cell_volume   172.22028887
_cell_formula_units_Z   1
loop_
 _symmetry_equiv_pos_site_id
 _symmetry_equiv_pos_as_xyz
  1  'x, y, z'
loop_
 _atom_site_type_symbol
 _atom_site_label
 _atom_site_symmetry_multiplicity
 _atom_site_fract_x
 _atom_site_fract_y
 _atom_site_fract_z
 _atom_site_occupancy
  Mn  Mn0  1  0.33333336  0.66666666  0.06488500  1
  Ti  Ti1  1  0.66666667  0.33333333  0.93511499  1
  Zr  Zr2  1  0.66666667  0.33333333  0.55598299  1
  Mn  Mn3  1  0.33333336  0.66666666  0.44401700  1
  Fe  Fe4  1  0.00000000  0.00000000  0.49999999  1
  Fe  Fe5  1  0.00000000  0.00000000  0.00000000  1
  Fe  Fe6  1  0.16911602  0.33823200  0.74061599  1
  Fe  Fe7  1  0.16911604  0.83088300  0.74061599  1
  Fe  Fe8  1  0.66176703  0.83088300  0.74061599  1
  Fe  Fe9  1  0.83088402  0.66176800  0.25938400  1
  Fe  Fe10  1  0.83088399  0.16911700  0.25938400  1
  Fe  Fe11  1  0.33823300  0.16911700  0.25938400  1
