# generated using pymatgen
data_Dy2ErIn2Sn2PdAu2
_symmetry_space_group_name_H-M   'P 1'
_cell_length_a   3.75796199
_cell_length_b   7.86963701
_cell_length_c   7.86963701
_cell_angle_alpha   90.00000000
_cell_angle_beta   90.00000000
_cell_angle_gamma   90.00000000
_symmetry_Int_Tables_number   1
_chemical_formula_structural   Dy2ErIn2Sn2PdAu2
_chemical_formula_sum   'Dy2 Er1 In2 Sn2 Pd1 Au2'
_cell_volume   232.73504555
_cell_formula_units_Z   1
loop_
 _symmetry_equiv_pos_site_id
 _symmetry_equiv_pos_as_xyz
  1  'x, y, z'
loop_
 _atom_site_type_symbol
 _atom_site_label
 _atom_site_symmetry_multiplicity
 _atom_site_fract_x
 _atom_site_fract_y
 _atom_site_fract_z
 _atom_site_occupancy
  Er  Er0  1  0.50000000  0.16961800  0.33038200  1
  Dy  Dy1  1  0.50000000  0.33038200  0.83038200  1
  Dy  Dy2  1  0.50000000  0.83038200  0.66961800  1
  In  In3  1  0.50000000  0.66961800  0.16961800  1
  In  In4  1  0.00000000  0.50000000  0.50000000  1
  Sn  Sn5  1  0.00000000  0.00000000  0.00000000  1
  Sn  Sn6  1  0.00000000  0.63234900  0.86765100  1
  Au  Au7  1  0.00000000  0.13234900  0.63234900  1
  Au  Au8  1  -0.00000000  0.86765100  0.36765100  1
  Pd  Pd9  1  0.00000000  0.36765100  0.13234900  1
