# generated using pymatgen
data_SrLiZr2O6
_symmetry_space_group_name_H-M   'P 1'
_cell_length_a   5.46019125
_cell_length_b   5.49096870
_cell_length_c   5.54274178
_cell_angle_alpha   60.58814621
_cell_angle_beta   60.66548920
_cell_angle_gamma   60.89372253
_symmetry_Int_Tables_number   1
_chemical_formula_structural   SrLiZr2O6
_chemical_formula_sum   'Sr1 Li1 Zr2 O6'
_cell_volume   119.40412737
_cell_formula_units_Z   1
loop_
 _symmetry_equiv_pos_site_id
 _symmetry_equiv_pos_as_xyz
  1  'x, y, z'
loop_
 _atom_site_type_symbol
 _atom_site_label
 _atom_site_symmetry_multiplicity
 _atom_site_fract_x
 _atom_site_fract_y
 _atom_site_fract_z
 _atom_site_occupancy
  Li  Li0  1  0.74986495  0.74442204  0.75495809  1
  Sr  Sr1  1  0.25014598  0.25557901  0.24504403  1
  Zr  Zr2  1  0.00000600  0.00000200  0.00000100  1
  Zr  Zr3  1  0.50000597  0.50000202  0.50000006  1
  O  O4  1  0.30112195  0.70462203  0.20718305  1
  O  O5  1  0.69888898  0.29537901  0.79281907  1
  O  O6  1  0.19516298  0.28283101  0.80306705  1
  O  O7  1  0.80484695  0.71717603  0.19693107  1
  O  O8  1  0.74960498  0.17289101  0.33051304  1
  O  O9  1  0.25041495  0.82711404  0.66948508  1
