# generated using pymatgen
data_Be4BN7
_symmetry_space_group_name_H-M   'P 1'
_cell_length_a   4.82323408
_cell_length_b   4.82323408
_cell_length_c   4.82323408
_cell_angle_alpha   90.00000000
_cell_angle_beta   90.00000000
_cell_angle_gamma   90.00000000
_symmetry_Int_Tables_number   1
_chemical_formula_structural   Be4BN7
_chemical_formula_sum   'Be4 B1 N7'
_cell_volume   112.20572568
_cell_formula_units_Z   1
loop_
 _symmetry_equiv_pos_site_id
 _symmetry_equiv_pos_as_xyz
  1  'x, y, z'
loop_
 _atom_site_type_symbol
 _atom_site_label
 _atom_site_symmetry_multiplicity
 _atom_site_fract_x
 _atom_site_fract_y
 _atom_site_fract_z
 _atom_site_occupancy
  N  N0  1  0.49999999  0.49999999  -0.00000000  1
  Be  Be1  1  0.49999999  0.00000000  0.49999999  1
  Be  Be2  1  -0.00000000  0.49999999  0.49999999  1
  Be  Be3  1  0.00000000  0.00000000  0.00000000  1
  B  B4  1  0.15191500  0.84808499  0.34808499  1
  N  N5  1  0.84808499  0.34808499  0.15191500  1
  N  N6  1  0.34808499  0.15191500  0.84808499  1
  N  N7  1  0.65191499  0.65191499  0.65191499  1
  Be  Be8  1  0.84808499  0.15191500  0.65191499  1
  N  N9  1  0.15191500  0.65191499  0.84808499  1
  N  N10  1  0.65191499  0.84808499  0.15191500  1
  N  N11  1  0.34808499  0.34808499  0.34808499  1
