# generated using pymatgen
data_Li2O2
_symmetry_space_group_name_H-M   'P 1'
_cell_length_a   3.65000391
_cell_length_b   5.07219934
_cell_length_c   8.79435825
_cell_angle_alpha   92.74675751
_cell_angle_beta   101.57160950
_cell_angle_gamma   92.81175232
_symmetry_Int_Tables_number   1
_chemical_formula_structural   Li2O2
_chemical_formula_sum   'Li5 O5'
_cell_volume   159.03567185
_cell_formula_units_Z   2
loop_
 _symmetry_equiv_pos_site_id
 _symmetry_equiv_pos_as_xyz
  1  'x, y, z'
loop_
 _atom_site_type_symbol
 _atom_site_label
 _atom_site_symmetry_multiplicity
 _atom_site_fract_x
 _atom_site_fract_y
 _atom_site_fract_z
 _atom_site_occupancy
  Li  Li0  1  0.67473502  0.38852601  0.86318007  1
  Li  Li1  1  0.32526501  0.61147401  0.13682003  1
  Li  Li2  1  0.14728500  0.17839400  0.42455603  1
  Li  Li3  1  0.85271503  0.82160602  0.57544407  1
  O  O4  1  0.59653302  0.49920001  0.67367106  1
  Li  Li5  1  0.40346701  0.50080001  0.32632904  1
  O  O6  1  0.64192002  0.06509500  0.83918405  1
  O  O7  1  0.35808001  0.93490502  0.16081604  1
  O  O8  1  0.20489801  0.47930501  0.91120006  1
  O  O9  1  0.79510203  0.52069501  0.08880004  1
