# generated using pymatgen
data_Y2ErAl6Ge7
_symmetry_space_group_name_H-M   'P 1'
_cell_length_a   6.76038313
_cell_length_b   6.76038313
_cell_length_c   10.35170746
_cell_angle_alpha   70.94142151
_cell_angle_beta   70.94142151
_cell_angle_gamma   60.00000763
_symmetry_Int_Tables_number   1
_chemical_formula_structural   Y2ErAl6Ge7
_chemical_formula_sum   'Y2 Er1 Al6 Ge7'
_cell_volume   379.47814313
_cell_formula_units_Z   1
loop_
 _symmetry_equiv_pos_site_id
 _symmetry_equiv_pos_as_xyz
  1  'x, y, z'
loop_
 _atom_site_type_symbol
 _atom_site_label
 _atom_site_symmetry_multiplicity
 _atom_site_fract_x
 _atom_site_fract_y
 _atom_site_fract_z
 _atom_site_occupancy
  Y  Y0  1  0.19577200  0.19577200  0.41268403  1
  Y  Y1  1  0.80422802  0.80422801  0.58731606  1
  Al  Al2  1  0.45551801  0.45551801  0.63344605  1
  Er  Er3  1  0.54448201  0.54448201  0.36655404  1
  Al  Al4  1  0.18158101  0.58192301  0.05491502  1
  Al  Al5  1  0.18158100  0.18158100  0.05491501  1
  Ge  Ge6  1  0.58192301  0.18158100  0.05491502  1
  Al  Al7  1  0.41807701  0.81841901  0.94508507  1
  Al  Al8  1  0.81841902  0.41807701  0.94508507  1
  Al  Al9  1  0.81841902  0.81841901  0.94508508  1
  Ge  Ge10  1  0.21628901  0.79820701  0.76921506  1
  Ge  Ge11  1  0.21628900  0.21628900  0.76921504  1
  Ge  Ge12  1  0.79820702  0.21628900  0.76921506  1
  Ge  Ge13  1  0.20179301  0.78371101  0.23078503  1
  Ge  Ge14  1  0.78371101  0.20179300  0.23078503  1
  Ge  Ge15  1  0.78371102  0.78371101  0.23078505  1
