# generated using pymatgen
data_LiYCu4P5O
_symmetry_space_group_name_H-M   'P 1'
_cell_length_a   3.88809609
_cell_length_b   3.88809609
_cell_length_c   12.11435795
_cell_angle_alpha   99.23445129
_cell_angle_beta   99.23445129
_cell_angle_gamma   90.00000000
_symmetry_Int_Tables_number   1
_chemical_formula_structural   LiYCu4P5O
_chemical_formula_sum   'Li1 Y1 Cu4 P5 O1'
_cell_volume   178.35778593
_cell_formula_units_Z   1
loop_
 _symmetry_equiv_pos_site_id
 _symmetry_equiv_pos_as_xyz
  1  'x, y, z'
loop_
 _atom_site_type_symbol
 _atom_site_label
 _atom_site_symmetry_multiplicity
 _atom_site_fract_x
 _atom_site_fract_y
 _atom_site_fract_z
 _atom_site_occupancy
  Y  Y0  1  0.85033999  0.85033998  0.70068003  1
  Li  Li1  1  0.14966000  0.14966000  0.29932001  1
  Cu  Cu2  1  0.95036898  0.45036899  0.90073804  1
  Cu  Cu3  1  0.45036899  0.95036898  0.90073804  1
  Cu  Cu4  1  0.04963100  0.54963099  0.09926201  1
  Cu  Cu5  1  0.54963099  0.04963100  0.09926201  1
  P  P6  1  0.69652299  0.69652299  0.39304602  1
  P  P7  1  0.30347699  0.30347699  0.60695402  1
  P  P8  1  0.74999999  0.24999999  0.50000002  1
  P  P9  1  0.25000000  0.74999998  0.50000002  1
  P  P10  1  0.59959899  0.59959899  0.19919801  1
  O  O11  1  0.40040099  0.40040099  0.80080203  1
