# generated using pymatgen
data_Li5MnCoO8
_symmetry_space_group_name_H-M   'P 1'
_cell_length_a   5.76211023
_cell_length_b   5.76211023
_cell_length_c   5.83593225
_cell_angle_alpha   90.00000763
_cell_angle_beta   60.41757584
_cell_angle_gamma   120.00000763
_symmetry_Int_Tables_number   1
_chemical_formula_structural   Li5MnCoO8
_chemical_formula_sum   'Li5 Mn1 Co1 O8'
_cell_volume   137.87033225
_cell_formula_units_Z   1
loop_
 _symmetry_equiv_pos_site_id
 _symmetry_equiv_pos_as_xyz
  1  'x, y, z'
loop_
 _atom_site_type_symbol
 _atom_site_label
 _atom_site_symmetry_multiplicity
 _atom_site_fract_x
 _atom_site_fract_y
 _atom_site_fract_z
 _atom_site_occupancy
  Li  Li0  1  0.00000000  0.00000000  0.50000002  1
  Li  Li1  1  0.50000000  0.50000001  0.50000006  1
  Li  Li2  1  0.50000000  0.00000000  0.50000003  1
  Li  Li3  1  0.00000000  0.00000000  0.00000000  1
  Mn  Mn4  1  0.50000000  0.50000001  0.00000004  1
  Li  Li5  1  -0.00000001  0.50000001  1.00000007  1
  Co  Co6  1  0.50000000  0.00000000  1.00000005  1
  O  O7  1  0.98819099  0.75987701  0.78349409  1
  O  O8  1  0.45662900  0.22831500  0.78349405  1
  O  O9  1  0.98819100  0.22831400  0.78349406  1
  O  O10  1  0.47884899  0.73942401  0.78172508  1
  O  O11  1  0.52115100  0.26057600  0.21827503  1
  O  O12  1  0.01180899  0.77168601  0.21650605  1
  O  O13  1  0.54337099  0.77168501  0.21650606  1
  O  O14  1  0.01180900  0.24012300  0.21650602  1
