# generated using pymatgen
data_SrBPH2
_symmetry_space_group_name_H-M   'P 1'
_cell_length_a   4.53224850
_cell_length_b   4.53224850
_cell_length_c   4.53224754
_cell_angle_alpha   88.69366455
_cell_angle_beta   88.69366455
_cell_angle_gamma   88.69366455
_symmetry_Int_Tables_number   1
_chemical_formula_structural   SrBPH2
_chemical_formula_sum   'Sr1 B1 P1 H2'
_cell_volume   93.02664463
_cell_formula_units_Z   1
loop_
 _symmetry_equiv_pos_site_id
 _symmetry_equiv_pos_as_xyz
  1  'x, y, z'
loop_
 _atom_site_type_symbol
 _atom_site_label
 _atom_site_symmetry_multiplicity
 _atom_site_fract_x
 _atom_site_fract_y
 _atom_site_fract_z
 _atom_site_occupancy
  Sr  Sr0  1  0.99299802  0.99299803  0.99299809  1
  B  B1  1  0.49493701  0.49493701  0.49493705  1
  H  H2  1  0.45420801  0.45420801  0.89875006  1
  P  P3  1  0.89875002  0.45420801  0.45420806  1
  H  H4  1  0.45420801  0.89875003  0.45420806  1
