# generated using pymatgen
data_LaInPdAu
_symmetry_space_group_name_H-M   'P 1'
_cell_length_a   3.69278002
_cell_length_b   4.67860889
_cell_length_c   5.79054165
_cell_angle_alpha   90.00000000
_cell_angle_beta   108.59418488
_cell_angle_gamma   90.00000000
_symmetry_Int_Tables_number   1
_chemical_formula_structural   LaInPdAu
_chemical_formula_sum   'La1 In1 Pd1 Au1'
_cell_volume   94.82141445
_cell_formula_units_Z   1
loop_
 _symmetry_equiv_pos_site_id
 _symmetry_equiv_pos_as_xyz
  1  'x, y, z'
loop_
 _atom_site_type_symbol
 _atom_site_label
 _atom_site_symmetry_multiplicity
 _atom_site_fract_x
 _atom_site_fract_y
 _atom_site_fract_z
 _atom_site_occupancy
  In  In0  1  0.86071901  0.75000002  0.72143803  1
  La  La1  1  0.13928100  0.25000001  0.27856201  1
  Pd  Pd2  1  0.58753600  0.75000002  0.17507201  1
  Au  Au3  1  0.41246400  0.25000001  0.82492802  1
