# generated using pymatgen
data_LiMnCu4WO11
_symmetry_space_group_name_H-M   'P 1'
_cell_length_a   5.17043114
_cell_length_b   5.43623447
_cell_length_c   10.12710762
_cell_angle_alpha   90.30572510
_cell_angle_beta   97.37318420
_cell_angle_gamma   104.32309723
_symmetry_Int_Tables_number   1
_chemical_formula_structural   LiMnCu4WO11
_chemical_formula_sum   'Li1 Mn1 Cu4 W1 O11'
_cell_volume   273.31716410
_cell_formula_units_Z   1
loop_
 _symmetry_equiv_pos_site_id
 _symmetry_equiv_pos_as_xyz
  1  'x, y, z'
loop_
 _atom_site_type_symbol
 _atom_site_label
 _atom_site_symmetry_multiplicity
 _atom_site_fract_x
 _atom_site_fract_y
 _atom_site_fract_z
 _atom_site_occupancy
  Li  Li0  1  0.94707797  0.55232500  0.22926999  1
  Mn  Mn1  1  0.05292200  0.44767500  0.77073002  1
  Cu  Cu2  1  0.49999999  0.50000000  0.50000000  1
  Cu  Cu3  1  0.00000000  0.00000000  0.00000000  1
  W  W4  1  0.42459799  0.02317900  0.74258900  1
  Cu  Cu5  1  0.57540199  0.97682100  0.25741101  1
  O  O6  1  0.17898900  0.49013300  0.39684101  1
  Cu  Cu7  1  0.22778799  0.31030500  0.98642701  1
  O  O8  1  0.73761198  0.14489500  0.83370499  1
  O  O9  1  0.70142098  0.73467200  0.32610000  1
  O  O10  1  0.79870497  0.15955700  0.16154498  1
  O  O11  1  0.29857899  0.26532800  0.67390001  1
  O  O12  1  0.45932799  0.82767900  0.61746501  1
  O  O13  1  0.26238800  0.85510500  0.16629501  1
  O  O14  1  0.54067198  0.17232100  0.38253499  1
  O  O15  1  0.20129500  0.84044300  0.83845502  1
  O  O16  1  0.82101098  0.50986700  0.60315900  1
  O  O17  1  0.77221198  0.68969500  0.01357299  1
