# generated using pymatgen
data_NaYAlInGaTeSe7S
_symmetry_space_group_name_H-M   'P 1'
_cell_length_a   8.04596424
_cell_length_b   8.04596424
_cell_length_c   8.04596424
_cell_angle_alpha   60.00000000
_cell_angle_beta   60.00000000
_cell_angle_gamma   60.00000000
_symmetry_Int_Tables_number   1
_chemical_formula_structural   NaYAlInGaTeSe7S
_chemical_formula_sum   'Na1 Y1 Al1 In1 Ga1 Te1 Se7 S1'
_cell_volume   368.31490683
_cell_formula_units_Z   1
loop_
 _symmetry_equiv_pos_site_id
 _symmetry_equiv_pos_as_xyz
  1  'x, y, z'
loop_
 _atom_site_type_symbol
 _atom_site_label
 _atom_site_symmetry_multiplicity
 _atom_site_fract_x
 _atom_site_fract_y
 _atom_site_fract_z
 _atom_site_occupancy
  Na  Na0  1  0.37500001  0.37500001  0.37500001  1
  Y  Y1  1  0.37500001  0.87500002  0.37500001  1
  In  In2  1  0.37500001  0.37500001  0.87500002  1
  Al  Al3  1  0.87500002  0.37500001  0.37500001  1
  Ga  Ga4  1  0.00000000  0.00000000  0.00000000  1
  Te  Te5  1  0.75000002  0.75000002  0.75000002  1
  Se  Se6  1  0.13555400  0.62148201  0.62148201  1
  Se  Se7  1  0.62148201  0.62148201  0.13555400  1
  Se  Se8  1  0.62148201  0.62148201  0.62148201  1
  Se  Se9  1  0.62148201  0.13555400  0.62148201  1
  Se  Se10  1  0.12851800  0.61444601  0.12851800  1
  Se  Se11  1  0.12851800  0.12851800  0.12851800  1
  Se  Se12  1  0.12851800  0.12851800  0.61444601  1
  S  S13  1  0.61444601  0.12851800  0.12851800  1
