# generated using pymatgen
data_LiMn2Fe(Si3Ge)2
_symmetry_space_group_name_H-M   'P 1'
_cell_length_a   5.52772617
_cell_length_b   5.52772617
_cell_length_c   6.75608778
_cell_angle_alpha   114.14781952
_cell_angle_beta   114.14781952
_cell_angle_gamma   90.00000000
_symmetry_Int_Tables_number   1
_chemical_formula_structural   LiMn2Fe(Si3Ge)2
_chemical_formula_sum   'Li1 Mn2 Fe1 Si6 Ge2'
_cell_volume   168.38093008
_cell_formula_units_Z   1
loop_
 _symmetry_equiv_pos_site_id
 _symmetry_equiv_pos_as_xyz
  1  'x, y, z'
loop_
 _atom_site_type_symbol
 _atom_site_label
 _atom_site_symmetry_multiplicity
 _atom_site_fract_x
 _atom_site_fract_y
 _atom_site_fract_z
 _atom_site_occupancy
  Li  Li0  1  0.24999994  0.74999995  0.49999993  1
  Mn  Mn1  1  0.74999994  0.24999998  0.49999994  1
  Mn  Mn2  1  0.49999994  0.49999997  -0.00000006  1
  Fe  Fe3  1  0.00000000  0.00000000  0.00000000  1
  Si  Si4  1  0.88417493  0.34888098  0.23305593  1
  Si  Si5  1  0.65111896  0.11582499  0.76694396  1
  Si  Si6  1  0.11582495  0.65111895  0.76694394  1
  Si  Si7  1  0.11582499  0.11582499  0.76694398  1
  Si  Si8  1  0.34888092  0.88417494  0.23305592  1
  Si  Si9  1  0.34888096  0.34888098  0.23305596  1
  Ge  Ge10  1  0.88417489  0.88417494  0.23305589  1
  Ge  Ge11  1  0.65111892  0.65111895  0.76694392  1
