# generated using pymatgen
data_VCrSiS4
_symmetry_space_group_name_H-M   'P 1'
_cell_length_a   3.40752411
_cell_length_b   5.86851215
_cell_length_c   6.58984041
_cell_angle_alpha   116.36676025
_cell_angle_beta   104.98367310
_cell_angle_gamma   90.00000000
_symmetry_Int_Tables_number   1
_chemical_formula_structural   VCrSiS4
_chemical_formula_sum   'V1 Cr1 Si1 S4'
_cell_volume   113.04624273
_cell_formula_units_Z   1
loop_
 _symmetry_equiv_pos_site_id
 _symmetry_equiv_pos_as_xyz
  1  'x, y, z'
loop_
 _atom_site_type_symbol
 _atom_site_label
 _atom_site_symmetry_multiplicity
 _atom_site_fract_x
 _atom_site_fract_y
 _atom_site_fract_z
 _atom_site_occupancy
  V  V0  1  0.74398304  0.73783105  0.48796609  1
  Cr  Cr1  1  0.25601702  0.26216902  0.51203404  1
  Si  Si2  1  0.00000000  0.00000000  0.00000000  1
  S  S3  1  0.62312806  0.96039907  0.24625609  1
  S  S4  1  0.37687200  0.03960100  0.75374403  1
  S  S5  1  0.88149203  0.55282704  0.76298408  1
  S  S6  1  0.11850803  0.44717303  0.23701604  1
