# generated using pymatgen
data_AlTc
_symmetry_space_group_name_H-M   'P 1'
_cell_length_a   2.95264792
_cell_length_b   2.95264792
_cell_length_c   4.79832077
_cell_angle_alpha   90.00000000
_cell_angle_beta   90.00000000
_cell_angle_gamma   120.00000000
_symmetry_Int_Tables_number   1
_chemical_formula_structural   AlTc
_chemical_formula_sum   'Al1 Tc1'
_cell_volume   36.22790649
_cell_formula_units_Z   1
loop_
 _symmetry_equiv_pos_site_id
 _symmetry_equiv_pos_as_xyz
  1  'x, y, z'
loop_
 _atom_site_type_symbol
 _atom_site_label
 _atom_site_symmetry_multiplicity
 _atom_site_fract_x
 _atom_site_fract_y
 _atom_site_fract_z
 _atom_site_occupancy
  Tc  Tc0  1  0.66666667  0.33333332  0.75000004  1
  Al  Al1  1  0.33333332  0.66666664  0.25000001  1
