# generated using pymatgen
data_BaLa3In2Sn2SbAu3
_symmetry_space_group_name_H-M   'P 1'
_cell_length_a   4.57998419
_cell_length_b   9.26867294
_cell_length_c   9.26924610
_cell_angle_alpha   90.00000000
_cell_angle_beta   90.00000000
_cell_angle_gamma   90.00000000
_symmetry_Int_Tables_number   1
_chemical_formula_structural   BaLa3In2Sn2SbAu3
_chemical_formula_sum   'Ba1 La3 In2 Sn2 Sb1 Au3'
_cell_volume   393.48297783
_cell_formula_units_Z   1
loop_
 _symmetry_equiv_pos_site_id
 _symmetry_equiv_pos_as_xyz
  1  'x, y, z'
loop_
 _atom_site_type_symbol
 _atom_site_label
 _atom_site_symmetry_multiplicity
 _atom_site_fract_x
 _atom_site_fract_y
 _atom_site_fract_z
 _atom_site_occupancy
  Ba  Ba0  1  0.97510896  0.75000000  0.72670799  1
  La  La1  1  0.02489100  0.25000000  0.72670799  1
  La  La2  1  0.49999998  0.00000000  0.27292500  1
  La  La3  1  0.49999998  0.50000000  0.27292500  1
  In  In4  1  0.00000000  0.00000000  0.00127200  1
  In  In5  1  0.00000000  0.50000000  0.00127200  1
  Sn  Sn6  1  0.43388498  0.75000000  0.99962599  1
  Sn  Sn7  1  0.56611498  0.25000000  0.99962599  1
  Au  Au8  1  0.99384896  0.75000000  0.36660900  1
  Sb  Sb9  1  0.00615100  0.25000000  0.36660900  1
  Au  Au10  1  0.49999998  0.00000000  0.63332399  1
  Au  Au11  1  0.49999998  0.50000000  0.63332399  1
