# generated using pymatgen
data_BaIn3CuSnBiAuSe2
_symmetry_space_group_name_H-M   'P 1'
_cell_length_a   3.51095796
_cell_length_b   7.87658978
_cell_length_c   10.49591541
_cell_angle_alpha   85.15170288
_cell_angle_beta   80.37182617
_cell_angle_gamma   77.12216949
_symmetry_Int_Tables_number   1
_chemical_formula_structural   BaIn3CuSnBiAuSe2
_chemical_formula_sum   'Ba1 In3 Cu1 Sn1 Bi1 Au1 Se2'
_cell_volume   278.63431204
_cell_formula_units_Z   1
loop_
 _symmetry_equiv_pos_site_id
 _symmetry_equiv_pos_as_xyz
  1  'x, y, z'
loop_
 _atom_site_type_symbol
 _atom_site_label
 _atom_site_symmetry_multiplicity
 _atom_site_fract_x
 _atom_site_fract_y
 _atom_site_fract_z
 _atom_site_occupancy
  Ba  Ba0  1  0.58376908  0.97723301  0.85522903  1
  In  In1  1  0.41623101  0.02276700  0.14477100  1
  In  In2  1  0.77250802  0.06604100  0.38894299  1
  In  In3  1  0.22749207  0.93395901  0.61105704  1
  Cu  Cu4  1  0.57248802  0.21475300  0.64027100  1
  Bi  Bi5  1  0.42751206  0.78524701  0.35972903  1
  Au  Au6  1  0.80600706  0.67631501  0.71167102  1
  Sn  Sn7  1  0.19399303  0.32368500  0.28832901  1
  Se  Se8  1  0.90104503  0.22562800  0.97228200  1
  Se  Se9  1  0.09895505  0.77437201  0.02771803  1
