# generated using pymatgen
data_K3BaAlGaCuNiHgTe3Se3Cl
_symmetry_space_group_name_H-M   'P 1'
_cell_length_a   8.09330368
_cell_length_b   9.20059013
_cell_length_c   8.09330368
_cell_angle_alpha   63.90726471
_cell_angle_beta   90.00000000
_cell_angle_gamma   116.09273529
_symmetry_Int_Tables_number   1
_chemical_formula_structural   K3BaAlGaCuNiHgTe3Se3Cl
_chemical_formula_sum   'K3 Ba1 Al1 Ga1 Cu1 Ni1 Hg1 Te3 Se3 Cl1'
_cell_volume   471.88441975
_cell_formula_units_Z   1
loop_
 _symmetry_equiv_pos_site_id
 _symmetry_equiv_pos_as_xyz
  1  'x, y, z'
loop_
 _atom_site_type_symbol
 _atom_site_label
 _atom_site_symmetry_multiplicity
 _atom_site_fract_x
 _atom_site_fract_y
 _atom_site_fract_z
 _atom_site_occupancy
  Ba  Ba0  1  0.75000004  0.49999999  0.25000000  1
  K  K1  1  0.25000002  0.49999999  0.75000002  1
  K  K2  1  0.67447605  0.99999997  0.82552401  1
  K  K3  1  0.17447601  0.00000100  0.67447503  1
  Cu  Cu4  1  0.32552404  0.99999997  0.17447598  1
  Al  Al5  1  0.82552406  0.99999897  0.32552499  1
  Ga  Ga6  1  0.19860303  0.73549298  0.96311002  1
  Ni  Ni7  1  0.46311003  0.26450699  0.69860302  1
  Hg  Hg8  1  0.80139704  0.26450699  0.03688999  1
  Te  Te9  1  0.30139702  0.26450699  0.19860300  1
  Te  Te10  1  0.96311005  0.26450699  0.53689001  1
  Se  Se11  1  0.69860305  0.73549298  0.80139701  1
  Se  Se12  1  0.50000002  0.00000000  0.50000002  1
  Te  Te13  1  0.00000000  0.00000000  0.00000000  1
  Cl  Cl14  1  0.53689004  0.73549298  0.30139699  1
  Se  Se15  1  0.03689002  0.73549298  0.46311000  1
