# generated using pymatgen
data_YScAl2GaNi4
_symmetry_space_group_name_H-M   'P 1'
_cell_length_a   5.86949587
_cell_length_b   5.86949587
_cell_length_c   5.86949587
_cell_angle_alpha   90.00000000
_cell_angle_beta   90.00000000
_cell_angle_gamma   90.00000000
_symmetry_Int_Tables_number   1
_chemical_formula_structural   YScAl2GaNi4
_chemical_formula_sum   'Y1 Sc1 Al2 Ga1 Ni4'
_cell_volume   202.20989507
_cell_formula_units_Z   1
loop_
 _symmetry_equiv_pos_site_id
 _symmetry_equiv_pos_as_xyz
  1  'x, y, z'
loop_
 _atom_site_type_symbol
 _atom_site_label
 _atom_site_symmetry_multiplicity
 _atom_site_fract_x
 _atom_site_fract_y
 _atom_site_fract_z
 _atom_site_occupancy
  Y  Y0  1  0.50000001  0.50000001  0.50000001  1
  Sc  Sc1  1  0.00000000  0.00000000  0.00000000  1
  Ga  Ga2  1  -0.00000000  0.50000001  -0.00000000  1
  Al  Al3  1  0.00000000  0.00000000  0.50000001  1
  Al  Al4  1  0.50000001  0.00000000  0.00000000  1
  Ni  Ni5  1  0.23102801  0.23102801  0.23102801  1
  Ni  Ni6  1  0.76897202  0.76897202  0.23102801  1
  Ni  Ni7  1  0.23102801  0.76897202  0.76897202  1
  Ni  Ni8  1  0.76897202  0.23102801  0.76897202  1
