# generated using pymatgen
data_LiMgCu2
_symmetry_space_group_name_H-M   'P 1'
_cell_length_a   3.38227606
_cell_length_b   4.31572390
_cell_length_c   5.45571661
_cell_angle_alpha   90.00000000
_cell_angle_beta   108.05774689
_cell_angle_gamma   90.00000000
_symmetry_Int_Tables_number   1
_chemical_formula_structural   LiMgCu2
_chemical_formula_sum   'Li1 Mg1 Cu2'
_cell_volume   75.71437939
_cell_formula_units_Z   1
loop_
 _symmetry_equiv_pos_site_id
 _symmetry_equiv_pos_as_xyz
  1  'x, y, z'
loop_
 _atom_site_type_symbol
 _atom_site_label
 _atom_site_symmetry_multiplicity
 _atom_site_fract_x
 _atom_site_fract_y
 _atom_site_fract_z
 _atom_site_occupancy
  Li  Li0  1  0.85734698  0.75000002  0.71469399  1
  Mg  Mg1  1  0.14265300  0.25000001  0.28530600  1
  Cu  Cu2  1  0.59278298  0.75000002  0.18556599  1
  Cu  Cu3  1  0.40721699  0.25000001  0.81443400  1
