# generated using pymatgen
data_La2PrErIn4
_symmetry_space_group_name_H-M   'P 1'
_cell_length_a   5.65020180
_cell_length_b   7.16931581
_cell_length_c   7.16931629
_cell_angle_alpha   60.00000000
_cell_angle_beta   90.00000000
_cell_angle_gamma   90.00000000
_symmetry_Int_Tables_number   1
_chemical_formula_structural   La2PrErIn4
_chemical_formula_sum   'La2 Pr1 Er1 In4'
_cell_volume   251.50698052
_cell_formula_units_Z   1
loop_
 _symmetry_equiv_pos_site_id
 _symmetry_equiv_pos_as_xyz
  1  'x, y, z'
loop_
 _atom_site_type_symbol
 _atom_site_label
 _atom_site_symmetry_multiplicity
 _atom_site_fract_x
 _atom_site_fract_y
 _atom_site_fract_z
 _atom_site_occupancy
  La  La0  1  0.25000001  0.33333334  0.33333332  1
  La  La1  1  0.75000003  0.66666669  0.66666665  1
  Er  Er2  1  0.75000003  0.66778102  0.16610999  1
  Pr  Pr3  1  0.75000003  0.16610901  0.16610999  1
  In  In4  1  0.75000003  0.16610901  0.66778199  1
  In  In5  1  0.25000001  0.33221901  0.83388998  1
  In  In6  1  0.25000001  0.83389103  0.83388997  1
  In  In7  1  0.25000001  0.83389103  0.33221798  1
