# generated using pymatgen
data_LiYFeNiP6
_symmetry_space_group_name_H-M   'P 1'
_cell_length_a   4.10612011
_cell_length_b   4.10612011
_cell_length_c   9.01829433
_cell_angle_alpha   90.00000000
_cell_angle_beta   90.00000000
_cell_angle_gamma   90.00000000
_symmetry_Int_Tables_number   1
_chemical_formula_structural   LiYFeNiP6
_chemical_formula_sum   'Li1 Y1 Fe1 Ni1 P6'
_cell_volume   152.05044773
_cell_formula_units_Z   1
loop_
 _symmetry_equiv_pos_site_id
 _symmetry_equiv_pos_as_xyz
  1  'x, y, z'
loop_
 _atom_site_type_symbol
 _atom_site_label
 _atom_site_symmetry_multiplicity
 _atom_site_fract_x
 _atom_site_fract_y
 _atom_site_fract_z
 _atom_site_occupancy
  Y  Y0  1  0.00000000  0.49999999  0.75270197  1
  Li  Li1  1  0.49999999  0.00000000  0.24729799  1
  Ni  Ni2  1  0.00000000  0.49999999  0.38781899  1
  Fe  Fe3  1  0.49999999  0.00000000  0.61218098  1
  P  P4  1  0.49999999  0.49999999  0.00000000  1
  P  P5  1  0.00000000  0.00000000  0.00000000  1
  P  P6  1  0.49999999  0.00000000  0.87115997  1
  P  P7  1  0.00000000  0.49999999  0.12884000  1
  P  P8  1  0.00000000  0.00000000  0.49999998  1
  P  P9  1  0.49999999  0.49999999  0.49999998  1
