# generated using pymatgen
data_EuYErIn4Sn3GePd
_symmetry_space_group_name_H-M   'P 1'
_cell_length_a   4.29695511
_cell_length_b   7.59448481
_cell_length_c   8.79013443
_cell_angle_alpha   90.00000000
_cell_angle_beta   90.00000000
_cell_angle_gamma   90.00000000
_symmetry_Int_Tables_number   1
_chemical_formula_structural   EuYErIn4Sn3GePd
_chemical_formula_sum   'Eu1 Y1 Er1 In4 Sn3 Ge1 Pd1'
_cell_volume   286.84986578
_cell_formula_units_Z   1
loop_
 _symmetry_equiv_pos_site_id
 _symmetry_equiv_pos_as_xyz
  1  'x, y, z'
loop_
 _atom_site_type_symbol
 _atom_site_label
 _atom_site_symmetry_multiplicity
 _atom_site_fract_x
 _atom_site_fract_y
 _atom_site_fract_z
 _atom_site_occupancy
  Eu  Eu0  1  0.00000000  0.40178201  0.24999999  1
  Y  Y1  1  0.00000000  0.59821802  0.74999996  1
  Er  Er2  1  0.00000000  0.00000000  0.00000000  1
  In  In3  1  0.49999999  0.31513401  0.56512997  1
  In  In4  1  0.49999999  0.06731300  0.24999999  1
  In  In5  1  0.00000000  0.00000000  0.49999998  1
  Sn  Sn6  1  0.49999999  0.93268702  0.74999996  1
  In  In7  1  0.49999999  0.31513401  0.93486995  1
  Sn  Sn8  1  0.49999999  0.68486602  0.06513000  1
  Sn  Sn9  1  0.49999999  0.68486602  0.43486998  1
  Pd  Pd10  1  0.00000000  0.80481302  0.24999999  1
  Ge  Ge11  1  0.00000000  0.19518700  0.74999996  1
