# generated using pymatgen
data_MgPa
_symmetry_space_group_name_H-M   'P 1'
_cell_length_a   3.55029988
_cell_length_b   3.60654402
_cell_length_c   5.64412689
_cell_angle_alpha   90.00000000
_cell_angle_beta   90.00000000
_cell_angle_gamma   119.48545074
_symmetry_Int_Tables_number   1
_chemical_formula_structural   MgPa
_chemical_formula_sum   'Mg1 Pa1'
_cell_volume   62.90891515
_cell_formula_units_Z   1
loop_
 _symmetry_equiv_pos_site_id
 _symmetry_equiv_pos_as_xyz
  1  'x, y, z'
loop_
 _atom_site_type_symbol
 _atom_site_label
 _atom_site_symmetry_multiplicity
 _atom_site_fract_x
 _atom_site_fract_y
 _atom_site_fract_z
 _atom_site_occupancy
  Pa  Pa0  1  0.15045601  0.30091200  0.25000000  1
  Mg  Mg1  1  0.84954405  0.69908800  0.75000001  1
