# generated using pymatgen
data_LiMn3V2O8
_symmetry_space_group_name_H-M   'P 1'
_cell_length_a   5.75446224
_cell_length_b   5.75563288
_cell_length_c   5.77281237
_cell_angle_alpha   60.22032928
_cell_angle_beta   89.69032288
_cell_angle_gamma   119.40049744
_symmetry_Int_Tables_number   1
_chemical_formula_structural   LiMn3V2O8
_chemical_formula_sum   'Li1 Mn3 V2 O8'
_cell_volume   136.49831602
_cell_formula_units_Z   1
loop_
 _symmetry_equiv_pos_site_id
 _symmetry_equiv_pos_as_xyz
  1  'x, y, z'
loop_
 _atom_site_type_symbol
 _atom_site_label
 _atom_site_symmetry_multiplicity
 _atom_site_fract_x
 _atom_site_fract_y
 _atom_site_fract_z
 _atom_site_occupancy
  Li  Li0  1  0.50034402  0.50128203  0.99841194  1
  Mn  Mn1  1  0.49907002  0.49873803  0.49982396  1
  Mn  Mn2  1  0.50013206  0.99949007  0.50080396  1
  Mn  Mn3  1  0.00079200  0.00057000  0.50032098  1
  V  V4  1  0.87525799  0.24867602  0.88102594  1
  V  V5  1  0.11960605  0.75018905  0.12860599  1
  O  O6  1  0.27052799  0.03433300  0.26046798  1
  O  O7  1  0.73678305  0.97308006  0.73638195  1
  O  O8  1  0.26442499  0.02844700  0.70880596  1
  O  O9  1  0.73424805  0.96489706  0.29756596  1
  O  O10  1  0.26201503  0.47224503  0.26234798  1
  O  O11  1  0.70385801  0.46612803  0.26265297  1
  O  O12  1  0.29292703  0.53085003  0.73234096  1
  O  O13  1  0.74001201  0.53107803  0.73044095  1
