# generated using pymatgen
data_Na2O2
_symmetry_space_group_name_H-M   'P 1'
_cell_length_a   5.12161016
_cell_length_b   5.12161016
_cell_length_c   9.62907982
_cell_angle_alpha   90.00000000
_cell_angle_beta   90.00000000
_cell_angle_gamma   90.00000000
_symmetry_Int_Tables_number   1
_chemical_formula_structural   Na2O2
_chemical_formula_sum   'Na8 O8'
_cell_volume   252.57934006
_cell_formula_units_Z   4
loop_
 _symmetry_equiv_pos_site_id
 _symmetry_equiv_pos_as_xyz
  1  'x, y, z'
loop_
 _atom_site_type_symbol
 _atom_site_label
 _atom_site_symmetry_multiplicity
 _atom_site_fract_x
 _atom_site_fract_y
 _atom_site_fract_z
 _atom_site_occupancy
  Na  Na0  1  0.00000000  0.00000000  0.50000001  1
  Na  Na1  1  0.00000000  0.00000000  0.00000000  1
  Na  Na2  1  0.49999998  0.49999998  0.25000000  1
  Na  Na3  1  0.49999998  0.49999998  0.75000001  1
  Na  Na4  1  0.19264299  0.80735697  0.35916001  1
  Na  Na5  1  0.80735697  0.19264299  0.35916001  1
  Na  Na6  1  0.80735697  0.80735697  0.14084000  1
  Na  Na7  1  0.19264299  0.19264299  0.14084000  1
  O  O8  1  0.26809099  0.73190898  0.00000000  1
  O  O9  1  0.73190898  0.73190898  0.50000001  1
  O  O10  1  0.26809099  0.26809099  0.50000001  1
  O  O11  1  0.73190898  0.26809099  0.00000000  1
  O  O12  1  0.19264299  0.19264299  0.85916002  1
  O  O13  1  0.19264299  0.80735697  0.64084001  1
  O  O14  1  0.80735697  0.19264299  0.64084001  1
  O  O15  1  0.80735697  0.80735697  0.85916002  1
