# generated using pymatgen
data_Na2LiTeSeO11
_symmetry_space_group_name_H-M   'P 1'
_cell_length_a   6.79742289
_cell_length_b   6.79742241
_cell_length_c   6.79742289
_cell_angle_alpha   109.47122955
_cell_angle_beta   109.47122192
_cell_angle_gamma   109.47121429
_symmetry_Int_Tables_number   1
_chemical_formula_structural   Na2LiTeSeO11
_chemical_formula_sum   'Na2 Li1 Te1 Se1 O11'
_cell_volume   241.77474071
_cell_formula_units_Z   1
loop_
 _symmetry_equiv_pos_site_id
 _symmetry_equiv_pos_as_xyz
  1  'x, y, z'
loop_
 _atom_site_type_symbol
 _atom_site_label
 _atom_site_symmetry_multiplicity
 _atom_site_fract_x
 _atom_site_fract_y
 _atom_site_fract_z
 _atom_site_occupancy
  Li  Li0  1  0.00000006  0.50000003  0.50000004  1
  Na  Na1  1  0.50000007  0.50000003  0.00000006  1
  Na  Na2  1  0.50000001  0.00000000  0.50000002  1
  Te  Te3  1  0.00000000  0.00000000  0.00000000  1
  O  O4  1  0.25000006  0.50000003  0.75000005  1
  Se  Se5  1  0.00000009  0.75689204  0.75689207  1
  O  O6  1  0.24310803  0.24310801  0.00000003  1
  O  O7  1  0.75689211  0.75689204  0.00000009  1
  O  O8  1  0.75689202  0.00000000  0.75689203  1
  O  O9  1  0.00000003  0.24310801  0.24310802  1
  O  O10  1  0.24310801  0.00000000  0.24310801  1
  O  O11  1  0.75000008  0.50000003  0.25000007  1
  O  O12  1  0.75000005  0.25000001  0.50000005  1
  O  O13  1  0.25000009  0.75000004  0.50000007  1
  O  O14  1  0.50000010  0.75000004  0.25000008  1
  O  O15  1  0.50000004  0.25000001  0.75000004  1
