# generated using pymatgen
data_Ti2CuNi2Pd
_symmetry_space_group_name_H-M   'P 1'
_cell_length_a   5.12924242
_cell_length_b   5.12924242
_cell_length_c   5.12924242
_cell_angle_alpha   60.00000000
_cell_angle_beta   60.00000000
_cell_angle_gamma   60.00000000
_symmetry_Int_Tables_number   1
_chemical_formula_structural   Ti2CuNi2Pd
_chemical_formula_sum   'Ti2 Cu1 Ni2 Pd1'
_cell_volume   95.42115701
_cell_formula_units_Z   1
loop_
 _symmetry_equiv_pos_site_id
 _symmetry_equiv_pos_as_xyz
  1  'x, y, z'
loop_
 _atom_site_type_symbol
 _atom_site_label
 _atom_site_symmetry_multiplicity
 _atom_site_fract_x
 _atom_site_fract_y
 _atom_site_fract_z
 _atom_site_occupancy
  Ti  Ti0  1  0.00000000  0.00000000  0.00000000  1
  Ti  Ti1  1  0.37701499  0.86895298  0.37701599  1
  Cu  Cu2  1  0.37701499  0.37701599  0.37701599  1
  Ni  Ni3  1  0.37701499  0.37701599  0.86895298  1
  Ni  Ni4  1  0.86895198  0.37701599  0.37701599  1
  Pd  Pd5  1  0.74999998  0.74999998  0.74999998  1
