# generated using pymatgen
data_LiMg3Cu2
_symmetry_space_group_name_H-M   'P 1'
_cell_length_a   5.41470385
_cell_length_b   5.41470385
_cell_length_c   5.41470385
_cell_angle_alpha   61.01156998
_cell_angle_beta   61.01156998
_cell_angle_gamma   61.01157379
_symmetry_Int_Tables_number   1
_chemical_formula_structural   LiMg3Cu2
_chemical_formula_sum   'Li1 Mg3 Cu2'
_cell_volume   114.81349502
_cell_formula_units_Z   1
loop_
 _symmetry_equiv_pos_site_id
 _symmetry_equiv_pos_as_xyz
  1  'x, y, z'
loop_
 _atom_site_type_symbol
 _atom_site_label
 _atom_site_symmetry_multiplicity
 _atom_site_fract_x
 _atom_site_fract_y
 _atom_site_fract_z
 _atom_site_occupancy
  Li  Li0  1  0.37418901  0.37418899  0.37418897  1
  Mg  Mg1  1  0.62581101  0.62581098  0.62581095  1
  Mg  Mg2  1  0.49999999  0.00000000  -0.00000001  1
  Mg  Mg3  1  0.00000002  0.49999998  -0.00000002  1
  Cu  Cu4  1  0.00000000  0.00000000  0.49999999  1
  Cu  Cu5  1  0.00000000  0.00000000  0.00000000  1
