# generated using pymatgen
data_K2BaCu4SiS8
_symmetry_space_group_name_H-M   'P 1'
_cell_length_a   4.02246618
_cell_length_b   7.24108839
_cell_length_c   13.86110592
_cell_angle_alpha   90.00000000
_cell_angle_beta   90.00000000
_cell_angle_gamma   106.12613678
_symmetry_Int_Tables_number   1
_chemical_formula_structural   K2BaCu4SiS8
_chemical_formula_sum   'K2 Ba1 Cu4 Si1 S8'
_cell_volume   387.84703249
_cell_formula_units_Z   1
loop_
 _symmetry_equiv_pos_site_id
 _symmetry_equiv_pos_as_xyz
  1  'x, y, z'
loop_
 _atom_site_type_symbol
 _atom_site_label
 _atom_site_symmetry_multiplicity
 _atom_site_fract_x
 _atom_site_fract_y
 _atom_site_fract_z
 _atom_site_occupancy
  K  K0  1  0.89336702  0.78673400  0.75000000  1
  Ba  Ba1  1  0.10663301  0.21326600  0.25000000  1
  K  K2  1  0.63404899  0.26809800  0.56126400  1
  Cu  Cu3  1  0.36595104  0.73190200  0.43873600  1
  Cu  Cu4  1  0.63404899  0.26809800  0.93873601  1
  Cu  Cu5  1  0.36595104  0.73190200  0.06126400  1
  Si  Si6  1  0.83445402  0.66890800  0.25000000  1
  Cu  Cu7  1  0.16554602  0.33109200  0.75000000  1
  S  S8  1  0.00000000  0.00000000  0.50000000  1
  S  S9  1  0.00000000  0.00000000  0.00000000  1
  S  S10  1  0.25922203  0.51844400  0.89037901  1
  S  S11  1  0.74077801  0.48155600  0.10962100  1
  S  S12  1  0.42339705  0.84679400  0.25000000  1
  S  S13  1  0.25922203  0.51844400  0.60962100  1
  S  S14  1  0.57660299  0.15320600  0.75000000  1
  S  S15  1  0.74077801  0.48155600  0.39037900  1
