# generated using pymatgen
data_NaTi(Cu3S4)2
_symmetry_space_group_name_H-M   'P 1'
_cell_length_a   6.45800781
_cell_length_b   6.85122585
_cell_length_c   7.97147703
_cell_angle_alpha   90.00000000
_cell_angle_beta   89.79929352
_cell_angle_gamma   90.00000000
_symmetry_Int_Tables_number   1
_chemical_formula_structural   NaTi(Cu3S4)2
_chemical_formula_sum   'Na1 Ti1 Cu6 S8'
_cell_volume   352.69799026
_cell_formula_units_Z   1
loop_
 _symmetry_equiv_pos_site_id
 _symmetry_equiv_pos_as_xyz
  1  'x, y, z'
loop_
 _atom_site_type_symbol
 _atom_site_label
 _atom_site_symmetry_multiplicity
 _atom_site_fract_x
 _atom_site_fract_y
 _atom_site_fract_z
 _atom_site_occupancy
  Na  Na0  1  0.87201503  0.33535901  0.43160600  1
  Ti  Ti1  1  0.37201501  0.66464101  0.93160599  1
  Cu  Cu2  1  0.37302101  0.16046100  0.67418999  1
  Cu  Cu3  1  0.87302103  0.83953902  0.17419000  1
  Cu  Cu4  1  0.37153201  0.17270500  0.18079200  1
  Cu  Cu5  1  0.87153203  0.82729502  0.68079199  1
  Cu  Cu6  1  0.87505303  0.32656201  0.92836099  1
  Cu  Cu7  1  0.37505301  0.67343801  0.42836100  1
  S  S8  1  0.25803201  0.31759301  0.93927599  1
  S  S9  1  0.75803202  0.68240701  0.43927600  1
  S  S10  1  0.25688801  0.85334902  0.17845400  1
  S  S11  1  0.75688802  0.14665100  0.67845399  1
  S  S12  1  0.25502301  0.33143601  0.41651500  1
  S  S13  1  0.75502302  0.66856401  0.91651499  1
  S  S14  1  0.72893602  0.17250500  0.18060600  1
  S  S15  1  0.22893601  0.82749502  0.68060599  1
