# generated using pymatgen
data_DyAl2GaSi2
_symmetry_space_group_name_H-M   'P 1'
_cell_length_a   5.08761978
_cell_length_b   5.14352751
_cell_length_c   5.14352751
_cell_angle_alpha   60.85922241
_cell_angle_beta   60.35891342
_cell_angle_gamma   60.35891342
_symmetry_Int_Tables_number   1
_chemical_formula_structural   DyAl2GaSi2
_chemical_formula_sum   'Dy1 Al2 Ga1 Si2'
_cell_volume   96.30044616
_cell_formula_units_Z   1
loop_
 _symmetry_equiv_pos_site_id
 _symmetry_equiv_pos_as_xyz
  1  'x, y, z'
loop_
 _atom_site_type_symbol
 _atom_site_label
 _atom_site_symmetry_multiplicity
 _atom_site_fract_x
 _atom_site_fract_y
 _atom_site_fract_z
 _atom_site_occupancy
  Dy  Dy0  1  0.87652204  0.37347799  0.87347799  1
  Al  Al1  1  0.12347802  0.62652199  0.12652198  1
  Al  Al2  1  0.50000003  0.49999999  0.49999998  1
  Ga  Ga3  1  0.50000002  0.00000000  0.00000001  1
  Si  Si4  1  0.00000003  0.99999998  0.49999995  1
  Si  Si5  1  0.50000004  0.99999998  0.49999997  1
