# generated using pymatgen
data_DyYEr2AlGa2Ge7Pd2
_symmetry_space_group_name_H-M   'P 1'
_cell_length_a   4.53197479
_cell_length_b   6.71981907
_cell_length_c   10.34833717
_cell_angle_alpha   90.00000000
_cell_angle_beta   90.00000000
_cell_angle_gamma   90.00000000
_symmetry_Int_Tables_number   1
_chemical_formula_structural   DyYEr2AlGa2Ge7Pd2
_chemical_formula_sum   'Y1 Dy1 Er2 Al1 Ga2 Ge7 Pd2'
_cell_volume   315.14878422
_cell_formula_units_Z   1
loop_
 _symmetry_equiv_pos_site_id
 _symmetry_equiv_pos_as_xyz
  1  'x, y, z'
loop_
 _atom_site_type_symbol
 _atom_site_label
 _atom_site_symmetry_multiplicity
 _atom_site_fract_x
 _atom_site_fract_y
 _atom_site_fract_z
 _atom_site_occupancy
  Y  Y0  1  0.25000001  0.27840700  0.66047599  1
  Dy  Dy1  1  0.25000001  0.77840699  0.83952399  1
  Er  Er2  1  0.75000003  0.72159299  0.33952399  1
  Er  Er3  1  0.75000003  0.22159300  0.16047600  1
  Al  Al4  1  0.25000001  0.53571199  0.10426400  1
  Ga  Ga5  1  0.25000001  0.03571200  0.39573599  1
  Ge  Ge6  1  0.75000003  0.46428800  0.89573598  1
  Ga  Ga7  1  0.75000003  0.96428799  0.60426399  1
  Ge  Ge8  1  0.25000001  0.91590999  0.14744200  1
  Ge  Ge9  1  0.25000001  0.41591000  0.35255799  1
  Ge  Ge10  1  0.75000003  0.08409000  0.85255799  1
  Pd  Pd11  1  0.75000003  0.58408999  0.64744199  1
  Pd  Pd12  1  0.25000001  0.21642300  0.95703398  1
  Ge  Ge13  1  0.25000001  0.71642299  0.54296599  1
  Ge  Ge14  1  0.75000003  0.78357699  0.04296600  1
  Ge  Ge15  1  0.75000003  0.28357700  0.45703399  1
