# generated using pymatgen
data_K2BaNa2Li3CuAgAu
_symmetry_space_group_name_H-M   'P 1'
_cell_length_a   4.77806807
_cell_length_b   7.50379610
_cell_length_c   9.07768059
_cell_angle_alpha   114.41294861
_cell_angle_beta   105.25863647
_cell_angle_gamma   90.00000000
_symmetry_Int_Tables_number   1
_chemical_formula_structural   K2BaNa2Li3CuAgAu
_chemical_formula_sum   'K2 Ba1 Na2 Li3 Cu1 Ag1 Au1'
_cell_volume   283.72010274
_cell_formula_units_Z   1
loop_
 _symmetry_equiv_pos_site_id
 _symmetry_equiv_pos_as_xyz
  1  'x, y, z'
loop_
 _atom_site_type_symbol
 _atom_site_label
 _atom_site_symmetry_multiplicity
 _atom_site_fract_x
 _atom_site_fract_y
 _atom_site_fract_z
 _atom_site_occupancy
  Ba  Ba0  1  0.13086898  0.63086900  0.26173801  1
  K  K1  1  0.86913096  0.36913100  0.73826199  1
  K  K2  1  0.00000000  0.00000000  0.00000000  1
  Li  Li3  1  0.66901097  0.36063100  0.33802199  1
  Na  Na4  1  0.33098897  0.63936900  0.66197801  1
  Li  Li5  1  0.66901195  0.97739200  0.33802300  1
  Na  Na6  1  0.33098799  0.02260800  0.66197699  1
  Li  Li7  1  0.78380496  0.78380500  0.56761000  1
  Ag  Ag8  1  0.21619499  0.21619500  0.43239000  1
  Cu  Cu9  1  0.49999998  0.30796200  1.00000000  1
  Au  Au10  1  0.49999997  0.69203800  0.00000000  1
