# generated using pymatgen
data_ZrMnAlFe2Si
_symmetry_space_group_name_H-M   'P 1'
_cell_length_a   4.43275785
_cell_length_b   4.73843145
_cell_length_c   5.96698236
_cell_angle_alpha   104.52256012
_cell_angle_beta   111.80448151
_cell_angle_gamma   90.00000000
_symmetry_Int_Tables_number   1
_chemical_formula_structural   ZrMnAlFe2Si
_chemical_formula_sum   'Zr1 Mn1 Al1 Fe2 Si1'
_cell_volume   112.04119626
_cell_formula_units_Z   1
loop_
 _symmetry_equiv_pos_site_id
 _symmetry_equiv_pos_as_xyz
  1  'x, y, z'
loop_
 _atom_site_type_symbol
 _atom_site_label
 _atom_site_symmetry_multiplicity
 _atom_site_fract_x
 _atom_site_fract_y
 _atom_site_fract_z
 _atom_site_occupancy
  Mn  Mn0  1  0.13082999  0.32917099  0.26165998  1
  Zr  Zr1  1  0.86916998  0.67082897  0.73833992  1
  Al  Al2  1  0.41369300  0.18682499  0.82738596  1
  Fe  Fe3  1  0.58630697  0.81317497  0.17261394  1
  Si  Si4  1  0.80969700  0.15132199  0.61939394  1
  Fe  Fe5  1  0.19030297  0.84867797  0.38060596  1
