# generated using pymatgen
data_B
_symmetry_space_group_name_H-M   'P 1'
_cell_length_a   5.36388016
_cell_length_b   5.44368076
_cell_length_c   5.47592354
_cell_angle_alpha   114.81369019
_cell_angle_beta   90.00000000
_cell_angle_gamma   90.00000000
_symmetry_Int_Tables_number   1
_chemical_formula_structural   B
_chemical_formula_sum   B20
_cell_volume   145.13111459
_cell_formula_units_Z   20
loop_
 _symmetry_equiv_pos_site_id
 _symmetry_equiv_pos_as_xyz
  1  'x, y, z'
loop_
 _atom_site_type_symbol
 _atom_site_label
 _atom_site_symmetry_multiplicity
 _atom_site_fract_x
 _atom_site_fract_y
 _atom_site_fract_z
 _atom_site_occupancy
  B  B0  1  0.00054800  0.27052202  0.27633500  1
  B  B1  1  0.50054799  0.72947804  0.22366501  1
  B  B2  1  0.99945197  0.72947804  0.72366500  1
  B  B3  1  0.49945199  0.27052202  0.77633498  1
  B  B4  1  0.82031098  0.87016205  0.12663102  1
  B  B5  1  0.32031099  0.12983801  0.37336899  1
  B  B6  1  0.17968899  0.12983801  0.87336897  1
  B  B7  1  0.67968898  0.87016205  0.62663100  1
  B  B8  1  0.81411998  0.36415002  0.63754899  1
  B  B9  1  0.31411999  0.63585004  0.86245099  1
  B  B10  1  0.18587999  0.63585004  0.36245101  1
  B  B11  1  0.68587998  0.36415002  0.13754901  1
  B  B12  1  0.86923597  0.67058204  0.32562501  1
  B  B13  1  0.36923599  0.32941802  0.17437500  1
  B  B14  1  0.13076400  0.32941802  0.67437499  1
  B  B15  1  0.63076398  0.67058204  0.82562499  1
  B  B16  1  0.86943997  0.16266501  0.84122198  1
  B  B17  1  0.36943999  0.83733505  0.65877800  1
  B  B18  1  0.13056000  0.83733505  0.15877802  1
  B  B19  1  0.63055998  0.16266501  0.34122199  1
