# generated using pymatgen
data_LaIn
_symmetry_space_group_name_H-M   'P 1'
_cell_length_a   5.57878685
_cell_length_b   7.18902016
_cell_length_c   7.18902016
_cell_angle_alpha   60.00000000
_cell_angle_beta   90.00000000
_cell_angle_gamma   90.00000000
_symmetry_Int_Tables_number   1
_chemical_formula_structural   LaIn
_chemical_formula_sum   'La4 In4'
_cell_volume   249.69497522
_cell_formula_units_Z   4
loop_
 _symmetry_equiv_pos_site_id
 _symmetry_equiv_pos_as_xyz
  1  'x, y, z'
loop_
 _atom_site_type_symbol
 _atom_site_label
 _atom_site_symmetry_multiplicity
 _atom_site_fract_x
 _atom_site_fract_y
 _atom_site_fract_z
 _atom_site_occupancy
  La  La0  1  0.75000002  0.66645799  0.16677099  1
  La  La1  1  0.75000002  0.16677100  0.16677100  1
  La  La2  1  0.75000002  0.16677100  0.66645799  1
  La  La3  1  0.25000001  0.33354199  0.83322899  1
  In  In4  1  0.25000001  0.83322898  0.83322898  1
  In  In5  1  0.25000001  0.83322898  0.33354199  1
  In  In6  1  0.25000001  0.33333333  0.33333333  1
  In  In7  1  0.75000002  0.66666665  0.66666665  1
