# generated using pymatgen
data_K2Ba2YCu3SiAsP4
_symmetry_space_group_name_H-M   'P 1'
_cell_length_a   7.35229254
_cell_length_b   7.35229254
_cell_length_c   7.51796103
_cell_angle_alpha   109.87184906
_cell_angle_beta   108.97421265
_cell_angle_gamma   108.66014862
_symmetry_Int_Tables_number   1
_chemical_formula_structural   K2Ba2YCu3SiAsP4
_chemical_formula_sum   'K2 Ba2 Y1 Cu3 Si1 As1 P4'
_cell_volume   316.26734813
_cell_formula_units_Z   1
loop_
 _symmetry_equiv_pos_site_id
 _symmetry_equiv_pos_as_xyz
  1  'x, y, z'
loop_
 _atom_site_type_symbol
 _atom_site_label
 _atom_site_symmetry_multiplicity
 _atom_site_fract_x
 _atom_site_fract_y
 _atom_site_fract_z
 _atom_site_occupancy
  Ba  Ba0  1  0.74939090  0.99172193  0.74111288  1
  Ba  Ba1  1  0.25060900  0.00827800  0.25888700  1
  K  K2  1  0.78500795  0.51834497  0.30335294  1
  K  K3  1  0.21499195  0.48165497  0.69664694  1
  Y  Y4  1  0.49999995  0.49999997  0.49999994  1
  Cu  Cu5  1  0.00000000  0.00000000  0.49999999  1
  Si  Si6  1  0.97514099  0.22337699  0.19851798  1
  Cu  Cu7  1  0.02485892  0.77662295  0.80148190  1
  Cu  Cu8  1  0.72292799  0.22292799  0.49999998  1
  P  P9  1  0.27707192  0.77707195  0.49999990  1
  P  P10  1  0.67783291  0.92139194  0.17866390  1
  P  P11  1  0.25727195  0.50083097  0.17866394  1
  P  P12  1  0.32216700  0.07860799  0.82133598  1
  As  As13  1  0.74272796  0.49916897  0.82133594  1
