# generated using pymatgen
data_Na2SrLi(CuO3)4
_symmetry_space_group_name_H-M   'P 1'
_cell_length_a   5.41770983
_cell_length_b   5.47464085
_cell_length_c   7.64989519
_cell_angle_alpha   90.00000000
_cell_angle_beta   90.00000000
_cell_angle_gamma   90.00000000
_symmetry_Int_Tables_number   1
_chemical_formula_structural   Na2SrLi(CuO3)4
_chemical_formula_sum   'Na2 Sr1 Li1 Cu4 O12'
_cell_volume   226.89601005
_cell_formula_units_Z   1
loop_
 _symmetry_equiv_pos_site_id
 _symmetry_equiv_pos_as_xyz
  1  'x, y, z'
loop_
 _atom_site_type_symbol
 _atom_site_label
 _atom_site_symmetry_multiplicity
 _atom_site_fract_x
 _atom_site_fract_y
 _atom_site_fract_z
 _atom_site_occupancy
  Na  Na0  1  0.00709100  0.95349803  0.74999998  1
  Sr  Sr1  1  0.50709102  0.54650202  0.24999999  1
  Li  Li2  1  0.49290902  0.45349801  0.74999998  1
  Na  Na3  1  0.99290903  0.04650200  0.24999999  1
  Cu  Cu4  1  0.50000002  0.00000000  0.49999999  1
  Cu  Cu5  1  0.00000000  0.50000001  0.49999999  1
  Cu  Cu6  1  0.00000000  0.50000001  -0.00000000  1
  Cu  Cu7  1  0.50000002  0.00000000  0.00000000  1
  O  O8  1  0.70199802  0.29809501  0.46035399  1
  O  O9  1  0.20199801  0.20190501  0.53964599  1
  O  O10  1  0.79800203  0.79809502  0.03964600  1
  O  O11  1  0.29800201  0.70190502  0.96035398  1
  O  O12  1  0.29800201  0.70190502  0.53964599  1
  O  O13  1  0.79800203  0.79809502  0.46035399  1
  O  O14  1  0.20199801  0.20190501  0.96035398  1
  O  O15  1  0.70199802  0.29809501  0.03964600  1
  O  O16  1  0.07857400  0.48288801  0.24999999  1
  O  O17  1  0.57857402  0.01711200  0.74999998  1
  O  O18  1  0.42142601  0.98288803  0.24999999  1
  O  O19  1  0.92142603  0.51711201  0.74999998  1
