# generated using pymatgen
data_La2DyInSn2Pd4PtAu
_symmetry_space_group_name_H-M   'P 1'
_cell_length_a   4.46605396
_cell_length_b   7.24943686
_cell_length_c   7.83019114
_cell_angle_alpha   90.00000000
_cell_angle_beta   90.00000000
_cell_angle_gamma   90.00000000
_symmetry_Int_Tables_number   1
_chemical_formula_structural   La2DyInSn2Pd4PtAu
_chemical_formula_sum   'La2 Dy1 In1 Sn2 Pd4 Pt1 Au1'
_cell_volume   253.51321388
_cell_formula_units_Z   1
loop_
 _symmetry_equiv_pos_site_id
 _symmetry_equiv_pos_as_xyz
  1  'x, y, z'
loop_
 _atom_site_type_symbol
 _atom_site_label
 _atom_site_symmetry_multiplicity
 _atom_site_fract_x
 _atom_site_fract_y
 _atom_site_fract_z
 _atom_site_occupancy
  La  La0  1  0.25000000  0.00957100  0.30771799  1
  Dy  Dy1  1  0.25000000  0.50957101  0.19228200  1
  In  In2  1  0.75000001  0.99042902  0.69228199  1
  La  La3  1  0.75000001  0.49042901  0.80771799  1
  Sn  Sn4  1  0.25000000  0.16600700  0.92485298  1
  Sn  Sn5  1  0.25000000  0.66600701  0.57514699  1
  Pd  Pd6  1  0.75000001  0.83399302  0.07514700  1
  Pd  Pd7  1  0.75000001  0.33399301  0.42485299  1
  Au  Au8  1  0.25000000  0.28675801  0.60005299  1
  Pt  Pt9  1  0.25000000  0.78675802  0.89994698  1
  Pd  Pd10  1  0.75000001  0.71324201  0.39994699  1
  Pd  Pd11  1  0.75000001  0.21324200  0.10005300  1
