# generated using pymatgen
data_ErZrZnCu2Ge6P
_symmetry_space_group_name_H-M   'P 1'
_cell_length_a   5.06706524
_cell_length_b   5.06706619
_cell_length_c   8.56020164
_cell_angle_alpha   72.78450775
_cell_angle_beta   72.78450775
_cell_angle_gamma   60.00000000
_symmetry_Int_Tables_number   1
_chemical_formula_structural   ErZrZnCu2Ge6P
_chemical_formula_sum   'Er1 Zr1 Zn1 Cu2 Ge6 P1'
_cell_volume   178.87865382
_cell_formula_units_Z   1
loop_
 _symmetry_equiv_pos_site_id
 _symmetry_equiv_pos_as_xyz
  1  'x, y, z'
loop_
 _atom_site_type_symbol
 _atom_site_label
 _atom_site_symmetry_multiplicity
 _atom_site_fract_x
 _atom_site_fract_y
 _atom_site_fract_z
 _atom_site_occupancy
  Er  Er0  1  0.14194301  0.14194300  0.57417102  1
  Zr  Zr1  1  0.00000000  0.00000000  0.00000000  1
  Zn  Zn2  1  0.85805704  0.85805700  0.42582901  1
  Cu  Cu3  1  0.41813202  0.41813200  0.24573201  1
  Cu  Cu4  1  0.41813203  0.91800400  0.24573200  1
  Ge  Ge5  1  0.08199601  0.58186800  0.75426802  1
  Ge  Ge6  1  0.58186803  0.58186800  0.75426803  1
  Ge  Ge7  1  0.91800404  0.41813200  0.24573202  1
  P  P8  1  0.58186802  0.08199600  0.75426804  1
  Ge  Ge9  1  0.33281002  0.33281000  0.00157000  1
  Ge  Ge10  1  0.66719003  0.66719000  0.99843004  1
  Ge  Ge11  1  0.50000003  0.50000000  0.50000002  1
