# generated using pymatgen
data_Nb5CuS6
_symmetry_space_group_name_H-M   'P 1'
_cell_length_a   7.54393005
_cell_length_b   7.54393005
_cell_length_c   7.56374836
_cell_angle_alpha   99.68290710
_cell_angle_beta   99.68290710
_cell_angle_gamma   119.91863251
_symmetry_Int_Tables_number   1
_chemical_formula_structural   Nb5CuS6
_chemical_formula_sum   'Nb5 Cu1 S6'
_cell_volume   351.40624874
_cell_formula_units_Z   1
loop_
 _symmetry_equiv_pos_site_id
 _symmetry_equiv_pos_as_xyz
  1  'x, y, z'
loop_
 _atom_site_type_symbol
 _atom_site_label
 _atom_site_symmetry_multiplicity
 _atom_site_fract_x
 _atom_site_fract_y
 _atom_site_fract_z
 _atom_site_occupancy
  Cu  Cu0  1  0.01056500  0.84557799  0.00341602  1
  Nb  Nb1  1  0.66592799  0.16389000  0.00203802  1
  Nb  Nb2  1  0.84557799  0.01056500  0.50341603  1
  Nb  Nb3  1  0.16389000  0.66592799  0.50203803  1
  Nb  Nb4  1  0.31938200  0.49891099  0.98849404  1
  Nb  Nb5  1  0.49891099  0.31938200  0.48849403  1
  S  S6  1  0.65946699  0.46814599  0.89109304  1
  S  S7  1  0.92827399  0.09766500  0.86733504  1
  S  S8  1  0.09766500  0.92827399  0.36733503  1
  S  S9  1  0.28998700  0.81850699  0.86421904  1
  S  S10  1  0.46814599  0.65946699  0.39109303  1
  S  S11  1  0.81850699  0.28998700  0.36421903  1
