# generated using pymatgen
data_TiMnFe6CoNi
_symmetry_space_group_name_H-M   'P 1'
_cell_length_a   4.00250483
_cell_length_b   4.08376217
_cell_length_c   8.16265011
_cell_angle_alpha   89.61499786
_cell_angle_beta   90.00000000
_cell_angle_gamma   90.00000000
_symmetry_Int_Tables_number   1
_chemical_formula_structural   TiMnFe6CoNi
_chemical_formula_sum   'Ti1 Mn1 Fe6 Co1 Ni1'
_cell_volume   133.41777138
_cell_formula_units_Z   1
loop_
 _symmetry_equiv_pos_site_id
 _symmetry_equiv_pos_as_xyz
  1  'x, y, z'
loop_
 _atom_site_type_symbol
 _atom_site_label
 _atom_site_symmetry_multiplicity
 _atom_site_fract_x
 _atom_site_fract_y
 _atom_site_fract_z
 _atom_site_occupancy
  Mn  Mn0  1  0.50000002  0.48628098  0.24370101  1
  Ti  Ti1  1  0.50000002  0.50588998  0.75204702  1
  Fe  Fe2  1  0.00000000  0.99933796  0.99633302  1
  Fe  Fe3  1  -0.00000000  0.99832096  0.50229701  1
  Fe  Fe4  1  0.50000002  0.96042596  0.48480701  1
  Fe  Fe5  1  0.50000002  0.95951696  0.97519402  1
  Co  Co6  1  -0.00000000  0.96844796  0.22976101  1
  Fe  Fe7  1  -0.00000000  0.95842896  0.73307202  1
  Ni  Ni8  1  0.00000000  0.46254198  0.48778901  1
  Fe  Fe9  1  0.00000000  0.46320698  0.97619802  1
