# generated using pymatgen
data_KNaNi2B3CO11F
_symmetry_space_group_name_H-M   'P 1'
_cell_length_a   6.28516102
_cell_length_b   6.29391718
_cell_length_c   6.29391718
_cell_angle_alpha   79.00791168
_cell_angle_beta   62.88425064
_cell_angle_gamma   62.88425064
_symmetry_Int_Tables_number   1
_chemical_formula_structural   KNaNi2B3CO11F
_chemical_formula_sum   'K1 Na1 Ni2 B3 C1 O11 F1'
_cell_volume   197.20733837
_cell_formula_units_Z   1
loop_
 _symmetry_equiv_pos_site_id
 _symmetry_equiv_pos_as_xyz
  1  'x, y, z'
loop_
 _atom_site_type_symbol
 _atom_site_label
 _atom_site_symmetry_multiplicity
 _atom_site_fract_x
 _atom_site_fract_y
 _atom_site_fract_z
 _atom_site_occupancy
  Na  Na0  1  0.24999997  0.70369703  0.29630303  1
  K  K1  1  0.75000000  0.29630301  0.70369701  1
  Ni  Ni2  1  0.24999999  0.28276401  0.71723603  1
  Ni  Ni3  1  0.41404000  0.15952101  0.28847600  1
  B  B4  1  0.91404001  0.28847601  0.15952099  1
  B  B5  1  0.08595996  0.71152403  0.84047905  1
  B  B6  1  0.58595997  0.84047904  0.71152404  1
  C  C7  1  0.74999998  0.71723603  0.28276402  1
  O  O8  1  0.49616901  0.08783100  0.70938701  1
  O  O9  1  0.29341698  0.49793902  0.71224403  1
  O  O10  1  0.50359500  0.29108501  0.10655400  1
  O  O11  1  0.00359499  0.10655400  0.29108501  1
  O  O12  1  0.20658299  0.28775601  0.50206102  1
  O  O13  1  0.00383098  0.29061301  0.91216904  1
  O  O14  1  0.99616898  0.70938703  0.08783100  1
  O  O15  1  0.79341698  0.71224403  0.49793902  1
  O  O16  1  0.99640498  0.89344604  0.70891503  1
  F  F17  1  0.49640497  0.70891503  0.89344604  1
  O  O18  1  0.70658299  0.50206102  0.28775601  1
  O  O19  1  0.50383096  0.91216904  0.29061303  1
