# generated using pymatgen
data_Li2Fe3Ni3P2
_symmetry_space_group_name_H-M   'P 1'
_cell_length_a   3.15850210
_cell_length_b   5.41759682
_cell_length_c   6.81617022
_cell_angle_alpha   101.71633148
_cell_angle_beta   90.00000000
_cell_angle_gamma   90.00000000
_symmetry_Int_Tables_number   1
_chemical_formula_structural   Li2Fe3Ni3P2
_chemical_formula_sum   'Li2 Fe3 Ni3 P2'
_cell_volume   114.20474442
_cell_formula_units_Z   1
loop_
 _symmetry_equiv_pos_site_id
 _symmetry_equiv_pos_as_xyz
  1  'x, y, z'
loop_
 _atom_site_type_symbol
 _atom_site_label
 _atom_site_symmetry_multiplicity
 _atom_site_fract_x
 _atom_site_fract_y
 _atom_site_fract_z
 _atom_site_occupancy
  Li  Li0  1  0.24999999  0.17667001  0.71016899  1
  Li  Li1  1  0.74999998  0.82333003  0.28983101  1
  Fe  Fe2  1  0.74999998  0.41846002  0.47606300  1
  Fe  Fe3  1  0.24999999  0.58154002  0.52393700  1
  Fe  Fe4  1  0.74999998  0.41241402  0.99542799  1
  Ni  Ni5  1  0.24999999  0.58758602  0.00457201  1
  Ni  Ni6  1  0.74999998  0.08364800  0.99310798  1
  Ni  Ni7  1  0.24999999  0.91635203  0.00689202  1
  P  P8  1  0.24999999  0.31069601  0.22074200  1
  P  P9  1  0.74999998  0.68930403  0.77925800  1
