# generated using pymatgen
data_La6YSn7
_symmetry_space_group_name_H-M   'P 1'
_cell_length_a   8.26339626
_cell_length_b   8.26339626
_cell_length_c   8.26339626
_cell_angle_alpha   109.47122192
_cell_angle_beta   109.47122192
_cell_angle_gamma   109.47122192
_symmetry_Int_Tables_number   1
_chemical_formula_structural   La6YSn7
_chemical_formula_sum   'La6 Y1 Sn7'
_cell_volume   434.36400296
_cell_formula_units_Z   1
loop_
 _symmetry_equiv_pos_site_id
 _symmetry_equiv_pos_as_xyz
  1  'x, y, z'
loop_
 _atom_site_type_symbol
 _atom_site_label
 _atom_site_symmetry_multiplicity
 _atom_site_fract_x
 _atom_site_fract_y
 _atom_site_fract_z
 _atom_site_occupancy
  Y  Y0  1  0.25000002  0.37500001  0.12500003  1
  La  La1  1  0.37500004  0.62500002  0.75000003  1
  La  La2  1  0.12500006  0.87500002  0.25000005  1
  La  La3  1  0.87500004  0.75000002  0.62500005  1
  La  La4  1  0.62500001  0.25000001  0.87500002  1
  La  La5  1  0.75000000  0.12500000  0.37500002  1
  La  La6  1  0.34709606  1.00000003  1.00000005  1
  Sn  Sn7  1  0.65290404  0.65290402  0.15290405  1
  Sn  Sn8  1  0.50000005  0.84709602  0.50000005  1
  Sn  Sn9  1  0.00000003  0.50000001  0.34709602  1
  Sn  Sn10  1  0.50000002  0.34709601  0.50000002  1
  Sn  Sn11  1  1.00000003  0.50000001  0.84709604  1
  Sn  Sn12  1  0.84709606  1.00000003  0.00000008  1
  Sn  Sn13  1  0.15290401  0.15290400  0.65290400  1
