# generated using pymatgen
data_RbNaLiBrCl3O
_symmetry_space_group_name_H-M   'P 1'
_cell_length_a   3.93548822
_cell_length_b   3.93548822
_cell_length_c   10.46709728
_cell_angle_alpha   79.16429901
_cell_angle_beta   79.16429901
_cell_angle_gamma   59.99999619
_symmetry_Int_Tables_number   1
_chemical_formula_structural   RbNaLiBrCl3O
_chemical_formula_sum   'Rb1 Na1 Li1 Br1 Cl3 O1'
_cell_volume   137.04801878
_cell_formula_units_Z   1
loop_
 _symmetry_equiv_pos_site_id
 _symmetry_equiv_pos_as_xyz
  1  'x, y, z'
loop_
 _atom_site_type_symbol
 _atom_site_label
 _atom_site_symmetry_multiplicity
 _atom_site_fract_x
 _atom_site_fract_y
 _atom_site_fract_z
 _atom_site_occupancy
  Li  Li0  1  0.61961798  0.61961800  0.14114598  1
  Na  Na1  1  0.38038199  0.38038200  0.85885398  1
  Rb  Rb2  1  0.19627799  0.19627800  0.41116599  1
  Br  Br3  1  0.80372197  0.80372200  0.58883397  1
  Cl  Cl4  1  0.88751597  0.88751600  0.33745197  1
  Cl  Cl5  1  0.11248400  0.11248400  0.66254799  1
  O  O6  1  0.30529199  0.30529200  0.08412399  1
  Cl  Cl7  1  0.69470797  0.69470800  0.91587597  1
