# generated using pymatgen
data_MnCoSiNi9
_symmetry_space_group_name_H-M   'P 1'
_cell_length_a   4.19881392
_cell_length_b   4.19881439
_cell_length_c   6.91091681
_cell_angle_alpha   90.00000000
_cell_angle_beta   90.00000000
_cell_angle_gamma   120.00000000
_symmetry_Int_Tables_number   1
_chemical_formula_structural   MnCoSiNi9
_chemical_formula_sum   'Mn1 Co1 Si1 Ni9'
_cell_volume   105.51631156
_cell_formula_units_Z   1
loop_
 _symmetry_equiv_pos_site_id
 _symmetry_equiv_pos_as_xyz
  1  'x, y, z'
loop_
 _atom_site_type_symbol
 _atom_site_label
 _atom_site_symmetry_multiplicity
 _atom_site_fract_x
 _atom_site_fract_y
 _atom_site_fract_z
 _atom_site_occupancy
  Mn  Mn0  1  0.82983803  0.17016100  0.25000001  1
  Co  Co1  1  0.82983805  0.65967601  0.25000001  1
  Ni  Ni2  1  0.65967706  0.82983902  0.75000002  1
  Ni  Ni3  1  0.17016205  0.82983902  0.75000002  1
  Ni  Ni4  1  0.00000000  0.00000000  0.00000000  1
  Ni  Ni5  1  0.34032302  0.17016100  0.25000001  1
  Si  Si6  1  0.17016202  0.34032401  0.75000002  1
  Ni  Ni7  1  0.00000000  0.00000000  0.50000001  1
  Ni  Ni8  1  0.66666670  0.33333334  0.56055602  1
  Ni  Ni9  1  0.33333338  0.66666668  0.06055600  1
  Ni  Ni10  1  0.66666670  0.33333334  0.93944403  1
  Ni  Ni11  1  0.33333338  0.66666668  0.43944401  1
