# generated using pymatgen
data_LiCu2PdS4
_symmetry_space_group_name_H-M   'P 1'
_cell_length_a   5.25516367
_cell_length_b   5.25516367
_cell_length_c   5.25516367
_cell_angle_alpha   60.00000000
_cell_angle_beta   60.00000000
_cell_angle_gamma   60.00000000
_symmetry_Int_Tables_number   1
_chemical_formula_structural   LiCu2PdS4
_chemical_formula_sum   'Li1 Cu2 Pd1 S4'
_cell_volume   102.62277203
_cell_formula_units_Z   1
loop_
 _symmetry_equiv_pos_site_id
 _symmetry_equiv_pos_as_xyz
  1  'x, y, z'
loop_
 _atom_site_type_symbol
 _atom_site_label
 _atom_site_symmetry_multiplicity
 _atom_site_fract_x
 _atom_site_fract_y
 _atom_site_fract_z
 _atom_site_occupancy
  Li  Li0  1  0.50000002  0.50000002  0.50000002  1
  Pd  Pd1  1  0.00000000  0.00000000  0.00000000  1
  Cu  Cu2  1  0.79952003  0.20048001  0.20048001  1
  Cu  Cu3  1  0.20048001  0.20048001  0.79952003  1
  S  S4  1  0.20048001  0.79952003  0.79952003  1
  S  S5  1  0.79952003  0.20048001  0.79952003  1
  S  S6  1  0.20048001  0.79952003  0.20048001  1
  S  S7  1  0.79952003  0.79952003  0.20048001  1
