# generated using pymatgen
data_K5RbNaCu(Cl2O)2
_symmetry_space_group_name_H-M   'P 1'
_cell_length_a   7.35026264
_cell_length_b   7.44140148
_cell_length_c   7.44126463
_cell_angle_alpha   119.24105835
_cell_angle_beta   119.51733398
_cell_angle_gamma   60.48173141
_symmetry_Int_Tables_number   1
_chemical_formula_structural   K5RbNaCu(Cl2O)2
_chemical_formula_sum   'K5 Rb1 Na1 Cu1 Cl4 O2'
_cell_volume   291.52908656
_cell_formula_units_Z   1
loop_
 _symmetry_equiv_pos_site_id
 _symmetry_equiv_pos_as_xyz
  1  'x, y, z'
loop_
 _atom_site_type_symbol
 _atom_site_label
 _atom_site_symmetry_multiplicity
 _atom_site_fract_x
 _atom_site_fract_y
 _atom_site_fract_z
 _atom_site_occupancy
  K  K0  1  0.12598704  0.62375403  0.87622706  1
  K  K1  1  0.87400604  0.37625902  0.12377610  1
  Rb  Rb2  1  0.50004704  0.49994303  0.49998508  1
  K  K3  1  0.49995406  0.99996205  0.00000613  1
  K  K4  1  0.00000500  0.00001100  0.50000800  1
  K  K5  1  0.49997301  0.00002800  0.49999003  1
  O  O6  1  0.25409502  0.22400301  0.73192303  1
  Na  Na7  1  0.27606602  0.23607401  0.26398504  1
  Cu  Cu8  1  0.75196503  0.23622401  0.26376507  1
  O  O9  1  0.74589803  0.23195301  0.72401007  1
  Cl  Cl10  1  0.24803305  0.76376104  0.73620508  1
  Cl  Cl11  1  0.25410305  0.76806604  0.27599009  1
  Cl  Cl12  1  0.74589806  0.77600204  0.26807312  1
  Cl  Cl13  1  0.72396806  0.76396404  0.73606312  1
