# generated using pymatgen
data_Li2Co6NiP3
_symmetry_space_group_name_H-M   'P 1'
_cell_length_a   5.12162399
_cell_length_b   5.12162447
_cell_length_c   6.83648109
_cell_angle_alpha   90.00000000
_cell_angle_beta   90.00000000
_cell_angle_gamma   120.00000000
_symmetry_Int_Tables_number   1
_chemical_formula_structural   Li2Co6NiP3
_chemical_formula_sum   'Li2 Co6 Ni1 P3'
_cell_volume   155.30258046
_cell_formula_units_Z   1
loop_
 _symmetry_equiv_pos_site_id
 _symmetry_equiv_pos_as_xyz
  1  'x, y, z'
loop_
 _atom_site_type_symbol
 _atom_site_label
 _atom_site_symmetry_multiplicity
 _atom_site_fract_x
 _atom_site_fract_y
 _atom_site_fract_z
 _atom_site_occupancy
  Li  Li0  1  0.00000000  0.00000000  0.49999999  1
  Li  Li1  1  0.00000000  0.00000000  0.00000000  1
  Co  Co2  1  0.50000003  0.50000001  0.71020499  1
  Co  Co3  1  0.50000000  0.00000000  0.71020499  1
  Co  Co4  1  1.00000003  0.50000001  0.71020499  1
  Co  Co5  1  0.50000003  0.50000001  0.28979500  1
  Co  Co6  1  0.50000000  0.00000000  0.28979500  1
  Co  Co7  1  1.00000003  0.50000001  0.28979500  1
  P  P8  1  0.66666669  0.33333334  -0.00000000  1
  P  P9  1  0.33333337  0.66666668  0.99999999  1
  Ni  Ni10  1  0.33333337  0.66666668  0.49999999  1
  P  P11  1  0.66666669  0.33333334  0.49999999  1
