# generated using pymatgen
data_K3NaCu2(S3O)2
_symmetry_space_group_name_H-M   'P 1'
_cell_length_a   6.48583794
_cell_length_b   7.10408497
_cell_length_c   6.95787096
_cell_angle_alpha   90.00000000
_cell_angle_beta   66.25148773
_cell_angle_gamma   90.00000000
_symmetry_Int_Tables_number   1
_chemical_formula_structural   K3NaCu2(S3O)2
_chemical_formula_sum   'K3 Na1 Cu2 S6 O2'
_cell_volume   293.44349098
_cell_formula_units_Z   1
loop_
 _symmetry_equiv_pos_site_id
 _symmetry_equiv_pos_as_xyz
  1  'x, y, z'
loop_
 _atom_site_type_symbol
 _atom_site_label
 _atom_site_symmetry_multiplicity
 _atom_site_fract_x
 _atom_site_fract_y
 _atom_site_fract_z
 _atom_site_occupancy
  Na  Na0  1  0.57675701  0.13598700  0.76136299  1
  K  K1  1  0.42324301  0.63598700  0.73863699  1
  K  K2  1  0.42324301  0.86401300  0.23863699  1
  K  K3  1  0.57675701  0.36401300  0.26136299  1
  Cu  Cu4  1  0.00000000  0.50000000  0.50000000  1
  Cu  Cu5  1  0.00000000  0.00000000  0.00000000  1
  S  S6  1  0.22048700  0.37413500  0.03918600  1
  S  S7  1  0.77951302  0.87413500  0.46081398  1
  S  S8  1  0.22048700  0.12586500  0.53918600  1
  O  O9  1  0.77951302  0.62586500  0.96081399  1
  S  S10  1  0.67503601  0.39608800  0.56042899  1
  S  S11  1  0.32496401  0.89608800  0.93957100  1
  O  O12  1  0.32496401  0.60391200  0.43957099  1
  S  S13  1  0.67503601  0.10391200  0.06042899  1
