# generated using pymatgen
data_K2NaCu4AgS8
_symmetry_space_group_name_H-M   'P 1'
_cell_length_a   3.96150994
_cell_length_b   6.24326086
_cell_length_c   13.33350468
_cell_angle_alpha   90.00000000
_cell_angle_beta   90.00000000
_cell_angle_gamma   90.00000000
_symmetry_Int_Tables_number   1
_chemical_formula_structural   K2NaCu4AgS8
_chemical_formula_sum   'K2 Na1 Cu4 Ag1 S8'
_cell_volume   329.77410413
_cell_formula_units_Z   1
loop_
 _symmetry_equiv_pos_site_id
 _symmetry_equiv_pos_as_xyz
  1  'x, y, z'
loop_
 _atom_site_type_symbol
 _atom_site_label
 _atom_site_symmetry_multiplicity
 _atom_site_fract_x
 _atom_site_fract_y
 _atom_site_fract_z
 _atom_site_occupancy
  Na  Na0  1  0.22737500  0.25013201  0.13368800  1
  K  K1  1  0.77262501  0.75013202  0.36631201  1
  Ag  Ag2  1  0.27262500  0.74986802  0.63368802  1
  K  K3  1  0.72737501  0.24986801  0.86631202  1
  Cu  Cu4  1  0.29767400  0.85152402  0.94617102  1
  Cu  Cu5  1  0.79767401  0.64847601  0.05382900  1
  Cu  Cu6  1  0.70232601  0.35152401  0.55382901  1
  Cu  Cu7  1  0.20232600  0.14847600  0.44617101  1
  S  S8  1  0.77036301  0.51234101  0.70567002  1
  S  S9  1  0.72963701  0.48765901  0.20567000  1
  S  S10  1  0.27036300  0.98765902  0.29433001  1
  S  S11  1  0.22864500  0.48802901  0.95985202  1
  S  S12  1  0.77135501  0.98802902  0.54014801  1
  S  S13  1  0.72864501  0.01197100  0.04014800  1
  S  S14  1  0.27135500  0.51197101  0.45985201  1
  S  S15  1  0.22963700  0.01234100  0.79433002  1
