# generated using pymatgen
data_Al3Ga
_symmetry_space_group_name_H-M   'P 1'
_cell_length_a   3.87509203
_cell_length_b   3.87509203
_cell_length_c   8.69401455
_cell_angle_alpha   90.00000000
_cell_angle_beta   90.00000000
_cell_angle_gamma   90.00000000
_symmetry_Int_Tables_number   1
_chemical_formula_structural   Al3Ga
_chemical_formula_sum   'Al6 Ga2'
_cell_volume   130.55226311
_cell_formula_units_Z   2
loop_
 _symmetry_equiv_pos_site_id
 _symmetry_equiv_pos_as_xyz
  1  'x, y, z'
loop_
 _atom_site_type_symbol
 _atom_site_label
 _atom_site_symmetry_multiplicity
 _atom_site_fract_x
 _atom_site_fract_y
 _atom_site_fract_z
 _atom_site_occupancy
  Al  Al0  1  0.50000000  0.50000000  0.50000003  1
  Al  Al1  1  0.50000000  0.50000000  0.00000000  1
  Al  Al2  1  0.00000000  0.00000000  0.50000003  1
  Al  Al3  1  0.00000000  0.50000000  0.24274801  1
  Al  Al4  1  0.50000000  0.00000000  0.75725204  1
  Al  Al5  1  0.50000000  0.00000000  0.24274801  1
  Ga  Ga6  1  0.00000000  0.50000000  0.75725204  1
  Ga  Ga7  1  0.00000000  0.00000000  0.00000000  1
