# generated using pymatgen
data_Cs3K(SeS2)2
_symmetry_space_group_name_H-M   'P 1'
_cell_length_a   6.94453907
_cell_length_b   6.94453907
_cell_length_c   9.52141666
_cell_angle_alpha   96.53688049
_cell_angle_beta   104.59796906
_cell_angle_gamma   119.89141083
_symmetry_Int_Tables_number   1
_chemical_formula_structural   Cs3K(SeS2)2
_chemical_formula_sum   'Cs3 K1 Se2 S4'
_cell_volume   369.22635406
_cell_formula_units_Z   1
loop_
 _symmetry_equiv_pos_site_id
 _symmetry_equiv_pos_as_xyz
  1  'x, y, z'
loop_
 _atom_site_type_symbol
 _atom_site_label
 _atom_site_symmetry_multiplicity
 _atom_site_fract_x
 _atom_site_fract_y
 _atom_site_fract_z
 _atom_site_occupancy
  K  K0  1  0.73670101  0.66647700  0.53223503  1
  Cs  Cs1  1  0.36575802  0.79553400  0.03223505  1
  Cs  Cs2  1  0.03969000  0.04360300  0.30561499  1
  Cs  Cs3  1  0.76201200  0.26592500  0.80561500  1
  Se  Se4  1  0.32299500  0.26021500  0.02268102  1
  S  S5  1  0.26246602  0.69968600  0.52268102  1
  Se  Se6  1  0.57998899  0.07310500  0.40557700  1
  S  S7  1  0.83247202  0.82558800  0.90557702  1
  S  S8  1  0.85654500  0.43151900  0.24489204  1
  S  S9  1  0.31337301  0.38834700  0.74489199  1
