# generated using pymatgen
data_Cu2AgTeSe4
_symmetry_space_group_name_H-M   'P 1'
_cell_length_a   5.95334816
_cell_length_b   5.95334816
_cell_length_c   7.14995670
_cell_angle_alpha   114.60250854
_cell_angle_beta   114.60250854
_cell_angle_gamma   90.00000000
_symmetry_Int_Tables_number   1
_chemical_formula_structural   Cu2AgTeSe4
_chemical_formula_sum   'Cu2 Ag1 Te1 Se4'
_cell_volume   204.83320327
_cell_formula_units_Z   1
loop_
 _symmetry_equiv_pos_site_id
 _symmetry_equiv_pos_as_xyz
  1  'x, y, z'
loop_
 _atom_site_type_symbol
 _atom_site_label
 _atom_site_symmetry_multiplicity
 _atom_site_fract_x
 _atom_site_fract_y
 _atom_site_fract_z
 _atom_site_occupancy
  Te  Te0  1  0.50000001  0.50000000  1.00000000  1
  Cu  Cu1  1  0.75000000  0.25000000  0.50000001  1
  Cu  Cu2  1  0.00000000  0.00000000  0.00000000  1
  Ag  Ag3  1  0.25000002  0.74999999  0.50000002  1
  Se  Se4  1  0.65441399  0.12472300  0.75090300  1
  Se  Se5  1  0.09648902  0.62617999  0.75090300  1
  Se  Se6  1  0.87527702  0.90351099  0.24909705  1
  Se  Se7  1  0.37382001  0.34558600  0.24909701  1
