# generated using pymatgen
data_La2YIn2SnPdAu2
_symmetry_space_group_name_H-M   'P 1'
_cell_length_a   3.99006200
_cell_length_b   7.68152380
_cell_length_c   7.68152332
_cell_angle_alpha   120.00000000
_cell_angle_beta   90.00000000
_cell_angle_gamma   90.00000000
_symmetry_Int_Tables_number   1
_chemical_formula_structural   La2YIn2SnPdAu2
_chemical_formula_sum   'La2 Y1 In2 Sn1 Pd1 Au2'
_cell_volume   203.89426462
_cell_formula_units_Z   1
loop_
 _symmetry_equiv_pos_site_id
 _symmetry_equiv_pos_as_xyz
  1  'x, y, z'
loop_
 _atom_site_type_symbol
 _atom_site_label
 _atom_site_symmetry_multiplicity
 _atom_site_fract_x
 _atom_site_fract_y
 _atom_site_fract_z
 _atom_site_occupancy
  Y  Y0  1  -0.00000000  0.39924400  0.39924397  1
  La  La1  1  -0.00000000  0.60075599  0.99999994  1
  La  La2  1  1.00000000  0.00000000  0.60075599  1
  In  In3  1  0.50000000  0.73435399  0.73435394  1
  In  In4  1  0.50000000  0.26564600  0.99999997  1
  Sn  Sn5  1  0.50000000  0.00000000  0.26564600  1
  Pd  Pd6  1  0.50000000  0.33333333  0.66666663  1
  Au  Au7  1  0.00000000  0.00000000  0.00000000  1
  Au  Au8  1  0.50000000  0.66666666  0.33333328  1
