# generated using pymatgen
data_LaYCdCuAu2
_symmetry_space_group_name_H-M   'P 1'
_cell_length_a   4.51352406
_cell_length_b   4.51352358
_cell_length_c   7.20047903
_cell_angle_alpha   90.00000000
_cell_angle_beta   90.00000000
_cell_angle_gamma   120.00000000
_symmetry_Int_Tables_number   1
_chemical_formula_structural   LaYCdCuAu2
_chemical_formula_sum   'La1 Y1 Cd1 Cu1 Au2'
_cell_volume   127.03503122
_cell_formula_units_Z   1
loop_
 _symmetry_equiv_pos_site_id
 _symmetry_equiv_pos_as_xyz
  1  'x, y, z'
loop_
 _atom_site_type_symbol
 _atom_site_label
 _atom_site_symmetry_multiplicity
 _atom_site_fract_x
 _atom_site_fract_y
 _atom_site_fract_z
 _atom_site_occupancy
  Y  Y0  1  0.00000000  0.00000000  0.00017400  1
  La  La1  1  0.00000000  0.00000000  0.50017400  1
  Cd  Cd2  1  0.33333329  0.66666665  0.67664300  1
  Cu  Cu3  1  0.66666664  0.33333333  0.17664300  1
  Au  Au4  1  0.33333329  0.66666665  0.27018200  1
  Au  Au5  1  0.66666664  0.33333333  0.77018200  1
