# generated using pymatgen
data_Li2PO7
_symmetry_space_group_name_H-M   'P 1'
_cell_length_a   5.96973562
_cell_length_b   5.96973562
_cell_length_c   5.96973610
_cell_angle_alpha   104.27298737
_cell_angle_beta   104.27298737
_cell_angle_gamma   104.27298737
_symmetry_Int_Tables_number   1
_chemical_formula_structural   Li2PO7
_chemical_formula_sum   'Li4 P2 O14'
_cell_volume   188.81660169
_cell_formula_units_Z   2
loop_
 _symmetry_equiv_pos_site_id
 _symmetry_equiv_pos_as_xyz
  1  'x, y, z'
loop_
 _atom_site_type_symbol
 _atom_site_label
 _atom_site_symmetry_multiplicity
 _atom_site_fract_x
 _atom_site_fract_y
 _atom_site_fract_z
 _atom_site_occupancy
  Li  Li0  1  0.05590899  0.94409097  0.49999999  1
  Li  Li1  1  0.49999998  0.05590900  0.94409099  1
  Li  Li2  1  0.94409096  0.49999998  0.05590900  1
  Li  Li3  1  0.49999998  0.49999998  0.49999999  1
  O  O4  1  0.44347898  0.55652098  -0.00000000  1
  P  P5  1  -0.00000000  0.44347898  0.55652099  1
  O  O6  1  0.55652098  0.00000000  0.44347900  1
  P  P7  1  0.00000000  0.00000000  0.00000000  1
  O  O8  1  0.59110898  0.40889099  -0.00000000  1
  O  O9  1  -0.00000001  0.59110898  0.40889099  1
  O  O10  1  0.40889099  0.00000000  0.59110899  1
  O  O11  1  0.47075798  0.72456897  0.87854799  1
  O  O12  1  0.87854797  0.47075798  0.72456899  1
  O  O13  1  0.12145199  0.27543099  0.52924199  1
  O  O14  1  0.72456897  0.87854797  0.47075799  1
  O  O15  1  0.27543099  0.52924198  0.12145200  1
  O  O16  1  0.52924198  0.12145200  0.27543100  1
  O  O17  1  0.85162397  0.14837599  0.00000000  1
  O  O18  1  -0.00000001  0.85162397  0.14837600  1
  O  O19  1  0.14837600  0.00000000  0.85162399  1
