# generated using pymatgen
data_Ba3La2InBi2Te7Au
_symmetry_space_group_name_H-M   'P 1'
_cell_length_a   4.40696812
_cell_length_b   4.42118692
_cell_length_c   26.89125252
_cell_angle_alpha   90.00000000
_cell_angle_beta   90.00000000
_cell_angle_gamma   90.00000000
_symmetry_Int_Tables_number   1
_chemical_formula_structural   Ba3La2InBi2Te7Au
_chemical_formula_sum   'Ba3 La2 In1 Bi2 Te7 Au1'
_cell_volume   523.94996574
_cell_formula_units_Z   1
loop_
 _symmetry_equiv_pos_site_id
 _symmetry_equiv_pos_as_xyz
  1  'x, y, z'
loop_
 _atom_site_type_symbol
 _atom_site_label
 _atom_site_symmetry_multiplicity
 _atom_site_fract_x
 _atom_site_fract_y
 _atom_site_fract_z
 _atom_site_occupancy
  Ba  Ba0  1  0.49999999  0.50000001  0.09022400  1
  La  La1  1  0.49999999  0.50000001  0.42085899  1
  La  La2  1  0.49999999  0.50000001  0.75316599  1
  Ba  Ba3  1  0.00000000  0.00000000  0.24698400  1
  In  In4  1  0.00000000  0.00000000  0.57814299  1
  Ba  Ba5  1  0.00000000  0.00000000  0.91019198  1
  Bi  Bi6  1  0.49999999  0.50000001  0.21299800  1
  Bi  Bi7  1  0.49999999  0.50000001  0.54719199  1
  Te  Te8  1  0.49999999  0.50000001  0.87806598  1
  Au  Au9  1  0.00000000  0.00000000  0.12376700  1
  Te  Te10  1  0.00000000  0.00000000  0.45605499  1
  Te  Te11  1  0.00000000  0.00000000  0.78908098  1
  Te  Te12  1  -0.00000000  0.50000001  0.99708498  1
  Te  Te13  1  -0.00000000  0.50000001  0.33398299  1
  Te  Te14  1  -0.00000000  0.50000001  0.66514999  1
  Te  Te15  1  0.49999999  0.00000000  0.99705598  1
