# generated using pymatgen
data_YErAlGa3SiGe3
_symmetry_space_group_name_H-M   'P 1'
_cell_length_a   4.26310396
_cell_length_b   4.26310396
_cell_length_c   10.21560383
_cell_angle_alpha   90.00000000
_cell_angle_beta   90.00000000
_cell_angle_gamma   90.00000000
_symmetry_Int_Tables_number   1
_chemical_formula_structural   YErAlGa3SiGe3
_chemical_formula_sum   'Y1 Er1 Al1 Ga3 Si1 Ge3'
_cell_volume   185.65894982
_cell_formula_units_Z   1
loop_
 _symmetry_equiv_pos_site_id
 _symmetry_equiv_pos_as_xyz
  1  'x, y, z'
loop_
 _atom_site_type_symbol
 _atom_site_label
 _atom_site_symmetry_multiplicity
 _atom_site_fract_x
 _atom_site_fract_y
 _atom_site_fract_z
 _atom_site_occupancy
  Y  Y0  1  0.50000000  0.00000000  0.25651400  1
  Er  Er1  1  0.00000000  0.50000000  0.74348601  1
  Al  Al2  1  0.50000000  0.00000000  0.86838701  1
  Ga  Ga3  1  0.00000000  0.50000000  0.13161300  1
  Ga  Ga4  1  0.00000000  0.00000000  0.50000001  1
  Ga  Ga5  1  0.50000000  0.50000000  0.50000001  1
  Ge  Ge6  1  0.00000000  0.00000000  0.00000000  1
  Si  Si7  1  0.00000000  0.50000000  0.37154301  1
  Ge  Ge8  1  0.50000000  0.50000000  -0.00000000  1
  Ge  Ge9  1  0.50000000  0.00000000  0.62845701  1
