# generated using pymatgen
data_TiMnFe5(Si2Rh)2
_symmetry_space_group_name_H-M   'P 1'
_cell_length_a   5.05287600
_cell_length_b   5.05287600
_cell_length_c   8.30472565
_cell_angle_alpha   90.00000000
_cell_angle_beta   90.00000000
_cell_angle_gamma   120.00000000
_symmetry_Int_Tables_number   1
_chemical_formula_structural   TiMnFe5(Si2Rh)2
_chemical_formula_sum   'Ti1 Mn1 Fe5 Si4 Rh2'
_cell_volume   183.62558901
_cell_formula_units_Z   1
loop_
 _symmetry_equiv_pos_site_id
 _symmetry_equiv_pos_as_xyz
  1  'x, y, z'
loop_
 _atom_site_type_symbol
 _atom_site_label
 _atom_site_symmetry_multiplicity
 _atom_site_fract_x
 _atom_site_fract_y
 _atom_site_fract_z
 _atom_site_occupancy
  Mn  Mn0  1  0.00000000  0.00000000  0.00000000  1
  Ti  Ti1  1  0.50000000  1.00000000  0.24856401  1
  Fe  Fe2  1  0.50000000  0.50000000  0.24856401  1
  Fe  Fe3  1  -0.00000000  0.50000000  0.24856401  1
  Fe  Fe4  1  0.50000000  1.00000000  0.75143603  1
  Fe  Fe5  1  0.50000000  0.50000000  0.75143603  1
  Fe  Fe6  1  -0.00000000  0.50000000  0.75143603  1
  Si  Si7  1  0.33333333  0.66666667  -0.00000000  1
  Si  Si8  1  0.66666667  0.33333333  -0.00000000  1
  Si  Si9  1  0.33333333  0.66666667  0.50000002  1
  Si  Si10  1  0.66666667  0.33333333  0.50000002  1
  Rh  Rh11  1  0.00000000  0.00000000  0.34266901  1
  Rh  Rh12  1  0.00000000  0.00000000  0.65733103  1
