# generated using pymatgen
data_TiVN3
_symmetry_space_group_name_H-M   'P 1'
_cell_length_a   3.10178661
_cell_length_b   3.10178661
_cell_length_c   7.44731665
_cell_angle_alpha   77.98026276
_cell_angle_beta   77.98026276
_cell_angle_gamma   59.99998474
_symmetry_Int_Tables_number   1
_chemical_formula_structural   TiVN3
_chemical_formula_sum   'Ti1 V1 N3'
_cell_volume   60.23104470
_cell_formula_units_Z   1
loop_
 _symmetry_equiv_pos_site_id
 _symmetry_equiv_pos_as_xyz
  1  'x, y, z'
loop_
 _atom_site_type_symbol
 _atom_site_label
 _atom_site_symmetry_multiplicity
 _atom_site_fract_x
 _atom_site_fract_y
 _atom_site_fract_z
 _atom_site_occupancy
  Ti  Ti0  1  0.77649100  0.77649102  0.67052700  1
  V  V1  1  0.22350900  0.22350901  0.32947300  1
  N  N2  1  0.00000000  0.00000000  0.00000000  1
  N  N3  1  0.61145500  0.61145502  0.16563501  1
  N  N4  1  0.38854500  0.38854501  0.83436500  1
