# generated using pymatgen
data_PrEr4Mg3
_symmetry_space_group_name_H-M   'P 1'
_cell_length_a   5.31972694
_cell_length_b   6.84938002
_cell_length_c   6.84938097
_cell_angle_alpha   60.00000381
_cell_angle_beta   90.00000000
_cell_angle_gamma   90.00000000
_symmetry_Int_Tables_number   1
_chemical_formula_structural   PrEr4Mg3
_chemical_formula_sum   'Pr1 Er4 Mg3'
_cell_volume   216.13374295
_cell_formula_units_Z   1
loop_
 _symmetry_equiv_pos_site_id
 _symmetry_equiv_pos_as_xyz
  1  'x, y, z'
loop_
 _atom_site_type_symbol
 _atom_site_label
 _atom_site_symmetry_multiplicity
 _atom_site_fract_x
 _atom_site_fract_y
 _atom_site_fract_z
 _atom_site_occupancy
  Er  Er0  1  0.25000000  0.33333333  0.33333332  1
  Pr  Pr1  1  0.75000001  0.66666667  0.66666665  1
  Er  Er2  1  0.75000001  0.68536700  0.15731600  1
  Er  Er3  1  0.75000001  0.15731700  0.15731600  1
  Er  Er4  1  0.75000001  0.15731700  0.68536598  1
  Mg  Mg5  1  0.25000000  0.31463300  0.84268398  1
  Mg  Mg6  1  0.25000000  0.84268300  0.84268398  1
  Mg  Mg7  1  0.25000000  0.84268300  0.31463399  1
