# generated using pymatgen
data_K3RbBrCl7
_symmetry_space_group_name_H-M   'P 1'
_cell_length_a   5.41622019
_cell_length_b   7.42528296
_cell_length_c   10.11408901
_cell_angle_alpha   90.00000000
_cell_angle_beta   90.00000000
_cell_angle_gamma   90.00000000
_symmetry_Int_Tables_number   1
_chemical_formula_structural   K3RbBrCl7
_chemical_formula_sum   'K3 Rb1 Br1 Cl7'
_cell_volume   406.75798853
_cell_formula_units_Z   1
loop_
 _symmetry_equiv_pos_site_id
 _symmetry_equiv_pos_as_xyz
  1  'x, y, z'
loop_
 _atom_site_type_symbol
 _atom_site_label
 _atom_site_symmetry_multiplicity
 _atom_site_fract_x
 _atom_site_fract_y
 _atom_site_fract_z
 _atom_site_occupancy
  K  K0  1  0.24999999  0.68532100  0.57174200  1
  K  K1  1  0.74999997  0.31467900  0.42825800  1
  K  K2  1  0.74999997  0.81467900  0.07174200  1
  Rb  Rb3  1  0.24999999  0.18532100  0.92825800  1
  Cl  Cl4  1  0.24999999  0.52883100  0.20402300  1
  Cl  Cl5  1  0.74999997  0.47116900  0.79597700  1
  Cl  Cl6  1  0.74999997  0.97116901  0.70402300  1
  Cl  Cl7  1  0.24999999  0.02883100  0.29597700  1
  Cl  Cl8  1  0.24999999  0.72659400  0.89609000  1
  Br  Br9  1  0.74999997  0.27340600  0.10391000  1
  Cl  Cl10  1  0.74999997  0.77340600  0.39609000  1
  Cl  Cl11  1  0.24999999  0.22659400  0.60391000  1
