# generated using pymatgen
data_Li2LaYMg8
_symmetry_space_group_name_H-M   'P 1'
_cell_length_a   6.27910423
_cell_length_b   6.27910423
_cell_length_c   9.87530804
_cell_angle_alpha   90.00000000
_cell_angle_beta   90.00000000
_cell_angle_gamma   120.00000000
_symmetry_Int_Tables_number   1
_chemical_formula_structural   Li2LaYMg8
_chemical_formula_sum   'Li2 La1 Y1 Mg8'
_cell_volume   337.19153840
_cell_formula_units_Z   1
loop_
 _symmetry_equiv_pos_site_id
 _symmetry_equiv_pos_as_xyz
  1  'x, y, z'
loop_
 _atom_site_type_symbol
 _atom_site_label
 _atom_site_symmetry_multiplicity
 _atom_site_fract_x
 _atom_site_fract_y
 _atom_site_fract_z
 _atom_site_occupancy
  La  La0  1  0.66666666  0.33333335  0.58117200  1
  Li  Li1  1  0.33333335  0.66666669  0.41882800  1
  Li  Li2  1  0.33333335  0.66666669  0.08117200  1
  Y  Y3  1  0.66666666  0.33333335  0.91882800  1
  Mg  Mg4  1  0.00000000  0.00000000  0.50000000  1
  Mg  Mg5  1  0.00000000  0.00000000  0.00000000  1
  Mg  Mg6  1  0.16955601  0.33911201  0.75000000  1
  Mg  Mg7  1  0.16955603  0.83044303  0.75000000  1
  Mg  Mg8  1  0.66088701  0.83044303  0.75000000  1
  Mg  Mg9  1  0.83044400  0.66088803  0.25000000  1
  Mg  Mg10  1  0.83044398  0.16955701  0.25000000  1
  Mg  Mg11  1  0.33911299  0.16955701  0.25000000  1
