# generated using pymatgen
data_KRb2Tl(BrCl)2
_symmetry_space_group_name_H-M   'P 1'
_cell_length_a   6.31901789
_cell_length_b   7.86204004
_cell_length_c   7.86203957
_cell_angle_alpha   120.00000000
_cell_angle_beta   90.00000000
_cell_angle_gamma   90.00000000
_symmetry_Int_Tables_number   1
_chemical_formula_structural   KRb2Tl(BrCl)2
_chemical_formula_sum   'K1 Rb2 Tl1 Br2 Cl2'
_cell_volume   338.26003770
_cell_formula_units_Z   1
loop_
 _symmetry_equiv_pos_site_id
 _symmetry_equiv_pos_as_xyz
  1  'x, y, z'
loop_
 _atom_site_type_symbol
 _atom_site_label
 _atom_site_symmetry_multiplicity
 _atom_site_fract_x
 _atom_site_fract_y
 _atom_site_fract_z
 _atom_site_occupancy
  K  K0  1  0.75000001  0.83145198  0.16854798  1
  Rb  Rb1  1  0.75000001  0.33709599  0.16854799  1
  Rb  Rb2  1  0.75000001  0.83145198  0.66290399  1
  Tl  Tl3  1  0.25000000  0.16854800  0.83145201  1
  Cl  Cl4  1  0.25000000  0.66290399  0.83145199  1
  Br  Br5  1  0.25000000  0.16854800  0.33709600  1
  Cl  Cl6  1  0.25000000  0.66666665  0.33333332  1
  Br  Br7  1  0.75000001  0.33333333  0.66666667  1
