# generated using pymatgen
data_BaNa3ZnCu2SeO11
_symmetry_space_group_name_H-M   'P 1'
_cell_length_a   4.28029394
_cell_length_b   4.28029394
_cell_length_c   16.71623993
_cell_angle_alpha   90.00000000
_cell_angle_beta   90.00000000
_cell_angle_gamma   90.00000000
_symmetry_Int_Tables_number   1
_chemical_formula_structural   BaNa3ZnCu2SeO11
_chemical_formula_sum   'Ba1 Na3 Zn1 Cu2 Se1 O11'
_cell_volume   306.25683135
_cell_formula_units_Z   1
loop_
 _symmetry_equiv_pos_site_id
 _symmetry_equiv_pos_as_xyz
  1  'x, y, z'
loop_
 _atom_site_type_symbol
 _atom_site_label
 _atom_site_symmetry_multiplicity
 _atom_site_fract_x
 _atom_site_fract_y
 _atom_site_fract_z
 _atom_site_occupancy
  Na  Na0  1  0.00000000  0.00000000  0.87988500  1
  Ba  Ba1  1  0.00000000  0.00000000  0.12011500  1
  Na  Na2  1  0.00000000  0.00000000  0.37391900  1
  Na  Na3  1  0.00000000  0.00000000  0.62608100  1
  Cu  Cu4  1  0.50000001  0.50000001  0.23925800  1
  Zn  Zn5  1  0.50000001  0.50000001  0.50000000  1
  Cu  Cu6  1  0.50000001  0.50000001  0.76074200  1
  O  O7  1  0.50000001  0.50000001  0.88509200  1
  O  O8  1  0.50000001  0.50000001  0.11490800  1
  Se  Se9  1  0.50000001  0.50000001  0.37094700  1
  O  O10  1  0.50000001  0.50000001  0.62905300  1
  O  O11  1  0.50000001  0.00000000  0.00000000  1
  O  O12  1  0.50000001  0.00000000  0.24660100  1
  O  O13  1  0.50000001  0.00000000  0.50000000  1
  O  O14  1  0.50000001  0.00000000  0.75339900  1
  O  O15  1  0.00000000  0.50000001  0.00000000  1
  O  O16  1  0.00000000  0.50000001  0.24660100  1
  O  O17  1  0.00000000  0.50000001  0.50000000  1
  O  O18  1  0.00000000  0.50000001  0.75339900  1
