# generated using pymatgen
data_La2ErHf(SiRh3)2
_symmetry_space_group_name_H-M   'P 1'
_cell_length_a   4.43461180
_cell_length_b   7.05262184
_cell_length_c   7.25242186
_cell_angle_alpha   90.00000000
_cell_angle_beta   90.00000000
_cell_angle_gamma   90.00000000
_symmetry_Int_Tables_number   1
_chemical_formula_structural   La2ErHf(SiRh3)2
_chemical_formula_sum   'La2 Er1 Hf1 Si2 Rh6'
_cell_volume   226.82413524
_cell_formula_units_Z   1
loop_
 _symmetry_equiv_pos_site_id
 _symmetry_equiv_pos_as_xyz
  1  'x, y, z'
loop_
 _atom_site_type_symbol
 _atom_site_label
 _atom_site_symmetry_multiplicity
 _atom_site_fract_x
 _atom_site_fract_y
 _atom_site_fract_z
 _atom_site_occupancy
  Er  Er0  1  0.25000001  0.98556302  0.80825202  1
  Hf  Hf1  1  0.75000003  0.01443700  0.19174800  1
  La  La2  1  0.25000001  0.48556301  0.69174801  1
  La  La3  1  0.75000003  0.51443701  0.30825201  1
  Si  Si4  1  0.25000001  0.29747001  0.10626000  1
  Si  Si5  1  0.75000003  0.70253002  0.89374002  1
  Rh  Rh6  1  0.25000001  0.79747002  0.39374001  1
  Rh  Rh7  1  0.75000003  0.20253000  0.60626001  1
  Rh  Rh8  1  0.75000003  0.84501402  0.56412501  1
  Rh  Rh9  1  0.25000001  0.15498600  0.43587501  1
  Rh  Rh10  1  0.75000003  0.34501401  0.93587502  1
  Rh  Rh11  1  0.25000001  0.65498601  0.06412500  1
