# generated using pymatgen
data_LaEuSnPd2Au
_symmetry_space_group_name_H-M   'P 1'
_cell_length_a   5.97228336
_cell_length_b   5.97228336
_cell_length_c   5.97228336
_cell_angle_alpha   60.00000000
_cell_angle_beta   60.00000000
_cell_angle_gamma   60.00000000
_symmetry_Int_Tables_number   1
_chemical_formula_structural   LaEuSnPd2Au
_chemical_formula_sum   'La1 Eu1 Sn1 Pd2 Au1'
_cell_volume   150.62817628
_cell_formula_units_Z   1
loop_
 _symmetry_equiv_pos_site_id
 _symmetry_equiv_pos_as_xyz
  1  'x, y, z'
loop_
 _atom_site_type_symbol
 _atom_site_label
 _atom_site_symmetry_multiplicity
 _atom_site_fract_x
 _atom_site_fract_y
 _atom_site_fract_z
 _atom_site_occupancy
  Eu  Eu0  1  0.25000000  0.25000000  0.25000000  1
  La  La1  1  0.49999999  0.49999999  0.49999999  1
  Sn  Sn2  1  0.87499999  0.87499999  0.87499999  1
  Pd  Pd3  1  0.37499999  0.87499999  0.87499999  1
  Pd  Pd4  1  0.87499999  0.87499999  0.37499999  1
  Au  Au5  1  0.87499999  0.37499999  0.87499999  1
