# generated using pymatgen
data_La2Y6In2SiSn4GeAu2
_symmetry_space_group_name_H-M   'P 1'
_cell_length_a   5.99549103
_cell_length_b   8.83854771
_cell_length_c   8.83854771
_cell_angle_alpha   120.00000000
_cell_angle_beta   90.00000000
_cell_angle_gamma   90.00000000
_symmetry_Int_Tables_number   1
_chemical_formula_structural   La2Y6In2SiSn4GeAu2
_chemical_formula_sum   'La2 Y6 In2 Si1 Sn4 Ge1 Au2'
_cell_volume   405.61799119
_cell_formula_units_Z   1
loop_
 _symmetry_equiv_pos_site_id
 _symmetry_equiv_pos_as_xyz
  1  'x, y, z'
loop_
 _atom_site_type_symbol
 _atom_site_label
 _atom_site_symmetry_multiplicity
 _atom_site_fract_x
 _atom_site_fract_y
 _atom_site_fract_z
 _atom_site_occupancy
  Y  Y0  1  1.00000000  0.33333334  0.66666668  1
  La  La1  1  -0.00000000  0.66666669  0.33333334  1
  La  La2  1  0.50000000  0.66666669  0.33333334  1
  Y  Y3  1  0.50000000  0.33333334  0.66666668  1
  Y  Y4  1  0.25000000  0.26226801  -0.00000000  1
  Y  Y5  1  0.25000000  0.73773202  0.73773201  1
  Y  Y6  1  0.25000000  1.00000003  0.26226800  1
  Y  Y7  1  0.75000000  0.73773202  1.00000002  1
  In  In8  1  0.75000000  0.26226801  0.26226800  1
  In  In9  1  0.75000000  1.00000003  0.73773201  1
  Ge  Ge10  1  0.00000000  0.00000000  0.00000000  1
  Si  Si11  1  0.50000000  0.00000000  -0.00000000  1
  Au  Au12  1  0.25000000  0.61256402  -0.00000000  1
  Sn  Sn13  1  0.25000000  0.38743601  0.38743601  1
  Sn  Sn14  1  0.25000000  1.00000003  0.61256401  1
  Au  Au15  1  0.75000000  0.38743601  1.00000002  1
  Sn  Sn16  1  0.75000000  0.61256402  0.61256401  1
  Sn  Sn17  1  0.75000000  1.00000003  0.38743600  1
