# generated using pymatgen
data_K2CoNiP3H
_symmetry_space_group_name_H-M   'P 1'
_cell_length_a   5.97059059
_cell_length_b   5.97059059
_cell_length_c   5.97059059
_cell_angle_alpha   60.00000000
_cell_angle_beta   60.00000000
_cell_angle_gamma   60.00000000
_symmetry_Int_Tables_number   1
_chemical_formula_structural   K2CoNiP3H
_chemical_formula_sum   'K2 Co1 Ni1 P3 H1'
_cell_volume   150.50013134
_cell_formula_units_Z   1
loop_
 _symmetry_equiv_pos_site_id
 _symmetry_equiv_pos_as_xyz
  1  'x, y, z'
loop_
 _atom_site_type_symbol
 _atom_site_label
 _atom_site_symmetry_multiplicity
 _atom_site_fract_x
 _atom_site_fract_y
 _atom_site_fract_z
 _atom_site_occupancy
  K  K0  1  0.00000000  0.00000000  0.00000000  1
  K  K1  1  0.74999998  0.74999998  0.74999998  1
  Co  Co2  1  0.24999999  0.24999999  0.24999999  1
  Ni  Ni3  1  0.49999999  0.49999999  0.49999999  1
  H  H4  1  0.87499998  0.37499999  0.37499999  1
  P  P5  1  0.37499999  0.37499999  0.87499998  1
  P  P6  1  0.37499999  0.37499999  0.37499999  1
  P  P7  1  0.37499999  0.87499998  0.37499999  1
