# generated using pymatgen
data_MnGa3Pd8
_symmetry_space_group_name_H-M   'P 1'
_cell_length_a   4.14981699
_cell_length_b   5.47840881
_cell_length_c   8.17773819
_cell_angle_alpha   90.00000000
_cell_angle_beta   90.00000000
_cell_angle_gamma   90.00000000
_symmetry_Int_Tables_number   1
_chemical_formula_structural   MnGa3Pd8
_chemical_formula_sum   'Mn1 Ga3 Pd8'
_cell_volume   185.91592180
_cell_formula_units_Z   1
loop_
 _symmetry_equiv_pos_site_id
 _symmetry_equiv_pos_as_xyz
  1  'x, y, z'
loop_
 _atom_site_type_symbol
 _atom_site_label
 _atom_site_symmetry_multiplicity
 _atom_site_fract_x
 _atom_site_fract_y
 _atom_site_fract_z
 _atom_site_occupancy
  Mn  Mn0  1  0.25000000  0.32771101  0.89485898  1
  Ga  Ga1  1  0.25000000  0.82771103  0.60514099  1
  Ga  Ga2  1  0.75000000  0.67228902  0.10514100  1
  Ga  Ga3  1  0.75000000  0.17228901  0.39485899  1
  Pd  Pd4  1  0.25000000  0.34508501  0.56896999  1
  Pd  Pd5  1  0.25000000  0.84508503  0.93102998  1
  Pd  Pd6  1  0.75000000  0.65491502  0.43102999  1
  Pd  Pd7  1  0.75000000  0.15491501  0.06897000  1
  Pd  Pd8  1  0.25000000  0.42838501  0.22380299  1
  Pd  Pd9  1  0.25000000  0.92838503  0.27619699  1
  Pd  Pd10  1  0.75000000  0.57161502  0.77619698  1
  Pd  Pd11  1  0.75000000  0.07161500  0.72380298  1
