# generated using pymatgen
data_La2In3Sn3Au4
_symmetry_space_group_name_H-M   'P 1'
_cell_length_a   4.41139984
_cell_length_b   7.32808495
_cell_length_c   8.52922535
_cell_angle_alpha   90.00000000
_cell_angle_beta   90.00000000
_cell_angle_gamma   90.00000000
_symmetry_Int_Tables_number   1
_chemical_formula_structural   La2In3Sn3Au4
_chemical_formula_sum   'La2 In3 Sn3 Au4'
_cell_volume   275.72522968
_cell_formula_units_Z   1
loop_
 _symmetry_equiv_pos_site_id
 _symmetry_equiv_pos_as_xyz
  1  'x, y, z'
loop_
 _atom_site_type_symbol
 _atom_site_label
 _atom_site_symmetry_multiplicity
 _atom_site_fract_x
 _atom_site_fract_y
 _atom_site_fract_z
 _atom_site_occupancy
  La  La0  1  0.25000001  0.02974600  0.32227699  1
  La  La1  1  0.25000001  0.52974600  0.17772299  1
  In  In2  1  0.75000003  0.97025401  0.67772297  1
  In  In3  1  0.75000003  0.47025400  0.82227697  1
  In  In4  1  0.75000003  0.35053300  0.43463198  1
  Sn  Sn5  1  0.25000001  0.14946700  0.93463196  1
  Sn  Sn6  1  0.75000003  0.85053301  0.06536800  1
  Sn  Sn7  1  0.25000001  0.64946700  0.56536798  1
  Au  Au8  1  0.75000003  0.23241200  0.12384399  1
  Au  Au9  1  0.75000003  0.73241201  0.37615598  1
  Au  Au10  1  0.25000001  0.76758801  0.87615596  1
  Au  Au11  1  0.25000001  0.26758800  0.62384397  1
