# generated using pymatgen
data_Na2SrLi(CuO3)4
_symmetry_space_group_name_H-M   'P 1'
_cell_length_a   5.38091516
_cell_length_b   5.98659897
_cell_length_c   7.85229301
_cell_angle_alpha   90.00000000
_cell_angle_beta   90.00000000
_cell_angle_gamma   90.00000000
_symmetry_Int_Tables_number   1
_chemical_formula_structural   Na2SrLi(CuO3)4
_chemical_formula_sum   'Na2 Sr1 Li1 Cu4 O12'
_cell_volume   252.94890798
_cell_formula_units_Z   1
loop_
 _symmetry_equiv_pos_site_id
 _symmetry_equiv_pos_as_xyz
  1  'x, y, z'
loop_
 _atom_site_type_symbol
 _atom_site_label
 _atom_site_symmetry_multiplicity
 _atom_site_fract_x
 _atom_site_fract_y
 _atom_site_fract_z
 _atom_site_occupancy
  Na  Na0  1  0.02685100  0.92463700  0.75000000  1
  Sr  Sr1  1  0.52685098  0.57536300  0.25000000  1
  Li  Li2  1  0.47314899  0.42463700  0.75000000  1
  Na  Na3  1  0.97314897  0.07536300  0.25000000  1
  Cu  Cu4  1  0.49999998  0.00000000  0.50000000  1
  Cu  Cu5  1  0.00000000  0.50000000  0.50000000  1
  Cu  Cu6  1  0.00000000  0.50000000  0.00000000  1
  Cu  Cu7  1  0.49999998  0.00000000  0.00000000  1
  O  O8  1  0.89444197  0.53653400  0.75000000  1
  O  O9  1  0.39444199  0.96346601  0.25000000  1
  O  O10  1  0.60555798  0.03653400  0.75000000  1
  O  O11  1  0.10555800  0.46346600  0.25000000  1
  O  O12  1  0.68431898  0.30258400  0.44900600  1
  O  O13  1  0.18431899  0.19741600  0.55099400  1
  O  O14  1  0.81568097  0.80258400  0.05099400  1
  O  O15  1  0.31568099  0.69741600  0.94900600  1
  O  O16  1  0.68431898  0.30258400  0.05099400  1
  O  O17  1  0.18431899  0.19741600  0.94900600  1
  O  O18  1  0.81568097  0.80258400  0.44900600  1
  O  O19  1  0.31568099  0.69741600  0.55099400  1
