# generated using pymatgen
data_YGa2CuGe2
_symmetry_space_group_name_H-M   'P 1'
_cell_length_a   4.22182989
_cell_length_b   5.43465185
_cell_length_c   5.43465137
_cell_angle_alpha   120.00000000
_cell_angle_beta   90.00000000
_cell_angle_gamma   90.00000000
_symmetry_Int_Tables_number   1
_chemical_formula_structural   YGa2CuGe2
_chemical_formula_sum   'Y1 Ga2 Cu1 Ge2'
_cell_volume   107.98782153
_cell_formula_units_Z   1
loop_
 _symmetry_equiv_pos_site_id
 _symmetry_equiv_pos_as_xyz
  1  'x, y, z'
loop_
 _atom_site_type_symbol
 _atom_site_label
 _atom_site_symmetry_multiplicity
 _atom_site_fract_x
 _atom_site_fract_y
 _atom_site_fract_z
 _atom_site_occupancy
  Y  Y0  1  0.00000000  0.00000000  0.00000000  1
  Ga  Ga1  1  0.50000001  0.50000000  0.49999997  1
  Ga  Ga2  1  0.50000001  0.50000000  -0.00000004  1
  Cu  Cu3  1  0.50000001  0.00000000  0.50000000  1
  Ge  Ge4  1  1.00000003  0.33333333  0.66666665  1
  Ge  Ge5  1  -0.00000000  0.66666666  0.33333329  1
