# generated using pymatgen
data_Li2NiPO
_symmetry_space_group_name_H-M   'P 1'
_cell_length_a   3.74182200
_cell_length_b   5.53320742
_cell_length_c   6.74286699
_cell_angle_alpha   90.00000000
_cell_angle_beta   90.00000000
_cell_angle_gamma   109.76262665
_symmetry_Int_Tables_number   1
_chemical_formula_structural   Li2NiPO
_chemical_formula_sum   'Li4 Ni2 P2 O2'
_cell_volume   131.38359601
_cell_formula_units_Z   2
loop_
 _symmetry_equiv_pos_site_id
 _symmetry_equiv_pos_as_xyz
  1  'x, y, z'
loop_
 _atom_site_type_symbol
 _atom_site_label
 _atom_site_symmetry_multiplicity
 _atom_site_fract_x
 _atom_site_fract_y
 _atom_site_fract_z
 _atom_site_occupancy
  Li  Li0  1  0.45163798  0.90327601  0.75000000  1
  Li  Li1  1  0.54836200  0.09672400  0.25000000  1
  Li  Li2  1  0.16582299  0.33164600  0.93766700  1
  Li  Li3  1  0.83417699  0.66835401  0.06233300  1
  Ni  Ni4  1  0.83417699  0.66835401  0.43766700  1
  Ni  Ni5  1  0.16582299  0.33164600  0.56233300  1
  O  O6  1  0.73165099  0.46330201  0.75000000  1
  O  O7  1  0.26834899  0.53669801  0.25000000  1
  P  P8  1  0.00000000  0.00000000  0.00000000  1
  P  P9  1  0.00000000  0.00000000  0.50000000  1
