# generated using pymatgen
data_Na3Li3(CuO6)2
_symmetry_space_group_name_H-M   'P 1'
_cell_length_a   5.50763607
_cell_length_b   5.51722860
_cell_length_c   7.73306322
_cell_angle_alpha   90.00000000
_cell_angle_beta   90.00000000
_cell_angle_gamma   89.61956024
_symmetry_Int_Tables_number   1
_chemical_formula_structural   Na3Li3(CuO6)2
_chemical_formula_sum   'Na3 Li3 Cu2 O12'
_cell_volume   234.97854026
_cell_formula_units_Z   1
loop_
 _symmetry_equiv_pos_site_id
 _symmetry_equiv_pos_as_xyz
  1  'x, y, z'
loop_
 _atom_site_type_symbol
 _atom_site_label
 _atom_site_symmetry_multiplicity
 _atom_site_fract_x
 _atom_site_fract_y
 _atom_site_fract_z
 _atom_site_occupancy
  Na  Na0  1  0.49519602  0.47878300  0.99999997  1
  Na  Na1  1  0.00924305  0.96357600  -0.00000000  1
  Li  Li2  1  0.50797902  0.53536500  0.49999999  1
  Na  Na3  1  0.99758299  0.03105800  0.49999999  1
  Li  Li4  1  0.00155503  0.49790800  0.24482399  1
  Li  Li5  1  0.50006699  0.00388100  0.75569198  1
  Cu  Cu6  1  0.00155503  0.49790800  0.75517598  1
  Cu  Cu7  1  0.50006699  0.00388100  0.24430799  1
  O  O8  1  0.20641001  0.20741200  0.22322199  1
  O  O9  1  0.27468703  0.72381500  0.78309498  1
  O  O10  1  0.77914803  0.77943600  0.71018498  1
  O  O11  1  0.72770300  0.27491200  0.29805399  1
  O  O12  1  0.77914803  0.77943600  0.28981499  1
  O  O13  1  0.72770300  0.27491200  0.70194598  1
  O  O14  1  0.20641001  0.20741200  0.77677798  1
  O  O15  1  0.27468703  0.72381500  0.21690499  1
  O  O16  1  0.57439599  0.01920100  -0.00000000  1
  O  O17  1  0.92845701  0.51565500  -0.00000000  1
  O  O18  1  0.43547304  0.98784000  0.49999999  1
  O  O19  1  0.07253302  0.49379400  0.49999999  1
