# generated using pymatgen
data_Li2EuGaCu5Ge2
_symmetry_space_group_name_H-M   'P 1'
_cell_length_a   4.13370991
_cell_length_b   6.76643801
_cell_length_c   7.77621222
_cell_angle_alpha   115.78993225
_cell_angle_beta   105.41401672
_cell_angle_gamma   90.00000000
_symmetry_Int_Tables_number   1
_chemical_formula_structural   Li2EuGaCu5Ge2
_chemical_formula_sum   'Li2 Eu1 Ga1 Cu5 Ge2'
_cell_volume   187.11279880
_cell_formula_units_Z   1
loop_
 _symmetry_equiv_pos_site_id
 _symmetry_equiv_pos_as_xyz
  1  'x, y, z'
loop_
 _atom_site_type_symbol
 _atom_site_label
 _atom_site_symmetry_multiplicity
 _atom_site_fract_x
 _atom_site_fract_y
 _atom_site_fract_z
 _atom_site_occupancy
  Li  Li0  1  -0.00000001  0.50000001  0.00000001  1
  Eu  Eu1  1  0.12685300  0.12685300  0.25370600  1
  Li  Li2  1  0.87314700  0.87314701  0.74629401  1
  Ga  Ga3  1  0.32373900  0.50539601  0.64747801  1
  Cu  Cu4  1  0.32373900  0.14208200  0.64747800  1
  Cu  Cu5  1  0.67626100  0.85791801  0.35252201  1
  Ge  Ge6  1  0.67626100  0.49460401  0.35252200  1
  Cu  Cu7  1  0.22206399  0.72206401  0.44412802  1
  Cu  Cu8  1  0.77793601  0.27793600  0.55587200  1
  Cu  Cu9  1  0.50000000  0.19702100  -0.00000001  1
  Ge  Ge10  1  0.49999999  0.80297901  0.00000001  1
