# generated using pymatgen
data_NaLiFeBP8
_symmetry_space_group_name_H-M   'P 1'
_cell_length_a   5.21493196
_cell_length_b   5.21493196
_cell_length_c   6.40950584
_cell_angle_alpha   90.00000000
_cell_angle_beta   90.00000000
_cell_angle_gamma   90.00000000
_symmetry_Int_Tables_number   1
_chemical_formula_structural   NaLiFeBP8
_chemical_formula_sum   'Na1 Li1 Fe1 B1 P8'
_cell_volume   174.30981488
_cell_formula_units_Z   1
loop_
 _symmetry_equiv_pos_site_id
 _symmetry_equiv_pos_as_xyz
  1  'x, y, z'
loop_
 _atom_site_type_symbol
 _atom_site_label
 _atom_site_symmetry_multiplicity
 _atom_site_fract_x
 _atom_site_fract_y
 _atom_site_fract_z
 _atom_site_occupancy
  Na  Na0  1  0.50000000  0.00000000  0.50000001  1
  Li  Li1  1  -0.00000000  0.50000000  0.50000001  1
  Fe  Fe2  1  0.50000000  0.50000000  0.00000000  1
  B  B3  1  0.00000000  0.00000000  0.00000000  1
  P  P4  1  0.50000000  0.50000000  0.27850301  1
  P  P5  1  0.00000000  0.00000000  0.72149702  1
  P  P6  1  0.50000000  0.50000000  0.72149702  1
  P  P7  1  0.00000000  0.00000000  0.27850301  1
  P  P8  1  0.21517000  0.71517000  0.00000000  1
  P  P9  1  0.28483000  0.21517000  0.00000000  1
  P  P10  1  0.71517000  0.78483001  -0.00000000  1
  P  P11  1  0.78483001  0.28483000  -0.00000000  1
