# generated using pymatgen
data_Sc2MnAlGa4GePd
_symmetry_space_group_name_H-M   'P 1'
_cell_length_a   3.67119503
_cell_length_b   7.03075695
_cell_length_c   7.03075695
_cell_angle_alpha   90.00000000
_cell_angle_beta   90.00000000
_cell_angle_gamma   90.00000000
_symmetry_Int_Tables_number   1
_chemical_formula_structural   Sc2MnAlGa4GePd
_chemical_formula_sum   'Sc2 Mn1 Al1 Ga4 Ge1 Pd1'
_cell_volume   181.47283608
_cell_formula_units_Z   1
loop_
 _symmetry_equiv_pos_site_id
 _symmetry_equiv_pos_as_xyz
  1  'x, y, z'
loop_
 _atom_site_type_symbol
 _atom_site_label
 _atom_site_symmetry_multiplicity
 _atom_site_fract_x
 _atom_site_fract_y
 _atom_site_fract_z
 _atom_site_occupancy
  Mn  Mn0  1  0.50000000  0.82677701  0.67322300  1
  Sc  Sc1  1  0.50000000  0.32677700  0.82677701  1
  Sc  Sc2  1  0.50000000  0.17322300  0.32677700  1
  Al  Al3  1  0.50000000  0.67322300  0.17322300  1
  Ga  Ga4  1  0.00000000  0.50000000  0.50000000  1
  Ga  Ga5  1  0.00000000  0.00000000  0.00000000  1
  Ga  Ga6  1  0.99999999  0.12394900  0.62394900  1
  Ga  Ga7  1  0.00000000  0.62394900  0.87605101  1
  Ge  Ge8  1  0.00000000  0.37605100  0.12394900  1
  Pd  Pd9  1  0.00000000  0.87605101  0.37605100  1
