# generated using pymatgen
data_LaTl6
_symmetry_space_group_name_H-M   'P 1'
_cell_length_a   8.80269718
_cell_length_b   8.80269718
_cell_length_c   12.19365597
_cell_angle_alpha   69.74593353
_cell_angle_beta   69.74593353
_cell_angle_gamma   70.85779572
_symmetry_Int_Tables_number   1
_chemical_formula_structural   LaTl6
_chemical_formula_sum   'La2 Tl12'
_cell_volume   808.04920176
_cell_formula_units_Z   2
loop_
 _symmetry_equiv_pos_site_id
 _symmetry_equiv_pos_as_xyz
  1  'x, y, z'
loop_
 _atom_site_type_symbol
 _atom_site_label
 _atom_site_symmetry_multiplicity
 _atom_site_fract_x
 _atom_site_fract_y
 _atom_site_fract_z
 _atom_site_occupancy
  Tl  Tl0  1  0.45094893  0.54905098  0.75000004  1
  La  La1  1  0.54905094  0.45094898  0.25000004  1
  Tl  Tl2  1  0.00000000  0.00000000  0.50000000  1
  Tl  Tl3  1  0.00000000  0.00000000  0.00000000  1
  Tl  Tl4  1  0.21719797  0.25922499  0.87642202  1
  Tl  Tl5  1  0.67924194  0.29534199  0.96899603  1
  La  La6  1  0.25922497  0.21719799  0.37642202  1
  Tl  Tl7  1  0.09683993  0.90315996  0.75000005  1
  Tl  Tl8  1  0.70465794  0.32075799  0.53100404  1
  Tl  Tl9  1  0.29534193  0.67924197  0.46899604  1
  Tl  Tl10  1  0.90315994  0.09684000  0.25000004  1
  Tl  Tl11  1  0.74077490  0.78280197  0.62357807  1
  Tl  Tl12  1  0.32075793  0.70465797  0.03100405  1
  Tl  Tl13  1  0.78280190  0.74077497  0.12357807  1
