# generated using pymatgen
data_Na2CaYBiWO12
_symmetry_space_group_name_H-M   'P 1'
_cell_length_a   5.06191206
_cell_length_b   5.06191158
_cell_length_c   11.10818100
_cell_angle_alpha   89.96842957
_cell_angle_beta   89.96843719
_cell_angle_gamma   119.84117889
_symmetry_Int_Tables_number   1
_chemical_formula_structural   Na2CaYBiWO12
_chemical_formula_sum   'Na2 Ca1 Y1 Bi1 W1 O12'
_cell_volume   246.88532997
_cell_formula_units_Z   1
loop_
 _symmetry_equiv_pos_site_id
 _symmetry_equiv_pos_as_xyz
  1  'x, y, z'
loop_
 _atom_site_type_symbol
 _atom_site_label
 _atom_site_symmetry_multiplicity
 _atom_site_fract_x
 _atom_site_fract_y
 _atom_site_fract_z
 _atom_site_occupancy
  Y  Y0  1  0.99997607  0.99997600  0.99986200  1
  Na  Na1  1  0.00011600  0.00011600  0.67141298  1
  Na  Na2  1  0.99990807  0.99990800  0.32850501  1
  Ca  Ca3  1  0.49992803  0.49992800  0.50009300  1
  Bi  Bi4  1  0.50008100  0.00002700  0.50014799  1
  W  W5  1  0.00002703  0.50008100  0.50014800  1
  O  O6  1  0.66741502  0.33291400  0.68345099  1
  O  O7  1  0.33291404  0.66741500  0.68345100  1
  O  O8  1  0.33274404  0.66696000  0.31628800  1
  O  O9  1  0.66696002  0.33274400  0.31628800  1
  O  O10  1  0.49972803  0.49972800  0.86809599  1
  O  O11  1  0.49964907  0.99953700  0.86792400  1
  O  O12  1  0.99953703  0.49964900  0.86792399  1
  O  O13  1  0.50025903  0.50025900  0.13215401  1
  O  O14  1  0.50036400  0.00047100  0.13236900  1
  O  O15  1  0.00047103  0.50036400  0.13236900  1
  O  O16  1  0.66596902  0.33405400  0.99975998  1
  O  O17  1  0.33405404  0.66596900  0.99975999  1
