# generated using pymatgen
data_HfZrTiMnAl2(GaSi2)2
_symmetry_space_group_name_H-M   'P 1'
_cell_length_a   4.97278786
_cell_length_b   6.15884686
_cell_length_c   6.15884686
_cell_angle_alpha   90.00000000
_cell_angle_beta   90.00000000
_cell_angle_gamma   90.00000000
_symmetry_Int_Tables_number   1
_chemical_formula_structural   HfZrTiMnAl2(GaSi2)2
_chemical_formula_sum   'Hf1 Zr1 Ti1 Mn1 Al2 Ga2 Si4'
_cell_volume   188.62477840
_cell_formula_units_Z   1
loop_
 _symmetry_equiv_pos_site_id
 _symmetry_equiv_pos_as_xyz
  1  'x, y, z'
loop_
 _atom_site_type_symbol
 _atom_site_label
 _atom_site_symmetry_multiplicity
 _atom_site_fract_x
 _atom_site_fract_y
 _atom_site_fract_z
 _atom_site_occupancy
  Mn  Mn0  1  0.50000001  0.66221302  0.16260300  1
  Hf  Hf1  1  0.50000001  0.33778701  0.83739702  1
  Zr  Zr2  1  0.50000001  0.83739702  0.66221302  1
  Al  Al3  1  0.50000001  0.16260300  0.33778701  1
  Ti  Ti4  1  -0.00000000  0.33778701  0.16260300  1
  Al  Al5  1  -0.00000000  0.66221302  0.83739702  1
  Ga  Ga6  1  -0.00000000  0.16260300  0.66221302  1
  Ga  Ga7  1  0.00000000  0.83739702  0.33778701  1
  Si  Si8  1  0.25000001  0.00000000  0.00000000  1
  Si  Si9  1  0.75000002  0.00000000  0.00000000  1
  Si  Si10  1  0.25000001  0.50000001  0.50000001  1
  Si  Si11  1  0.75000002  0.50000001  0.50000001  1
