# generated using pymatgen
data_CaY3AlCo2(SiNi)4
_symmetry_space_group_name_H-M   'P 1'
_cell_length_a   4.14132690
_cell_length_b   4.17853785
_cell_length_c   16.65369225
_cell_angle_alpha   90.00000000
_cell_angle_beta   90.00000000
_cell_angle_gamma   90.00000000
_symmetry_Int_Tables_number   1
_chemical_formula_structural   CaY3AlCo2(SiNi)4
_chemical_formula_sum   'Ca1 Y3 Al1 Co2 Si4 Ni4'
_cell_volume   288.18700166
_cell_formula_units_Z   1
loop_
 _symmetry_equiv_pos_site_id
 _symmetry_equiv_pos_as_xyz
  1  'x, y, z'
loop_
 _atom_site_type_symbol
 _atom_site_label
 _atom_site_symmetry_multiplicity
 _atom_site_fract_x
 _atom_site_fract_y
 _atom_site_fract_z
 _atom_site_occupancy
  Y  Y0  1  0.25000001  0.00000000  0.10326000  1
  Ca  Ca1  1  0.25000001  0.50000002  0.60506999  1
  Y  Y2  1  0.75000002  0.50000002  0.39200199  1
  Y  Y3  1  0.75000002  0.00000000  0.89381499  1
  Co  Co4  1  0.25000001  0.50000002  0.81874199  1
  Co  Co5  1  0.75000002  0.50000002  0.18524600  1
  Al  Al6  1  0.75000002  0.00000000  0.68164899  1
  Ni  Ni7  1  0.25000001  0.00000000  0.44904899  1
  Si  Si8  1  0.25000001  0.50000002  0.95742699  1
  Si  Si9  1  0.75000002  0.50000002  0.04524200  1
  Ni  Ni10  1  0.75000002  0.00000000  0.54224399  1
  Si  Si11  1  0.25000001  0.50000002  0.25566800  1
  Ni  Ni12  1  0.25000001  0.00000000  0.74882099  1
  Si  Si13  1  0.75000002  0.00000000  0.25428300  1
  Ni  Ni14  1  0.75000002  0.50000002  0.75048299  1
