# generated using pymatgen
data_Cs2BrCl8O
_symmetry_space_group_name_H-M   'P 1'
_cell_length_a   7.40487766
_cell_length_b   8.02937317
_cell_length_c   10.84698105
_cell_angle_alpha   109.59693146
_cell_angle_beta   90.81410980
_cell_angle_gamma   116.23281860
_symmetry_Int_Tables_number   1
_chemical_formula_structural   Cs2BrCl8O
_chemical_formula_sum   'Cs2 Br1 Cl8 O1'
_cell_volume   534.82418749
_cell_formula_units_Z   1
loop_
 _symmetry_equiv_pos_site_id
 _symmetry_equiv_pos_as_xyz
  1  'x, y, z'
loop_
 _atom_site_type_symbol
 _atom_site_label
 _atom_site_symmetry_multiplicity
 _atom_site_fract_x
 _atom_site_fract_y
 _atom_site_fract_z
 _atom_site_occupancy
  Cs  Cs0  1  0.10088900  0.20668400  0.21083901  1
  Cs  Cs1  1  0.89911098  0.79331599  0.78916105  1
  O  O2  1  0.93637499  0.18552700  0.42228102  1
  Cl  Cl3  1  0.06362499  0.81447299  0.57771904  1
  Cl  Cl4  1  0.23334600  0.17659700  0.95900202  1
  Cl  Cl5  1  0.76665398  0.82340299  0.04099804  1
  Br  Br6  1  0.10525999  0.62089499  0.84337103  1
  Cl  Cl7  1  0.89473999  0.37910500  0.15662902  1
  Cl  Cl8  1  0.70324198  0.98400599  0.75156005  1
  Cl  Cl9  1  0.29675800  0.01599400  0.24844001  1
  Cl  Cl10  1  0.57138199  0.44175600  0.66827003  1
  Cl  Cl11  1  0.42861799  0.55824400  0.33173003  1
