# generated using pymatgen
data_Li4MnCoCu2(P2O)2
_symmetry_space_group_name_H-M   'P 1'
_cell_length_a   3.46065307
_cell_length_b   5.93637323
_cell_length_c   12.86735630
_cell_angle_alpha   91.58538818
_cell_angle_beta   90.00000000
_cell_angle_gamma   90.00000000
_symmetry_Int_Tables_number   1
_chemical_formula_structural   Li4MnCoCu2(P2O)2
_chemical_formula_sum   'Li4 Mn1 Co1 Cu2 P4 O2'
_cell_volume   264.24228113
_cell_formula_units_Z   1
loop_
 _symmetry_equiv_pos_site_id
 _symmetry_equiv_pos_as_xyz
  1  'x, y, z'
loop_
 _atom_site_type_symbol
 _atom_site_label
 _atom_site_symmetry_multiplicity
 _atom_site_fract_x
 _atom_site_fract_y
 _atom_site_fract_z
 _atom_site_occupancy
  Li  Li0  1  0.49999999  0.47166598  0.25156001  1
  Mn  Mn1  1  0.00000000  0.98170796  0.75757703  1
  Li  Li2  1  0.00000000  0.02786000  0.24736801  1
  Cu  Cu3  1  0.49999999  0.51565398  0.74288002  1
  Li  Li4  1  0.49999999  0.49521698  0.99442503  1
  Li  Li5  1  0.99999998  0.98999096  0.50615003  1
  Cu  Cu6  1  0.49999999  0.83705597  0.86000203  1
  Co  Co7  1  0.49999999  0.15323899  0.13217601  1
  P  P8  1  0.00000000  0.34254999  0.37115901  1
  P  P9  1  0.99999998  0.65916897  0.64047602  1
  P  P10  1  -0.00000000  0.34097599  0.84710002  1
  O  O11  1  -0.00000000  0.67538497  0.14630701  1
  O  O12  1  0.49999999  0.85309797  0.34857302  1
  P  P13  1  0.49999999  0.15643299  0.65424602  1
