# generated using pymatgen
data_KNaEuB3C3O11
_symmetry_space_group_name_H-M   'P 1'
_cell_length_a   6.52217436
_cell_length_b   6.52217436
_cell_length_c   7.07756281
_cell_angle_alpha   103.08185577
_cell_angle_beta   103.08185577
_cell_angle_gamma   99.05524445
_symmetry_Int_Tables_number   1
_chemical_formula_structural   KNaEuB3C3O11
_chemical_formula_sum   'K1 Na1 Eu1 B3 C3 O11'
_cell_volume   278.65573341
_cell_formula_units_Z   1
loop_
 _symmetry_equiv_pos_site_id
 _symmetry_equiv_pos_as_xyz
  1  'x, y, z'
loop_
 _atom_site_type_symbol
 _atom_site_label
 _atom_site_symmetry_multiplicity
 _atom_site_fract_x
 _atom_site_fract_y
 _atom_site_fract_z
 _atom_site_occupancy
  Na  Na0  1  0.12783095  0.87216900  0.74999995  1
  K  K1  1  0.87216901  0.12783100  0.24999995  1
  Eu  Eu2  1  0.59387999  0.40612000  0.74999996  1
  B  B3  1  0.40611997  0.59388000  0.24999995  1
  B  B4  1  0.39399200  0.14259000  0.25197098  1
  B  B5  1  0.85740998  0.60600800  0.24802893  1
  C  C6  1  0.60600796  0.85741000  0.74802893  1
  C  C7  1  0.14258998  0.39399200  0.75197098  1
  O  O8  1  0.94644199  0.41429200  0.72109394  1
  O  O9  1  0.58570801  0.05355800  0.77890598  1
  O  O10  1  0.05355797  0.58570800  0.27890597  1
  O  O11  1  0.41429195  0.94644200  0.22109392  1
  O  O12  1  0.19902299  0.24527900  0.63430599  1
  O  O13  1  0.75472096  0.80097700  0.86569393  1
  O  O14  1  0.80097697  0.75472100  0.36569392  1
  O  O15  1  0.24527899  0.19902300  0.13430598  1
  O  O16  1  0.29286797  0.53024200  0.90035697  1
  O  O17  1  0.46975796  0.70713200  0.59964294  1
  C  C18  1  0.70713198  0.46975800  0.09964294  1
  O  O19  1  0.53024199  0.29286800  0.40035696  1
