# generated using pymatgen
data_Na3Cu5TeSe2O7
_symmetry_space_group_name_H-M   'P 1'
_cell_length_a   6.98469782
_cell_length_b   6.98469782
_cell_length_c   7.15844011
_cell_angle_alpha   90.00000000
_cell_angle_beta   90.00000000
_cell_angle_gamma   90.00000000
_symmetry_Int_Tables_number   1
_chemical_formula_structural   Na3Cu5TeSe2O7
_chemical_formula_sum   'Na3 Cu5 Te1 Se2 O7'
_cell_volume   349.23168526
_cell_formula_units_Z   1
loop_
 _symmetry_equiv_pos_site_id
 _symmetry_equiv_pos_as_xyz
  1  'x, y, z'
loop_
 _atom_site_type_symbol
 _atom_site_label
 _atom_site_symmetry_multiplicity
 _atom_site_fract_x
 _atom_site_fract_y
 _atom_site_fract_z
 _atom_site_occupancy
  Na  Na0  1  0.00000000  0.00000000  0.00000000  1
  Na  Na1  1  0.50000001  0.50000001  0.00000000  1
  Na  Na2  1  0.25000001  0.75000002  0.49999999  1
  Cu  Cu3  1  0.75000002  0.25000001  0.49999999  1
  Cu  Cu4  1  0.75000002  0.75000002  0.49999999  1
  Te  Te5  1  0.25000001  0.25000001  0.49999999  1
  Cu  Cu6  1  0.00000000  0.50000001  0.77833499  1
  Cu  Cu7  1  0.00000000  0.50000001  0.22166500  1
  O  O8  1  0.50000001  0.00000000  0.22166500  1
  Cu  Cu9  1  0.50000001  0.00000000  0.77833499  1
  O  O10  1  0.29302401  0.79302402  0.78980299  1
  Se  Se11  1  0.20697601  0.70697602  0.21019700  1
  O  O12  1  0.70697602  0.20697601  0.78980299  1
  O  O13  1  0.79302402  0.29302401  0.21019700  1
  O  O14  1  0.20697601  0.29302401  0.78980299  1
  Se  Se15  1  0.70697602  0.79302402  0.21019700  1
  O  O16  1  0.29302401  0.20697601  0.21019700  1
  O  O17  1  0.79302402  0.70697602  0.78980299  1
