# generated using pymatgen
data_YMgCu2
_symmetry_space_group_name_H-M   'P 1'
_cell_length_a   4.96381044
_cell_length_b   4.96376181
_cell_length_c   4.96376991
_cell_angle_alpha   119.99735260
_cell_angle_beta   119.99723053
_cell_angle_gamma   60.00093842
_symmetry_Int_Tables_number   1
_chemical_formula_structural   YMgCu2
_chemical_formula_sum   'Y1 Mg1 Cu2'
_cell_volume   86.48556444
_cell_formula_units_Z   1
loop_
 _symmetry_equiv_pos_site_id
 _symmetry_equiv_pos_as_xyz
  1  'x, y, z'
loop_
 _atom_site_type_symbol
 _atom_site_label
 _atom_site_symmetry_multiplicity
 _atom_site_fract_x
 _atom_site_fract_y
 _atom_site_fract_z
 _atom_site_occupancy
  Y  Y0  1  0.49968298  0.50010199  0.49989699  1
  Mg  Mg1  1  0.00031500  0.99989197  0.00010302  1
  Cu  Cu2  1  0.74999597  0.75000298  0.24999897  1
  Cu  Cu3  1  0.25000299  0.25000399  0.75000002  1
