# generated using pymatgen
data_Li2NiH
_symmetry_space_group_name_H-M   'P 1'
_cell_length_a   3.64580393
_cell_length_b   3.64580417
_cell_length_c   5.04506588
_cell_angle_alpha   90.00000000
_cell_angle_beta   90.00000000
_cell_angle_gamma   120.00000000
_symmetry_Int_Tables_number   1
_chemical_formula_structural   Li2NiH
_chemical_formula_sum   'Li2 Ni1 H1'
_cell_volume   58.07431808
_cell_formula_units_Z   1
loop_
 _symmetry_equiv_pos_site_id
 _symmetry_equiv_pos_as_xyz
  1  'x, y, z'
loop_
 _atom_site_type_symbol
 _atom_site_label
 _atom_site_symmetry_multiplicity
 _atom_site_fract_x
 _atom_site_fract_y
 _atom_site_fract_z
 _atom_site_occupancy
  Li  Li0  1  0.00000000  0.00000000  0.50000001  1
  Li  Li1  1  0.00000000  0.00000000  0.00000000  1
  H  H2  1  0.66666669  0.33333333  0.75000002  1
  Ni  Ni3  1  0.33333335  0.66666666  0.25000001  1
