# generated using pymatgen
data_TiNb2Tl4CuS12
_symmetry_space_group_name_H-M   'P 1'
_cell_length_a   6.35112190
_cell_length_b   6.35112190
_cell_length_c   11.75288868
_cell_angle_alpha   90.00000000
_cell_angle_beta   90.00000000
_cell_angle_gamma   120.00000000
_symmetry_Int_Tables_number   1
_chemical_formula_structural   TiNb2Tl4CuS12
_chemical_formula_sum   'Ti1 Nb2 Tl4 Cu1 S12'
_cell_volume   410.55954325
_cell_formula_units_Z   1
loop_
 _symmetry_equiv_pos_site_id
 _symmetry_equiv_pos_as_xyz
  1  'x, y, z'
loop_
 _atom_site_type_symbol
 _atom_site_label
 _atom_site_symmetry_multiplicity
 _atom_site_fract_x
 _atom_site_fract_y
 _atom_site_fract_z
 _atom_site_occupancy
  Cu  Cu0  1  0.33333334  0.66666668  0.25000001  1
  Ti  Ti1  1  0.66666668  0.33333334  0.75000002  1
  Tl  Tl2  1  0.00000000  0.00000000  0.00000000  1
  Tl  Tl3  1  0.00000000  0.00000000  0.50000001  1
  Tl  Tl4  1  0.33333334  0.66666668  0.98821203  1
  Nb  Nb5  1  0.66666668  0.33333334  0.48821201  1
  Tl  Tl6  1  0.66666668  0.33333334  0.01178800  1
  Nb  Nb7  1  0.33333334  0.66666668  0.51178801  1
  S  S8  1  0.32674501  0.98779802  0.37989301  1
  S  S9  1  0.01220100  0.33894601  0.37989301  1
  S  S10  1  0.66105301  0.67325401  0.37989301  1
  S  S11  1  0.98779901  0.32674601  0.87989302  1
  S  S12  1  0.67325501  0.66105401  0.87989302  1
  S  S13  1  0.33894700  0.01220200  0.87989302  1
  S  S14  1  0.67325501  0.01220200  0.62010702  1
  S  S15  1  0.98779901  0.66105401  0.62010702  1
  S  S16  1  0.33894701  0.32674601  0.62010702  1
  S  S17  1  0.01220100  0.67325401  0.12010700  1
  S  S18  1  0.32674500  0.33894601  0.12010700  1
  S  S19  1  0.66105301  0.98779802  0.12010700  1
