# generated using pymatgen
data_NdEr3Ga3SiGe4
_symmetry_space_group_name_H-M   'P 1'
_cell_length_a   4.36436892
_cell_length_b   6.81179094
_cell_length_c   7.75335503
_cell_angle_alpha   90.00000000
_cell_angle_beta   90.00000000
_cell_angle_gamma   90.00000000
_symmetry_Int_Tables_number   1
_chemical_formula_structural   NdEr3Ga3SiGe4
_chemical_formula_sum   'Nd1 Er3 Ga3 Si1 Ge4'
_cell_volume   230.50079919
_cell_formula_units_Z   1
loop_
 _symmetry_equiv_pos_site_id
 _symmetry_equiv_pos_as_xyz
  1  'x, y, z'
loop_
 _atom_site_type_symbol
 _atom_site_label
 _atom_site_symmetry_multiplicity
 _atom_site_fract_x
 _atom_site_fract_y
 _atom_site_fract_z
 _atom_site_occupancy
  Er  Er0  1  0.25000000  0.98146501  0.30491700  1
  Nd  Nd1  1  0.25000000  0.48146500  0.19508300  1
  Er  Er2  1  0.75000001  0.01853500  0.69508300  1
  Er  Er3  1  0.75000001  0.51853500  0.80491700  1
  Ga  Ga4  1  0.25000000  0.33373100  0.57436300  1
  Ga  Ga5  1  0.25000000  0.83373101  0.92563700  1
  Ga  Ga6  1  0.75000001  0.66626901  0.42563700  1
  Ge  Ge7  1  0.75000001  0.16626900  0.07436300  1
  Ge  Ge8  1  0.25000000  0.22568700  0.89878800  1
  Si  Si9  1  0.25000000  0.72568701  0.60121200  1
  Ge  Ge10  1  0.75000001  0.77431301  0.10121200  1
  Ge  Ge11  1  0.75000001  0.27431300  0.39878800  1
