# generated using pymatgen
data_Na4Cu3O13
_symmetry_space_group_name_H-M   'P 1'
_cell_length_a   5.94192076
_cell_length_b   5.94192028
_cell_length_c   10.39434242
_cell_angle_alpha   73.39183807
_cell_angle_beta   73.39183807
_cell_angle_gamma   59.99999619
_symmetry_Int_Tables_number   1
_chemical_formula_structural   Na4Cu3O13
_chemical_formula_sum   'Na4 Cu3 O13'
_cell_volume   300.01139866
_cell_formula_units_Z   1
loop_
 _symmetry_equiv_pos_site_id
 _symmetry_equiv_pos_as_xyz
  1  'x, y, z'
loop_
 _atom_site_type_symbol
 _atom_site_label
 _atom_site_symmetry_multiplicity
 _atom_site_fract_x
 _atom_site_fract_y
 _atom_site_fract_z
 _atom_site_occupancy
  Na  Na0  1  0.71449904  0.71449898  0.85650292  1
  Na  Na1  1  0.28550101  0.28550099  0.14349698  1
  Na  Na2  1  0.12915301  0.12915300  0.61254097  1
  Na  Na3  1  0.87084704  0.87084698  0.38745893  1
  Cu  Cu4  1  0.00000000  0.00000000  0.00000000  1
  Cu  Cu5  1  0.41312502  0.41312499  0.76062494  1
  O  O6  1  0.50000003  0.49999999  0.49999995  1
  Cu  Cu7  1  0.58687503  0.58687499  0.23937495  1
  O  O8  1  0.21853001  0.21852999  0.87046595  1
  O  O9  1  0.14742402  0.61249498  0.62758595  1
  O  O10  1  0.38750504  0.85257598  0.37241395  1
  O  O11  1  0.61249503  0.61249498  0.62758594  1
  O  O12  1  0.38750502  0.38750499  0.37241396  1
  O  O13  1  0.78147004  0.78146998  0.12953395  1
  O  O14  1  0.21853003  0.69247398  0.87046594  1
  O  O15  1  0.69247402  0.21852999  0.87046593  1
  O  O16  1  0.30752603  0.78146998  0.12953396  1
  O  O17  1  0.85257603  0.38750499  0.37241394  1
  O  O18  1  0.61249502  0.14742400  0.62758595  1
  O  O19  1  0.78147002  0.30752599  0.12953396  1
