# generated using pymatgen
data_YSiGe2
_symmetry_space_group_name_H-M   'P 1'
_cell_length_a   4.28378391
_cell_length_b   4.36208200
_cell_length_c   9.09501362
_cell_angle_alpha   103.87510681
_cell_angle_beta   90.00000000
_cell_angle_gamma   90.00000000
_symmetry_Int_Tables_number   1
_chemical_formula_structural   YSiGe2
_chemical_formula_sum   'Y2 Si2 Ge4'
_cell_volume   164.99234319
_cell_formula_units_Z   2
loop_
 _symmetry_equiv_pos_site_id
 _symmetry_equiv_pos_as_xyz
  1  'x, y, z'
loop_
 _atom_site_type_symbol
 _atom_site_label
 _atom_site_symmetry_multiplicity
 _atom_site_fract_x
 _atom_site_fract_y
 _atom_site_fract_z
 _atom_site_occupancy
  Y  Y0  1  0.75000002  0.40190900  0.80381800  1
  Y  Y1  1  0.25000001  0.59809100  0.19618201  1
  Si  Si2  1  0.75000002  0.03265500  0.06531000  1
  Si  Si3  1  0.25000001  0.96734501  0.93469000  1
  Ge  Ge4  1  0.75000002  0.16551600  0.33103200  1
  Ge  Ge5  1  0.25000001  0.83448401  0.66896800  1
  Ge  Ge6  1  0.75000002  0.74805601  0.49611201  1
  Ge  Ge7  1  0.25000001  0.25194400  0.50388800  1
