# generated using pymatgen
data_K2Tl3
_symmetry_space_group_name_H-M   'P 1'
_cell_length_a   4.86454582
_cell_length_b   8.40490341
_cell_length_c   12.27464199
_cell_angle_alpha   90.00000000
_cell_angle_beta   90.00000000
_cell_angle_gamma   106.82128143
_symmetry_Int_Tables_number   1
_chemical_formula_structural   K2Tl3
_chemical_formula_sum   'K4 Tl6'
_cell_volume   480.38786549
_cell_formula_units_Z   2
loop_
 _symmetry_equiv_pos_site_id
 _symmetry_equiv_pos_as_xyz
  1  'x, y, z'
loop_
 _atom_site_type_symbol
 _atom_site_label
 _atom_site_symmetry_multiplicity
 _atom_site_fract_x
 _atom_site_fract_y
 _atom_site_fract_z
 _atom_site_occupancy
  K  K0  1  0.75142800  0.50285600  0.75000000  1
  K  K1  1  0.24857198  0.49714400  0.25000000  1
  K  K2  1  0.00000000  0.00000000  0.00000000  1
  K  K3  1  0.00000000  0.00000000  0.50000000  1
  Tl  Tl4  1  0.36534098  0.73068200  0.94458000  1
  Tl  Tl5  1  0.63465901  0.26931800  0.05542000  1
  Tl  Tl6  1  0.63465901  0.26931800  0.44458000  1
  Tl  Tl7  1  0.36534098  0.73068200  0.55542000  1
  Tl  Tl8  1  0.07536300  0.15072600  0.75000000  1
  Tl  Tl9  1  0.92463699  0.84927400  0.25000000  1
