# generated using pymatgen
data_YErZr2AlSi7
_symmetry_space_group_name_H-M   'P 1'
_cell_length_a   3.78167105
_cell_length_b   8.20201206
_cell_length_c   8.20201206
_cell_angle_alpha   120.00000000
_cell_angle_beta   90.00000000
_cell_angle_gamma   90.00000000
_symmetry_Int_Tables_number   1
_chemical_formula_structural   YErZr2AlSi7
_chemical_formula_sum   'Y1 Er1 Zr2 Al1 Si7'
_cell_volume   220.32064155
_cell_formula_units_Z   1
loop_
 _symmetry_equiv_pos_site_id
 _symmetry_equiv_pos_as_xyz
  1  'x, y, z'
loop_
 _atom_site_type_symbol
 _atom_site_label
 _atom_site_symmetry_multiplicity
 _atom_site_fract_x
 _atom_site_fract_y
 _atom_site_fract_z
 _atom_site_occupancy
  Er  Er0  1  0.00000000  0.00000000  0.00000000  1
  Y  Y1  1  0.00000000  0.00000000  0.50000001  1
  Zr  Zr2  1  -0.00000000  0.50000000  0.00000001  1
  Zr  Zr3  1  -0.00000000  0.50000000  0.50000002  1
  Si  Si4  1  0.49047599  0.32769600  0.16384801  1
  Al  Al5  1  0.49047599  0.83615200  0.67230403  1
  Si  Si6  1  0.49047599  0.83615200  0.16384802  1
  Si  Si7  1  0.50952399  0.67230400  0.83615203  1
  Si  Si8  1  0.50952399  0.16384800  0.32769601  1
  Si  Si9  1  0.50952399  0.16384800  0.83615202  1
  Si  Si10  1  0.52732499  0.66666667  0.33333335  1
  Si  Si11  1  0.47267499  0.33333333  0.66666668  1
