# generated using pymatgen
data_DyErLuMgIn2Sn2PdAu
_symmetry_space_group_name_H-M   'P 1'
_cell_length_a   3.88837504
_cell_length_b   7.87710905
_cell_length_c   7.87710905
_cell_angle_alpha   90.00000000
_cell_angle_beta   90.00000000
_cell_angle_gamma   90.00000000
_symmetry_Int_Tables_number   1
_chemical_formula_structural   DyErLuMgIn2Sn2PdAu
_chemical_formula_sum   'Dy1 Er1 Lu1 Mg1 In2 Sn2 Pd1 Au1'
_cell_volume   241.26918817
_cell_formula_units_Z   1
loop_
 _symmetry_equiv_pos_site_id
 _symmetry_equiv_pos_as_xyz
  1  'x, y, z'
loop_
 _atom_site_type_symbol
 _atom_site_label
 _atom_site_symmetry_multiplicity
 _atom_site_fract_x
 _atom_site_fract_y
 _atom_site_fract_z
 _atom_site_occupancy
  Er  Er0  1  0.49999999  0.32490300  0.82490299  1
  Dy  Dy1  1  0.49999999  0.82490299  0.67509700  1
  Lu  Lu2  1  0.49999999  0.17509700  0.32490300  1
  Mg  Mg3  1  0.49999999  0.67509700  0.17509700  1
  In  In4  1  0.00000000  0.00000000  0.00000000  1
  In  In5  1  -0.00000000  0.50000000  0.50000000  1
  Sn  Sn6  1  -0.00000000  0.37339200  0.12660800  1
  Sn  Sn7  1  -0.00000000  0.87339199  0.37339200  1
  Pd  Pd8  1  0.00000000  0.12660800  0.62660800  1
  Au  Au9  1  0.00000000  0.62660800  0.87339199  1
