# generated using pymatgen
data_Li7MnO8
_symmetry_space_group_name_H-M   'P 1'
_cell_length_a   5.06517315
_cell_length_b   5.82861805
_cell_length_c   5.82836962
_cell_angle_alpha   60.60315704
_cell_angle_beta   73.53063202
_cell_angle_gamma   73.52967834
_symmetry_Int_Tables_number   1
_chemical_formula_structural   Li7MnO8
_chemical_formula_sum   'Li7 Mn1 O8'
_cell_volume   141.60200678
_cell_formula_units_Z   1
loop_
 _symmetry_equiv_pos_site_id
 _symmetry_equiv_pos_as_xyz
  1  'x, y, z'
loop_
 _atom_site_type_symbol
 _atom_site_label
 _atom_site_symmetry_multiplicity
 _atom_site_fract_x
 _atom_site_fract_y
 _atom_site_fract_z
 _atom_site_occupancy
  Li  Li0  1  0.49997303  0.25243800  0.24756198  1
  Li  Li1  1  0.50002708  0.74756199  0.75243795  1
  Li  Li2  1  0.50408308  0.74810899  0.24808696  1
  Li  Li3  1  0.49591703  0.25189100  0.75191297  1
  Li  Li4  1  0.00000004  0.49999999  -0.00000002  1
  Li  Li5  1  0.00000009  0.99999999  0.49999995  1
  Mn  Mn6  1  0.00000004  0.49999999  0.49999997  1
  Li  Li7  1  0.00000000  0.00000000  0.00000000  1
  O  O8  1  0.22920106  0.62139299  0.64938996  1
  O  O9  1  0.22919302  0.14937600  0.12145699  1
  O  O10  1  0.77079905  0.37860700  0.35061097  1
  O  O11  1  0.77080709  0.85062399  0.87854394  1
  O  O12  1  0.21787906  0.62003099  0.12013297  1
  O  O13  1  0.22283602  0.11964600  0.61962698  1
  O  O14  1  0.78212105  0.37996900  0.87986696  1
  O  O15  1  0.77716409  0.88035399  0.38037295  1
