# generated using pymatgen
data_YZr2SnSb12MoRhAu2
_symmetry_space_group_name_H-M   'P 1'
_cell_length_a   6.41630411
_cell_length_b   10.24812984
_cell_length_c   10.24813080
_cell_angle_alpha   120.00000000
_cell_angle_beta   90.00000000
_cell_angle_gamma   90.00000000
_symmetry_Int_Tables_number   1
_chemical_formula_structural   YZr2SnSb12MoRhAu2
_chemical_formula_sum   'Y1 Zr2 Sn1 Sb12 Mo1 Rh1 Au2'
_cell_volume   583.58598097
_cell_formula_units_Z   1
loop_
 _symmetry_equiv_pos_site_id
 _symmetry_equiv_pos_as_xyz
  1  'x, y, z'
loop_
 _atom_site_type_symbol
 _atom_site_label
 _atom_site_symmetry_multiplicity
 _atom_site_fract_x
 _atom_site_fract_y
 _atom_site_fract_z
 _atom_site_occupancy
  Y  Y0  1  0.53189299  0.66666670  0.33333338  1
  Zr  Zr1  1  0.03189300  0.33333335  0.66666670  1
  Zr  Zr2  1  0.74605099  0.87471204  0.74942406  1
  Sb  Sb3  1  0.74605099  0.25057501  0.12528702  1
  Sb  Sb4  1  0.74605099  0.87471204  0.12528705  1
  Sb  Sb5  1  0.24605100  0.12528801  0.25057601  1
  Sb  Sb6  1  0.24605100  0.74942503  0.87471306  1
  Sb  Sb7  1  0.24605100  0.12528801  0.87471302  1
  Mo  Mo8  1  0.55811399  0.45912302  0.91824604  1
  Sn  Sn9  1  0.55811399  0.08175400  0.54087701  1
  Sb  Sb10  1  0.55811399  0.45912302  0.54087703  1
  Sb  Sb11  1  0.05811400  0.54087702  0.08175403  1
  Sb  Sb12  1  0.05811400  0.91824604  0.45912306  1
  Sb  Sb13  1  0.05811400  0.54087702  0.45912304  1
  Sb  Sb14  1  0.81818899  0.18893801  0.37787602  1
  Sb  Sb15  1  0.81818899  0.62212403  0.81106205  1
  Sb  Sb16  1  0.81818899  0.18893801  0.81106202  1
  Au  Au17  1  0.31818899  0.81106204  0.62212406  1
  Au  Au18  1  0.31818899  0.37787602  0.18893803  1
  Rh  Rh19  1  0.31818899  0.81106204  0.18893805  1
