# generated using pymatgen
data_Mn2Fe6GeP5
_symmetry_space_group_name_H-M   'P 1'
_cell_length_a   6.67260313
_cell_length_b   6.67265320
_cell_length_c   7.43905878
_cell_angle_alpha   90.00314331
_cell_angle_beta   116.63973999
_cell_angle_gamma   119.99877167
_symmetry_Int_Tables_number   1
_chemical_formula_structural   Mn2Fe6GeP5
_chemical_formula_sum   'Mn2 Fe6 Ge1 P5'
_cell_volume   245.40209776
_cell_formula_units_Z   1
loop_
 _symmetry_equiv_pos_site_id
 _symmetry_equiv_pos_as_xyz
  1  'x, y, z'
loop_
 _atom_site_type_symbol
 _atom_site_label
 _atom_site_symmetry_multiplicity
 _atom_site_fract_x
 _atom_site_fract_y
 _atom_site_fract_z
 _atom_site_occupancy
  Mn  Mn0  1  0.99965794  0.99982297  0.99947690  1
  Mn  Mn1  1  0.33367598  0.66684398  0.00052296  1
  Fe  Fe2  1  0.75767796  0.54800898  0.62952494  1
  Fe  Fe3  1  0.08159900  0.20979099  0.62961298  1
  Fe  Fe4  1  0.41978797  0.87187897  0.62961694  1
  Fe  Fe5  1  0.91354395  0.79478698  0.37038293  1
  Fe  Fe6  1  0.25173499  0.45687599  0.37038697  1
  Fe  Fe7  1  0.57565597  0.11865800  0.37047496  1
  P  P8  1  0.16736799  0.75085798  0.25215796  1
  Ge  Ge9  1  0.83574595  0.08485100  0.25215995  1
  P  P10  1  0.50129797  0.41642899  0.25211296  1
  P  P11  1  0.83203395  0.25023699  0.74788694  1
  P  P12  1  0.49758797  0.58181598  0.74783994  1
  P  P13  1  0.16596599  0.91580897  0.74784195  1
