# generated using pymatgen
data_LiCaY2TiMn(CuO6)2
_symmetry_space_group_name_H-M   'P 1'
_cell_length_a   5.18781090
_cell_length_b   5.39532804
_cell_length_c   7.39559793
_cell_angle_alpha   90.00000000
_cell_angle_beta   90.00000000
_cell_angle_gamma   90.00000000
_symmetry_Int_Tables_number   1
_chemical_formula_structural   LiCaY2TiMn(CuO6)2
_chemical_formula_sum   'Li1 Ca1 Y2 Ti1 Mn1 Cu2 O12'
_cell_volume   207.00235450
_cell_formula_units_Z   1
loop_
 _symmetry_equiv_pos_site_id
 _symmetry_equiv_pos_as_xyz
  1  'x, y, z'
loop_
 _atom_site_type_symbol
 _atom_site_label
 _atom_site_symmetry_multiplicity
 _atom_site_fract_x
 _atom_site_fract_y
 _atom_site_fract_z
 _atom_site_occupancy
  Li  Li0  1  0.51920601  0.93237199  0.75000001  1
  Ca  Ca1  1  0.01920600  0.56762800  0.25000000  1
  Y  Y2  1  0.98079402  0.43237200  0.75000001  1
  Y  Y3  1  0.48079401  0.06762800  0.25000000  1
  Ti  Ti4  1  0.50000001  0.50000000  0.50000000  1
  Cu  Cu5  1  0.00000000  0.00000000  0.50000000  1
  Cu  Cu6  1  0.00000000  0.00000000  0.00000000  1
  Mn  Mn7  1  0.50000001  0.50000000  -0.00000000  1
  O  O8  1  0.19619400  0.29717200  0.45747200  1
  O  O9  1  0.69619401  0.20282800  0.54252800  1
  O  O10  1  0.30380601  0.79717199  0.04252800  1
  O  O11  1  0.80380602  0.70282799  0.95747201  1
  O  O12  1  0.80380602  0.70282799  0.54252800  1
  O  O13  1  0.30380601  0.79717199  0.45747200  1
  O  O14  1  0.69619401  0.20282800  0.95747201  1
  O  O15  1  0.19619400  0.29717200  0.04252800  1
  O  O16  1  0.58645801  0.48590400  0.25000000  1
  O  O17  1  0.08645800  0.01409600  0.75000001  1
  O  O18  1  0.91354202  0.98590399  0.25000000  1
  O  O19  1  0.41354201  0.51409600  0.75000001  1
