# generated using pymatgen
data_LiTcNiOsRhNCl2
_symmetry_space_group_name_H-M   'P 1'
_cell_length_a   6.41959095
_cell_length_b   7.74450779
_cell_length_c   7.74450827
_cell_angle_alpha   60.00000000
_cell_angle_beta   90.00000000
_cell_angle_gamma   90.00000000
_symmetry_Int_Tables_number   1
_chemical_formula_structural   LiTcNiOsRhNCl2
_chemical_formula_sum   'Li1 Tc1 Ni1 Os1 Rh1 N1 Cl2'
_cell_volume   333.44611088
_cell_formula_units_Z   1
loop_
 _symmetry_equiv_pos_site_id
 _symmetry_equiv_pos_as_xyz
  1  'x, y, z'
loop_
 _atom_site_type_symbol
 _atom_site_label
 _atom_site_symmetry_multiplicity
 _atom_site_fract_x
 _atom_site_fract_y
 _atom_site_fract_z
 _atom_site_occupancy
  N  N0  1  0.00000000  0.00000000  0.00000000  1
  Li  Li1  1  0.50000000  0.00000000  0.00000000  1
  Tc  Tc2  1  0.75000001  0.00000000  0.70411700  1
  Ni  Ni3  1  0.25000000  0.70411703  -0.00000002  1
  Cl  Cl4  1  0.25000000  0.29588301  0.70411699  1
  Os  Os5  1  0.75000001  0.70411703  0.29588298  1
  Rh  Rh6  1  0.75000001  0.29588301  1.00000000  1
  Cl  Cl7  1  0.25000000  0.00000000  0.29588300  1
