# generated using pymatgen
data_NdEr3Al4Si3Ni
_symmetry_space_group_name_H-M   'P 1'
_cell_length_a   5.69079399
_cell_length_b   5.69079494
_cell_length_c   8.74034786
_cell_angle_alpha   90.00000000
_cell_angle_beta   90.00000000
_cell_angle_gamma   119.99999237
_symmetry_Int_Tables_number   1
_chemical_formula_structural   NdEr3Al4Si3Ni
_chemical_formula_sum   'Nd1 Er3 Al4 Si3 Ni1'
_cell_volume   245.13492128
_cell_formula_units_Z   1
loop_
 _symmetry_equiv_pos_site_id
 _symmetry_equiv_pos_as_xyz
  1  'x, y, z'
loop_
 _atom_site_type_symbol
 _atom_site_label
 _atom_site_symmetry_multiplicity
 _atom_site_fract_x
 _atom_site_fract_y
 _atom_site_fract_z
 _atom_site_occupancy
  Er  Er0  1  0.66666664  0.33333331  0.54970601  1
  Nd  Nd1  1  0.33333329  0.66666662  0.04970600  1
  Er  Er2  1  0.66666664  0.33333331  0.95029401  1
  Er  Er3  1  0.33333329  0.66666662  0.45029401  1
  Al  Al4  1  0.16003394  0.83996594  0.75000001  1
  Al  Al5  1  0.16003398  0.32006798  0.75000001  1
  Al  Al6  1  0.83996595  0.67993195  0.25000000  1
  Al  Al7  1  0.67993194  0.83996594  0.75000001  1
  Si  Si8  1  0.32006799  0.16003399  0.25000000  1
  Si  Si9  1  0.83996599  0.16003399  0.25000000  1
  Ni  Ni10  1  0.00000000  0.00000000  0.00000000  1
  Si  Si11  1  0.00000000  0.00000000  0.50000001  1
