# generated using pymatgen
data_Li3ErMnFe2Cu3Ni3Ge4
_symmetry_space_group_name_H-M   'P 1'
_cell_length_a   3.70428205
_cell_length_b   3.70428205
_cell_length_c   19.04807854
_cell_angle_alpha   90.00000000
_cell_angle_beta   90.00000000
_cell_angle_gamma   90.00000000
_symmetry_Int_Tables_number   1
_chemical_formula_structural   Li3ErMnFe2Cu3Ni3Ge4
_chemical_formula_sum   'Li3 Er1 Mn1 Fe2 Cu3 Ni3 Ge4'
_cell_volume   261.37212348
_cell_formula_units_Z   1
loop_
 _symmetry_equiv_pos_site_id
 _symmetry_equiv_pos_as_xyz
  1  'x, y, z'
loop_
 _atom_site_type_symbol
 _atom_site_label
 _atom_site_symmetry_multiplicity
 _atom_site_fract_x
 _atom_site_fract_y
 _atom_site_fract_z
 _atom_site_occupancy
  Er  Er0  1  0.00000000  0.49999999  0.41267401  1
  Li  Li1  1  0.49999999  0.00000000  0.91136102  1
  Li  Li2  1  0.49999999  0.00000000  0.41267401  1
  Li  Li3  1  0.00000000  0.49999999  0.91136102  1
  Mn  Mn4  1  0.49999999  0.00000000  0.08921900  1
  Cu  Cu5  1  0.00000000  0.49999999  0.58893401  1
  Fe  Fe6  1  0.00000000  0.49999999  0.08921900  1
  Cu  Cu7  1  0.49999999  0.00000000  0.58893401  1
  Fe  Fe8  1  0.49999999  0.49999999  0.00007100  1
  Ni  Ni9  1  0.00000000  0.00000000  0.50099201  1
  Cu  Cu10  1  0.49999999  0.49999999  0.30910601  1
  Ge  Ge11  1  0.00000000  0.00000000  0.00008300  1
  Ni  Ni12  1  0.49999999  0.49999999  0.50032701  1
  Ni  Ni13  1  0.00000000  0.00000000  0.31721601  1
  Ge  Ge14  1  0.49999999  0.49999999  0.82197302  1
  Ge  Ge15  1  0.49999999  0.49999999  0.17738200  1
  Ge  Ge16  1  0.00000000  0.00000000  0.67807402  1
