# generated using pymatgen
data_KRbBrCl
_symmetry_space_group_name_H-M   'P 1'
_cell_length_a   6.19999409
_cell_length_b   7.86312389
_cell_length_c   7.86312389
_cell_angle_alpha   120.00000000
_cell_angle_beta   90.00000000
_cell_angle_gamma   90.00000000
_symmetry_Int_Tables_number   1
_chemical_formula_structural   KRbBrCl
_chemical_formula_sum   'K2 Rb2 Br2 Cl2'
_cell_volume   331.98017093
_cell_formula_units_Z   2
loop_
 _symmetry_equiv_pos_site_id
 _symmetry_equiv_pos_as_xyz
  1  'x, y, z'
loop_
 _atom_site_type_symbol
 _atom_site_label
 _atom_site_symmetry_multiplicity
 _atom_site_fract_x
 _atom_site_fract_y
 _atom_site_fract_z
 _atom_site_occupancy
  K  K0  1  0.25000000  0.66666667  0.33333333  1
  K  K1  1  0.74999999  0.33333334  0.66666666  1
  Rb  Rb2  1  0.74999999  0.83350901  0.16649099  1
  Rb  Rb3  1  0.74999999  0.33298200  0.16649100  1
  Cl  Cl4  1  0.74999999  0.83350901  0.66701799  1
  Cl  Cl5  1  0.25000000  0.16649100  0.83350900  1
  Br  Br6  1  0.25000000  0.66701801  0.83350899  1
  Br  Br7  1  0.25000000  0.16649100  0.33298200  1
