# generated using pymatgen
data_Na2Li4ZnCuO12
_symmetry_space_group_name_H-M   'P 1'
_cell_length_a   5.43513584
_cell_length_b   5.49390793
_cell_length_c   10.25839996
_cell_angle_alpha   75.10957336
_cell_angle_beta   74.63830566
_cell_angle_gamma   60.35324860
_symmetry_Int_Tables_number   1
_chemical_formula_structural   Na2Li4ZnCuO12
_chemical_formula_sum   'Na2 Li4 Zn1 Cu1 O12'
_cell_volume   253.79158137
_cell_formula_units_Z   1
loop_
 _symmetry_equiv_pos_site_id
 _symmetry_equiv_pos_as_xyz
  1  'x, y, z'
loop_
 _atom_site_type_symbol
 _atom_site_label
 _atom_site_symmetry_multiplicity
 _atom_site_fract_x
 _atom_site_fract_y
 _atom_site_fract_z
 _atom_site_occupancy
  Na  Na0  1  0.17936502  0.81296796  0.58990101  1
  Li  Li1  1  0.67430703  0.33195798  0.08743599  1
  Na  Na2  1  0.09370102  0.66804197  0.91256402  1
  Li  Li3  1  0.95113104  0.53893797  0.34033300  1
  Li  Li4  1  0.58223402  0.18703199  0.41009900  1
  Li  Li5  1  0.83040204  0.46106198  0.65966701  1
  Cu  Cu6  1  0.43535902  0.04666800  0.83910402  1
  Zn  Zn7  1  0.32113103  0.95333195  0.16089600  1
  O  O8  1  0.86195105  0.79685296  0.50515600  1
  O  O9  1  0.11622901  0.45165098  0.75708902  1
  O  O10  1  0.32496902  0.54834897  0.24291100  1
  O  O11  1  0.16396001  0.20314699  0.49484401  1
  O  O12  1  0.37751102  0.29086399  0.00204600  1
  O  O13  1  0.41235203  0.75607096  0.74892301  1
  O  O14  1  0.91734604  0.24392899  0.25107699  1
  O  O15  1  0.67042104  0.70913596  0.99795402  1
  O  O16  1  0.81272403  0.06457300  0.74135001  1
  O  O17  1  0.55345803  0.49999997  0.50000001  1
  O  O18  1  0.06647600  0.00000000  1.00000003  1
  O  O19  1  0.61864704  0.93542695  0.25865000  1
