# generated using pymatgen
data_Li5Cu3RuO5
_symmetry_space_group_name_H-M   'P 1'
_cell_length_a   3.81454086
_cell_length_b   5.53465366
_cell_length_c   10.36764050
_cell_angle_alpha   74.55294800
_cell_angle_beta   79.42319489
_cell_angle_gamma   89.96573639
_symmetry_Int_Tables_number   1
_chemical_formula_structural   Li5Cu3RuO5
_chemical_formula_sum   'Li5 Cu3 Ru1 O5'
_cell_volume   207.12250518
_cell_formula_units_Z   1
loop_
 _symmetry_equiv_pos_site_id
 _symmetry_equiv_pos_as_xyz
  1  'x, y, z'
loop_
 _atom_site_type_symbol
 _atom_site_label
 _atom_site_symmetry_multiplicity
 _atom_site_fract_x
 _atom_site_fract_y
 _atom_site_fract_z
 _atom_site_occupancy
  Li  Li0  1  0.39722097  0.40648700  0.21288099  1
  Li  Li1  1  0.20061399  0.20453200  0.60318398  1
  Li  Li2  1  0.80138995  0.80578400  0.39809898  1
  Li  Li3  1  0.61189796  0.61889600  0.78707497  1
  Li  Li4  1  0.00535092  0.95189800  0.99976596  1
  O  O5  1  0.30545400  0.05955200  0.39285999  1
  O  O6  1  0.91955800  0.17601600  0.16594999  1
  Cu  Cu7  1  0.89769996  0.64800000  0.20945898  1
  O  O8  1  0.29889996  0.55241500  0.40492498  1
  Ru  Ru9  1  0.69705497  0.45667000  0.60663198  1
  Cu  Cu10  1  0.09118497  0.33836900  0.83050897  1
  Cu  Cu11  1  0.11031093  0.85322200  0.79073697  1
  O  O12  1  0.50532995  0.73377600  0.99970496  1
  O  O13  1  0.70579493  0.96082300  0.59606797  1
