# generated using pymatgen
data_Li2FeCoNi2P
_symmetry_space_group_name_H-M   'P 1'
_cell_length_a   4.07113791
_cell_length_b   4.07113791
_cell_length_c   6.92885399
_cell_angle_alpha   107.08448792
_cell_angle_beta   107.08448792
_cell_angle_gamma   90.00000000
_symmetry_Int_Tables_number   1
_chemical_formula_structural   Li2FeCoNi2P
_chemical_formula_sum   'Li2 Fe1 Co1 Ni2 P1'
_cell_volume   104.45922708
_cell_formula_units_Z   1
loop_
 _symmetry_equiv_pos_site_id
 _symmetry_equiv_pos_as_xyz
  1  'x, y, z'
loop_
 _atom_site_type_symbol
 _atom_site_label
 _atom_site_symmetry_multiplicity
 _atom_site_fract_x
 _atom_site_fract_y
 _atom_site_fract_z
 _atom_site_occupancy
  Li  Li0  1  0.64335606  0.64335603  0.28671205  1
  Li  Li1  1  0.35854403  0.35854402  0.71708803  1
  Ni  Ni2  1  0.00311300  0.00311300  0.00622600  1
  Fe  Fe3  1  0.83083707  0.83083704  0.66167407  1
  Co  Co4  1  0.17703702  0.17703701  0.35407401  1
  Ni  Ni5  1  0.49355606  0.99355605  0.98711206  1
  P  P6  1  0.99355606  0.49355602  0.98711206  1
