# generated using pymatgen
data_Y3ErNb(TlS4)3
_symmetry_space_group_name_H-M   'P 1'
_cell_length_a   3.58212996
_cell_length_b   9.87512779
_cell_length_c   10.20383930
_cell_angle_alpha   90.00000000
_cell_angle_beta   90.00000000
_cell_angle_gamma   90.00000000
_symmetry_Int_Tables_number   1
_chemical_formula_structural   Y3ErNb(TlS4)3
_chemical_formula_sum   'Y3 Er1 Nb1 Tl3 S12'
_cell_volume   360.95052043
_cell_formula_units_Z   1
loop_
 _symmetry_equiv_pos_site_id
 _symmetry_equiv_pos_as_xyz
  1  'x, y, z'
loop_
 _atom_site_type_symbol
 _atom_site_label
 _atom_site_symmetry_multiplicity
 _atom_site_fract_x
 _atom_site_fract_y
 _atom_site_fract_z
 _atom_site_occupancy
  Er  Er0  1  0.25000000  0.79680002  0.21612799  1
  Y  Y1  1  0.75000001  0.20320000  0.78387198  1
  Y  Y2  1  0.75000001  0.29680001  0.28387199  1
  Y  Y3  1  0.25000000  0.70320001  0.71612798  1
  Nb  Nb4  1  0.25000000  0.43520301  0.87528597  1
  Tl  Tl5  1  0.75000001  0.56479701  0.12471400  1
  Tl  Tl6  1  0.75000001  0.93520302  0.62471398  1
  Tl  Tl7  1  0.25000000  0.06479700  0.37528599  1
  S  S8  1  0.25000000  0.37382801  0.54596998  1
  S  S9  1  0.75000001  0.62617201  0.45402999  1
  S  S10  1  0.75000001  0.87382802  0.95402997  1
  S  S11  1  0.25000000  0.12617200  0.04597000  1
  S  S12  1  0.25000000  0.67911101  0.97260397  1
  S  S13  1  0.75000001  0.32088901  0.02739600  1
  S  S14  1  0.75000001  0.17911100  0.52739598  1
  S  S15  1  0.25000000  0.82088902  0.47260399  1
  S  S16  1  0.25000000  0.00025400  0.80677298  1
  S  S17  1  0.75000001  0.99974602  0.19322699  1
  S  S18  1  0.75000001  0.50025401  0.69322698  1
  S  S19  1  0.25000000  0.49974601  0.30677299  1
