# generated using pymatgen
data_BaNa3Cu4BiTe3Se8
_symmetry_space_group_name_H-M   'P 1'
_cell_length_a   6.99242973
_cell_length_b   6.99242973
_cell_length_c   9.91709328
_cell_angle_alpha   90.00000000
_cell_angle_beta   90.00000000
_cell_angle_gamma   91.05071259
_symmetry_Int_Tables_number   1
_chemical_formula_structural   BaNa3Cu4BiTe3Se8
_chemical_formula_sum   'Ba1 Na3 Cu4 Bi1 Te3 Se8'
_cell_volume   484.80555765
_cell_formula_units_Z   1
loop_
 _symmetry_equiv_pos_site_id
 _symmetry_equiv_pos_as_xyz
  1  'x, y, z'
loop_
 _atom_site_type_symbol
 _atom_site_label
 _atom_site_symmetry_multiplicity
 _atom_site_fract_x
 _atom_site_fract_y
 _atom_site_fract_z
 _atom_site_occupancy
  Na  Na0  1  0.97482397  0.55288498  0.24999999  1
  Na  Na1  1  0.44711499  0.02517600  0.74999998  1
  Ba  Ba2  1  0.02517600  0.44711499  0.74999998  1
  Na  Na3  1  0.55288498  0.97482397  0.24999999  1
  Cu  Cu4  1  0.25744799  0.25744799  0.97933297  1
  Cu  Cu5  1  0.74255198  0.74255198  0.02066700  1
  Bi  Bi6  1  0.25744799  0.25744799  0.52066699  1
  Cu  Cu7  1  0.74255198  0.74255198  0.47933299  1
  Te  Te8  1  0.70822398  0.29177599  -0.00000000  1
  Te  Te9  1  0.70822398  0.29177599  0.49999999  1
  Se  Se10  1  0.29177599  0.70822398  -0.00000000  1
  Te  Te11  1  0.29177599  0.70822398  0.49999999  1
  Cu  Cu12  1  -0.00000000  0.49999999  -0.00000000  1
  Se  Se13  1  0.49999999  0.00000000  -0.00000000  1
  Se  Se14  1  -0.00000000  0.49999999  0.49999999  1
  Se  Se15  1  0.49999999  0.00000000  0.49999999  1
  Se  Se16  1  0.96721897  0.96721897  0.24999999  1
  Se  Se17  1  0.03278100  0.03278100  0.74999998  1
  Se  Se18  1  0.49586098  0.49586099  0.24999999  1
  Se  Se19  1  0.50413898  0.50413899  0.74999998  1
