# generated using pymatgen
data_YMn3FeCu4GeP2
_symmetry_space_group_name_H-M   'P 1'
_cell_length_a   4.89640903
_cell_length_b   4.89640903
_cell_length_c   8.36100197
_cell_angle_alpha   72.97359467
_cell_angle_beta   72.97359467
_cell_angle_gamma   59.99998856
_symmetry_Int_Tables_number   1
_chemical_formula_structural   YMn3FeCu4GeP2
_chemical_formula_sum   'Y1 Mn3 Fe1 Cu4 Ge1 P2'
_cell_volume   163.37402359
_cell_formula_units_Z   1
loop_
 _symmetry_equiv_pos_site_id
 _symmetry_equiv_pos_as_xyz
  1  'x, y, z'
loop_
 _atom_site_type_symbol
 _atom_site_label
 _atom_site_symmetry_multiplicity
 _atom_site_fract_x
 _atom_site_fract_y
 _atom_site_fract_z
 _atom_site_occupancy
  Y  Y0  1  0.00000000  0.00000000  0.00000000  1
  Mn  Mn1  1  0.85539399  0.85539397  0.43381795  1
  Mn  Mn2  1  0.14460600  0.14460599  0.56618201  1
  Mn  Mn3  1  0.58647398  0.08259700  0.74445500  1
  Cu  Cu4  1  0.41352600  0.91740297  0.25554496  1
  Fe  Fe5  1  0.66632099  0.66632098  0.00103695  1
  Cu  Cu6  1  0.58647399  0.58647398  0.74445498  1
  Cu  Cu7  1  0.91740298  0.41352599  0.25554496  1
  P  P8  1  0.33367900  0.33367899  0.99896301  1
  Cu  Cu9  1  0.49999999  0.49999998  0.49999998  1
  P  P10  1  0.41352599  0.41352599  0.25554498  1
  Ge  Ge11  1  0.08259701  0.58647398  0.74445500  1
