# generated using pymatgen
data_LiLaTiBe3
_symmetry_space_group_name_H-M   'P 1'
_cell_length_a   4.97517920
_cell_length_b   4.97517920
_cell_length_c   5.02616119
_cell_angle_alpha   60.33497238
_cell_angle_beta   60.33497238
_cell_angle_gamma   60.00000763
_symmetry_Int_Tables_number   1
_chemical_formula_structural   LiLaTiBe3
_chemical_formula_sum   'Li1 La1 Ti1 Be3'
_cell_volume   88.41364972
_cell_formula_units_Z   1
loop_
 _symmetry_equiv_pos_site_id
 _symmetry_equiv_pos_as_xyz
  1  'x, y, z'
loop_
 _atom_site_type_symbol
 _atom_site_label
 _atom_site_symmetry_multiplicity
 _atom_site_fract_x
 _atom_site_fract_y
 _atom_site_fract_z
 _atom_site_occupancy
  Ti  Ti0  1  0.12458200  0.12458201  0.62625398  1
  La  La1  1  0.87541802  0.87541804  0.37374594  1
  Be  Be2  1  0.50000001  0.50000002  0.49999996  1
  Be  Be3  1  -0.00000001  0.50000002  -0.00000001  1
  Be  Be4  1  0.50000002  0.00000000  -0.00000002  1
  Li  Li5  1  0.50000001  0.50000002  -0.00000003  1
