# generated using pymatgen
data_LaYInSnAu2
_symmetry_space_group_name_H-M   'P 1'
_cell_length_a   4.71733999
_cell_length_b   4.71734047
_cell_length_c   7.46913099
_cell_angle_alpha   90.00000000
_cell_angle_beta   90.00000000
_cell_angle_gamma   119.99999237
_symmetry_Int_Tables_number   1
_chemical_formula_structural   LaYInSnAu2
_chemical_formula_sum   'La1 Y1 In1 Sn1 Au2'
_cell_volume   143.94452191
_cell_formula_units_Z   1
loop_
 _symmetry_equiv_pos_site_id
 _symmetry_equiv_pos_as_xyz
  1  'x, y, z'
loop_
 _atom_site_type_symbol
 _atom_site_label
 _atom_site_symmetry_multiplicity
 _atom_site_fract_x
 _atom_site_fract_y
 _atom_site_fract_z
 _atom_site_occupancy
  Y  Y0  1  0.00000000  0.00000000  0.98718100  1
  La  La1  1  0.00000000  0.00000000  0.48718100  1
  Sn  Sn2  1  0.33333329  0.66666667  0.67553100  1
  In  In3  1  0.66666665  0.33333333  0.17553100  1
  Au  Au4  1  0.33333329  0.66666667  0.25598800  1
  Au  Au5  1  0.66666665  0.33333333  0.75598800  1
