# generated using pymatgen
data_K2NaHgBr4(Cl2O)2
_symmetry_space_group_name_H-M   'P 1'
_cell_length_a   4.89513826
_cell_length_b   4.89514399
_cell_length_c   20.48241043
_cell_angle_alpha   90.00000000
_cell_angle_beta   89.99999237
_cell_angle_gamma   119.99992371
_symmetry_Int_Tables_number   1
_chemical_formula_structural   K2NaHgBr4(Cl2O)2
_chemical_formula_sum   'K2 Na1 Hg1 Br4 Cl4 O2'
_cell_volume   425.05239111
_cell_formula_units_Z   1
loop_
 _symmetry_equiv_pos_site_id
 _symmetry_equiv_pos_as_xyz
  1  'x, y, z'
loop_
 _atom_site_type_symbol
 _atom_site_label
 _atom_site_symmetry_multiplicity
 _atom_site_fract_x
 _atom_site_fract_y
 _atom_site_fract_z
 _atom_site_occupancy
  K  K0  1  0.00000100  0.00000200  0.25000799  1
  Cl  Cl1  1  1.00000000  0.00000100  0.75000797  1
  Hg  Hg2  1  1.00000000  0.00000100  0.50000598  1
  Na  Na3  1  1.00000000  0.00000100  0.00000599  1
  K  K4  1  0.66666668  0.33333335  0.15112399  1
  Br  Br5  1  0.33333335  0.66666671  0.65111798  1
  Br  Br6  1  0.33333335  0.66666671  0.84883898  1
  Cl  Cl7  1  0.66666668  0.33333335  0.34883699  1
  Cl  Cl8  1  0.33333335  0.66666671  0.11106900  1
  Cl  Cl9  1  0.33333335  0.66666671  0.38894199  1
  O  O10  1  0.66666668  0.33333335  0.61106898  1
  Br  Br11  1  0.66666668  0.33333335  0.88894198  1
  Br  Br12  1  0.33333335  0.66666671  0.75001598  1
  O  O13  1  0.66666668  0.33333335  0.25001599  1
