# generated using pymatgen
data_CsK3TlTeI3
_symmetry_space_group_name_H-M   'P 1'
_cell_length_a   7.64038515
_cell_length_b   8.37100983
_cell_length_c   8.37100983
_cell_angle_alpha   120.00000000
_cell_angle_beta   90.00000000
_cell_angle_gamma   90.00000000
_symmetry_Int_Tables_number   1
_chemical_formula_structural   CsK3TlTeI3
_chemical_formula_sum   'Cs1 K3 Tl1 Te1 I3'
_cell_volume   463.66208844
_cell_formula_units_Z   1
loop_
 _symmetry_equiv_pos_site_id
 _symmetry_equiv_pos_as_xyz
  1  'x, y, z'
loop_
 _atom_site_type_symbol
 _atom_site_label
 _atom_site_symmetry_multiplicity
 _atom_site_fract_x
 _atom_site_fract_y
 _atom_site_fract_z
 _atom_site_occupancy
  Cs  Cs0  1  0.00000000  0.00000000  0.00000000  1
  K  K1  1  0.49999999  0.66666667  0.33333331  1
  K  K2  1  0.49999999  0.33333334  0.66666665  1
  Tl  Tl3  1  0.25815199  0.00000000  0.65411199  1
  K  K4  1  0.74184799  0.00000000  0.34588800  1
  Te  Te5  1  0.25815199  0.65411201  -0.00000001  1
  I  I6  1  0.74184799  0.34588800  -0.00000001  1
  I  I7  1  0.74184799  0.65411201  0.65411198  1
  I  I8  1  0.25815199  0.34588800  0.34588799  1
