# generated using pymatgen
data_EuY4ErAlSi8Ni
_symmetry_space_group_name_H-M   'P 1'
_cell_length_a   4.31049395
_cell_length_b   5.65273333
_cell_length_c   14.29018402
_cell_angle_alpha   90.00000000
_cell_angle_beta   90.00000000
_cell_angle_gamma   112.41268921
_symmetry_Int_Tables_number   1
_chemical_formula_structural   EuY4ErAlSi8Ni
_chemical_formula_sum   'Eu1 Y4 Er1 Al1 Si8 Ni1'
_cell_volume   321.89352609
_cell_formula_units_Z   1
loop_
 _symmetry_equiv_pos_site_id
 _symmetry_equiv_pos_as_xyz
  1  'x, y, z'
loop_
 _atom_site_type_symbol
 _atom_site_label
 _atom_site_symmetry_multiplicity
 _atom_site_fract_x
 _atom_site_fract_y
 _atom_site_fract_z
 _atom_site_occupancy
  Eu  Eu0  1  0.08436699  0.16873400  0.88975300  1
  Y  Y1  1  0.91563294  0.83126600  0.11024700  1
  Y  Y2  1  0.91563294  0.83126600  0.38975300  1
  Y  Y3  1  0.08436699  0.16873400  0.61024700  1
  Y  Y4  1  0.35785794  0.71571600  0.75000000  1
  Er  Er5  1  0.64214198  0.28428400  0.25000000  1
  Si  Si6  1  0.65556998  0.31114000  0.75000000  1
  Al  Al7  1  0.34442994  0.68886000  0.25000000  1
  Si  Si8  1  0.62309899  0.24619800  0.46490200  1
  Si  Si9  1  0.37690094  0.75380200  0.53509800  1
  Si  Si10  1  0.37690094  0.75380200  0.96490200  1
  Si  Si11  1  0.62309899  0.24619800  0.03509800  1
  Si  Si12  1  0.20045097  0.40090200  0.39733200  1
  Ni  Ni13  1  0.79954896  0.59909800  0.60266800  1
  Si  Si14  1  0.79954896  0.59909800  0.89733200  1
  Si  Si15  1  0.20045097  0.40090200  0.10266800  1
