# generated using pymatgen
data_Li6NiO8
_symmetry_space_group_name_H-M   'P 1'
_cell_length_a   5.72766113
_cell_length_b   5.75296307
_cell_length_c   5.76961899
_cell_angle_alpha   60.44429016
_cell_angle_beta   89.56512451
_cell_angle_gamma   60.17990112
_symmetry_Int_Tables_number   1
_chemical_formula_structural   Li6NiO8
_chemical_formula_sum   'Li6 Ni1 O8'
_cell_volume   136.17655496
_cell_formula_units_Z   1
loop_
 _symmetry_equiv_pos_site_id
 _symmetry_equiv_pos_as_xyz
  1  'x, y, z'
loop_
 _atom_site_type_symbol
 _atom_site_label
 _atom_site_symmetry_multiplicity
 _atom_site_fract_x
 _atom_site_fract_y
 _atom_site_fract_z
 _atom_site_occupancy
  Li  Li0  1  0.00000000  0.99999996  0.50000002  1
  Li  Li1  1  0.49999998  0.49999998  0.00000003  1
  Li  Li2  1  0.49999998  0.49999998  0.50000004  1
  Li  Li3  1  0.00000000  0.49999998  0.50000002  1
  Li  Li4  1  0.49999998  0.00000000  0.00000002  1
  Li  Li5  1  0.00000000  0.00000000  0.00000000  1
  Ni  Ni6  1  0.00000000  0.49999998  0.00000000  1
  O  O7  1  0.76951897  0.97035796  0.78974406  1
  O  O8  1  0.75264297  0.99324796  0.22535505  1
  O  O9  1  0.78355397  0.46505798  0.77416606  1
  O  O10  1  0.75124397  0.52293298  0.23093505  1
  O  O11  1  0.24875599  0.47706698  0.76906503  1
  O  O12  1  0.21644599  0.53494198  0.22583402  1
  O  O13  1  0.24735699  0.00675200  0.77464503  1
  O  O14  1  0.23048099  0.02964200  0.21025602  1
