# generated using pymatgen
data_YLuIn2Sn2Au
_symmetry_space_group_name_H-M   'P 1'
_cell_length_a   4.38989973
_cell_length_b   4.38989973
_cell_length_c   14.01044369
_cell_angle_alpha   80.98661804
_cell_angle_beta   80.98661804
_cell_angle_gamma   60.00000381
_symmetry_Int_Tables_number   1
_chemical_formula_structural   YLuIn2Sn2Au
_chemical_formula_sum   'Y1 Lu1 In2 Sn2 Au1'
_cell_volume   229.96760107
_cell_formula_units_Z   1
loop_
 _symmetry_equiv_pos_site_id
 _symmetry_equiv_pos_as_xyz
  1  'x, y, z'
loop_
 _atom_site_type_symbol
 _atom_site_label
 _atom_site_symmetry_multiplicity
 _atom_site_fract_x
 _atom_site_fract_y
 _atom_site_fract_z
 _atom_site_occupancy
  Y  Y0  1  0.00000000  0.00000000  0.00000000  1
  Lu  Lu1  1  0.57511000  0.57511000  0.27467002  1
  In  In2  1  0.42489000  0.42489000  0.72533003  1
  Sn  Sn3  1  0.86609100  0.86609100  0.40172703  1
  In  In4  1  0.13390900  0.13390900  0.59827302  1
  Sn  Sn5  1  0.70733000  0.70733000  0.87801004  1
  Au  Au6  1  0.29267000  0.29267000  0.12199001  1
