# generated using pymatgen
data_La2YIn3Sn4
_symmetry_space_group_name_H-M   'P 1'
_cell_length_a   4.58021784
_cell_length_b   4.64450788
_cell_length_c   12.87771130
_cell_angle_alpha   90.00000000
_cell_angle_beta   100.24368286
_cell_angle_gamma   90.00000000
_symmetry_Int_Tables_number   1
_chemical_formula_structural   La2YIn3Sn4
_chemical_formula_sum   'La2 Y1 In3 Sn4'
_cell_volume   269.57911236
_cell_formula_units_Z   1
loop_
 _symmetry_equiv_pos_site_id
 _symmetry_equiv_pos_as_xyz
  1  'x, y, z'
loop_
 _atom_site_type_symbol
 _atom_site_label
 _atom_site_symmetry_multiplicity
 _atom_site_fract_x
 _atom_site_fract_y
 _atom_site_fract_z
 _atom_site_occupancy
  Y  Y0  1  0.81473702  0.00000000  0.62947396  1
  La  La1  1  0.18526300  0.00000000  0.37052598  1
  La  La2  1  0.00000000  0.00000000  0.00000000  1
  In  In3  1  0.70842902  0.50000001  0.41685797  1
  In  In4  1  0.29157101  0.50000001  0.58314197  1
  Sn  Sn5  1  0.90402202  0.50000001  0.80804395  1
  In  In6  1  0.50000001  0.50000001  -0.00000001  1
  Sn  Sn7  1  0.40495001  1.00000002  0.80989996  1
  Sn  Sn8  1  0.59505002  0.00000000  0.19009998  1
  Sn  Sn9  1  0.09597800  0.50000001  0.19195599  1
