# generated using pymatgen
data_NaCu2SiP3S9O
_symmetry_space_group_name_H-M   'P 1'
_cell_length_a   6.75910997
_cell_length_b   6.75910997
_cell_length_c   6.75910997
_cell_angle_alpha   109.47122192
_cell_angle_beta   109.47122192
_cell_angle_gamma   109.47122192
_symmetry_Int_Tables_number   1
_chemical_formula_structural   NaCu2SiP3S9O
_chemical_formula_sum   'Na1 Si1 Cu2 P3 S9 O1'
_cell_volume   237.70954817
_cell_formula_units_Z   1
loop_
 _symmetry_equiv_pos_site_id
 _symmetry_equiv_pos_as_xyz
  1  'x, y, z'
loop_
 _atom_site_type_symbol
 _atom_site_label
 _atom_site_symmetry_multiplicity
 _atom_site_fract_x
 _atom_site_fract_y
 _atom_site_fract_z
 _atom_site_occupancy
  Na  Na0  1  0.00000000  0.00000000  0.00000000  1
  Si  Si1  1  0.50000001  0.00000000  0.00000001  1
  Cu  Cu2  1  1.00000008  1.00000005  0.50000008  1
  Cu  Cu3  1  0.00000003  0.50000002  0.00000003  1
  P  P4  1  0.50000004  0.50000002  0.50000004  1
  P  P5  1  0.50236102  0.15027701  0.35208402  1
  P  P6  1  0.49763906  0.84972304  0.64791607  1
  O  O7  1  0.20180606  0.84972204  0.35208306  1
  S  S8  1  0.79819402  0.15027801  0.64791703  1
  S  S9  1  0.15027704  0.64791603  0.79819305  1
  S  S10  1  0.84972304  0.35208402  0.20180704  1
  S  S11  1  0.84972306  0.64791703  0.49763906  1
  S  S12  1  0.15027703  0.35208302  0.50236103  1
  S  S13  1  0.35208402  0.20180701  0.84972303  1
  S  S14  1  0.64791606  0.79819304  0.15027706  1
  S  S15  1  0.64791604  0.49763902  0.84972205  1
  S  S16  1  0.35208404  0.50236102  0.15027804  1
