# generated using pymatgen
data_LiMgCuNi2
_symmetry_space_group_name_H-M   'P 1'
_cell_length_a   4.10026407
_cell_length_b   4.10026407
_cell_length_c   5.75164700
_cell_angle_alpha   110.88188171
_cell_angle_beta   110.88188171
_cell_angle_gamma   90.00000000
_symmetry_Int_Tables_number   1
_chemical_formula_structural   LiMgCuNi2
_chemical_formula_sum   'Li1 Mg1 Cu1 Ni2'
_cell_volume   83.51325771
_cell_formula_units_Z   1
loop_
 _symmetry_equiv_pos_site_id
 _symmetry_equiv_pos_as_xyz
  1  'x, y, z'
loop_
 _atom_site_type_symbol
 _atom_site_label
 _atom_site_symmetry_multiplicity
 _atom_site_fract_x
 _atom_site_fract_y
 _atom_site_fract_z
 _atom_site_occupancy
  Li  Li0  1  0.00000000  0.00000000  0.00000000  1
  Mg  Mg1  1  0.62540396  0.62540398  0.25080796  1
  Cu  Cu2  1  0.37459598  0.37459599  0.74919198  1
  Ni  Ni3  1  0.24999997  0.74999997  0.49999997  1
  Ni  Ni4  1  0.74999997  0.24999999  0.49999997  1
