# generated using pymatgen
data_YZrSc(ReC)3
_symmetry_space_group_name_H-M   'P 1'
_cell_length_a   3.61595798
_cell_length_b   6.55641985
_cell_length_c   6.55641985
_cell_angle_alpha   120.00000000
_cell_angle_beta   90.00000000
_cell_angle_gamma   90.00000000
_symmetry_Int_Tables_number   1
_chemical_formula_structural   YZrSc(ReC)3
_chemical_formula_sum   'Y1 Zr1 Sc1 Re3 C3'
_cell_volume   134.61315992
_cell_formula_units_Z   1
loop_
 _symmetry_equiv_pos_site_id
 _symmetry_equiv_pos_as_xyz
  1  'x, y, z'
loop_
 _atom_site_type_symbol
 _atom_site_label
 _atom_site_symmetry_multiplicity
 _atom_site_fract_x
 _atom_site_fract_y
 _atom_site_fract_z
 _atom_site_occupancy
  Y  Y0  1  0.50000000  0.58454001  -0.00000001  1
  Zr  Zr1  1  0.50000000  0.41546000  0.41545998  1
  Sc  Sc2  1  0.50000000  1.00000001  0.58453997  1
  Re  Re3  1  -0.00000000  0.24993800  0.99999998  1
  Re  Re4  1  -0.00000000  0.75006201  0.75006197  1
  Re  Re5  1  -0.00000000  1.00000001  0.24993797  1
  C  C6  1  1.00000001  0.33333334  0.66666665  1
  C  C7  1  -0.00000000  0.66666667  0.33333331  1
  C  C8  1  0.50000000  0.00000000  -0.00000000  1
