# generated using pymatgen
data_NaLi(CuP4)2
_symmetry_space_group_name_H-M   'P 1'
_cell_length_a   3.95377493
_cell_length_b   3.95377493
_cell_length_c   12.05167103
_cell_angle_alpha   90.00000000
_cell_angle_beta   90.00000000
_cell_angle_gamma   90.00000000
_symmetry_Int_Tables_number   1
_chemical_formula_structural   NaLi(CuP4)2
_chemical_formula_sum   'Na1 Li1 Cu2 P8'
_cell_volume   188.39577316
_cell_formula_units_Z   1
loop_
 _symmetry_equiv_pos_site_id
 _symmetry_equiv_pos_as_xyz
  1  'x, y, z'
loop_
 _atom_site_type_symbol
 _atom_site_label
 _atom_site_symmetry_multiplicity
 _atom_site_fract_x
 _atom_site_fract_y
 _atom_site_fract_z
 _atom_site_occupancy
  Na  Na0  1  0.50000001  0.50000001  0.80884900  1
  Li  Li1  1  0.50000001  0.50000001  0.19115100  1
  Cu  Cu2  1  0.50000001  0.50000001  0.50000000  1
  Cu  Cu3  1  0.00000000  0.00000000  0.64886800  1
  P  P4  1  0.00000000  0.00000000  0.35113200  1
  P  P5  1  0.00000000  0.00000000  0.00000000  1
  P  P6  1  0.00000000  0.00000000  0.84985600  1
  P  P7  1  0.00000000  0.00000000  0.15014400  1
  P  P8  1  -0.00000000  0.50000001  0.63173400  1
  P  P9  1  0.50000001  0.00000000  0.63173400  1
  P  P10  1  -0.00000000  0.50000001  0.36826600  1
  P  P11  1  0.50000001  0.00000000  0.36826600  1
