# generated using pymatgen
data_Er2MnFeCo10CuNi3
_symmetry_space_group_name_H-M   'P 1'
_cell_length_a   4.98799896
_cell_length_b   4.98799896
_cell_length_c   12.29714584
_cell_angle_alpha   78.29859924
_cell_angle_beta   78.29859924
_cell_angle_gamma   59.99998856
_symmetry_Int_Tables_number   1
_chemical_formula_structural   Er2MnFeCo10CuNi3
_chemical_formula_sum   'Er2 Mn1 Fe1 Co10 Cu1 Ni3'
_cell_volume   257.59625704
_cell_formula_units_Z   1
loop_
 _symmetry_equiv_pos_site_id
 _symmetry_equiv_pos_as_xyz
  1  'x, y, z'
loop_
 _atom_site_type_symbol
 _atom_site_label
 _atom_site_symmetry_multiplicity
 _atom_site_fract_x
 _atom_site_fract_y
 _atom_site_fract_z
 _atom_site_occupancy
  Mn  Mn0  1  0.05178700  0.05178700  0.84463903  1
  Er  Er1  1  0.94736697  0.94736698  0.15789905  1
  Er  Er2  1  0.14969500  0.14969500  0.55091503  1
  Co  Co3  1  0.85154497  0.85154498  0.44536505  1
  Co  Co4  1  0.27783999  0.27783999  0.16648002  1
  Fe  Fe5  1  0.72203998  0.72203998  0.83388006  1
  Cu  Cu6  1  0.38857099  0.38857099  0.83428704  1
  Co  Co7  1  0.61179098  0.61179099  0.16462703  1
  Co  Co8  1  0.61114998  0.10831100  0.66938904  1
  Co  Co9  1  0.61114998  0.61114999  0.66938905  1
  Co  Co10  1  0.10831099  0.61114999  0.66938904  1
  Co  Co11  1  0.38902999  0.89048998  0.33145004  1
  Ni  Ni12  1  0.38902999  0.38902999  0.33145003  1
  Ni  Ni13  1  0.89048998  0.38902999  0.33145004  1
  Co  Co14  1  0.49965999  0.49965999  0.00014002  1
  Co  Co15  1  0.00054000  0.49965999  0.00014001  1
  Co  Co16  1  0.49965999  0.00054000  0.00014001  1
  Ni  Ni17  1  0.50034399  0.50034399  0.49896804  1
