# generated using pymatgen
data_KNaLi2ClO9
_symmetry_space_group_name_H-M   'P 1'
_cell_length_a   5.02413177
_cell_length_b   6.58485603
_cell_length_c   6.58485603
_cell_angle_alpha   69.10207367
_cell_angle_beta   67.57390594
_cell_angle_gamma   67.57390594
_symmetry_Int_Tables_number   1
_chemical_formula_structural   KNaLi2ClO9
_chemical_formula_sum   'K1 Na1 Li2 Cl1 O9'
_cell_volume   180.36935173
_cell_formula_units_Z   1
loop_
 _symmetry_equiv_pos_site_id
 _symmetry_equiv_pos_as_xyz
  1  'x, y, z'
loop_
 _atom_site_type_symbol
 _atom_site_label
 _atom_site_symmetry_multiplicity
 _atom_site_fract_x
 _atom_site_fract_y
 _atom_site_fract_z
 _atom_site_occupancy
  K  K0  1  0.64466503  0.19828200  0.51238801  1
  Na  Na1  1  0.35533501  0.80171801  0.48761203  1
  Li  Li2  1  0.14466500  0.51238801  0.19828202  1
  Li  Li3  1  0.85533503  0.48761201  0.80171803  1
  O  O4  1  0.25000001  0.00000000  0.00000000  1
  O  O5  1  0.75000003  0.00000000  0.00000000  1
  Cl  Cl6  1  0.87182303  0.79088201  0.46547103  1
  O  O7  1  0.12817700  0.20911800  0.53452902  1
  O  O8  1  0.37182301  0.46547101  0.79088203  1
  O  O9  1  0.62817702  0.53452901  0.20911802  1
  O  O10  1  0.92234703  0.91275301  0.24255203  1
  O  O11  1  0.07765300  0.08724700  0.75744802  1
  O  O12  1  0.42234702  0.24255200  0.91275302  1
  O  O13  1  0.57765302  0.75744801  0.08724702  1
