# generated using pymatgen
data_LaDy2YAlGaSiGe5
_symmetry_space_group_name_H-M   'P 1'
_cell_length_a   5.57353973
_cell_length_b   5.57353973
_cell_length_c   9.65379143
_cell_angle_alpha   73.22159576
_cell_angle_beta   73.22159576
_cell_angle_gamma   60.00000000
_symmetry_Int_Tables_number   1
_chemical_formula_structural   LaDy2YAlGaSiGe5
_chemical_formula_sum   'La1 Dy2 Y1 Al1 Ga1 Si1 Ge5'
_cell_volume   244.85854968
_cell_formula_units_Z   1
loop_
 _symmetry_equiv_pos_site_id
 _symmetry_equiv_pos_as_xyz
  1  'x, y, z'
loop_
 _atom_site_type_symbol
 _atom_site_label
 _atom_site_symmetry_multiplicity
 _atom_site_fract_x
 _atom_site_fract_y
 _atom_site_fract_z
 _atom_site_occupancy
  La  La0  1  0.18744400  0.18744401  0.43766801  1
  Dy  Dy1  1  0.81262898  0.81262903  0.56211303  1
  Dy  Dy2  1  0.31251899  0.31251901  0.06244301  1
  Y  Y3  1  0.68739899  0.68739903  0.93780303  1
  Al  Al4  1  0.00004400  0.00004400  0.99986801  1
  Si  Si5  1  0.50001999  0.50002002  0.49994002  1
  Ge  Ge6  1  0.24984498  0.75010803  0.75020203  1
  Ga  Ga7  1  0.74995500  0.25023601  0.24985402  1
  Ge  Ge8  1  0.75010800  0.24984501  0.75020202  1
  Ge  Ge9  1  0.25023598  0.74995503  0.24985402  1
  Ge  Ge10  1  0.24984499  0.24984501  0.75020202  1
  Ge  Ge11  1  0.74995498  0.74995503  0.24985403  1
