# generated using pymatgen
data_TaNbCuPd4Rh
_symmetry_space_group_name_H-M   'P 1'
_cell_length_a   4.38044500
_cell_length_b   5.42732811
_cell_length_c   5.42732906
_cell_angle_alpha   60.00000381
_cell_angle_beta   90.00000000
_cell_angle_gamma   90.00000000
_symmetry_Int_Tables_number   1
_chemical_formula_structural   TaNbCuPd4Rh
_chemical_formula_sum   'Ta1 Nb1 Cu1 Pd4 Rh1'
_cell_volume   111.74320208
_cell_formula_units_Z   1
loop_
 _symmetry_equiv_pos_site_id
 _symmetry_equiv_pos_as_xyz
  1  'x, y, z'
loop_
 _atom_site_type_symbol
 _atom_site_label
 _atom_site_symmetry_multiplicity
 _atom_site_fract_x
 _atom_site_fract_y
 _atom_site_fract_z
 _atom_site_occupancy
  Ta  Ta0  1  0.25000000  0.83349600  0.33300796  1
  Nb  Nb1  1  0.25000000  0.83349600  0.83349495  1
  Pd  Pd2  1  0.25000000  0.33300900  0.83349497  1
  Cu  Cu3  1  0.75000000  0.16650400  0.66699198  1
  Rh  Rh4  1  0.75000000  0.16650400  0.16650499  1
  Pd  Pd5  1  0.75000000  0.66699100  0.16650497  1
  Pd  Pd6  1  0.75000000  0.66666667  0.66666663  1
  Pd  Pd7  1  0.25000000  0.33333333  0.33333331  1
