# generated using pymatgen
data_PrY(AlSi)2
_symmetry_space_group_name_H-M   'P 1'
_cell_length_a   4.20514822
_cell_length_b   4.24071217
_cell_length_c   7.67528296
_cell_angle_alpha   106.03697968
_cell_angle_beta   105.89891052
_cell_angle_gamma   90.00000000
_symmetry_Int_Tables_number   1
_chemical_formula_structural   PrY(AlSi)2
_chemical_formula_sum   'Pr1 Y1 Al2 Si2'
_cell_volume   126.08857814
_cell_formula_units_Z   1
loop_
 _symmetry_equiv_pos_site_id
 _symmetry_equiv_pos_as_xyz
  1  'x, y, z'
loop_
 _atom_site_type_symbol
 _atom_site_label
 _atom_site_symmetry_multiplicity
 _atom_site_fract_x
 _atom_site_fract_y
 _atom_site_fract_z
 _atom_site_occupancy
  Y  Y0  1  0.75397497  0.25397499  0.50795002  1
  Pr  Pr1  1  0.99907397  0.99907397  0.99814804  1
  Al  Al2  1  0.58253598  0.58253598  0.16507202  1
  Al  Al3  1  0.33440300  0.83440297  0.66880602  1
  Si  Si4  1  0.41428599  0.41428599  0.82857202  1
  Si  Si5  1  0.16572600  0.66572598  0.33145202  1
