# generated using pymatgen
data_ErHf(AlSi4)2
_symmetry_space_group_name_H-M   'P 1'
_cell_length_a   4.95144606
_cell_length_b   4.95144701
_cell_length_c   8.37148571
_cell_angle_alpha   90.00000000
_cell_angle_beta   90.00000000
_cell_angle_gamma   119.99999237
_symmetry_Int_Tables_number   1
_chemical_formula_structural   ErHf(AlSi4)2
_chemical_formula_sum   'Er1 Hf1 Al2 Si8'
_cell_volume   177.74500006
_cell_formula_units_Z   1
loop_
 _symmetry_equiv_pos_site_id
 _symmetry_equiv_pos_as_xyz
  1  'x, y, z'
loop_
 _atom_site_type_symbol
 _atom_site_label
 _atom_site_symmetry_multiplicity
 _atom_site_fract_x
 _atom_site_fract_y
 _atom_site_fract_z
 _atom_site_occupancy
  Er  Er0  1  0.66666665  0.33333332  0.06186200  1
  Hf  Hf1  1  0.33333330  0.66666663  0.93813803  1
  Al  Al2  1  0.33333330  0.66666663  0.56186202  1
  Al  Al3  1  0.66666665  0.33333332  0.43813802  1
  Si  Si4  1  0.82962196  0.65924397  0.75000003  1
  Si  Si5  1  0.82962198  0.17037699  0.75000003  1
  Si  Si6  1  0.34075499  0.17037699  0.75000003  1
  Si  Si7  1  0.17037798  0.34075598  0.25000001  1
  Si  Si8  1  0.17037797  0.82962296  0.25000001  1
  Si  Si9  1  0.65924496  0.82962296  0.25000001  1
  Si  Si10  1  0.00000000  0.00000000  0.50000002  1
  Si  Si11  1  0.00000000  0.00000000  0.00000000  1
