# generated using pymatgen
data_BaLaIn2(SnAu)2
_symmetry_space_group_name_H-M   'P 1'
_cell_length_a   6.05052805
_cell_length_b   6.30260038
_cell_length_c   6.30260038
_cell_angle_alpha   104.13337708
_cell_angle_beta   90.00000000
_cell_angle_gamma   90.00000000
_symmetry_Int_Tables_number   1
_chemical_formula_structural   BaLaIn2(SnAu)2
_chemical_formula_sum   'Ba1 La1 In2 Sn2 Au2'
_cell_volume   233.06852307
_cell_formula_units_Z   1
loop_
 _symmetry_equiv_pos_site_id
 _symmetry_equiv_pos_as_xyz
  1  'x, y, z'
loop_
 _atom_site_type_symbol
 _atom_site_label
 _atom_site_symmetry_multiplicity
 _atom_site_fract_x
 _atom_site_fract_y
 _atom_site_fract_z
 _atom_site_occupancy
  Ba  Ba0  1  0.25000000  0.31220201  0.96843702  1
  In  In1  1  0.25000000  0.96843702  0.31220200  1
  La  La2  1  0.74999999  0.68779801  0.03156300  1
  In  In3  1  0.74999999  0.03156300  0.68779801  1
  Sn  Sn4  1  0.50000000  0.50000001  0.50000001  1
  Sn  Sn5  1  -0.00000000  0.50000001  0.50000001  1
  Au  Au6  1  0.25000000  0.75177802  0.75177801  1
  Au  Au7  1  0.74999999  0.24822201  0.24822200  1
