# generated using pymatgen
data_NaLiCu2P5
_symmetry_space_group_name_H-M   'P 1'
_cell_length_a   4.73881578
_cell_length_b   5.89248991
_cell_length_c   5.89248991
_cell_angle_alpha   120.00000000
_cell_angle_beta   90.00000000
_cell_angle_gamma   90.00000000
_symmetry_Int_Tables_number   1
_chemical_formula_structural   NaLiCu2P5
_chemical_formula_sum   'Na1 Li1 Cu2 P5'
_cell_volume   142.49451686
_cell_formula_units_Z   1
loop_
 _symmetry_equiv_pos_site_id
 _symmetry_equiv_pos_as_xyz
  1  'x, y, z'
loop_
 _atom_site_type_symbol
 _atom_site_label
 _atom_site_symmetry_multiplicity
 _atom_site_fract_x
 _atom_site_fract_y
 _atom_site_fract_z
 _atom_site_occupancy
  Na  Na0  1  0.71025303  0.33333334  0.66666667  1
  Li  Li1  1  0.28974701  0.66666668  0.33333333  1
  Cu  Cu2  1  0.00000000  0.00000000  0.00000000  1
  Cu  Cu3  1  0.22640801  0.16220700  0.32441400  1
  P  P4  1  0.22640801  0.16220700  0.83779201  1
  P  P5  1  0.22640801  0.67558501  0.83779201  1
  P  P6  1  0.77359204  0.83779301  0.67558600  1
  P  P7  1  0.77359204  0.83779301  0.16220800  1
  P  P8  1  0.77359204  0.32441500  0.16220800  1
