# generated using pymatgen
data_Na2Li2OF3
_symmetry_space_group_name_H-M   'P 1'
_cell_length_a   6.16841221
_cell_length_b   6.16841221
_cell_length_c   6.47711563
_cell_angle_alpha   61.56446457
_cell_angle_beta   61.56446457
_cell_angle_gamma   59.99999619
_symmetry_Int_Tables_number   1
_chemical_formula_structural   Na2Li2OF3
_chemical_formula_sum   'Na4 Li4 O2 F6'
_cell_volume   178.27407459
_cell_formula_units_Z   2
loop_
 _symmetry_equiv_pos_site_id
 _symmetry_equiv_pos_as_xyz
  1  'x, y, z'
loop_
 _atom_site_type_symbol
 _atom_site_label
 _atom_site_symmetry_multiplicity
 _atom_site_fract_x
 _atom_site_fract_y
 _atom_site_fract_z
 _atom_site_occupancy
  Na  Na0  1  0.50000001  0.00000000  0.50000001  1
  Na  Na1  1  0.00000000  0.00000000  0.00000000  1
  Na  Na2  1  -0.00000001  0.50000001  0.50000002  1
  Na  Na3  1  0.00000000  0.00000000  0.50000002  1
  Li  Li4  1  0.50000000  0.50000001  0.50000001  1
  Li  Li5  1  0.50000000  0.50000001  -0.00000000  1
  Li  Li6  1  -0.00000001  0.50000001  0.00000000  1
  Li  Li7  1  0.50000001  0.00000000  -0.00000000  1
  F  F8  1  0.73566300  0.73566301  0.79301102  1
  F  F9  1  0.24907000  0.24907000  0.79995402  1
  O  O10  1  0.24906999  0.70190601  0.79995402  1
  O  O11  1  0.75093000  0.29809401  0.20004600  1
  F  F12  1  0.29809399  0.75093001  0.20004600  1
  F  F13  1  0.26433700  0.26433700  0.20698901  1
  F  F14  1  0.70190600  0.24907000  0.79995402  1
  F  F15  1  0.75093000  0.75093001  0.20004600  1
