# generated using pymatgen
data_HfAl4GaSi2
_symmetry_space_group_name_H-M   'P 1'
_cell_length_a   4.65528202
_cell_length_b   5.75084782
_cell_length_c   5.75084782
_cell_angle_alpha   120.00000000
_cell_angle_beta   90.00000000
_cell_angle_gamma   90.00000000
_symmetry_Int_Tables_number   1
_chemical_formula_structural   HfAl4GaSi2
_chemical_formula_sum   'Hf1 Al4 Ga1 Si2'
_cell_volume   133.33383723
_cell_formula_units_Z   1
loop_
 _symmetry_equiv_pos_site_id
 _symmetry_equiv_pos_as_xyz
  1  'x, y, z'
loop_
 _atom_site_type_symbol
 _atom_site_label
 _atom_site_symmetry_multiplicity
 _atom_site_fract_x
 _atom_site_fract_y
 _atom_site_fract_z
 _atom_site_occupancy
  Hf  Hf0  1  0.75000000  0.16970700  0.83029296  1
  Al  Al1  1  0.25000000  0.83029301  0.66058594  1
  Al  Al2  1  0.25000000  0.33941400  0.16970698  1
  Al  Al3  1  0.75000000  0.66058601  0.83029294  1
  Si  Si4  1  0.75000000  0.16970700  0.33941398  1
  Al  Al5  1  0.25000000  0.83029301  0.16970696  1
  Ga  Ga6  1  0.75000000  0.66666667  0.33333329  1
  Si  Si7  1  0.25000000  0.33333334  0.66666663  1
