# generated using pymatgen
data_KSrNiHS4Cl
_symmetry_space_group_name_H-M   'P 1'
_cell_length_a   6.73929167
_cell_length_b   6.73929167
_cell_length_c   6.73929167
_cell_angle_alpha   98.61234283
_cell_angle_beta   115.15863037
_cell_angle_gamma   115.15863037
_symmetry_Int_Tables_number   1
_chemical_formula_structural   KSrNiHS4Cl
_chemical_formula_sum   'K1 Sr1 Ni1 H1 S4 Cl1'
_cell_volume   229.45856336
_cell_formula_units_Z   1
loop_
 _symmetry_equiv_pos_site_id
 _symmetry_equiv_pos_as_xyz
  1  'x, y, z'
loop_
 _atom_site_type_symbol
 _atom_site_label
 _atom_site_symmetry_multiplicity
 _atom_site_fract_x
 _atom_site_fract_y
 _atom_site_fract_z
 _atom_site_occupancy
  Sr  Sr0  1  0.50000004  0.75000001  0.25000006  1
  K  K1  1  0.50000000  0.25000000  0.75000001  1
  Ni  Ni2  1  0.00000000  0.00000000  0.00000000  1
  H  H3  1  0.47297700  0.23648900  0.23648902  1
  S  S4  1  0.52702304  0.76351101  0.76351105  1
  S  S5  1  0.00000005  0.76351201  0.23648806  1
  S  S6  1  0.00000001  0.23648800  0.76351200  1
  S  S7  1  0.00000005  0.80015101  0.80015105  1
  Cl  Cl8  1  0.00000001  0.19984900  0.19984901  1
