# generated using pymatgen
data_K3Tl5
_symmetry_space_group_name_H-M   'P 1'
_cell_length_a   6.30725193
_cell_length_b   7.81938982
_cell_length_c   7.81939077
_cell_angle_alpha   60.00000381
_cell_angle_beta   90.00000000
_cell_angle_gamma   90.00000000
_symmetry_Int_Tables_number   1
_chemical_formula_structural   K3Tl5
_chemical_formula_sum   'K3 Tl5'
_cell_volume   333.97703809
_cell_formula_units_Z   1
loop_
 _symmetry_equiv_pos_site_id
 _symmetry_equiv_pos_as_xyz
  1  'x, y, z'
loop_
 _atom_site_type_symbol
 _atom_site_label
 _atom_site_symmetry_multiplicity
 _atom_site_fract_x
 _atom_site_fract_y
 _atom_site_fract_z
 _atom_site_occupancy
  K  K0  1  0.25000000  0.82973001  0.34054002  1
  K  K1  1  0.25000000  0.82973001  0.82972900  1
  K  K2  1  0.25000000  0.34054100  0.82972899  1
  Tl  Tl3  1  0.75000001  0.17027000  0.65945999  1
  Tl  Tl4  1  0.75000001  0.17027000  0.17027100  1
  Tl  Tl5  1  0.75000001  0.65945901  0.17027102  1
  Tl  Tl6  1  0.75000001  0.66666667  0.66666667  1
  Tl  Tl7  1  0.25000000  0.33333334  0.33333333  1
