# generated using pymatgen
data_Er4Ga6(SnRh)5
_symmetry_space_group_name_H-M   'P 1'
_cell_length_a   4.42332220
_cell_length_b   7.64971113
_cell_length_c   11.96897602
_cell_angle_alpha   90.00000000
_cell_angle_beta   90.00000000
_cell_angle_gamma   90.00000000
_symmetry_Int_Tables_number   1
_chemical_formula_structural   Er4Ga6(SnRh)5
_chemical_formula_sum   'Er4 Ga6 Sn5 Rh5'
_cell_volume   404.99588232
_cell_formula_units_Z   1
loop_
 _symmetry_equiv_pos_site_id
 _symmetry_equiv_pos_as_xyz
  1  'x, y, z'
loop_
 _atom_site_type_symbol
 _atom_site_label
 _atom_site_symmetry_multiplicity
 _atom_site_fract_x
 _atom_site_fract_y
 _atom_site_fract_z
 _atom_site_occupancy
  Er  Er0  1  0.49999998  0.49999999  0.67727700  1
  Er  Er1  1  0.00000000  0.00000000  0.32272300  1
  Er  Er2  1  0.00000000  0.70696699  0.83754400  1
  Er  Er3  1  0.00000000  0.80161499  0.58397800  1
  Ga  Ga4  1  0.00000000  0.49999999  0.25163900  1
  Ga  Ga5  1  0.49999998  0.20696700  0.16245600  1
  Ga  Ga6  1  0.00000000  0.00000000  0.01166600  1
  Ga  Ga7  1  0.00000000  0.29303299  0.83754400  1
  Ga  Ga8  1  0.49999998  0.49999999  0.98833400  1
  Ga  Ga9  1  0.49999998  0.79303299  0.16245600  1
  Sn  Sn10  1  0.49999998  0.30161499  0.41602200  1
  Sn  Sn11  1  0.00000000  0.19838500  0.58397800  1
  Sn  Sn12  1  0.49999998  0.69838499  0.41602200  1
  Sn  Sn13  1  0.49999998  0.00000000  0.74836100  1
  Rh  Rh14  1  0.49999998  0.00000000  0.53300000  1
  Sn  Sn15  1  0.00000000  0.49999999  0.46700000  1
  Rh  Rh16  1  0.00000000  0.32784399  0.06431900  1
  Rh  Rh17  1  0.00000000  0.67215599  0.06431900  1
  Rh  Rh18  1  0.49999998  0.17215600  0.93568100  1
  Rh  Rh19  1  0.49999998  0.82784399  0.93568100  1
