# generated using pymatgen
data_CsNaRu
_symmetry_space_group_name_H-M   'P 1'
_cell_length_a   3.57234812
_cell_length_b   3.57234812
_cell_length_c   8.81544590
_cell_angle_alpha   78.30986023
_cell_angle_beta   78.30986023
_cell_angle_gamma   60.00000000
_symmetry_Int_Tables_number   1
_chemical_formula_structural   CsNaRu
_chemical_formula_sum   'Cs1 Na1 Ru1'
_cell_volume   94.72362217
_cell_formula_units_Z   1
loop_
 _symmetry_equiv_pos_site_id
 _symmetry_equiv_pos_as_xyz
  1  'x, y, z'
loop_
 _atom_site_type_symbol
 _atom_site_label
 _atom_site_symmetry_multiplicity
 _atom_site_fract_x
 _atom_site_fract_y
 _atom_site_fract_z
 _atom_site_occupancy
  Cs  Cs0  1  0.00000000  0.00000000  0.00000000  1
  Na  Na1  1  0.22205101  0.22205099  0.33384698  1
  Ru  Ru2  1  0.77794902  0.77794898  0.66615295  1
