# generated using pymatgen
data_Y2Ga3SiGe4
_symmetry_space_group_name_H-M   'P 1'
_cell_length_a   4.21731281
_cell_length_b   4.21731281
_cell_length_c   10.55044937
_cell_angle_alpha   90.00000000
_cell_angle_beta   90.00000000
_cell_angle_gamma   90.00000000
_symmetry_Int_Tables_number   1
_chemical_formula_structural   Y2Ga3SiGe4
_chemical_formula_sum   'Y2 Ga3 Si1 Ge4'
_cell_volume   187.64741606
_cell_formula_units_Z   1
loop_
 _symmetry_equiv_pos_site_id
 _symmetry_equiv_pos_as_xyz
  1  'x, y, z'
loop_
 _atom_site_type_symbol
 _atom_site_label
 _atom_site_symmetry_multiplicity
 _atom_site_fract_x
 _atom_site_fract_y
 _atom_site_fract_z
 _atom_site_occupancy
  Y  Y0  1  0.00000000  0.00000000  0.00000000  1
  Y  Y1  1  0.50000002  0.50000002  0.49999998  1
  Ga  Ga2  1  0.50000002  0.50000002  0.12326900  1
  Ga  Ga3  1  0.00000000  0.00000000  0.62707098  1
  Ga  Ga4  1  0.00000000  0.00000000  0.37292899  1
  Si  Si5  1  0.50000002  0.50000002  0.87673097  1
  Ge  Ge6  1  0.00000000  0.50000002  0.24984799  1
  Ge  Ge7  1  0.50000002  0.00000000  0.75015197  1
  Ge  Ge8  1  0.50000002  0.00000000  0.24984799  1
  Ge  Ge9  1  0.00000000  0.50000002  0.75015197  1
