# generated using pymatgen
data_Li2Co2NiP3
_symmetry_space_group_name_H-M   'P 1'
_cell_length_a   5.25338507
_cell_length_b   5.87863302
_cell_length_c   6.29743481
_cell_angle_alpha   90.00000000
_cell_angle_beta   90.00000000
_cell_angle_gamma   90.00000000
_symmetry_Int_Tables_number   1
_chemical_formula_structural   Li2Co2NiP3
_chemical_formula_sum   'Li4 Co4 Ni2 P6'
_cell_volume   194.48193433
_cell_formula_units_Z   2
loop_
 _symmetry_equiv_pos_site_id
 _symmetry_equiv_pos_as_xyz
  1  'x, y, z'
loop_
 _atom_site_type_symbol
 _atom_site_label
 _atom_site_symmetry_multiplicity
 _atom_site_fract_x
 _atom_site_fract_y
 _atom_site_fract_z
 _atom_site_occupancy
  Li  Li0  1  0.25000000  0.00640700  0.34884701  1
  Li  Li1  1  0.25000000  0.50640700  0.15115300  1
  Li  Li2  1  0.74999999  0.99359300  0.65115302  1
  Li  Li3  1  0.74999999  0.49359300  0.84884703  1
  Co  Co4  1  0.07300000  0.37227500  0.54356602  1
  Ni  Ni5  1  0.42699999  0.87227500  0.95643403  1
  Co  Co6  1  0.57299999  0.62772500  0.45643401  1
  Co  Co7  1  0.92699999  0.12772500  0.04356600  1
  Ni  Ni8  1  0.92699999  0.62772500  0.45643401  1
  Co  Co9  1  0.57299999  0.12772500  0.04356600  1
  P  P10  1  0.42699999  0.37227500  0.54356602  1
  P  P11  1  0.07300000  0.87227500  0.95643403  1
  P  P12  1  0.25000000  0.17986200  0.80851302  1
  P  P13  1  0.25000000  0.67986200  0.69148702  1
  P  P14  1  0.74999999  0.82013800  0.19148701  1
  P  P15  1  0.74999999  0.32013800  0.30851301  1
