# generated using pymatgen
data_Mn4Fe5Si3
_symmetry_space_group_name_H-M   'P 1'
_cell_length_a   3.71314406
_cell_length_b   5.99371290
_cell_length_c   7.02560711
_cell_angle_alpha   90.00000000
_cell_angle_beta   90.00000000
_cell_angle_gamma   90.00000000
_symmetry_Int_Tables_number   1
_chemical_formula_structural   Mn4Fe5Si3
_chemical_formula_sum   'Mn4 Fe5 Si3'
_cell_volume   156.35853590
_cell_formula_units_Z   1
loop_
 _symmetry_equiv_pos_site_id
 _symmetry_equiv_pos_as_xyz
  1  'x, y, z'
loop_
 _atom_site_type_symbol
 _atom_site_label
 _atom_site_symmetry_multiplicity
 _atom_site_fract_x
 _atom_site_fract_y
 _atom_site_fract_z
 _atom_site_occupancy
  Mn  Mn0  1  0.25000000  0.02643800  0.81922199  1
  Mn  Mn1  1  0.25000000  0.52643801  0.68077799  1
  Mn  Mn2  1  0.74999999  0.97356202  0.18077800  1
  Mn  Mn3  1  0.74999999  0.47356201  0.31922200  1
  Fe  Fe4  1  0.25000000  0.14556100  0.44220899  1
  Fe  Fe5  1  0.25000000  0.64556101  0.05779100  1
  Fe  Fe6  1  0.74999999  0.85443901  0.55779099  1
  Fe  Fe7  1  0.74999999  0.35443901  0.94220899  1
  Fe  Fe8  1  0.25000000  0.75803401  0.37578999  1
  Si  Si9  1  0.25000000  0.25803400  0.12421000  1
  Si  Si10  1  0.74999999  0.24196600  0.62420999  1
  Si  Si11  1  0.74999999  0.74196601  0.87578999  1
