# generated using pymatgen
data_ZrAl3
_symmetry_space_group_name_H-M   'P 1'
_cell_length_a   3.27074599
_cell_length_b   4.58603716
_cell_length_c   5.14739704
_cell_angle_alpha   90.00000000
_cell_angle_beta   90.00000000
_cell_angle_gamma   90.00000000
_symmetry_Int_Tables_number   1
_chemical_formula_structural   ZrAl3
_chemical_formula_sum   'Zr1 Al3'
_cell_volume   77.20973394
_cell_formula_units_Z   1
loop_
 _symmetry_equiv_pos_site_id
 _symmetry_equiv_pos_as_xyz
  1  'x, y, z'
loop_
 _atom_site_type_symbol
 _atom_site_label
 _atom_site_symmetry_multiplicity
 _atom_site_fract_x
 _atom_site_fract_y
 _atom_site_fract_z
 _atom_site_occupancy
  Zr  Zr0  1  0.00000000  0.49999998  0.33677800  1
  Al  Al1  1  0.00000000  0.00000000  0.98787399  1
  Al  Al2  1  0.50000000  0.00000000  0.50661500  1
  Al  Al3  1  0.50000000  0.49999998  0.83539899  1
