# generated using pymatgen
data_La2YIn3SnAu2
_symmetry_space_group_name_H-M   'P 1'
_cell_length_a   3.91265798
_cell_length_b   7.94445801
_cell_length_c   7.94445753
_cell_angle_alpha   120.00000000
_cell_angle_beta   90.00000000
_cell_angle_gamma   90.00000000
_symmetry_Int_Tables_number   1
_chemical_formula_structural   La2YIn3SnAu2
_chemical_formula_sum   'La2 Y1 In3 Sn1 Au2'
_cell_volume   213.86072713
_cell_formula_units_Z   1
loop_
 _symmetry_equiv_pos_site_id
 _symmetry_equiv_pos_as_xyz
  1  'x, y, z'
loop_
 _atom_site_type_symbol
 _atom_site_label
 _atom_site_symmetry_multiplicity
 _atom_site_fract_x
 _atom_site_fract_y
 _atom_site_fract_z
 _atom_site_occupancy
  Y  Y0  1  0.50000000  0.00000000  0.59478601  1
  La  La1  1  0.50000000  0.40521399  0.40521399  1
  La  La2  1  0.50000000  0.59478599  -0.00000002  1
  In  In3  1  0.00000000  0.00000000  0.26378000  1
  In  In4  1  1.00000001  0.73621999  0.73621998  1
  In  In5  1  1.00000001  0.26378000  -0.00000001  1
  Sn  Sn6  1  0.50000000  0.00000000  -0.00000000  1
  Au  Au7  1  1.00000001  0.33333333  0.66666666  1
  Au  Au8  1  -0.00000000  0.66666665  0.33333331  1
