# generated using pymatgen
data_EuYEr2Ga2Si3Ni8Ru2Rh
_symmetry_space_group_name_H-M   'P 1'
_cell_length_a   6.03303194
_cell_length_b   8.30934048
_cell_length_c   8.30934048
_cell_angle_alpha   73.70152283
_cell_angle_beta   68.71378326
_cell_angle_gamma   68.71378326
_symmetry_Int_Tables_number   1
_chemical_formula_structural   EuYEr2Ga2Si3Ni8Ru2Rh
_chemical_formula_sum   'Eu1 Y1 Er2 Ga2 Si3 Ni8 Ru2 Rh1'
_cell_volume   356.29983947
_cell_formula_units_Z   1
loop_
 _symmetry_equiv_pos_site_id
 _symmetry_equiv_pos_as_xyz
  1  'x, y, z'
loop_
 _atom_site_type_symbol
 _atom_site_label
 _atom_site_symmetry_multiplicity
 _atom_site_fract_x
 _atom_site_fract_y
 _atom_site_fract_z
 _atom_site_occupancy
  Eu  Eu0  1  0.37219405  0.89410001  0.36151198  1
  Y  Y1  1  0.62780600  0.10590000  0.63848802  1
  Er  Er2  1  0.87219302  0.36151201  0.89410102  1
  Er  Er3  1  0.12780704  0.63848801  0.10589898  1
  Ga  Ga4  1  0.11447701  0.23614200  0.53490400  1
  Ga  Ga5  1  0.88552304  0.76385801  0.46509600  1
  Si  Si6  1  0.61447703  0.53490401  0.23614200  1
  Ni  Ni7  1  0.38552303  0.46509601  0.76385801  1
  Ni  Ni8  1  0.02399004  0.72601001  0.72600999  1
  Ni  Ni9  1  0.97601001  0.27399000  0.27399002  1
  Ni  Ni10  1  0.47601001  0.27399000  0.27399001  1
  Ni  Ni11  1  0.52399004  0.72601001  0.72601000  1
  Si  Si12  1  0.75000005  1.00000001  -0.00000002  1
  Si  Si13  1  0.25000006  1.00000001  -0.00000003  1
  Ni  Ni14  1  0.75000003  0.50000001  0.50000001  1
  Ni  Ni15  1  0.25000003  0.50000001  0.50000000  1
  Rh  Rh16  1  0.13789705  0.97145601  0.75274898  1
  Ni  Ni17  1  0.86210300  0.02854400  0.24725103  1
  Ru  Ru18  1  0.63789804  0.75274801  0.97145600  1
  Ru  Ru19  1  0.36210201  0.24725200  0.02854400  1
