# generated using pymatgen
data_Y2AlGa4Ge7
_symmetry_space_group_name_H-M   'P 1'
_cell_length_a   6.08304596
_cell_length_b   6.08304596
_cell_length_c   7.66549921
_cell_angle_alpha   90.00000000
_cell_angle_beta   90.00000000
_cell_angle_gamma   90.00000000
_symmetry_Int_Tables_number   1
_chemical_formula_structural   Y2AlGa4Ge7
_chemical_formula_sum   'Y2 Al1 Ga4 Ge7'
_cell_volume   283.64990254
_cell_formula_units_Z   1
loop_
 _symmetry_equiv_pos_site_id
 _symmetry_equiv_pos_as_xyz
  1  'x, y, z'
loop_
 _atom_site_type_symbol
 _atom_site_label
 _atom_site_symmetry_multiplicity
 _atom_site_fract_x
 _atom_site_fract_y
 _atom_site_fract_z
 _atom_site_occupancy
  Y  Y0  1  0.50000000  0.00000000  0.00000000  1
  Y  Y1  1  0.00000000  0.50000000  0.00000000  1
  Al  Al2  1  0.50000000  0.50000000  0.16174900  1
  Ga  Ga3  1  0.00000000  0.00000000  0.16174900  1
  Ga  Ga4  1  0.00000000  0.00000000  0.83825098  1
  Ga  Ga5  1  0.50000000  0.50000000  0.83825098  1
  Ga  Ga6  1  0.80774401  0.69225600  0.34950499  1
  Ge  Ge7  1  0.30774400  0.80774401  0.34950499  1
  Ge  Ge8  1  0.69225600  0.19225600  0.34950499  1
  Ge  Ge9  1  0.19225600  0.30774400  0.34950499  1
  Ge  Ge10  1  0.69225600  0.80774401  0.65049498  1
  Ge  Ge11  1  0.19225600  0.69225600  0.65049498  1
  Ge  Ge12  1  0.80774401  0.30774400  0.65049498  1
  Ge  Ge13  1  0.30774400  0.19225600  0.65049498  1
