# generated using pymatgen
data_K2Nb2GaCuS8
_symmetry_space_group_name_H-M   'P 1'
_cell_length_a   3.58744001
_cell_length_b   9.14997673
_cell_length_c   9.56069279
_cell_angle_alpha   104.93640900
_cell_angle_beta   100.81357574
_cell_angle_gamma   90.00000000
_symmetry_Int_Tables_number   1
_chemical_formula_structural   K2Nb2GaCuS8
_chemical_formula_sum   'K2 Nb2 Ga1 Cu1 S8'
_cell_volume   297.45483046
_cell_formula_units_Z   1
loop_
 _symmetry_equiv_pos_site_id
 _symmetry_equiv_pos_as_xyz
  1  'x, y, z'
loop_
 _atom_site_type_symbol
 _atom_site_label
 _atom_site_symmetry_multiplicity
 _atom_site_fract_x
 _atom_site_fract_y
 _atom_site_fract_z
 _atom_site_occupancy
  K  K0  1  0.50000000  0.49999999  -0.00000001  1
  K  K1  1  0.00000000  0.00000000  0.00000000  1
  Nb  Nb2  1  0.65007901  0.99182898  0.30015798  1
  Nb  Nb3  1  0.70964800  0.34985199  0.41929600  1
  Ga  Ga4  1  0.29035201  0.65014799  0.58070398  1
  Cu  Cu5  1  0.34992100  0.00817100  0.69984201  1
  S  S6  1  0.57362500  0.17745700  0.14725000  1
  S  S7  1  0.08285401  0.80945099  0.16570797  1
  S  S8  1  0.15921500  0.49797399  0.31842999  1
  S  S9  1  0.24185900  0.15976300  0.48371800  1
  S  S10  1  0.75814101  0.84023699  0.51628198  1
  S  S11  1  0.84078501  0.50202599  0.68157000  1
  S  S12  1  0.91714600  0.19054900  0.83429201  1
  S  S13  1  0.42637501  0.82254299  0.85274998  1
