# generated using pymatgen
data_Li2BeAlH6
_symmetry_space_group_name_H-M   'P 1'
_cell_length_a   3.43128610
_cell_length_b   3.43128610
_cell_length_c   11.45834446
_cell_angle_alpha   90.00000000
_cell_angle_beta   90.00000000
_cell_angle_gamma   120.00000000
_symmetry_Int_Tables_number   1
_chemical_formula_structural   Li2BeAlH6
_chemical_formula_sum   'Li2 Be1 Al1 H6'
_cell_volume   116.83322545
_cell_formula_units_Z   1
loop_
 _symmetry_equiv_pos_site_id
 _symmetry_equiv_pos_as_xyz
  1  'x, y, z'
loop_
 _atom_site_type_symbol
 _atom_site_label
 _atom_site_symmetry_multiplicity
 _atom_site_fract_x
 _atom_site_fract_y
 _atom_site_fract_z
 _atom_site_occupancy
  Li  Li0  1  0.00000000  0.00000000  0.00000000  1
  Li  Li1  1  0.00000000  0.00000000  0.49999998  1
  Be  Be2  1  0.66666666  0.33333334  0.74999997  1
  Al  Al3  1  0.33333334  0.66666668  0.24999999  1
  H  H4  1  0.66666666  0.33333334  0.90974996  1
  H  H5  1  0.66666666  0.33333334  0.59024998  1
  H  H6  1  0.00000000  0.00000000  0.74999997  1
  H  H7  1  0.00000000  0.00000000  0.24999999  1
  H  H8  1  0.33333334  0.66666668  0.09025000  1
  H  H9  1  0.33333334  0.66666668  0.40974998  1
