# generated using pymatgen
data_Y4Al4FeSi7
_symmetry_space_group_name_H-M   'P 1'
_cell_length_a   4.07784224
_cell_length_b   5.65462160
_cell_length_c   13.59724903
_cell_angle_alpha   90.00000000
_cell_angle_beta   90.00000000
_cell_angle_gamma   111.13557434
_symmetry_Int_Tables_number   1
_chemical_formula_structural   Y4Al4FeSi7
_chemical_formula_sum   'Y4 Al4 Fe1 Si7'
_cell_volume   292.44276991
_cell_formula_units_Z   1
loop_
 _symmetry_equiv_pos_site_id
 _symmetry_equiv_pos_as_xyz
  1  'x, y, z'
loop_
 _atom_site_type_symbol
 _atom_site_label
 _atom_site_symmetry_multiplicity
 _atom_site_fract_x
 _atom_site_fract_y
 _atom_site_fract_z
 _atom_site_occupancy
  Y  Y0  1  0.41969092  0.83938196  0.38801800  1
  Y  Y1  1  0.58030896  0.16061799  0.61198200  1
  Y  Y2  1  0.58030896  0.16061799  0.88801800  1
  Y  Y3  1  0.41969092  0.83938196  0.11198200  1
  Al  Al4  1  0.86458690  0.72917396  0.75000000  1
  Al  Al5  1  0.13541297  0.27082599  0.25000000  1
  Al  Al6  1  0.71547893  0.43095798  0.08043700  1
  Fe  Fe7  1  0.28452095  0.56904197  0.91956300  1
  Al  Al8  1  0.28452095  0.56904197  0.58043700  1
  Si  Si9  1  0.71547893  0.43095798  0.41956300  1
  Si  Si10  1  0.12615498  0.25230999  0.46022600  1
  Si  Si11  1  0.87384490  0.74768996  0.53977400  1
  Si  Si12  1  0.87384490  0.74768996  0.96022600  1
  Si  Si13  1  0.12615498  0.25230999  0.03977400  1
  Si  Si14  1  0.17618597  0.35237198  0.75000000  1
  Si  Si15  1  0.82381391  0.64762797  0.25000000  1
