# generated using pymatgen
data_TiNb(CuS2)4
_symmetry_space_group_name_H-M   'P 1'
_cell_length_a   3.69407678
_cell_length_b   8.42125130
_cell_length_c   10.28908920
_cell_angle_alpha   89.71988678
_cell_angle_beta   79.64804840
_cell_angle_gamma   77.32308197
_symmetry_Int_Tables_number   1
_chemical_formula_structural   TiNb(CuS2)4
_chemical_formula_sum   'Ti1 Nb1 Cu4 S8'
_cell_volume   306.99592309
_cell_formula_units_Z   1
loop_
 _symmetry_equiv_pos_site_id
 _symmetry_equiv_pos_as_xyz
  1  'x, y, z'
loop_
 _atom_site_type_symbol
 _atom_site_label
 _atom_site_symmetry_multiplicity
 _atom_site_fract_x
 _atom_site_fract_y
 _atom_site_fract_z
 _atom_site_occupancy
  Cu  Cu0  1  0.64577083  0.92319620  0.77994651  1
  Nb  Nb1  1  0.38093567  0.56952884  0.66012254  1
  Cu  Cu2  1  0.86239189  0.81842152  0.45451627  1
  Ti  Ti3  1  0.61030069  0.43270164  0.34076639  1
  Cu  Cu4  1  0.13772310  0.18008078  0.54315237  1
  Cu  Cu5  1  0.35128876  0.07810781  0.21703895  1
  S  S6  1  0.24747430  0.87724618  0.62581036  1
  S  S7  1  0.74927369  0.12591582  0.37256853  1
  S  S8  1  0.99417818  0.50191752  0.49969491  1
  S  S9  1  0.49860947  0.25404586  0.75704067  1
  S  S10  1  0.74856867  0.61997947  0.87125733  1
  S  S11  1  0.50928788  0.74738169  0.23922983  1
  S  S12  1  0.23759399  0.38431721  0.12966234  1
  S  S13  1  0.00006620  0.00357069  0.99850921  1
