# generated using pymatgen
data_K2RbCu(OF2)4
_symmetry_space_group_name_H-M   'P 1'
_cell_length_a   7.12120008
_cell_length_b   7.12120008
_cell_length_c   7.12120008
_cell_angle_alpha   60.00000000
_cell_angle_beta   60.00000000
_cell_angle_gamma   60.00000000
_symmetry_Int_Tables_number   1
_chemical_formula_structural   K2RbCu(OF2)4
_chemical_formula_sum   'K2 Rb1 Cu1 O4 F8'
_cell_volume   255.35511827
_cell_formula_units_Z   1
loop_
 _symmetry_equiv_pos_site_id
 _symmetry_equiv_pos_as_xyz
  1  'x, y, z'
loop_
 _atom_site_type_symbol
 _atom_site_label
 _atom_site_symmetry_multiplicity
 _atom_site_fract_x
 _atom_site_fract_y
 _atom_site_fract_z
 _atom_site_occupancy
  K  K0  1  0.25000001  0.25000001  0.25000001  1
  Rb  Rb1  1  0.75000002  0.75000002  0.75000002  1
  Cu  Cu2  1  0.50000001  0.50000001  0.50000001  1
  K  K3  1  0.00000000  0.00000000  0.00000000  1
  F  F4  1  0.18779600  0.81220402  0.18779600  1
  F  F5  1  0.81220402  0.18779600  0.18779600  1
  F  F6  1  0.81220402  0.81220402  0.18779600  1
  F  F7  1  0.18779600  0.18779600  0.81220402  1
  F  F8  1  0.18779600  0.81220402  0.81220402  1
  F  F9  1  0.81220402  0.18779600  0.81220402  1
  O  O10  1  0.69482602  0.30517401  0.69482602  1
  O  O11  1  0.30517401  0.30517401  0.69482602  1
  F  F12  1  0.30517401  0.69482602  0.30517401  1
  O  O13  1  0.69482602  0.30517401  0.30517401  1
  O  O14  1  0.69482602  0.69482602  0.30517401  1
  F  F15  1  0.30517401  0.69482602  0.69482602  1
