# generated using pymatgen
data_Na2LiEuPO7
_symmetry_space_group_name_H-M   'P 1'
_cell_length_a   5.06506586
_cell_length_b   5.11159801
_cell_length_c   5.59162474
_cell_angle_alpha   85.40116882
_cell_angle_beta   80.68684387
_cell_angle_gamma   60.30067825
_symmetry_Int_Tables_number   1
_chemical_formula_structural   Na2LiEuPO7
_chemical_formula_sum   'Na2 Li1 Eu1 P1 O7'
_cell_volume   124.09538781
_cell_formula_units_Z   1
loop_
 _symmetry_equiv_pos_site_id
 _symmetry_equiv_pos_as_xyz
  1  'x, y, z'
loop_
 _atom_site_type_symbol
 _atom_site_label
 _atom_site_symmetry_multiplicity
 _atom_site_fract_x
 _atom_site_fract_y
 _atom_site_fract_z
 _atom_site_occupancy
  Eu  Eu0  1  0.66508302  0.66983398  0.25000002  1
  Na  Na1  1  0.33491701  0.33016599  0.74999999  1
  Na  Na2  1  0.00000000  0.00000000  0.00000000  1
  Li  Li3  1  0.00000000  0.00000000  0.49999998  1
  P  P4  1  0.33266301  0.33467399  0.25000001  1
  O  O5  1  0.66733702  0.66532598  0.75000000  1
  O  O6  1  0.36539902  0.82068398  0.70395601  1
  O  O7  1  0.17637901  0.64724198  0.25000001  1
  O  O8  1  0.81391703  0.82068398  0.79604401  1
  O  O9  1  0.18608301  0.17931600  0.20395600  1
  O  O10  1  0.82362102  0.35275799  0.74999999  1
  O  O11  1  0.63460102  0.17931600  0.29604400  1
