# generated using pymatgen
data_Nb3Tl4S7
_symmetry_space_group_name_H-M   'P 1'
_cell_length_a   4.51528788
_cell_length_b   9.45605755
_cell_length_c   9.45605850
_cell_angle_alpha   120.00000000
_cell_angle_beta   90.00000000
_cell_angle_gamma   90.00000000
_symmetry_Int_Tables_number   1
_chemical_formula_structural   Nb3Tl4S7
_chemical_formula_sum   'Nb3 Tl4 S7'
_cell_volume   349.65225469
_cell_formula_units_Z   1
loop_
 _symmetry_equiv_pos_site_id
 _symmetry_equiv_pos_as_xyz
  1  'x, y, z'
loop_
 _atom_site_type_symbol
 _atom_site_label
 _atom_site_symmetry_multiplicity
 _atom_site_fract_x
 _atom_site_fract_y
 _atom_site_fract_z
 _atom_site_occupancy
  Tl  Tl0  1  0.50000001  0.33333335  0.66666668  1
  Tl  Tl1  1  -0.00000000  0.66666671  0.33333336  1
  Tl  Tl2  1  0.50000001  0.85169906  0.02671203  1
  Tl  Tl3  1  0.50000001  0.17501301  0.14830001  1
  Nb  Nb4  1  0.50000001  0.97328706  0.82498603  1
  Nb  Nb5  1  -0.00000000  0.15028801  0.97631500  1
  Nb  Nb6  1  1.00000003  0.82602705  0.84971203  1
  S  S7  1  1.00000003  0.02368500  0.17397300  1
  S  S8  1  0.50000001  0.64893304  0.70960002  1
  S  S9  1  0.50000001  0.06066700  0.35106800  1
  S  S10  1  0.50000001  0.29040102  0.93933401  1
  S  S11  1  -0.00000000  0.33961002  0.29749201  1
  S  S12  1  1.00000003  0.95788206  0.66038903  1
  S  S13  1  -0.00000000  0.70250705  0.04211702  1
