# generated using pymatgen
data_EuMgTlBiAu2
_symmetry_space_group_name_H-M   'P 1'
_cell_length_a   6.06203413
_cell_length_b   6.06203413
_cell_length_c   6.06203413
_cell_angle_alpha   104.63757324
_cell_angle_beta   104.63757324
_cell_angle_gamma   119.64286804
_symmetry_Int_Tables_number   1
_chemical_formula_structural   EuMgTlBiAu2
_chemical_formula_sum   'Eu1 Mg1 Tl1 Bi1 Au2'
_cell_volume   167.37237556
_cell_formula_units_Z   1
loop_
 _symmetry_equiv_pos_site_id
 _symmetry_equiv_pos_as_xyz
  1  'x, y, z'
loop_
 _atom_site_type_symbol
 _atom_site_label
 _atom_site_symmetry_multiplicity
 _atom_site_fract_x
 _atom_site_fract_y
 _atom_site_fract_z
 _atom_site_occupancy
  Eu  Eu0  1  0.16365206  0.66365204  0.82730405  1
  Tl  Tl1  1  0.66365208  0.83634706  0.50000008  1
  Mg  Mg2  1  0.83634804  0.33634802  0.17269605  1
  Bi  Bi3  1  0.33634802  0.16365301  0.50000003  1
  Au  Au4  1  0.75000007  0.75000005  1.00000008  1
  Au  Au5  1  0.25000002  0.25000002  1.00000003  1
