# generated using pymatgen
data_Li2Mn2Cu7SiPSeO6
_symmetry_space_group_name_H-M   'P 1'
_cell_length_a   4.89047098
_cell_length_b   7.51640797
_cell_length_c   7.51640844
_cell_angle_alpha   120.00000000
_cell_angle_beta   90.00000000
_cell_angle_gamma   90.00000000
_symmetry_Int_Tables_number   1
_chemical_formula_structural   Li2Mn2Cu7SiPSeO6
_chemical_formula_sum   'Li2 Mn2 Cu7 Si1 P1 Se1 O6'
_cell_volume   239.27759445
_cell_formula_units_Z   1
loop_
 _symmetry_equiv_pos_site_id
 _symmetry_equiv_pos_as_xyz
  1  'x, y, z'
loop_
 _atom_site_type_symbol
 _atom_site_label
 _atom_site_symmetry_multiplicity
 _atom_site_fract_x
 _atom_site_fract_y
 _atom_site_fract_z
 _atom_site_occupancy
  Mn  Mn0  1  0.16538900  0.81162403  0.18837705  1
  Li  Li1  1  0.16538900  0.37675301  0.18837703  1
  Li  Li2  1  0.16538900  0.81162403  0.62324806  1
  Cu  Cu3  1  0.66538900  0.18837601  0.81162303  1
  Mn  Mn4  1  0.66538900  0.62324702  0.81162305  1
  Cu  Cu5  1  0.66538900  0.18837601  0.37675202  1
  Cu  Cu6  1  0.42227200  0.33333334  0.66666670  1
  Cu  Cu7  1  0.92227200  0.66666669  0.33333338  1
  O  O8  1  0.27582800  0.12280300  0.87719703  1
  O  O9  1  0.27582800  0.75439402  0.87719706  1
  O  O10  1  0.27582800  0.12280300  0.24560601  1
  Si  Si11  1  0.77582800  0.87719703  0.12280305  1
  P  P12  1  0.77582800  0.24560601  0.12280302  1
  Cu  Cu13  1  0.77582800  0.87719703  0.75439407  1
  O  O14  1  0.41418600  0.54414002  0.45585904  1
  O  O15  1  0.41418600  0.91171903  0.45585906  1
  O  O16  1  0.41418600  0.54414002  0.08828003  1
  Cu  Cu17  1  0.91418600  0.45586001  0.54414104  1
  Se  Se18  1  0.91418600  0.08828100  0.54414102  1
  Cu  Cu19  1  0.91418600  0.45586001  0.91172005  1
