# generated using pymatgen
data_Y3Er2In5SnAu5C2
_symmetry_space_group_name_H-M   'P 1'
_cell_length_a   6.44216013
_cell_length_b   8.51941872
_cell_length_c   8.53956223
_cell_angle_alpha   119.92200470
_cell_angle_beta   90.00000000
_cell_angle_gamma   90.00000000
_symmetry_Int_Tables_number   1
_chemical_formula_structural   Y3Er2In5SnAu5C2
_chemical_formula_sum   'Y3 Er2 In5 Sn1 Au5 C2'
_cell_volume   406.20803372
_cell_formula_units_Z   1
loop_
 _symmetry_equiv_pos_site_id
 _symmetry_equiv_pos_as_xyz
  1  'x, y, z'
loop_
 _atom_site_type_symbol
 _atom_site_label
 _atom_site_symmetry_multiplicity
 _atom_site_fract_x
 _atom_site_fract_y
 _atom_site_fract_z
 _atom_site_occupancy
  Er  Er0  1  0.50001699  0.33314500  0.66587600  1
  Y  Y1  1  0.50001699  0.66727001  0.33412404  1
  Y  Y2  1  0.00001700  0.66685501  0.33412404  1
  Er  Er3  1  0.00001700  0.33273000  0.66587600  1
  Y  Y4  1  0.75018598  0.22084900  0.00000002  1
  In  In5  1  0.74987698  0.77813801  0.77743603  1
  In  In6  1  0.74987698  0.00070200  0.22256399  1
  In  In7  1  0.25018599  0.77915101  0.00000005  1
  In  In8  1  0.24987699  0.22186200  0.22256401  1
  In  In9  1  0.24987699  0.99929801  0.77743605  1
  Au  Au10  1  0.74930498  0.59201501  0.00000004  1
  Au  Au11  1  0.75035998  0.40714800  0.40724402  1
  Au  Au12  1  0.75035998  0.99990401  0.59275605  1
  Sn  Sn13  1  0.24930499  0.40798500  0.00000003  1
  Au  Au14  1  0.25035999  0.59285201  0.59275602  1
  Au  Au15  1  0.25035999  0.00009600  0.40724399  1
  C  C16  1  0.49999999  0.00019100  0.00000000  1
  C  C17  1  0.00000000  0.99980901  0.00000007  1
