# generated using pymatgen
data_LaTiCu
_symmetry_space_group_name_H-M   'P 1'
_cell_length_a   3.78520799
_cell_length_b   3.78520775
_cell_length_c   5.56101322
_cell_angle_alpha   90.00000000
_cell_angle_beta   90.00000000
_cell_angle_gamma   120.00000000
_symmetry_Int_Tables_number   1
_chemical_formula_structural   LaTiCu
_chemical_formula_sum   'La1 Ti1 Cu1'
_cell_volume   69.00237318
_cell_formula_units_Z   1
loop_
 _symmetry_equiv_pos_site_id
 _symmetry_equiv_pos_as_xyz
  1  'x, y, z'
loop_
 _atom_site_type_symbol
 _atom_site_label
 _atom_site_symmetry_multiplicity
 _atom_site_fract_x
 _atom_site_fract_y
 _atom_site_fract_z
 _atom_site_occupancy
  Ti  Ti0  1  0.00000000  0.00000000  0.00000000  1
  Cu  Cu1  1  0.33333331  0.66666665  0.23892899  1
  La  La2  1  0.66666665  0.33333333  0.76107097  1
