# generated using pymatgen
data_Al2GaGePd2
_symmetry_space_group_name_H-M   'P 1'
_cell_length_a   3.65998793
_cell_length_b   3.65998793
_cell_length_c   8.20758247
_cell_angle_alpha   90.00000000
_cell_angle_beta   90.00000000
_cell_angle_gamma   90.00000000
_symmetry_Int_Tables_number   1
_chemical_formula_structural   Al2GaGePd2
_chemical_formula_sum   'Al2 Ga1 Ge1 Pd2'
_cell_volume   109.94476642
_cell_formula_units_Z   1
loop_
 _symmetry_equiv_pos_site_id
 _symmetry_equiv_pos_as_xyz
  1  'x, y, z'
loop_
 _atom_site_type_symbol
 _atom_site_label
 _atom_site_symmetry_multiplicity
 _atom_site_fract_x
 _atom_site_fract_y
 _atom_site_fract_z
 _atom_site_occupancy
  Al  Al0  1  0.50000001  0.00000000  0.73608096  1
  Al  Al1  1  0.00000000  0.50000001  0.26391898  1
  Ga  Ga2  1  0.50000001  0.50000001  -0.00000000  1
  Ge  Ge3  1  0.50000001  0.00000000  0.38557398  1
  Pd  Pd4  1  0.00000000  0.50000001  0.61442596  1
  Pd  Pd5  1  0.00000000  0.00000000  0.00000000  1
