# generated using pymatgen
data_Ba2Na4SrCuHgO11
_symmetry_space_group_name_H-M   'P 1'
_cell_length_a   3.76185012
_cell_length_b   7.79519987
_cell_length_c   12.90226936
_cell_angle_alpha   90.00000000
_cell_angle_beta   90.00000000
_cell_angle_gamma   90.00000000
_symmetry_Int_Tables_number   1
_chemical_formula_structural   Ba2Na4SrCuHgO11
_chemical_formula_sum   'Ba2 Na4 Sr1 Cu1 Hg1 O11'
_cell_volume   378.35096658
_cell_formula_units_Z   1
loop_
 _symmetry_equiv_pos_site_id
 _symmetry_equiv_pos_as_xyz
  1  'x, y, z'
loop_
 _atom_site_type_symbol
 _atom_site_label
 _atom_site_symmetry_multiplicity
 _atom_site_fract_x
 _atom_site_fract_y
 _atom_site_fract_z
 _atom_site_occupancy
  Ba  Ba0  1  0.24999999  0.08555900  0.82723498  1
  Ba  Ba1  1  0.74999998  0.91444102  0.17276500  1
  Na  Na2  1  0.24999999  0.58555901  0.67276498  1
  Sr  Sr3  1  0.74999998  0.41444101  0.32723499  1
  Na  Na4  1  0.24999999  0.33577801  0.05023300  1
  Na  Na5  1  0.74999998  0.66422201  0.94976697  1
  Na  Na6  1  0.24999999  0.83577801  0.44976699  1
  Cu  Cu7  1  0.74999998  0.16422200  0.55023298  1
  O  O8  1  0.24999999  0.49222201  0.89305197  1
  Hg  Hg9  1  0.74999998  0.50777801  0.10694800  1
  O  O10  1  0.24999999  0.99222202  0.60694798  1
  O  O11  1  0.74999998  0.00777800  0.39305199  1
  O  O12  1  0.24999999  0.34284101  0.49223199  1
  O  O13  1  0.74999998  0.65715901  0.50776799  1
  O  O14  1  0.24999999  0.84284101  0.00776800  1
  O  O15  1  0.74999998  0.15715900  0.99223197  1
  O  O16  1  0.74999998  0.30607801  0.71364198  1
  O  O17  1  0.24999999  0.69392201  0.28635799  1
  O  O18  1  0.74999998  0.80607801  0.78635798  1
  O  O19  1  0.24999999  0.19392200  0.21364199  1
