# generated using pymatgen
data_Li8CuO5
_symmetry_space_group_name_H-M   'P 1'
_cell_length_a   6.09982634
_cell_length_b   6.09982634
_cell_length_c   6.11264753
_cell_angle_alpha   60.06935883
_cell_angle_beta   60.06935883
_cell_angle_gamma   59.99999619
_symmetry_Int_Tables_number   1
_chemical_formula_structural   Li8CuO5
_chemical_formula_sum   'Li8 Cu1 O5'
_cell_volume   160.99181139
_cell_formula_units_Z   1
loop_
 _symmetry_equiv_pos_site_id
 _symmetry_equiv_pos_as_xyz
  1  'x, y, z'
loop_
 _atom_site_type_symbol
 _atom_site_label
 _atom_site_symmetry_multiplicity
 _atom_site_fract_x
 _atom_site_fract_y
 _atom_site_fract_z
 _atom_site_occupancy
  Li  Li0  1  0.12353900  0.12353900  0.62938300  1
  Li  Li1  1  0.87646102  0.87646101  0.37061700  1
  Li  Li2  1  0.00000001  0.50000000  0.99999999  1
  Li  Li3  1  0.50000000  0.00000000  1.00000000  1
  Li  Li4  1  0.50000001  0.50000000  0.00000000  1
  Li  Li5  1  0.50000001  0.50000000  0.50000000  1
  Li  Li6  1  0.73729801  0.73729800  0.78810600  1
  Li  Li7  1  0.28844801  0.74330400  0.22494400  1
  Cu  Cu8  1  0.74330401  0.28844800  0.22494400  1
  O  O9  1  0.74330401  0.74330400  0.22494400  1
  O  O10  1  0.26270201  0.26270200  0.21189400  1
  O  O11  1  0.71155201  0.25669600  0.77505600  1
  O  O12  1  0.25669601  0.71155200  0.77505600  1
  O  O13  1  0.25669601  0.25669600  0.77505600  1
