# generated using pymatgen
data_ScTi(SiRh)2
_symmetry_space_group_name_H-M   'P 1'
_cell_length_a   5.08051634
_cell_length_b   5.08051634
_cell_length_c   5.08051586
_cell_angle_alpha   60.00000000
_cell_angle_beta   60.00000000
_cell_angle_gamma   59.99999619
_symmetry_Int_Tables_number   1
_chemical_formula_structural   ScTi(SiRh)2
_chemical_formula_sum   'Sc1 Ti1 Si2 Rh2'
_cell_volume   92.72749036
_cell_formula_units_Z   1
loop_
 _symmetry_equiv_pos_site_id
 _symmetry_equiv_pos_as_xyz
  1  'x, y, z'
loop_
 _atom_site_type_symbol
 _atom_site_label
 _atom_site_symmetry_multiplicity
 _atom_site_fract_x
 _atom_site_fract_y
 _atom_site_fract_z
 _atom_site_occupancy
  Ti  Ti0  1  0.62499998  0.12500000  0.12499999  1
  Sc  Sc1  1  0.37499996  0.87499998  0.87500000  1
  Si  Si2  1  -0.00000002  0.49999999  0.50000000  1
  Si  Si3  1  -0.00000002  0.49999999  1.00000000  1
  Rh  Rh4  1  0.49999997  0.49999999  0.49999999  1
  Rh  Rh5  1  -0.00000003  0.99999998  0.50000000  1
