# generated using pymatgen
data_Hf4Nb3VGaFeSi8
_symmetry_space_group_name_H-M   'P 1'
_cell_length_a   4.10205984
_cell_length_b   5.54357862
_cell_length_c   12.47683239
_cell_angle_alpha   102.39291382
_cell_angle_beta   99.46163177
_cell_angle_gamma   90.00000000
_symmetry_Int_Tables_number   1
_chemical_formula_structural   Hf4Nb3VGaFeSi8
_chemical_formula_sum   'Hf4 Nb3 V1 Ga1 Fe1 Si8'
_cell_volume   273.15998544
_cell_formula_units_Z   1
loop_
 _symmetry_equiv_pos_site_id
 _symmetry_equiv_pos_as_xyz
  1  'x, y, z'
loop_
 _atom_site_type_symbol
 _atom_site_label
 _atom_site_symmetry_multiplicity
 _atom_site_fract_x
 _atom_site_fract_y
 _atom_site_fract_z
 _atom_site_occupancy
  Hf  Hf0  1  0.00000000  0.00000000  0.00000000  1
  Hf  Hf1  1  0.89409404  0.35544399  0.78818798  1
  Hf  Hf2  1  0.10590601  0.64455598  0.21181199  1
  Hf  Hf3  1  0.67684003  0.31246899  0.35367999  1
  Nb  Nb4  1  0.32316002  0.68753098  0.64631998  1
  Nb  Nb5  1  0.00000000  0.49999999  -0.00000000  1
  Nb  Nb6  1  0.88726404  0.87577697  0.77452798  1
  Ga  Ga7  1  0.11273601  0.12422300  0.22547199  1
  Si  Si8  1  0.78749403  0.40712799  0.57498798  1
  V  V9  1  0.21250601  0.59287198  0.42501199  1
  Si  Si10  1  0.77549804  0.89069897  0.55099598  1
  Si  Si11  1  0.22450201  0.10930100  0.44900399  1
  Si  Si12  1  0.66013503  0.82919998  0.32026999  1
  Si  Si13  1  0.33986501  0.17079999  0.67972998  1
  Si  Si14  1  0.57045303  0.37326299  0.14090600  1
  Fe  Fe15  1  0.42954702  0.62673698  0.85909397  1
  Si  Si16  1  0.54504403  0.84820498  0.09008800  1
  Si  Si17  1  0.45495602  0.15179500  0.90991197  1
