# generated using pymatgen
data_KRb2TlBrCl3
_symmetry_space_group_name_H-M   'P 1'
_cell_length_a   6.39217710
_cell_length_b   7.91620398
_cell_length_c   7.91620350
_cell_angle_alpha   120.00000000
_cell_angle_beta   90.00000000
_cell_angle_gamma   90.00000000
_symmetry_Int_Tables_number   1
_chemical_formula_structural   KRb2TlBrCl3
_chemical_formula_sum   'K1 Rb2 Tl1 Br1 Cl3'
_cell_volume   346.90723460
_cell_formula_units_Z   1
loop_
 _symmetry_equiv_pos_site_id
 _symmetry_equiv_pos_as_xyz
  1  'x, y, z'
loop_
 _atom_site_type_symbol
 _atom_site_label
 _atom_site_symmetry_multiplicity
 _atom_site_fract_x
 _atom_site_fract_y
 _atom_site_fract_z
 _atom_site_occupancy
  K  K0  1  0.25000000  0.16795700  0.33591398  1
  Rb  Rb1  1  0.25000000  0.66408498  0.83204195  1
  Rb  Rb2  1  0.25000000  0.16795700  0.83204197  1
  Tl  Tl3  1  0.74999999  0.83204298  0.66408594  1
  Cl  Cl4  1  0.74999999  0.33591499  0.16795798  1
  Cl  Cl5  1  0.74999999  0.83204298  0.16795795  1
  Cl  Cl6  1  0.74999999  0.33333333  0.66666663  1
  Br  Br7  1  0.25000000  0.66666665  0.33333329  1
