# generated using pymatgen
data_Li3Co2NiO8
_symmetry_space_group_name_H-M   'P 1'
_cell_length_a   5.79206276
_cell_length_b   5.79206276
_cell_length_c   5.79206276
_cell_angle_alpha   89.47219086
_cell_angle_beta   60.26016235
_cell_angle_gamma   119.65165710
_symmetry_Int_Tables_number   1
_chemical_formula_structural   Li3Co2NiO8
_chemical_formula_sum   'Li3 Co2 Ni1 O8'
_cell_volume   138.02481000
_cell_formula_units_Z   1
loop_
 _symmetry_equiv_pos_site_id
 _symmetry_equiv_pos_as_xyz
  1  'x, y, z'
loop_
 _atom_site_type_symbol
 _atom_site_label
 _atom_site_symmetry_multiplicity
 _atom_site_fract_x
 _atom_site_fract_y
 _atom_site_fract_z
 _atom_site_occupancy
  Li  Li0  1  0.24999999  0.11701199  0.13298800  1
  Li  Li1  1  0.49999998  0.00000000  0.49999999  1
  Li  Li2  1  0.99999994  0.49999997  0.50000001  1
  Co  Co3  1  0.74999993  0.88298795  0.86701200  1
  Co  Co4  1  0.49999996  0.49999997  0.50000000  1
  Ni  Ni5  1  0.99999994  0.49999997  0.00000002  1
  O  O6  1  0.51077897  0.24608199  0.26469800  1
  O  O7  1  0.52584597  0.25016299  0.72399099  1
  O  O8  1  0.98922093  0.72452396  0.26469702  1
  O  O9  1  0.97415395  0.25016299  0.27568301  1
  O  O10  1  0.02584596  0.74983696  0.72431699  1
  O  O11  1  0.01077899  0.27547599  0.73530298  1
  O  O12  1  0.47415395  0.74983696  0.27600901  1
  O  O13  1  0.48922095  0.75391796  0.73530199  1
