# generated using pymatgen
data_Hf2ZrMnGa2(GePd4)2
_symmetry_space_group_name_H-M   'P 1'
_cell_length_a   5.67771101
_cell_length_b   5.67771101
_cell_length_c   8.16627979
_cell_angle_alpha   90.00000000
_cell_angle_beta   90.00000000
_cell_angle_gamma   90.00000000
_symmetry_Int_Tables_number   1
_chemical_formula_structural   Hf2ZrMnGa2(GePd4)2
_chemical_formula_sum   'Hf2 Zr1 Mn1 Ga2 Ge2 Pd8'
_cell_volume   263.25148080
_cell_formula_units_Z   1
loop_
 _symmetry_equiv_pos_site_id
 _symmetry_equiv_pos_as_xyz
  1  'x, y, z'
loop_
 _atom_site_type_symbol
 _atom_site_label
 _atom_site_symmetry_multiplicity
 _atom_site_fract_x
 _atom_site_fract_y
 _atom_site_fract_z
 _atom_site_occupancy
  Mn  Mn0  1  0.50000000  0.50000000  0.00000000  1
  Hf  Hf1  1  0.00000000  0.00000000  0.00000000  1
  Hf  Hf2  1  0.00000000  0.50000000  0.50000001  1
  Zr  Zr3  1  0.50000000  0.00000000  0.50000001  1
  Ge  Ge4  1  0.00000000  0.00000000  0.50000001  1
  Ga  Ga5  1  0.00000000  0.50000000  0.00000000  1
  Pd  Pd6  1  0.50000000  0.00000000  0.00000000  1
  Ge  Ge7  1  0.50000000  0.50000000  0.50000001  1
  Pd  Pd8  1  0.24940600  0.24940600  0.24995201  1
  Ga  Ga9  1  0.75059400  0.75059400  0.75004802  1
  Pd  Pd10  1  0.75059400  0.75059400  0.24995201  1
  Pd  Pd11  1  0.75059400  0.24940600  0.24995201  1
  Pd  Pd12  1  0.75059400  0.24940600  0.75004802  1
  Pd  Pd13  1  0.24940600  0.24940600  0.75004802  1
  Pd  Pd14  1  0.24940600  0.75059400  0.75004802  1
  Pd  Pd15  1  0.24940600  0.75059400  0.24995201  1
