# generated using pymatgen
data_YMgZnCu4Ge5
_symmetry_space_group_name_H-M   'P 1'
_cell_length_a   5.09518766
_cell_length_b   5.09518814
_cell_length_c   8.86520576
_cell_angle_alpha   73.29942322
_cell_angle_beta   73.29942322
_cell_angle_gamma   59.99999237
_symmetry_Int_Tables_number   1
_chemical_formula_structural   YMgZnCu4Ge5
_chemical_formula_sum   'Y1 Mg1 Zn1 Cu4 Ge5'
_cell_volume   188.02183325
_cell_formula_units_Z   1
loop_
 _symmetry_equiv_pos_site_id
 _symmetry_equiv_pos_as_xyz
  1  'x, y, z'
loop_
 _atom_site_type_symbol
 _atom_site_label
 _atom_site_symmetry_multiplicity
 _atom_site_fract_x
 _atom_site_fract_y
 _atom_site_fract_z
 _atom_site_occupancy
  Y  Y0  1  0.86035700  0.86035700  0.41892901  1
  Mg  Mg1  1  0.13964300  0.13964300  0.58107103  1
  Zn  Zn2  1  0.00000000  0.00000000  0.00000000  1
  Cu  Cu3  1  0.42244001  0.91790900  0.23721099  1
  Cu  Cu4  1  0.33375800  0.33375800  0.99872604  1
  Cu  Cu5  1  0.57756000  0.57756000  0.76278903  1
  Cu  Cu6  1  0.42244000  0.42244000  0.23721101  1
  Ge  Ge7  1  0.66624200  0.66624200  0.00127399  1
  Ge  Ge8  1  0.91790899  0.42244000  0.23721101  1
  Ge  Ge9  1  0.08209101  0.57756000  0.76278902  1
  Ge  Ge10  1  0.50000000  0.50000000  0.50000002  1
  Ge  Ge11  1  0.57755999  0.08209100  0.76278904  1
