# generated using pymatgen
data_Na3SrEuAgHgO6
_symmetry_space_group_name_H-M   'P 1'
_cell_length_a   7.29668188
_cell_length_b   7.29668188
_cell_length_c   7.92797136
_cell_angle_alpha   62.60089493
_cell_angle_beta   62.60089493
_cell_angle_gamma   60.00000000
_symmetry_Int_Tables_number   1
_chemical_formula_structural   Na3SrEuAgHgO6
_chemical_formula_sum   'Na3 Sr1 Eu1 Ag1 Hg1 O6'
_cell_volume   309.66805960
_cell_formula_units_Z   1
loop_
 _symmetry_equiv_pos_site_id
 _symmetry_equiv_pos_as_xyz
  1  'x, y, z'
loop_
 _atom_site_type_symbol
 _atom_site_label
 _atom_site_symmetry_multiplicity
 _atom_site_fract_x
 _atom_site_fract_y
 _atom_site_fract_z
 _atom_site_occupancy
  Eu  Eu0  1  0.15865999  0.15866000  0.52402002  1
  Sr  Sr1  1  0.84133996  0.84134000  0.47598004  1
  Na  Na2  1  0.49999998  0.50000000  0.00000002  1
  Na  Na3  1  -0.00000002  0.50000000  0.00000001  1
  Na  Na4  1  0.49999999  0.00000000  0.00000001  1
  Hg  Hg5  1  0.40511398  0.40511400  0.78465803  1
  Ag  Ag6  1  0.59488597  0.59488600  0.21534202  1
  O  O7  1  0.10084698  0.57869400  0.21961202  1
  O  O8  1  0.10084700  0.10084700  0.21961201  1
  O  O9  1  0.57869399  0.10084700  0.21961201  1
  O  O10  1  0.42130596  0.89915300  0.78038804  1
  O  O11  1  0.89915297  0.42130600  0.78038803  1
  O  O12  1  0.89915296  0.89915300  0.78038804  1
