# generated using pymatgen
data_ErAl7FeSi3
_symmetry_space_group_name_H-M   'P 1'
_cell_length_a   5.06087065
_cell_length_b   5.06092501
_cell_length_c   7.92022991
_cell_angle_alpha   90.00000000
_cell_angle_beta   90.00000000
_cell_angle_gamma   119.94202423
_symmetry_Int_Tables_number   1
_chemical_formula_structural   ErAl7FeSi3
_chemical_formula_sum   'Er1 Al7 Fe1 Si3'
_cell_volume   175.78304326
_cell_formula_units_Z   1
loop_
 _symmetry_equiv_pos_site_id
 _symmetry_equiv_pos_as_xyz
  1  'x, y, z'
loop_
 _atom_site_type_symbol
 _atom_site_label
 _atom_site_symmetry_multiplicity
 _atom_site_fract_x
 _atom_site_fract_y
 _atom_site_fract_z
 _atom_site_occupancy
  Er  Er0  1  0.33433704  0.66567399  0.43601300  1
  Al  Al1  1  0.66753902  0.33243500  0.56814101  1
  Al  Al2  1  0.66753902  0.33243500  0.93185901  1
  Al  Al3  1  0.33433704  0.66567399  0.06398700  1
  Al  Al4  1  0.82999501  0.16998800  0.25000000  1
  Al  Al5  1  0.83082004  0.65985999  0.25000000  1
  Al  Al6  1  0.34013401  0.16916200  0.25000000  1
  Al  Al7  1  0.16931305  0.83073299  0.75000001  1
  Si  Si8  1  0.16986702  0.34234200  0.75000001  1
  Si  Si9  1  0.65767805  0.83013299  0.75000001  1
  Si  Si10  1  0.99922000  0.00078200  0.49995201  1
  Fe  Fe11  1  0.99922000  0.00078200  0.00004800  1
