# generated using pymatgen
data_Y2Al3Si3Ge11
_symmetry_space_group_name_H-M   'P 1'
_cell_length_a   6.40824366
_cell_length_b   6.40824366
_cell_length_c   6.40824318
_cell_angle_alpha   83.18913269
_cell_angle_beta   83.18913269
_cell_angle_gamma   83.18912506
_symmetry_Int_Tables_number   1
_chemical_formula_structural   Y2Al3Si3Ge11
_chemical_formula_sum   'Y2 Al3 Si3 Ge11'
_cell_volume   257.99488921
_cell_formula_units_Z   1
loop_
 _symmetry_equiv_pos_site_id
 _symmetry_equiv_pos_as_xyz
  1  'x, y, z'
loop_
 _atom_site_type_symbol
 _atom_site_label
 _atom_site_symmetry_multiplicity
 _atom_site_fract_x
 _atom_site_fract_y
 _atom_site_fract_z
 _atom_site_occupancy
  Y  Y0  1  0.34082900  0.34082899  0.34082899  1
  Y  Y1  1  0.65917099  0.65917098  0.65917098  1
  Al  Al2  1  0.00000000  0.00000000  0.50000000  1
  Al  Al3  1  0.00000001  0.49999999  1.00000000  1
  Al  Al4  1  0.49999999  0.00000000  -0.00000001  1
  Si  Si5  1  0.70749798  0.29250199  0.99999999  1
  Ge  Ge6  1  0.29250199  0.00000000  0.70749800  1
  Si  Si7  1  0.00000001  0.70749798  0.29250199  1
  Ge  Ge8  1  0.70749798  0.00000000  0.29250199  1
  Ge  Ge9  1  0.00000000  0.29250199  0.70749800  1
  Ge  Ge10  1  0.29250200  0.70749798  -0.00000002  1
  Ge  Ge11  1  0.65651899  0.65651898  0.15437498  1
  Ge  Ge12  1  0.65651898  0.15437500  0.65651899  1
  Ge  Ge13  1  0.15437500  0.65651898  0.65651899  1
  Ge  Ge14  1  0.34348100  0.34348099  0.84562499  1
  Ge  Ge15  1  0.34348100  0.84562498  0.34348098  1
  Ge  Ge16  1  0.84562498  0.34348099  0.34348098  1
  Si  Si17  1  0.09638800  0.09638800  0.09638800  1
  Ge  Ge18  1  0.90361199  0.90361197  0.90361198  1
