# generated using pymatgen
data_SrLiMg2Ag
_symmetry_space_group_name_H-M   'P 1'
_cell_length_a   4.41530943
_cell_length_b   4.41530943
_cell_length_c   10.84726048
_cell_angle_alpha   78.25700378
_cell_angle_beta   78.25700378
_cell_angle_gamma   60.00000763
_symmetry_Int_Tables_number   1
_chemical_formula_structural   SrLiMg2Ag
_chemical_formula_sum   'Sr1 Li1 Mg2 Ag1'
_cell_volume   178.00674459
_cell_formula_units_Z   1
loop_
 _symmetry_equiv_pos_site_id
 _symmetry_equiv_pos_as_xyz
  1  'x, y, z'
loop_
 _atom_site_type_symbol
 _atom_site_label
 _atom_site_symmetry_multiplicity
 _atom_site_fract_x
 _atom_site_fract_y
 _atom_site_fract_z
 _atom_site_occupancy
  Li  Li0  1  0.60144099  0.60144101  0.19567698  1
  Sr  Sr1  1  0.39934000  0.39934000  0.80197999  1
  Mg  Mg2  1  0.99633299  0.99633301  0.01100096  1
  Mg  Mg3  1  0.78633999  0.78634001  0.64097998  1
  Ag  Ag4  1  0.21654600  0.21654600  0.35036200  1
