# generated using pymatgen
data_Na4Li4Cu2NiO7
_symmetry_space_group_name_H-M   'P 1'
_cell_length_a   4.96639776
_cell_length_b   4.96639776
_cell_length_c   10.53434944
_cell_angle_alpha   90.00000000
_cell_angle_beta   90.00000000
_cell_angle_gamma   109.32944489
_symmetry_Int_Tables_number   1
_chemical_formula_structural   Na4Li4Cu2NiO7
_chemical_formula_sum   'Na4 Li4 Cu2 Ni1 O7'
_cell_volume   245.18444076
_cell_formula_units_Z   1
loop_
 _symmetry_equiv_pos_site_id
 _symmetry_equiv_pos_as_xyz
  1  'x, y, z'
loop_
 _atom_site_type_symbol
 _atom_site_label
 _atom_site_symmetry_multiplicity
 _atom_site_fract_x
 _atom_site_fract_y
 _atom_site_fract_z
 _atom_site_occupancy
  Na  Na0  1  0.35385804  0.64614201  0.93845196  1
  Na  Na1  1  0.35385804  0.64614201  0.56154798  1
  Na  Na2  1  0.64614202  0.35385800  0.43845198  1
  Na  Na3  1  0.68372901  0.31627100  0.74999997  1
  Li  Li4  1  0.31627104  0.68372901  0.24999999  1
  Li  Li5  1  0.64614202  0.35385800  0.06154800  1
  Li  Li6  1  0.00000000  0.00000000  0.00000000  1
  Li  Li7  1  0.06776206  0.93223801  0.74999997  1
  Ni  Ni8  1  0.00000000  0.00000000  0.49999998  1
  Cu  Cu9  1  0.93223800  0.06776200  0.24999999  1
  O  O10  1  0.30252601  0.14005700  0.88586696  1
  Cu  Cu11  1  0.30252601  0.14005700  0.61413297  1
  O  O12  1  0.14005702  0.30252600  0.11413300  1
  O  O13  1  0.14005702  0.30252600  0.38586698  1
  O  O14  1  0.85994304  0.69747401  0.61413297  1
  O  O15  1  0.85994304  0.69747401  0.88586696  1
  O  O16  1  0.69747405  0.85994301  0.38586698  1
  O  O17  1  0.69747405  0.85994301  0.11413300  1
