# generated using pymatgen
data_Al5Si2Ge
_symmetry_space_group_name_H-M   'P 1'
_cell_length_a   4.21624804
_cell_length_b   4.21624708
_cell_length_c   12.06115055
_cell_angle_alpha   90.00000000
_cell_angle_beta   90.00000000
_cell_angle_gamma   120.00000763
_symmetry_Int_Tables_number   1
_chemical_formula_structural   Al5Si2Ge
_chemical_formula_sum   'Al5 Si2 Ge1'
_cell_volume   185.68274262
_cell_formula_units_Z   1
loop_
 _symmetry_equiv_pos_site_id
 _symmetry_equiv_pos_as_xyz
  1  'x, y, z'
loop_
 _atom_site_type_symbol
 _atom_site_label
 _atom_site_symmetry_multiplicity
 _atom_site_fract_x
 _atom_site_fract_y
 _atom_site_fract_z
 _atom_site_occupancy
  Al  Al0  1  0.00000000  0.00000000  0.50000002  1
  Al  Al1  1  0.00000000  0.00000000  0.74474403  1
  Al  Al2  1  0.00000000  0.00000000  0.25525601  1
  Al  Al3  1  0.00000000  0.00000000  0.00000000  1
  Al  Al4  1  0.66666667  0.33333335  0.12264800  1
  Si  Si5  1  0.66666667  0.33333335  0.62590202  1
  Ge  Ge6  1  0.33333335  0.66666670  0.87735203  1
  Si  Si7  1  0.33333335  0.66666670  0.37409801  1
