# generated using pymatgen
data_NaCuO3
_symmetry_space_group_name_H-M   'P 1'
_cell_length_a   5.64167690
_cell_length_b   5.68886709
_cell_length_c   7.94354582
_cell_angle_alpha   90.00000000
_cell_angle_beta   90.00000000
_cell_angle_gamma   90.00000000
_symmetry_Int_Tables_number   1
_chemical_formula_structural   NaCuO3
_chemical_formula_sum   'Na4 Cu4 O12'
_cell_volume   254.94611776
_cell_formula_units_Z   4
loop_
 _symmetry_equiv_pos_site_id
 _symmetry_equiv_pos_as_xyz
  1  'x, y, z'
loop_
 _atom_site_type_symbol
 _atom_site_label
 _atom_site_symmetry_multiplicity
 _atom_site_fract_x
 _atom_site_fract_y
 _atom_site_fract_z
 _atom_site_occupancy
  Na  Na0  1  0.98990102  0.04165400  0.25000001  1
  Na  Na1  1  0.51009901  0.54165399  0.25000001  1
  Na  Na2  1  0.01009900  0.95834598  0.75000002  1
  Na  Na3  1  0.48990101  0.45834599  0.75000002  1
  Cu  Cu4  1  0.50000001  0.00000000  0.00000000  1
  Cu  Cu5  1  0.00000000  0.49999999  0.50000001  1
  Cu  Cu6  1  0.50000001  0.00000000  0.50000001  1
  Cu  Cu7  1  0.00000000  0.49999999  -0.00000000  1
  O  O8  1  0.41727201  0.98439198  0.25000001  1
  O  O9  1  0.08272800  0.48439199  0.25000001  1
  O  O10  1  0.58272801  0.01560800  0.75000002  1
  O  O11  1  0.91727202  0.51560799  0.75000002  1
  O  O12  1  0.78829101  0.78772599  0.04453000  1
  O  O13  1  0.71170901  0.28772600  0.45547001  1
  O  O14  1  0.21170900  0.21227400  0.54453001  1
  O  O15  1  0.28829100  0.71227399  0.95547002  1
  O  O16  1  0.21170900  0.21227400  0.95547002  1
  O  O17  1  0.28829100  0.71227399  0.54453001  1
  O  O18  1  0.78829101  0.78772599  0.45547001  1
  O  O19  1  0.71170901  0.28772600  0.04453000  1
