# generated using pymatgen
data_ErScAlGa9GePd2
_symmetry_space_group_name_H-M   'P 1'
_cell_length_a   6.43949080
_cell_length_b   6.43949080
_cell_length_c   6.43949080
_cell_angle_alpha   90.00000000
_cell_angle_beta   90.00000000
_cell_angle_gamma   90.00000000
_symmetry_Int_Tables_number   1
_chemical_formula_structural   ErScAlGa9GePd2
_chemical_formula_sum   'Er1 Sc1 Al1 Ga9 Ge1 Pd2'
_cell_volume   267.02663333
_cell_formula_units_Z   1
loop_
 _symmetry_equiv_pos_site_id
 _symmetry_equiv_pos_as_xyz
  1  'x, y, z'
loop_
 _atom_site_type_symbol
 _atom_site_label
 _atom_site_symmetry_multiplicity
 _atom_site_fract_x
 _atom_site_fract_y
 _atom_site_fract_z
 _atom_site_occupancy
  Er  Er0  1  0.50000002  0.50000002  0.00000000  1
  Sc  Sc1  1  0.50000002  0.00000000  0.50000002  1
  Al  Al2  1  0.00000000  0.50000002  0.50000002  1
  Ga  Ga3  1  0.50000002  0.50000002  0.50000002  1
  Ga  Ga4  1  0.21073601  0.21073601  0.78926403  1
  Ga  Ga5  1  0.21073601  0.78926403  0.21073601  1
  Ga  Ga6  1  0.78926403  0.21073601  0.21073601  1
  Ga  Ga7  1  0.78926403  0.78926403  0.78926403  1
  Ga  Ga8  1  0.78926403  0.78926403  0.21073601  1
  Ga  Ga9  1  0.78926403  0.21073601  0.78926403  1
  Ga  Ga10  1  0.21073601  0.78926403  0.78926403  1
  Ga  Ga11  1  0.21073601  0.21073601  0.21073601  1
  Ge  Ge12  1  0.00000000  0.00000000  0.50000002  1
  Pd  Pd13  1  0.00000000  0.50000002  0.00000000  1
  Pd  Pd14  1  0.50000002  0.00000000  -0.00000000  1
