# generated using pymatgen
data_BaYGa3Ge2PdAu3
_symmetry_space_group_name_H-M   'P 1'
_cell_length_a   4.61598015
_cell_length_b   7.05891800
_cell_length_c   8.66471672
_cell_angle_alpha   114.03765869
_cell_angle_beta   105.44816589
_cell_angle_gamma   90.00000000
_symmetry_Int_Tables_number   1
_chemical_formula_structural   BaYGa3Ge2PdAu3
_chemical_formula_sum   'Ba1 Y1 Ga3 Ge2 Pd1 Au3'
_cell_volume   246.63483082
_cell_formula_units_Z   1
loop_
 _symmetry_equiv_pos_site_id
 _symmetry_equiv_pos_as_xyz
  1  'x, y, z'
loop_
 _atom_site_type_symbol
 _atom_site_label
 _atom_site_symmetry_multiplicity
 _atom_site_fract_x
 _atom_site_fract_y
 _atom_site_fract_z
 _atom_site_occupancy
  Ba  Ba0  1  0.00000002  0.50000002  0.00000003  1
  Y  Y1  1  0.86707301  0.86707303  0.73414602  1
  Ga  Ga2  1  0.13292700  0.13292700  0.26585400  1
  Ga  Ga3  1  0.33202601  0.51491202  0.66405200  1
  Ga  Ga4  1  0.33202700  0.14914100  0.66405298  1
  Ge  Ge5  1  0.66797301  0.85085903  0.33594704  1
  Ge  Ge6  1  0.66797400  0.48508802  0.33594802  1
  Au  Au7  1  0.50000002  0.79971003  1.00000000  1
  Au  Au8  1  0.49999999  0.20029001  0.00000002  1
  Au  Au9  1  0.78330999  0.28331001  0.56661999  1
  Pd  Pd10  1  0.21669002  0.71669002  0.43338003  1
