# generated using pymatgen
data_Nb2V2Cr2MoWS10
_symmetry_space_group_name_H-M   'P 1'
_cell_length_a   3.97500634
_cell_length_b   6.91837835
_cell_length_c   16.74690819
_cell_angle_alpha   101.65796661
_cell_angle_beta   96.64208984
_cell_angle_gamma   90.09308624
_symmetry_Int_Tables_number   1
_chemical_formula_structural   Nb2V2Cr2MoWS10
_chemical_formula_sum   'Nb2 V2 Cr2 Mo1 W1 S10'
_cell_volume   447.87409269
_cell_formula_units_Z   1
loop_
 _symmetry_equiv_pos_site_id
 _symmetry_equiv_pos_as_xyz
  1  'x, y, z'
loop_
 _atom_site_type_symbol
 _atom_site_label
 _atom_site_symmetry_multiplicity
 _atom_site_fract_x
 _atom_site_fract_y
 _atom_site_fract_z
 _atom_site_occupancy
  V  V0  1  0.79539104  0.14241300  0.58739101  1
  V  V1  1  0.29567506  0.61677098  0.58907900  1
  Nb  Nb2  1  0.20305908  0.86337397  0.40721199  1
  Nb  Nb3  1  0.70232005  0.37453099  0.40578801  1
  Cr  Cr4  1  0.59439810  0.92610197  0.18579499  1
  Cr  Cr5  1  0.09187504  0.42352099  0.18316799  1
  Mo  Mo6  1  0.41021102  0.07892100  0.82196701  1
  W  W7  1  0.90757308  0.57438198  0.81588201  1
  S  S8  1  0.33378509  0.99973197  0.66576899  1
  S  S9  1  0.44772408  0.77832298  0.89780300  1
  S  S10  1  0.94880405  0.28859799  0.90046202  1
  S  S11  1  0.55298904  0.21650299  0.10392700  1
  S  S12  1  0.05470206  0.71951098  0.10532599  1
  S  S13  1  0.24900803  0.25329799  0.50067300  1
  S  S14  1  0.74810909  0.74325798  0.49625600  1
  S  S15  1  0.16472005  0.49760498  0.33196800  1
  S  S16  1  0.66589602  0.00180400  0.33458401  1
  S  S17  1  0.83376107  0.50134998  0.66694801  1
