# generated using pymatgen
data_DyYGa6
_symmetry_space_group_name_H-M   'P 1'
_cell_length_a   4.83173704
_cell_length_b   6.20314980
_cell_length_c   6.20315027
_cell_angle_alpha   60.00000381
_cell_angle_beta   90.00000000
_cell_angle_gamma   90.00000000
_symmetry_Int_Tables_number   1
_chemical_formula_structural   DyYGa6
_chemical_formula_sum   'Y1 Dy1 Ga6'
_cell_volume   161.01209835
_cell_formula_units_Z   1
loop_
 _symmetry_equiv_pos_site_id
 _symmetry_equiv_pos_as_xyz
  1  'x, y, z'
loop_
 _atom_site_type_symbol
 _atom_site_label
 _atom_site_symmetry_multiplicity
 _atom_site_fract_x
 _atom_site_fract_y
 _atom_site_fract_z
 _atom_site_occupancy
  Y  Y0  1  0.25000000  0.33333334  0.33333335  1
  Dy  Dy1  1  0.74999999  0.66666668  0.66666670  1
  Ga  Ga2  1  0.74999999  0.66003201  0.16998402  1
  Ga  Ga3  1  0.74999999  0.16998400  0.16998401  1
  Ga  Ga4  1  0.74999999  0.16998400  0.66003202  1
  Ga  Ga5  1  0.25000000  0.33996801  0.83001603  1
  Ga  Ga6  1  0.25000000  0.83001602  0.83001605  1
  Ga  Ga7  1  0.25000000  0.83001602  0.33996803  1
