# generated using pymatgen
data_Ba3NaSrMg(TlHg)4
_symmetry_space_group_name_H-M   'P 1'
_cell_length_a   8.82575703
_cell_length_b   8.82575703
_cell_length_c   8.82575703
_cell_angle_alpha   71.62537384
_cell_angle_beta   69.97771454
_cell_angle_gamma   110.02228546
_symmetry_Int_Tables_number   1
_chemical_formula_structural   Ba3NaSrMg(TlHg)4
_chemical_formula_sum   'Ba3 Na1 Sr1 Mg1 Tl4 Hg4'
_cell_volume   529.07220981
_cell_formula_units_Z   1
loop_
 _symmetry_equiv_pos_site_id
 _symmetry_equiv_pos_as_xyz
  1  'x, y, z'
loop_
 _atom_site_type_symbol
 _atom_site_label
 _atom_site_symmetry_multiplicity
 _atom_site_fract_x
 _atom_site_fract_y
 _atom_site_fract_z
 _atom_site_occupancy
  Ba  Ba0  1  0.63110598  0.12500000  0.74389396  1
  Na  Na1  1  0.36889400  0.62499998  0.50610597  1
  Ba  Ba2  1  0.86889399  0.74389398  0.62499996  1
  Ba  Ba3  1  0.13110601  0.50610598  0.12499999  1
  Sr  Sr4  1  0.49999999  0.24999999  0.24999998  1
  Mg  Mg5  1  0.00000000  0.00000000  0.00000000  1
  Tl  Tl6  1  0.24947601  0.89065397  0.72427496  1
  Tl  Tl7  1  0.75052397  0.02624800  0.35882198  1
  Tl  Tl8  1  0.11492900  0.22375099  0.52572497  1
  Tl  Tl9  1  0.88507098  0.35934699  0.89117795  1
  Hg  Hg10  1  0.74947598  0.52572498  0.35934597  1
  Hg  Hg11  1  0.25052401  0.89117797  0.22375198  1
  Hg  Hg12  1  0.61492899  0.72427498  0.02624898  1
  Hg  Hg13  1  0.38507099  0.35882199  0.89065295  1
