# generated using pymatgen
data_NaLi3Cu2(PO6)2
_symmetry_space_group_name_H-M   'P 1'
_cell_length_a   5.43571138
_cell_length_b   6.87581539
_cell_length_c   6.87580824
_cell_angle_alpha   85.59474945
_cell_angle_beta   75.72566223
_cell_angle_gamma   75.72544861
_symmetry_Int_Tables_number   1
_chemical_formula_structural   NaLi3Cu2(PO6)2
_chemical_formula_sum   'Na1 Li3 Cu2 P2 O12'
_cell_volume   241.32455741
_cell_formula_units_Z   1
loop_
 _symmetry_equiv_pos_site_id
 _symmetry_equiv_pos_as_xyz
  1  'x, y, z'
loop_
 _atom_site_type_symbol
 _atom_site_label
 _atom_site_symmetry_multiplicity
 _atom_site_fract_x
 _atom_site_fract_y
 _atom_site_fract_z
 _atom_site_occupancy
  Na  Na0  1  0.74998603  0.26056300  0.23945296  1
  Li  Li1  1  0.75015803  0.89820701  0.60167592  1
  Li  Li2  1  0.25000001  0.73945201  0.76056195  1
  Li  Li3  1  0.24997801  0.10187800  0.39814298  1
  Cu  Cu4  1  0.22865701  0.20983000  0.88237197  1
  Cu  Cu5  1  0.27133501  0.61762501  0.29016096  1
  P  P6  1  0.77133303  0.79014901  0.11762893  1
  P  P7  1  0.72864003  0.38237500  0.70986395  1
  O  O8  1  0.95560904  0.36195700  0.83875394  1
  O  O9  1  0.54437102  0.66125501  0.13804795  1
  O  O10  1  0.04436400  0.63802201  0.16128197  1
  O  O11  1  0.45561102  0.33872900  0.86199096  1
  O  O12  1  0.14195401  0.13611800  0.11334399  1
  O  O13  1  0.35802201  0.38666200  0.36389096  1
  O  O14  1  0.85801004  0.86386701  0.88666792  1
  O  O15  1  0.64197303  0.61333801  0.63613894  1
  O  O16  1  0.33879801  0.03298400  0.71436098  1
  O  O17  1  0.16122901  0.78563001  0.46700995  1
  O  O18  1  0.66120503  0.96700201  0.28564793  1
  O  O19  1  0.83876904  0.21436100  0.53300395  1
