# generated using pymatgen
data_CdIn2HgAu2
_symmetry_space_group_name_H-M   'P 1'
_cell_length_a   5.27369595
_cell_length_b   5.84451818
_cell_length_c   5.84451818
_cell_angle_alpha   120.00000000
_cell_angle_beta   90.00000000
_cell_angle_gamma   90.00000000
_symmetry_Int_Tables_number   1
_chemical_formula_structural   CdIn2HgAu2
_chemical_formula_sum   'Cd1 In2 Hg1 Au2'
_cell_volume   156.00666293
_cell_formula_units_Z   1
loop_
 _symmetry_equiv_pos_site_id
 _symmetry_equiv_pos_as_xyz
  1  'x, y, z'
loop_
 _atom_site_type_symbol
 _atom_site_label
 _atom_site_symmetry_multiplicity
 _atom_site_fract_x
 _atom_site_fract_y
 _atom_site_fract_z
 _atom_site_occupancy
  In  In0  1  0.50000001  0.33333332  0.66666664  1
  In  In1  1  0.50000001  0.66666664  0.33333332  1
  Cd  Cd2  1  -0.00000000  0.33984699  0.33984698  1
  Hg  Hg3  1  1.00000001  0.66015298  -0.00000000  1
  Au  Au4  1  -0.00000000  0.00000000  0.66015297  1
  Au  Au5  1  0.50000001  0.00000000  -0.00000000  1
