# generated using pymatgen
data_Cu3BiO4
_symmetry_space_group_name_H-M   'P 1'
_cell_length_a   5.30591869
_cell_length_b   5.30591869
_cell_length_c   5.67561722
_cell_angle_alpha   62.13233948
_cell_angle_beta   62.13233948
_cell_angle_gamma   59.99998856
_symmetry_Int_Tables_number   1
_chemical_formula_structural   Cu3BiO4
_chemical_formula_sum   'Cu3 Bi1 O4'
_cell_volume   116.49017040
_cell_formula_units_Z   1
loop_
 _symmetry_equiv_pos_site_id
 _symmetry_equiv_pos_as_xyz
  1  'x, y, z'
loop_
 _atom_site_type_symbol
 _atom_site_label
 _atom_site_symmetry_multiplicity
 _atom_site_fract_x
 _atom_site_fract_y
 _atom_site_fract_z
 _atom_site_occupancy
  Cu  Cu0  1  0.00000000  0.00000000  0.00000000  1
  Bi  Bi1  1  0.49999998  0.50000001  0.50000003  1
  Cu  Cu2  1  0.35325800  0.09082800  0.77363802  1
  Cu  Cu3  1  0.09082797  0.78227602  0.77363803  1
  O  O4  1  0.21772397  0.64674202  0.22636203  1
  O  O5  1  0.90917200  0.21772401  0.22636203  1
  O  O6  1  0.64674197  0.90917203  0.22636205  1
  O  O7  1  0.78227599  0.35325801  0.77363803  1
