# generated using pymatgen
data_BaCu3Te3Se7
_symmetry_space_group_name_H-M   'P 1'
_cell_length_a   8.06875896
_cell_length_b   8.06875896
_cell_length_c   8.06875896
_cell_angle_alpha   61.13748169
_cell_angle_beta   61.13748169
_cell_angle_gamma   61.13748169
_symmetry_Int_Tables_number   1
_chemical_formula_structural   BaCu3Te3Se7
_chemical_formula_sum   'Ba1 Cu3 Te3 Se7'
_cell_volume   380.96252903
_cell_formula_units_Z   1
loop_
 _symmetry_equiv_pos_site_id
 _symmetry_equiv_pos_as_xyz
  1  'x, y, z'
loop_
 _atom_site_type_symbol
 _atom_site_label
 _atom_site_symmetry_multiplicity
 _atom_site_fract_x
 _atom_site_fract_y
 _atom_site_fract_z
 _atom_site_occupancy
  Ba  Ba0  1  0.00000000  0.00000000  0.00000000  1
  Cu  Cu1  1  0.50000003  0.00000000  -0.00000001  1
  Te  Te2  1  -0.00000000  0.50000003  -0.00000001  1
  Cu  Cu3  1  0.00000000  0.00000000  0.50000000  1
  Te  Te4  1  0.39812102  0.39812102  0.39812098  1
  Te  Te5  1  0.60187903  0.60187903  0.60187897  1
  Se  Se6  1  0.21608501  0.75856804  0.75856797  1
  Cu  Cu7  1  0.75856804  0.21608501  0.75856797  1
  Se  Se8  1  0.75856804  0.75856804  0.21608496  1
  Se  Se9  1  0.78391504  0.24143201  0.24143197  1
  Se  Se10  1  0.24143201  0.78391504  0.24143197  1
  Se  Se11  1  0.24143201  0.24143201  0.78391499  1
  Se  Se12  1  0.75084004  0.75084004  0.75083996  1
  Se  Se13  1  0.24916001  0.24916001  0.24915999  1
