# generated using pymatgen
data_NaLaCeEuYZrReRuN8
_symmetry_space_group_name_H-M   'P 1'
_cell_length_a   6.69654608
_cell_length_b   6.69654608
_cell_length_c   6.69654608
_cell_angle_alpha   90.00000000
_cell_angle_beta   90.00000000
_cell_angle_gamma   90.00000000
_symmetry_Int_Tables_number   1
_chemical_formula_structural   NaLaCeEuYZrReRuN8
_chemical_formula_sum   'Na1 La1 Ce1 Eu1 Y1 Zr1 Re1 Ru1 N8'
_cell_volume   300.29810003
_cell_formula_units_Z   1
loop_
 _symmetry_equiv_pos_site_id
 _symmetry_equiv_pos_as_xyz
  1  'x, y, z'
loop_
 _atom_site_type_symbol
 _atom_site_label
 _atom_site_symmetry_multiplicity
 _atom_site_fract_x
 _atom_site_fract_y
 _atom_site_fract_z
 _atom_site_occupancy
  Eu  Eu0  1  0.49999999  0.49999999  0.49999999  1
  Na  Na1  1  0.00000000  0.00000000  0.00000000  1
  La  La2  1  0.49999999  0.00000000  0.74999999  1
  Ce  Ce3  1  -0.00000000  0.25000000  0.49999999  1
  Y  Y4  1  0.74999999  0.49999999  0.00000000  1
  Ru  Ru5  1  0.49999999  0.00000000  0.25000000  1
  Zr  Zr6  1  -0.00000000  0.74999999  0.49999999  1
  Re  Re7  1  0.25000000  0.49999999  0.00000000  1
  N  N8  1  0.74999999  0.25000000  0.74999999  1
  N  N9  1  0.25000000  0.74999999  0.25000000  1
  N  N10  1  0.74999999  0.74999999  0.25000000  1
  N  N11  1  0.25000000  0.25000000  0.74999999  1
  N  N12  1  0.25000000  0.74999999  0.74999999  1
  N  N13  1  0.74999999  0.25000000  0.25000000  1
  N  N14  1  0.25000000  0.25000000  0.25000000  1
  N  N15  1  0.74999999  0.74999999  0.74999999  1
