# generated using pymatgen
data_Li5Ni3O8
_symmetry_space_group_name_H-M   'P 1'
_cell_length_a   5.78742409
_cell_length_b   5.82420540
_cell_length_c   5.86459684
_cell_angle_alpha   119.32732391
_cell_angle_beta   91.08706665
_cell_angle_gamma   118.78992462
_symmetry_Int_Tables_number   1
_chemical_formula_structural   Li5Ni3O8
_chemical_formula_sum   'Li5 Ni3 O8'
_cell_volume   142.39040680
_cell_formula_units_Z   1
loop_
 _symmetry_equiv_pos_site_id
 _symmetry_equiv_pos_as_xyz
  1  'x, y, z'
loop_
 _atom_site_type_symbol
 _atom_site_label
 _atom_site_symmetry_multiplicity
 _atom_site_fract_x
 _atom_site_fract_y
 _atom_site_fract_z
 _atom_site_occupancy
  Li  Li0  1  0.50000899  0.00001300  0.49998795  1
  Li  Li1  1  0.00000600  0.00000700  0.49998498  1
  Li  Li2  1  0.50001901  0.50000905  0.50001499  1
  Li  Li3  1  0.00000102  0.50000505  0.50000402  1
  Li  Li4  1  0.50002903  0.99996509  0.99999800  1
  Ni  Ni5  1  0.49991101  0.49989305  0.00003200  1
  Ni  Ni6  1  0.99994400  0.49995605  0.99993994  1
  Ni  Ni7  1  0.00009800  0.00013400  0.00003600  1
  O  O8  1  0.28422801  0.51741605  0.77044399  1
  O  O9  1  0.74727000  0.49995505  0.77928996  1
  O  O10  1  0.22613203  0.95999709  0.21379205  1
  O  O11  1  0.23172003  0.98849009  0.76231603  1
  O  O12  1  0.76832999  0.01155700  0.23766894  1
  O  O13  1  0.77387299  0.03998000  0.78613593  1
  O  O14  1  0.25266701  0.50007605  0.22077401  1
  O  O15  1  0.71576600  0.48253704  0.22958598  1
