# generated using pymatgen
data_EuMnP2
_symmetry_space_group_name_H-M   'P 1'
_cell_length_a   3.58767581
_cell_length_b   3.58767581
_cell_length_c   6.58571291
_cell_angle_alpha   74.19386292
_cell_angle_beta   74.19386292
_cell_angle_gamma   60.00000381
_symmetry_Int_Tables_number   1
_chemical_formula_structural   EuMnP2
_chemical_formula_sum   'Eu1 Mn1 P2'
_cell_volume   69.68521507
_cell_formula_units_Z   1
loop_
 _symmetry_equiv_pos_site_id
 _symmetry_equiv_pos_as_xyz
  1  'x, y, z'
loop_
 _atom_site_type_symbol
 _atom_site_label
 _atom_site_symmetry_multiplicity
 _atom_site_fract_x
 _atom_site_fract_y
 _atom_site_fract_z
 _atom_site_occupancy
  Eu  Eu0  1  0.00000000  0.00000000  0.00000000  1
  Mn  Mn1  1  0.50000000  0.50000000  0.50000002  1
  P  P2  1  0.23000500  0.23000500  0.30998501  1
  P  P3  1  0.76999499  0.76999500  0.69001504  1
