# generated using pymatgen
data_La2YInSn5Sb
_symmetry_space_group_name_H-M   'P 1'
_cell_length_a   4.49905205
_cell_length_b   4.49937677
_cell_length_c   13.25670528
_cell_angle_alpha   90.00000000
_cell_angle_beta   99.76977539
_cell_angle_gamma   90.00000000
_symmetry_Int_Tables_number   1
_chemical_formula_structural   La2YInSn5Sb
_chemical_formula_sum   'La2 Y1 In1 Sn5 Sb1'
_cell_volume   264.46276234
_cell_formula_units_Z   1
loop_
 _symmetry_equiv_pos_site_id
 _symmetry_equiv_pos_as_xyz
  1  'x, y, z'
loop_
 _atom_site_type_symbol
 _atom_site_label
 _atom_site_symmetry_multiplicity
 _atom_site_fract_x
 _atom_site_fract_y
 _atom_site_fract_z
 _atom_site_occupancy
  Y  Y0  1  -0.00000000  0.50000003  -0.00000000  1
  La  La1  1  0.31133100  0.00000000  0.62266202  1
  La  La2  1  0.68866899  0.00000000  0.37733801  1
  In  In3  1  0.49999999  0.00000000  -0.00000000  1
  Sn  Sn4  1  0.40381699  0.50000003  0.80763403  1
  Sn  Sn5  1  0.59618299  0.50000003  0.19236600  1
  Sn  Sn6  1  0.09588100  0.00000000  0.19176201  1
  Sn  Sn7  1  0.90411899  0.00000000  0.80823802  1
  Sn  Sn8  1  0.21137400  0.50000003  0.42274801  1
  Sb  Sb9  1  0.78862599  0.50000003  0.57725202  1
