# generated using pymatgen
data_NaLi4MnFeCu3SiP2O5
_symmetry_space_group_name_H-M   'P 1'
_cell_length_a   6.00696754
_cell_length_b   7.03817320
_cell_length_c   7.03817415
_cell_angle_alpha   76.99734497
_cell_angle_beta   89.72912598
_cell_angle_gamma   89.72911835
_symmetry_Int_Tables_number   1
_chemical_formula_structural   NaLi4MnFeCu3SiP2O5
_chemical_formula_sum   'Na1 Li4 Mn1 Fe1 Cu3 Si1 P2 O5'
_cell_volume   289.92562776
_cell_formula_units_Z   1
loop_
 _symmetry_equiv_pos_site_id
 _symmetry_equiv_pos_as_xyz
  1  'x, y, z'
loop_
 _atom_site_type_symbol
 _atom_site_label
 _atom_site_symmetry_multiplicity
 _atom_site_fract_x
 _atom_site_fract_y
 _atom_site_fract_z
 _atom_site_occupancy
  Li  Li0  1  0.94719698  0.02189900  0.75650501  1
  Na  Na1  1  0.55280300  0.24349600  0.97810002  1
  Li  Li2  1  0.05280303  0.97810101  0.24349498  1
  Li  Li3  1  0.44719701  0.75650401  0.02189997  1
  Li  Li4  1  0.25000001  0.38869400  0.61130601  1
  Mn  Mn5  1  0.75000000  0.61130601  0.38869399  1
  Cu  Cu6  1  0.38391902  0.82109901  0.58128099  1
  Fe  Fe7  1  0.11608101  0.41871900  0.17890099  1
  Cu  Cu8  1  0.61608099  0.17890100  0.41871900  1
  Cu  Cu9  1  0.88391900  0.58128101  0.82109900  1
  O  O10  1  0.49351399  0.05583300  0.72905202  1
  Si  Si11  1  0.00648601  0.27094700  0.94416802  1
  O  O12  1  0.50648602  0.94416701  0.27094798  1
  O  O13  1  0.99351400  0.72905301  0.05583197  1
  O  O14  1  0.03812402  0.74461101  0.55379499  1
  O  O15  1  0.46187600  0.44620500  0.25538899  1
  P  P16  1  0.96187599  0.25538900  0.44620500  1
  P  P17  1  0.53812401  0.55379501  0.74461100  1
