# generated using pymatgen
data_SrLaMgAl
_symmetry_space_group_name_H-M   'P 1'
_cell_length_a   4.94800615
_cell_length_b   4.96327925
_cell_length_c   4.95423365
_cell_angle_alpha   119.93908691
_cell_angle_beta   119.90621948
_cell_angle_gamma   60.15940475
_symmetry_Int_Tables_number   1
_chemical_formula_structural   SrLaMgAl
_chemical_formula_sum   'Sr1 La1 Mg1 Al1'
_cell_volume   86.23603688
_cell_formula_units_Z   1
loop_
 _symmetry_equiv_pos_site_id
 _symmetry_equiv_pos_as_xyz
  1  'x, y, z'
loop_
 _atom_site_type_symbol
 _atom_site_label
 _atom_site_symmetry_multiplicity
 _atom_site_fract_x
 _atom_site_fract_y
 _atom_site_fract_z
 _atom_site_occupancy
  Sr  Sr0  1  0.24998399  0.24999900  0.74995202  1
  La  La1  1  0.99992497  0.99964198  0.99985607  1
  Mg  Mg2  1  0.49992099  0.50037399  0.50003303  1
  Al  Al3  1  0.75016998  0.74998499  0.25015904  1
