# generated using pymatgen
data_Li4CuO5
_symmetry_space_group_name_H-M   'P 1'
_cell_length_a   4.25158501
_cell_length_b   5.20797157
_cell_length_c   5.20860529
_cell_angle_alpha   80.37223816
_cell_angle_beta   65.91281891
_cell_angle_gamma   65.91159058
_symmetry_Int_Tables_number   1
_chemical_formula_structural   Li4CuO5
_chemical_formula_sum   'Li4 Cu1 O5'
_cell_volume   96.11857037
_cell_formula_units_Z   1
loop_
 _symmetry_equiv_pos_site_id
 _symmetry_equiv_pos_as_xyz
  1  'x, y, z'
loop_
 _atom_site_type_symbol
 _atom_site_label
 _atom_site_symmetry_multiplicity
 _atom_site_fract_x
 _atom_site_fract_y
 _atom_site_fract_z
 _atom_site_occupancy
  Li  Li0  1  0.00000001  0.99999899  -0.00000004  1
  Li  Li1  1  0.80010406  0.80036699  0.59951093  1
  Li  Li2  1  0.39974603  0.40070600  0.79983997  1
  Li  Li3  1  0.60025205  0.59929500  0.20015994  1
  Cu  Cu4  1  0.19989302  0.19963600  0.40048699  1
  O  O5  1  0.50000305  0.99999899  0.99999495  1
  O  O6  1  0.69659805  0.20160300  0.40515996  1
  O  O7  1  0.30339903  0.79839699  0.59484396  1
  O  O8  1  0.89835406  0.40495900  0.79833195  1
  O  O9  1  0.10165001  0.59504000  0.20167097  1
