# generated using pymatgen
data_Hf2Mn8Fe2SiNiGe2P
_symmetry_space_group_name_H-M   'P 1'
_cell_length_a   5.35548210
_cell_length_b   7.72248983
_cell_length_c   7.72248936
_cell_angle_alpha   120.00000000
_cell_angle_beta   90.00000000
_cell_angle_gamma   90.00000000
_symmetry_Int_Tables_number   1
_chemical_formula_structural   Hf2Mn8Fe2SiNiGe2P
_chemical_formula_sum   'Hf2 Mn8 Fe2 Si1 Ni1 Ge2 P1'
_cell_volume   276.59470860
_cell_formula_units_Z   1
loop_
 _symmetry_equiv_pos_site_id
 _symmetry_equiv_pos_as_xyz
  1  'x, y, z'
loop_
 _atom_site_type_symbol
 _atom_site_label
 _atom_site_symmetry_multiplicity
 _atom_site_fract_x
 _atom_site_fract_y
 _atom_site_fract_z
 _atom_site_occupancy
  Mn  Mn0  1  0.74365499  1.00000000  0.76229298  1
  Hf  Hf1  1  0.74365499  0.76229300  -0.00000003  1
  Hf  Hf2  1  0.74365499  0.23770700  0.23770700  1
  Mn  Mn3  1  0.25634500  1.00000000  0.23770697  1
  Mn  Mn4  1  0.25634500  0.23770700  -0.00000001  1
  Mn  Mn5  1  0.25634500  0.76229300  0.76229299  1
  Mn  Mn6  1  0.99999998  0.66666667  0.33333332  1
  Mn  Mn7  1  -0.00000000  0.33333333  0.66666667  1
  Mn  Mn8  1  0.49999999  0.33333333  0.66666667  1
  Mn  Mn9  1  0.49999999  0.66666667  0.33333332  1
  Fe  Fe10  1  0.75502999  1.00000000  0.39815497  1
  Ge  Ge11  1  0.75502999  0.39815500  -0.00000002  1
  Ge  Ge12  1  0.75502999  0.60184500  0.60184499  1
  Fe  Fe13  1  0.24497000  1.00000000  0.60184498  1
  Si  Si14  1  0.24497000  0.60184500  1.00000000  1
  Ni  Ni15  1  0.24497000  0.39815500  0.39815499  1
  P  P16  1  0.49999999  0.00000000  -0.00000000  1
