# generated using pymatgen
data_YCoB2PRh
_symmetry_space_group_name_H-M   'P 1'
_cell_length_a   3.02717900
_cell_length_b   5.47648191
_cell_length_c   5.47648239
_cell_angle_alpha   120.00000000
_cell_angle_beta   90.00000000
_cell_angle_gamma   90.00000000
_symmetry_Int_Tables_number   1
_chemical_formula_structural   YCoB2PRh
_chemical_formula_sum   'Y1 Co1 B2 P1 Rh1'
_cell_volume   78.62706914
_cell_formula_units_Z   1
loop_
 _symmetry_equiv_pos_site_id
 _symmetry_equiv_pos_as_xyz
  1  'x, y, z'
loop_
 _atom_site_type_symbol
 _atom_site_label
 _atom_site_symmetry_multiplicity
 _atom_site_fract_x
 _atom_site_fract_y
 _atom_site_fract_z
 _atom_site_occupancy
  Y  Y0  1  0.00000000  0.00000000  0.00000000  1
  Co  Co1  1  -0.00000000  0.33333335  0.66666668  1
  B  B2  1  -0.00000000  0.66666669  0.33333337  1
  B  B3  1  0.50000000  0.50000002  0.50000003  1
  Rh  Rh4  1  0.50000000  0.00000000  0.50000000  1
  P  P5  1  0.50000000  0.50000002  0.00000002  1
