# generated using pymatgen
data_Mn4Fe2Ni
_symmetry_space_group_name_H-M   'P 1'
_cell_length_a   4.24826002
_cell_length_b   4.34090996
_cell_length_c   7.25509167
_cell_angle_alpha   90.30017853
_cell_angle_beta   106.05627441
_cell_angle_gamma   118.47458649
_symmetry_Int_Tables_number   1
_chemical_formula_structural   Mn4Fe2Ni
_chemical_formula_sum   'Mn4 Fe2 Ni1'
_cell_volume   111.52185652
_cell_formula_units_Z   1
loop_
 _symmetry_equiv_pos_site_id
 _symmetry_equiv_pos_as_xyz
  1  'x, y, z'
loop_
 _atom_site_type_symbol
 _atom_site_label
 _atom_site_symmetry_multiplicity
 _atom_site_fract_x
 _atom_site_fract_y
 _atom_site_fract_z
 _atom_site_occupancy
  Mn  Mn0  1  0.88136395  0.90357193  0.96018201  1
  Mn  Mn1  1  0.96489697  0.52980496  0.44505301  1
  Mn  Mn2  1  0.79223696  0.87008193  0.63206001  1
  Mn  Mn3  1  0.58175396  0.74049494  0.18135701  1
  Fe  Fe4  1  0.30081099  0.14537199  0.37307500  1
  Ni  Ni5  1  0.70265898  0.31610098  0.97471400  1
  Fe  Fe6  1  0.27227797  0.61957195  0.80855900  1
