# generated using pymatgen
data_YInSn2PdAu3
_symmetry_space_group_name_H-M   'P 1'
_cell_length_a   4.48315477
_cell_length_b   4.48315477
_cell_length_c   9.65335464
_cell_angle_alpha   90.00000000
_cell_angle_beta   90.00000000
_cell_angle_gamma   90.00000000
_symmetry_Int_Tables_number   1
_chemical_formula_structural   YInSn2PdAu3
_chemical_formula_sum   'Y1 In1 Sn2 Pd1 Au3'
_cell_volume   194.01965432
_cell_formula_units_Z   1
loop_
 _symmetry_equiv_pos_site_id
 _symmetry_equiv_pos_as_xyz
  1  'x, y, z'
loop_
 _atom_site_type_symbol
 _atom_site_label
 _atom_site_symmetry_multiplicity
 _atom_site_fract_x
 _atom_site_fract_y
 _atom_site_fract_z
 _atom_site_occupancy
  Y  Y0  1  0.00000000  0.50000003  0.84507903  1
  In  In1  1  0.50000003  0.00000000  0.15492101  1
  Sn  Sn2  1  0.50000003  0.50000003  0.50000002  1
  Sn  Sn3  1  0.00000000  0.00000000  0.50000002  1
  Au  Au4  1  0.00000000  0.50000003  0.32194401  1
  Au  Au5  1  0.50000003  0.00000000  0.67805602  1
  Pd  Pd6  1  0.50000003  0.50000003  0.00000000  1
  Au  Au7  1  0.00000000  0.00000000  0.00000000  1
