# generated using pymatgen
data_Li2CoO4
_symmetry_space_group_name_H-M   'P 1'
_cell_length_a   2.82749200
_cell_length_b   5.00246477
_cell_length_c   5.23089504
_cell_angle_alpha   112.88792419
_cell_angle_beta   90.00000000
_cell_angle_gamma   90.00000000
_symmetry_Int_Tables_number   1
_chemical_formula_structural   Li2CoO4
_chemical_formula_sum   'Li2 Co1 O4'
_cell_volume   68.16275447
_cell_formula_units_Z   1
loop_
 _symmetry_equiv_pos_site_id
 _symmetry_equiv_pos_as_xyz
  1  'x, y, z'
loop_
 _atom_site_type_symbol
 _atom_site_label
 _atom_site_symmetry_multiplicity
 _atom_site_fract_x
 _atom_site_fract_y
 _atom_site_fract_z
 _atom_site_occupancy
  Li  Li0  1  0.50000000  0.50000002  0.99999999  1
  Li  Li1  1  0.50000000  0.00000000  0.50000000  1
  Co  Co2  1  1.00000000  0.50000002  0.49999999  1
  O  O3  1  1.00000000  0.23484801  0.72352899  1
  O  O4  1  0.50000000  0.74712203  0.69213398  1
  O  O5  1  1.00000000  0.76515203  0.27647098  1
  O  O6  1  0.50000000  0.25287801  0.30786599  1
