# generated using pymatgen
data_LaY4In2Sn2PtAu2
_symmetry_space_group_name_H-M   'P 1'
_cell_length_a   4.24371576
_cell_length_b   8.71604061
_cell_length_c   10.06440163
_cell_angle_alpha   81.76888275
_cell_angle_beta   77.82911682
_cell_angle_gamma   75.91017151
_symmetry_Int_Tables_number   1
_chemical_formula_structural   LaY4In2Sn2PtAu2
_chemical_formula_sum   'La1 Y4 In2 Sn2 Pt1 Au2'
_cell_volume   351.29109228
_cell_formula_units_Z   1
loop_
 _symmetry_equiv_pos_site_id
 _symmetry_equiv_pos_as_xyz
  1  'x, y, z'
loop_
 _atom_site_type_symbol
 _atom_site_label
 _atom_site_symmetry_multiplicity
 _atom_site_fract_x
 _atom_site_fract_y
 _atom_site_fract_z
 _atom_site_occupancy
  Y  Y0  1  0.69862809  0.69466402  0.90808001  1
  Y  Y1  1  0.30137204  0.30533601  0.09192001  1
  Y  Y2  1  0.38774108  0.82747103  0.39704703  1
  La  La3  1  0.61225905  0.17252901  0.60295299  1
  In  In4  1  0.03749706  0.86787803  0.05712804  1
  Y  Y5  1  0.96250307  0.13212200  0.94287198  1
  In  In6  1  0.91509310  0.62753302  0.54228101  1
  Sn  Sn7  1  0.08490703  0.37246701  0.45771901  1
  Au  Au8  1  0.65573207  0.52662002  0.16191601  1
  Au  Au9  1  0.34426805  0.47338001  0.83808401  1
  Sn  Sn10  1  0.20959307  0.92505603  0.65575803  1
  Pt  Pt11  1  0.79040705  0.07494400  0.34424199  1
