# generated using pymatgen
data_ZrMn2MoPd2Rh3
_symmetry_space_group_name_H-M   'P 1'
_cell_length_a   3.28160501
_cell_length_b   6.90347815
_cell_length_c   6.90347862
_cell_angle_alpha   120.00000000
_cell_angle_beta   90.00000000
_cell_angle_gamma   90.00000000
_symmetry_Int_Tables_number   1
_chemical_formula_structural   ZrMn2MoPd2Rh3
_chemical_formula_sum   'Zr1 Mn2 Mo1 Pd2 Rh3'
_cell_volume   135.44184957
_cell_formula_units_Z   1
loop_
 _symmetry_equiv_pos_site_id
 _symmetry_equiv_pos_as_xyz
  1  'x, y, z'
loop_
 _atom_site_type_symbol
 _atom_site_label
 _atom_site_symmetry_multiplicity
 _atom_site_fract_x
 _atom_site_fract_y
 _atom_site_fract_z
 _atom_site_occupancy
  Mn  Mn0  1  0.50000000  0.59863000  0.00000003  1
  Zr  Zr1  1  0.50000000  0.40137000  0.40137002  1
  Mn  Mn2  1  0.50000000  0.00000000  0.59863000  1
  Mo  Mo3  1  -0.00000000  0.25996500  0.00000001  1
  Pd  Pd4  1  -0.00000000  0.74003501  0.74003504  1
  Pd  Pd5  1  1.00000000  0.00000000  0.25996500  1
  Rh  Rh6  1  -0.00000000  0.33333334  0.66666668  1
  Rh  Rh7  1  -0.00000000  0.66666667  0.33333337  1
  Rh  Rh8  1  0.50000000  0.00000000  -0.00000000  1
