# generated using pymatgen
data_HfZr3MnAl2GaSi4
_symmetry_space_group_name_H-M   'P 1'
_cell_length_a   4.96939993
_cell_length_b   6.25290298
_cell_length_c   6.25290298
_cell_angle_alpha   90.00000000
_cell_angle_beta   90.00000000
_cell_angle_gamma   90.00000000
_symmetry_Int_Tables_number   1
_chemical_formula_structural   HfZr3MnAl2GaSi4
_chemical_formula_sum   'Hf1 Zr3 Mn1 Al2 Ga1 Si4'
_cell_volume   194.29755275
_cell_formula_units_Z   1
loop_
 _symmetry_equiv_pos_site_id
 _symmetry_equiv_pos_as_xyz
  1  'x, y, z'
loop_
 _atom_site_type_symbol
 _atom_site_label
 _atom_site_symmetry_multiplicity
 _atom_site_fract_x
 _atom_site_fract_y
 _atom_site_fract_z
 _atom_site_occupancy
  Mn  Mn0  1  0.50000001  0.33690000  0.15533500  1
  Hf  Hf1  1  0.50000001  0.66310000  0.84466500  1
  Zr  Zr2  1  0.50000001  0.15533500  0.66310000  1
  Zr  Zr3  1  0.50000001  0.84466500  0.33690000  1
  Zr  Zr4  1  0.00000000  0.33690000  0.84466500  1
  Al  Al5  1  0.00000000  0.84466500  0.66310000  1
  Ga  Ga6  1  -0.00000000  0.15533500  0.33690000  1
  Al  Al7  1  -0.00000000  0.66310000  0.15533500  1
  Si  Si8  1  0.75000001  0.50000000  0.50000000  1
  Si  Si9  1  0.25000000  0.50000000  0.50000000  1
  Si  Si10  1  0.75000001  0.00000000  0.00000000  1
  Si  Si11  1  0.25000000  0.00000000  0.00000000  1
