# generated using pymatgen
data_DyEr3Ga4
_symmetry_space_group_name_H-M   'P 1'
_cell_length_a   4.44011116
_cell_length_b   5.86517811
_cell_length_c   7.12934589
_cell_angle_alpha   90.00000000
_cell_angle_beta   90.00000000
_cell_angle_gamma   90.00000000
_symmetry_Int_Tables_number   1
_chemical_formula_structural   DyEr3Ga4
_chemical_formula_sum   'Dy1 Er3 Ga4'
_cell_volume   185.66273073
_cell_formula_units_Z   1
loop_
 _symmetry_equiv_pos_site_id
 _symmetry_equiv_pos_as_xyz
  1  'x, y, z'
loop_
 _atom_site_type_symbol
 _atom_site_label
 _atom_site_symmetry_multiplicity
 _atom_site_fract_x
 _atom_site_fract_y
 _atom_site_fract_z
 _atom_site_occupancy
  Er  Er0  1  0.24999999  0.36056099  0.67572601  1
  Er  Er1  1  0.24999999  0.13943900  0.17572600  1
  Er  Er2  1  0.74999997  0.63943899  0.32427400  1
  Dy  Dy3  1  0.74999997  0.86056098  0.82427401  1
  Ga  Ga4  1  0.24999999  0.85416998  0.54592401  1
  Ga  Ga5  1  0.24999999  0.64582999  0.04592400  1
  Ga  Ga6  1  0.74999997  0.14583000  0.45407601  1
  Ga  Ga7  1  0.74999997  0.35416999  0.95407601  1
