# generated using pymatgen
data_KBa2Na4Li3SO5
_symmetry_space_group_name_H-M   'P 1'
_cell_length_a   7.61804390
_cell_length_b   8.59493923
_cell_length_c   7.61804390
_cell_angle_alpha   63.69366455
_cell_angle_beta   90.00000000
_cell_angle_gamma   116.30633545
_symmetry_Int_Tables_number   1
_chemical_formula_structural   KBa2Na4Li3SO5
_chemical_formula_sum   'K1 Ba2 Na4 Li3 S1 O5'
_cell_volume   388.68312367
_cell_formula_units_Z   1
loop_
 _symmetry_equiv_pos_site_id
 _symmetry_equiv_pos_as_xyz
  1  'x, y, z'
loop_
 _atom_site_type_symbol
 _atom_site_label
 _atom_site_symmetry_multiplicity
 _atom_site_fract_x
 _atom_site_fract_y
 _atom_site_fract_z
 _atom_site_occupancy
  Ba  Ba0  1  0.51950802  0.72585004  0.98049200  1
  Ba  Ba1  1  0.01950802  0.72585004  0.79365800  1
  K  K2  1  0.70634202  0.72585004  0.48049199  1
  Na  Na3  1  0.98049202  0.27415002  0.20634200  1
  Na  Na4  1  0.20634202  0.72585004  0.29365799  1
  Na  Na5  1  0.48049201  0.27415002  0.01950799  1
  Li  Li6  1  0.79365802  0.27415002  0.70634200  1
  Na  Na7  1  0.29365801  0.27415002  0.51950800  1
  Li  Li8  1  0.00000000  0.00000000  0.00000000  1
  Li  Li9  1  0.50000003  1.00000006  0.49999999  1
  O  O10  1  0.36856503  0.99999906  0.86856599  1
  O  O11  1  0.86856503  0.99999906  0.63143499  1
  O  O12  1  0.63143403  0.99999906  0.13143498  1
  S  S13  1  0.13143402  0.99999906  0.36856598  1
  O  O14  1  0.75000002  0.50000003  0.24999999  1
  O  O15  1  0.25000001  0.50000003  0.75000000  1
