# generated using pymatgen
data_YCoNi4
_symmetry_space_group_name_H-M   'P 1'
_cell_length_a   4.03167486
_cell_length_b   4.96258640
_cell_length_c   4.96258640
_cell_angle_alpha   117.80377960
_cell_angle_beta   90.00000000
_cell_angle_gamma   90.00000000
_symmetry_Int_Tables_number   1
_chemical_formula_structural   YCoNi4
_chemical_formula_sum   'Y1 Co1 Ni4'
_cell_volume   87.82621205
_cell_formula_units_Z   1
loop_
 _symmetry_equiv_pos_site_id
 _symmetry_equiv_pos_as_xyz
  1  'x, y, z'
loop_
 _atom_site_type_symbol
 _atom_site_label
 _atom_site_symmetry_multiplicity
 _atom_site_fract_x
 _atom_site_fract_y
 _atom_site_fract_z
 _atom_site_occupancy
  Y  Y0  1  -0.00000000  0.49999999  0.49999997  1
  Co  Co1  1  0.50000002  0.00000000  -0.00000000  1
  Ni  Ni2  1  1.00000003  0.83308798  0.16691195  1
  Ni  Ni3  1  -0.00000000  0.16691200  0.83308799  1
  Ni  Ni4  1  0.50000002  0.49999999  -0.00000003  1
  Ni  Ni5  1  0.50000002  0.00000000  0.50000000  1
