# generated using pymatgen
data_Mn2FeSi4Ni
_symmetry_space_group_name_H-M   'P 1'
_cell_length_a   4.25823021
_cell_length_b   4.51673603
_cell_length_c   5.09279394
_cell_angle_alpha   90.00000000
_cell_angle_beta   90.00000000
_cell_angle_gamma   90.00000000
_symmetry_Int_Tables_number   1
_chemical_formula_structural   Mn2FeSi4Ni
_chemical_formula_sum   'Mn2 Fe1 Si4 Ni1'
_cell_volume   97.95124295
_cell_formula_units_Z   1
loop_
 _symmetry_equiv_pos_site_id
 _symmetry_equiv_pos_as_xyz
  1  'x, y, z'
loop_
 _atom_site_type_symbol
 _atom_site_label
 _atom_site_symmetry_multiplicity
 _atom_site_fract_x
 _atom_site_fract_y
 _atom_site_fract_z
 _atom_site_occupancy
  Mn  Mn0  1  0.00000000  0.34555000  0.00000000  1
  Mn  Mn1  1  0.00000000  0.33501100  0.50000001  1
  Si  Si2  1  0.49999998  0.67643800  -0.00000000  1
  Fe  Fe3  1  0.49999998  0.15683600  0.74605801  1
  Si  Si4  1  0.49999998  0.15683600  0.25394200  1
  Si  Si5  1  0.00000000  0.83901899  0.74512401  1
  Si  Si6  1  0.00000000  0.83901899  0.25487600  1
  Ni  Ni7  1  0.49999998  0.65129100  0.50000001  1
