# generated using pymatgen
data_NaLiCuNiO8
_symmetry_space_group_name_H-M   'P 1'
_cell_length_a   4.99780607
_cell_length_b   4.99780607
_cell_length_c   7.31344604
_cell_angle_alpha   90.00000000
_cell_angle_beta   90.00000000
_cell_angle_gamma   114.64348602
_symmetry_Int_Tables_number   1
_chemical_formula_structural   NaLiCuNiO8
_chemical_formula_sum   'Na1 Li1 Cu1 Ni1 O8'
_cell_volume   166.03761057
_cell_formula_units_Z   1
loop_
 _symmetry_equiv_pos_site_id
 _symmetry_equiv_pos_as_xyz
  1  'x, y, z'
loop_
 _atom_site_type_symbol
 _atom_site_label
 _atom_site_symmetry_multiplicity
 _atom_site_fract_x
 _atom_site_fract_y
 _atom_site_fract_z
 _atom_site_occupancy
  Na  Na0  1  0.00000000  0.00000000  0.00000000  1
  Li  Li1  1  0.00000000  0.00000000  0.50000000  1
  Cu  Cu2  1  0.35515296  0.64484697  0.25000000  1
  Ni  Ni3  1  0.64484697  0.35515299  0.75000000  1
  O  O4  1  0.31184098  0.23424599  0.75000000  1
  O  O5  1  0.68815895  0.76575397  0.25000000  1
  O  O6  1  0.23424598  0.31184099  0.25000000  1
  O  O7  1  0.76575395  0.68815897  0.75000000  1
  O  O8  1  0.73880097  0.26119899  0.58032400  1
  O  O9  1  0.26119896  0.73880097  0.08032400  1
  O  O10  1  0.26119896  0.73880097  0.41967600  1
  O  O11  1  0.73880097  0.26119899  0.91967599  1
