# generated using pymatgen
data_Y2(AlSi)3
_symmetry_space_group_name_H-M   'P 1'
_cell_length_a   3.84954810
_cell_length_b   3.84954858
_cell_length_c   15.05585670
_cell_angle_alpha   90.00000000
_cell_angle_beta   90.00000000
_cell_angle_gamma   119.99999237
_symmetry_Int_Tables_number   1
_chemical_formula_structural   Y2(AlSi)3
_chemical_formula_sum   'Y2 Al3 Si3'
_cell_volume   193.22160838
_cell_formula_units_Z   1
loop_
 _symmetry_equiv_pos_site_id
 _symmetry_equiv_pos_as_xyz
  1  'x, y, z'
loop_
 _atom_site_type_symbol
 _atom_site_label
 _atom_site_symmetry_multiplicity
 _atom_site_fract_x
 _atom_site_fract_y
 _atom_site_fract_z
 _atom_site_occupancy
  Y  Y0  1  0.66666663  0.33333332  0.90789002  1
  Y  Y1  1  0.33333329  0.66666664  0.40789001  1
  Al  Al2  1  0.33333329  0.66666664  0.09211000  1
  Al  Al3  1  0.66666663  0.33333332  0.59211001  1
  Si  Si4  1  0.00000000  0.00000000  0.00000000  1
  Al  Al5  1  0.00000000  0.00000000  0.50000001  1
  Si  Si6  1  0.33333329  0.66666664  0.75000001  1
  Si  Si7  1  0.66666663  0.33333332  0.25000000  1
