# generated using pymatgen
data_La3In(SnAu)4
_symmetry_space_group_name_H-M   'P 1'
_cell_length_a   4.57567596
_cell_length_b   7.22566795
_cell_length_c   8.06468773
_cell_angle_alpha   90.00000000
_cell_angle_beta   90.00000000
_cell_angle_gamma   90.00000000
_symmetry_Int_Tables_number   1
_chemical_formula_structural   La3In(SnAu)4
_chemical_formula_sum   'La3 In1 Sn4 Au4'
_cell_volume   266.63724753
_cell_formula_units_Z   1
loop_
 _symmetry_equiv_pos_site_id
 _symmetry_equiv_pos_as_xyz
  1  'x, y, z'
loop_
 _atom_site_type_symbol
 _atom_site_label
 _atom_site_symmetry_multiplicity
 _atom_site_fract_x
 _atom_site_fract_y
 _atom_site_fract_z
 _atom_site_occupancy
  La  La0  1  0.75000001  0.99042701  0.69813102  1
  La  La1  1  0.25000000  0.00957300  0.30186901  1
  In  In2  1  0.75000001  0.49042700  0.80186903  1
  La  La3  1  0.25000000  0.50957300  0.19813101  1
  Sn  Sn4  1  0.75000001  0.31849400  0.41515001  1
  Au  Au5  1  0.25000000  0.18150600  0.91515003  1
  Sn  Sn6  1  0.25000000  0.68150600  0.58485002  1
  Sn  Sn7  1  0.75000001  0.81849401  0.08485000  1
  Au  Au8  1  0.25000000  0.78503101  0.91016203  1
  Au  Au9  1  0.25000000  0.28503100  0.58983802  1
  Au  Au10  1  0.75000001  0.71496900  0.41016201  1
  Sn  Sn11  1  0.75000001  0.21496900  0.08983800  1
