# generated using pymatgen
data_MnFe2CuSiNi4P5
_symmetry_space_group_name_H-M   'P 1'
_cell_length_a   5.08844995
_cell_length_b   7.47654629
_cell_length_c   7.47872448
_cell_angle_alpha   119.97711945
_cell_angle_beta   90.00000000
_cell_angle_gamma   90.00000000
_symmetry_Int_Tables_number   1
_chemical_formula_structural   MnFe2CuSiNi4P5
_chemical_formula_sum   'Mn1 Fe2 Cu1 Si1 Ni4 P5'
_cell_volume   246.45905796
_cell_formula_units_Z   1
loop_
 _symmetry_equiv_pos_site_id
 _symmetry_equiv_pos_as_xyz
  1  'x, y, z'
loop_
 _atom_site_type_symbol
 _atom_site_label
 _atom_site_symmetry_multiplicity
 _atom_site_fract_x
 _atom_site_fract_y
 _atom_site_fract_z
 _atom_site_occupancy
  Mn  Mn0  1  0.75000001  0.72686900  0.66062604  1
  Cu  Cu1  1  0.75000001  0.33929900  0.06624402  1
  Fe  Fe2  1  0.75000001  0.93381799  0.27313805  1
  Ni  Ni3  1  0.25000000  0.27313100  0.33937402  1
  Ni  Ni4  1  0.25000000  0.66070100  0.93375604  1
  Fe  Fe5  1  0.25000000  0.06618200  0.72686201  1
  Ni  Ni6  1  0.25000000  0.66673033  0.33339704  1
  Si  Si7  1  0.75000001  0.33333333  0.66666669  1
  P  P8  1  0.25000000  0.69982500  0.63308604  1
  Ni  Ni9  1  0.25000000  0.36688700  0.06666102  1
  P  P10  1  0.25000000  0.93329799  0.30013305  1
  P  P11  1  0.75000001  0.30017500  0.36691402  1
  P  P12  1  0.75000001  0.63311300  0.93333904  1
  P  P13  1  0.75000001  0.06670200  0.69986701  1
