# generated using pymatgen
data_K2LiCuC3N8O
_symmetry_space_group_name_H-M   'P 1'
_cell_length_a   7.50106525
_cell_length_b   7.50106525
_cell_length_c   7.50106525
_cell_angle_alpha   60.00000000
_cell_angle_beta   60.00000000
_cell_angle_gamma   60.00000000
_symmetry_Int_Tables_number   1
_chemical_formula_structural   K2LiCuC3N8O
_chemical_formula_sum   'K2 Li1 Cu1 C3 N8 O1'
_cell_volume   298.43780205
_cell_formula_units_Z   1
loop_
 _symmetry_equiv_pos_site_id
 _symmetry_equiv_pos_as_xyz
  1  'x, y, z'
loop_
 _atom_site_type_symbol
 _atom_site_label
 _atom_site_symmetry_multiplicity
 _atom_site_fract_x
 _atom_site_fract_y
 _atom_site_fract_z
 _atom_site_occupancy
  K  K0  1  0.74999998  0.74999998  0.74999998  1
  K  K1  1  0.24999999  0.24999999  0.24999999  1
  Li  Li2  1  0.49999999  0.49999999  0.49999999  1
  Cu  Cu3  1  0.00000000  0.00000000  0.00000000  1
  C  C4  1  0.17681900  0.82318098  0.82318098  1
  C  C5  1  0.82318098  0.17681900  0.17681900  1
  C  C6  1  0.82318098  0.82318098  0.17681900  1
  N  N7  1  0.17681900  0.17681900  0.82318098  1
  N  N8  1  0.82318098  0.17681900  0.82318098  1
  O  O9  1  0.17681900  0.82318098  0.17681900  1
  N  N10  1  0.28760099  0.71239899  0.71239899  1
  N  N11  1  0.71239899  0.71239899  0.28760099  1
  N  N12  1  0.71239899  0.28760099  0.28760099  1
  N  N13  1  0.28760099  0.28760099  0.71239899  1
  N  N14  1  0.71239899  0.28760099  0.71239899  1
  N  N15  1  0.28760099  0.71239899  0.28760099  1
