# generated using pymatgen
data_Y2InSnGePd3
_symmetry_space_group_name_H-M   'P 1'
_cell_length_a   4.34668303
_cell_length_b   4.34668303
_cell_length_c   9.10732269
_cell_angle_alpha   90.00000000
_cell_angle_beta   90.00000000
_cell_angle_gamma   90.00000000
_symmetry_Int_Tables_number   1
_chemical_formula_structural   Y2InSnGePd3
_chemical_formula_sum   'Y2 In1 Sn1 Ge1 Pd3'
_cell_volume   172.07059766
_cell_formula_units_Z   1
loop_
 _symmetry_equiv_pos_site_id
 _symmetry_equiv_pos_as_xyz
  1  'x, y, z'
loop_
 _atom_site_type_symbol
 _atom_site_label
 _atom_site_symmetry_multiplicity
 _atom_site_fract_x
 _atom_site_fract_y
 _atom_site_fract_z
 _atom_site_occupancy
  Y  Y0  1  -0.00000000  0.50000000  0.73142702  1
  Y  Y1  1  0.50000000  0.00000000  0.26857301  1
  Sn  Sn2  1  0.50000000  0.50000000  0.50000002  1
  In  In3  1  0.00000000  0.00000000  0.50000002  1
  Pd  Pd4  1  0.50000000  0.50000000  0.00000000  1
  Pd  Pd5  1  0.00000000  0.00000000  0.00000000  1
  Ge  Ge6  1  -0.00000000  0.50000000  0.34134101  1
  Pd  Pd7  1  0.50000000  0.00000000  0.65865902  1
