# generated using pymatgen
data_ErHfFe10
_symmetry_space_group_name_H-M   'P 1'
_cell_length_a   4.87452841
_cell_length_b   4.87452841
_cell_length_c   8.48105526
_cell_angle_alpha   73.29898071
_cell_angle_beta   73.29898071
_cell_angle_gamma   59.99999619
_symmetry_Int_Tables_number   1
_chemical_formula_structural   ErHfFe10
_chemical_formula_sum   'Er1 Hf1 Fe10'
_cell_volume   164.63144495
_cell_formula_units_Z   1
loop_
 _symmetry_equiv_pos_site_id
 _symmetry_equiv_pos_as_xyz
  1  'x, y, z'
loop_
 _atom_site_type_symbol
 _atom_site_label
 _atom_site_symmetry_multiplicity
 _atom_site_fract_x
 _atom_site_fract_y
 _atom_site_fract_z
 _atom_site_occupancy
  Er  Er0  1  0.85991902  0.85991898  0.42024300  1
  Hf  Hf1  1  0.14008100  0.14008100  0.57975700  1
  Fe  Fe2  1  0.00000000  0.00000000  0.00000000  1
  Fe  Fe3  1  0.91695101  0.41791299  0.24722300  1
  Fe  Fe4  1  0.41791301  0.41791299  0.24722300  1
  Fe  Fe5  1  0.41791303  0.91695098  0.24722300  1
  Fe  Fe6  1  0.08304902  0.58208699  0.75277700  1
  Fe  Fe7  1  0.58208702  0.58208699  0.75277700  1
  Fe  Fe8  1  0.58208700  0.08304900  0.75277700  1
  Fe  Fe9  1  0.66750902  0.66750899  0.99747300  1
  Fe  Fe10  1  0.33249101  0.33249099  0.00252700  1
  Fe  Fe11  1  0.50000001  0.49999999  0.50000000  1
