# generated using pymatgen
data_PrYSi3Ge
_symmetry_space_group_name_H-M   'P 1'
_cell_length_a   3.93583608
_cell_length_b   3.93583608
_cell_length_c   7.86819506
_cell_angle_alpha   104.48404694
_cell_angle_beta   104.48404694
_cell_angle_gamma   90.00000000
_symmetry_Int_Tables_number   1
_chemical_formula_structural   PrYSi3Ge
_chemical_formula_sum   'Pr1 Y1 Si3 Ge1'
_cell_volume   114.00548221
_cell_formula_units_Z   1
loop_
 _symmetry_equiv_pos_site_id
 _symmetry_equiv_pos_as_xyz
  1  'x, y, z'
loop_
 _atom_site_type_symbol
 _atom_site_label
 _atom_site_symmetry_multiplicity
 _atom_site_fract_x
 _atom_site_fract_y
 _atom_site_fract_z
 _atom_site_occupancy
  Y  Y0  1  0.74999997  0.24999999  0.49999999  1
  Pr  Pr1  1  0.00000000  0.00000000  0.00000000  1
  Si  Si2  1  0.16795298  0.66795298  0.33590599  1
  Si  Si3  1  0.58204697  0.58204698  0.16409398  1
  Ge  Ge4  1  0.33204697  0.83204697  0.66409399  1
  Si  Si5  1  0.41795298  0.41795299  0.83590600  1
