# generated using pymatgen
data_YAlGa2NiGe
_symmetry_space_group_name_H-M   'P 1'
_cell_length_a   4.18264103
_cell_length_b   5.12385654
_cell_length_c   5.12385654
_cell_angle_alpha   118.90447998
_cell_angle_beta   90.00000000
_cell_angle_gamma   90.00000000
_symmetry_Int_Tables_number   1
_chemical_formula_structural   YAlGa2NiGe
_chemical_formula_sum   'Y1 Al1 Ga2 Ni1 Ge1'
_cell_volume   96.13119115
_cell_formula_units_Z   1
loop_
 _symmetry_equiv_pos_site_id
 _symmetry_equiv_pos_as_xyz
  1  'x, y, z'
loop_
 _atom_site_type_symbol
 _atom_site_label
 _atom_site_symmetry_multiplicity
 _atom_site_fract_x
 _atom_site_fract_y
 _atom_site_fract_z
 _atom_site_occupancy
  Y  Y0  1  0.99999999  0.50000001  0.50000001  1
  Al  Al1  1  0.50000000  0.00000000  -0.00000000  1
  Ga  Ga2  1  0.99999999  0.83243201  0.16756801  1
  Ga  Ga3  1  -0.00000000  0.16756800  0.83243201  1
  Ni  Ni4  1  0.50000000  0.50000001  0.00000000  1
  Ge  Ge5  1  0.50000000  0.00000000  0.50000001  1
