# generated using pymatgen
data_KLiHCl
_symmetry_space_group_name_H-M   'P 1'
_cell_length_a   4.17081070
_cell_length_b   4.17081070
_cell_length_c   7.39805460
_cell_angle_alpha   73.62722015
_cell_angle_beta   73.62722015
_cell_angle_gamma   59.99998856
_symmetry_Int_Tables_number   1
_chemical_formula_structural   KLiHCl
_chemical_formula_sum   'K1 Li1 H1 Cl1'
_cell_volume   105.38309263
_cell_formula_units_Z   1
loop_
 _symmetry_equiv_pos_site_id
 _symmetry_equiv_pos_as_xyz
  1  'x, y, z'
loop_
 _atom_site_type_symbol
 _atom_site_label
 _atom_site_symmetry_multiplicity
 _atom_site_fract_x
 _atom_site_fract_y
 _atom_site_fract_z
 _atom_site_occupancy
  Li  Li0  1  0.00000000  0.00000000  0.00000000  1
  K  K1  1  0.50000004  0.50000001  0.49999998  1
  H  H2  1  0.75681507  0.75681501  0.72955496  1
  Cl  Cl3  1  0.24318502  0.24318500  0.27044499  1
