# generated using pymatgen
data_ZrNb4PdSeS5
_symmetry_space_group_name_H-M   'P 1'
_cell_length_a   3.75838208
_cell_length_b   6.59503841
_cell_length_c   11.47847462
_cell_angle_alpha   103.82984161
_cell_angle_beta   90.00000000
_cell_angle_gamma   106.55526733
_symmetry_Int_Tables_number   1
_chemical_formula_structural   ZrNb4PdSeS5
_chemical_formula_sum   'Zr1 Nb4 Pd1 Se1 S5'
_cell_volume   264.10265716
_cell_formula_units_Z   1
loop_
 _symmetry_equiv_pos_site_id
 _symmetry_equiv_pos_as_xyz
  1  'x, y, z'
loop_
 _atom_site_type_symbol
 _atom_site_label
 _atom_site_symmetry_multiplicity
 _atom_site_fract_x
 _atom_site_fract_y
 _atom_site_fract_z
 _atom_site_occupancy
  Zr  Zr0  1  0.88621993  0.77243997  0.57725901  1
  Nb  Nb1  1  0.11066198  0.22132399  0.41985000  1
  Nb  Nb2  1  0.00037300  0.00074600  0.99797399  1
  Nb  Nb3  1  0.70109896  0.40219799  0.81505400  1
  Nb  Nb4  1  0.30058995  0.60117998  0.18821601  1
  Se  Se5  1  0.34162495  0.68324998  0.94896800  1
  S  S6  1  0.65938996  0.31877999  0.05060901  1
  S  S7  1  0.95886292  0.91772597  0.21278901  1
  Pd  Pd8  1  0.04118699  0.08237400  0.78295199  1
  S  S9  1  0.25718896  0.51437798  0.64592500  1
  S  S10  1  0.73895895  0.47791798  0.35081601  1
  S  S11  1  0.49484292  0.98968597  0.49338801  1
