# generated using pymatgen
data_VCu4NiO14
_symmetry_space_group_name_H-M   'P 1'
_cell_length_a   5.11810446
_cell_length_b   5.50321722
_cell_length_c   11.53031063
_cell_angle_alpha   89.91727448
_cell_angle_beta   89.95979309
_cell_angle_gamma   89.92061615
_symmetry_Int_Tables_number   1
_chemical_formula_structural   VCu4NiO14
_chemical_formula_sum   'V1 Cu4 Ni1 O14'
_cell_volume   324.76246749
_cell_formula_units_Z   1
loop_
 _symmetry_equiv_pos_site_id
 _symmetry_equiv_pos_as_xyz
  1  'x, y, z'
loop_
 _atom_site_type_symbol
 _atom_site_label
 _atom_site_symmetry_multiplicity
 _atom_site_fract_x
 _atom_site_fract_y
 _atom_site_fract_z
 _atom_site_occupancy
  Cu  Cu0  1  0.99750704  0.90202499  0.73764202  1
  V  V1  1  0.50130502  0.42824800  0.26274701  1
  Cu  Cu2  1  0.49833603  0.57179199  0.76151502  1
  Ni  Ni3  1  0.00256500  0.09819400  0.23896700  1
  Cu  Cu4  1  0.48998301  0.05698100  0.56551401  1
  Cu  Cu5  1  0.00833402  0.58131499  0.43518001  1
  O  O6  1  0.99094502  0.41800600  0.93375002  1
  O  O7  1  0.51043304  0.94456899  0.06693302  1
  O  O8  1  0.65119902  0.47356300  0.39882501  1
  O  O9  1  0.84724504  0.94398999  0.60058102  1
  O  O10  1  0.15321800  0.05764100  0.10184100  1
  O  O11  1  0.34820202  0.52601600  0.89764801  1
  O  O12  1  0.47705902  0.33810500  0.66285601  1
  O  O13  1  0.02530803  0.86357099  0.33723102  1
  O  O14  1  0.97562401  0.13507100  0.83653301  1
  O  O15  1  0.52306103  0.66162699  0.16353101  1
  O  O16  1  0.66630201  0.16611400  0.20163501  1
  O  O17  1  0.83384503  0.64030399  0.79775102  1
  O  O18  1  0.16595502  0.35918100  0.29931901  1
  O  O19  1  0.33357104  0.83368799  0.70000302  1
