# generated using pymatgen
data_ScTiFeCoNi2
_symmetry_space_group_name_H-M   'P 1'
_cell_length_a   4.88581085
_cell_length_b   4.88581085
_cell_length_c   4.88581085
_cell_angle_alpha   60.00000000
_cell_angle_beta   60.00000000
_cell_angle_gamma   60.00000000
_symmetry_Int_Tables_number   1
_chemical_formula_structural   ScTiFeCoNi2
_chemical_formula_sum   'Sc1 Ti1 Fe1 Co1 Ni2'
_cell_volume   82.46980194
_cell_formula_units_Z   1
loop_
 _symmetry_equiv_pos_site_id
 _symmetry_equiv_pos_as_xyz
  1  'x, y, z'
loop_
 _atom_site_type_symbol
 _atom_site_label
 _atom_site_symmetry_multiplicity
 _atom_site_fract_x
 _atom_site_fract_y
 _atom_site_fract_z
 _atom_site_occupancy
  Ti  Ti0  1  0.75000000  0.75000000  0.75000000  1
  Sc  Sc1  1  0.00000000  0.00000000  0.00000000  1
  Fe  Fe2  1  0.37419700  0.87740700  0.37419800  1
  Co  Co3  1  0.37419700  0.37419800  0.37419800  1
  Ni  Ni4  1  0.37419700  0.37419800  0.87740700  1
  Ni  Ni5  1  0.87740600  0.37419800  0.37419800  1
