# generated using pymatgen
data_Ba3YTl5TeP2(Se2S)2
_symmetry_space_group_name_H-M   'P 1'
_cell_length_a   6.56448698
_cell_length_b   8.99922180
_cell_length_c   8.99922180
_cell_angle_alpha   120.00000000
_cell_angle_beta   90.00000000
_cell_angle_gamma   90.00000000
_symmetry_Int_Tables_number   1
_chemical_formula_structural   Ba3YTl5TeP2(Se2S)2
_chemical_formula_sum   'Ba3 Y1 Tl5 Te1 P2 Se4 S2'
_cell_volume   460.40638176
_cell_formula_units_Z   1
loop_
 _symmetry_equiv_pos_site_id
 _symmetry_equiv_pos_as_xyz
  1  'x, y, z'
loop_
 _atom_site_type_symbol
 _atom_site_label
 _atom_site_symmetry_multiplicity
 _atom_site_fract_x
 _atom_site_fract_y
 _atom_site_fract_z
 _atom_site_occupancy
  Y  Y0  1  0.75000000  0.76433202  0.76433203  1
  Ba  Ba1  1  0.25000000  0.23566801  0.23566801  1
  Ba  Ba2  1  0.75000000  0.00000000  0.23566801  1
  Ba  Ba3  1  0.50000000  0.66666668  0.33333335  1
  Tl  Tl4  1  0.50000000  0.33333334  0.66666669  1
  Tl  Tl5  1  -0.00000000  0.33333334  0.66666669  1
  Tl  Tl6  1  0.25000000  0.00000000  0.76433203  1
  Tl  Tl7  1  0.25000000  0.76433202  1.00000004  1
  Te  Te8  1  -0.00000000  0.66666668  0.33333335  1
  Tl  Tl9  1  0.75000000  0.23566801  0.00000000  1
  P  P10  1  0.00000000  0.00000000  0.00000000  1
  P  P11  1  0.50000000  0.00000000  -0.00000000  1
  Se  Se12  1  0.25000000  0.59971302  0.59971303  1
  Se  Se13  1  0.25000000  0.00000000  0.40028701  1
  Se  Se14  1  0.75000000  0.59971302  0.00000001  1
  Se  Se15  1  0.75000000  0.40028701  0.40028702  1
  S  S16  1  0.75000000  0.00000000  0.59971302  1
  S  S17  1  0.25000000  0.40028701  1.00000004  1
