# generated using pymatgen
data_Li5Cu2NiO8
_symmetry_space_group_name_H-M   'P 1'
_cell_length_a   5.20876455
_cell_length_b   5.20857191
_cell_length_c   5.83963633
_cell_angle_alpha   89.97760010
_cell_angle_beta   89.91242981
_cell_angle_gamma   111.81756592
_symmetry_Int_Tables_number   1
_chemical_formula_structural   Li5Cu2NiO8
_chemical_formula_sum   'Li5 Cu2 Ni1 O8'
_cell_volume   147.08231398
_cell_formula_units_Z   1
loop_
 _symmetry_equiv_pos_site_id
 _symmetry_equiv_pos_as_xyz
  1  'x, y, z'
loop_
 _atom_site_type_symbol
 _atom_site_label
 _atom_site_symmetry_multiplicity
 _atom_site_fract_x
 _atom_site_fract_y
 _atom_site_fract_z
 _atom_site_occupancy
  Li  Li0  1  0.49702701  0.99709105  0.25004603  1
  Li  Li1  1  0.00280601  0.50294402  0.75000305  1
  Li  Li2  1  0.50035700  0.49995702  0.00114500  1
  Li  Li3  1  0.99988897  0.00044500  0.49883896  1
  Cu  Cu4  1  0.99626497  0.00527100  0.99864397  1
  Li  Li5  1  0.50527200  0.49624402  0.50120401  1
  Ni  Ni6  1  0.50159299  0.00127100  0.74997699  1
  Cu  Cu7  1  0.99987998  0.49984802  0.24996798  1
  O  O8  1  0.75519999  0.71991804  0.26421700  1
  O  O9  1  0.27953100  0.24472001  0.73611802  1
  O  O10  1  0.21974800  0.25523001  0.23567401  1
  O  O11  1  0.74488299  0.77961904  0.76402702  1
  O  O12  1  0.22875701  0.76950404  0.00057203  1
  O  O13  1  0.73534499  0.26388801  0.50020699  1
  O  O14  1  0.26952901  0.72870704  0.49951304  1
  O  O15  1  0.76391898  0.23534201  0.99984600  1
