# generated using pymatgen
data_LiMn2Fe4O9
_symmetry_space_group_name_H-M   'P 1'
_cell_length_a   5.48126411
_cell_length_b   5.48126411
_cell_length_c   5.48126411
_cell_angle_alpha   90.00000000
_cell_angle_beta   90.00000000
_cell_angle_gamma   90.00000000
_symmetry_Int_Tables_number   1
_chemical_formula_structural   LiMn2Fe4O9
_chemical_formula_sum   'Li1 Mn2 Fe4 O9'
_cell_volume   164.68050385
_cell_formula_units_Z   1
loop_
 _symmetry_equiv_pos_site_id
 _symmetry_equiv_pos_as_xyz
  1  'x, y, z'
loop_
 _atom_site_type_symbol
 _atom_site_label
 _atom_site_symmetry_multiplicity
 _atom_site_fract_x
 _atom_site_fract_y
 _atom_site_fract_z
 _atom_site_occupancy
  Li  Li0  1  0.00000000  0.00000000  0.00000000  1
  Mn  Mn1  1  0.49999999  0.49999999  0.49999999  1
  Mn  Mn2  1  0.00000000  0.49999999  0.24999999  1
  Fe  Fe3  1  0.00000000  0.49999999  0.74999998  1
  Fe  Fe4  1  0.24999999  0.00000000  0.49999999  1
  Fe  Fe5  1  0.49999999  0.24999999  0.00000000  1
  Fe  Fe6  1  0.49999999  0.74999998  -0.00000000  1
  O  O7  1  0.74999998  0.00000000  0.49999999  1
  O  O8  1  0.24999999  0.24999999  0.24999999  1
  O  O9  1  0.24999999  0.74999998  0.24999999  1
  O  O10  1  0.24999999  0.24999999  0.74999998  1
  O  O11  1  0.24999999  0.74999998  0.74999998  1
  O  O12  1  0.74999998  0.24999999  0.24999999  1
  O  O13  1  0.74999998  0.24999999  0.74999998  1
  O  O14  1  0.74999998  0.74999998  0.24999999  1
  O  O15  1  0.74999998  0.74999998  0.74999998  1
