# generated using pymatgen
data_K5RbBrCl5
_symmetry_space_group_name_H-M   'P 1'
_cell_length_a   6.12774277
_cell_length_b   8.16357327
_cell_length_c   10.67119026
_cell_angle_alpha   90.00000000
_cell_angle_beta   90.00000000
_cell_angle_gamma   90.00000000
_symmetry_Int_Tables_number   1
_chemical_formula_structural   K5RbBrCl5
_chemical_formula_sum   'K5 Rb1 Br1 Cl5'
_cell_volume   533.81857791
_cell_formula_units_Z   1
loop_
 _symmetry_equiv_pos_site_id
 _symmetry_equiv_pos_as_xyz
  1  'x, y, z'
loop_
 _atom_site_type_symbol
 _atom_site_label
 _atom_site_symmetry_multiplicity
 _atom_site_fract_x
 _atom_site_fract_y
 _atom_site_fract_z
 _atom_site_occupancy
  K  K0  1  0.25000001  0.50244798  0.74236098  1
  Rb  Rb1  1  0.75000003  0.49755198  0.25763899  1
  K  K2  1  0.75000003  0.75970798  0.58279299  1
  K  K3  1  0.25000001  0.74029198  0.08279300  1
  K  K4  1  0.25000001  0.24029199  0.41720699  1
  K  K5  1  0.25000001  0.00244800  0.75763898  1
  Cl  Cl6  1  0.75000003  0.25970799  0.91720698  1
  Br  Br7  1  0.75000003  0.99755197  0.24236099  1
  Cl  Cl8  1  0.25000001  0.74673498  0.41547899  1
  Cl  Cl9  1  0.75000003  0.75326498  0.91547898  1
  Cl  Cl10  1  0.25000001  0.24673499  0.08452100  1
  Cl  Cl11  1  0.75000003  0.25326499  0.58452099  1
