# generated using pymatgen
data_BeFe2N
_symmetry_space_group_name_H-M   'P 1'
_cell_length_a   2.98316693
_cell_length_b   2.98308206
_cell_length_c   5.15991545
_cell_angle_alpha   89.99864197
_cell_angle_beta   106.80222321
_cell_angle_gamma   120.00105286
_symmetry_Int_Tables_number   1
_chemical_formula_structural   BeFe2N
_chemical_formula_sum   'Be1 Fe2 N1'
_cell_volume   37.48544216
_cell_formula_units_Z   1
loop_
 _symmetry_equiv_pos_site_id
 _symmetry_equiv_pos_as_xyz
  1  'x, y, z'
loop_
 _atom_site_type_symbol
 _atom_site_label
 _atom_site_symmetry_multiplicity
 _atom_site_fract_x
 _atom_site_fract_y
 _atom_site_fract_z
 _atom_site_occupancy
  N  N0  1  0.00000000  0.00000000  0.00000000  1
  Fe  Fe1  1  0.99999998  0.50000000  0.49999996  1
  Fe  Fe2  1  0.50000599  0.25000500  0.75000696  1
  Be  Be3  1  0.49999401  0.74999500  0.24999298  1
