# generated using pymatgen
data_KNaSrLi2CaMnFeO10
_symmetry_space_group_name_H-M   'P 1'
_cell_length_a   5.53087616
_cell_length_b   5.53087616
_cell_length_c   8.63678932
_cell_angle_alpha   108.67458344
_cell_angle_beta   108.67458344
_cell_angle_gamma   90.00000000
_symmetry_Int_Tables_number   1
_chemical_formula_structural   KNaSrLi2CaMnFeO10
_chemical_formula_sum   'K1 Na1 Sr1 Li2 Ca1 Mn1 Fe1 O10'
_cell_volume   235.56511118
_cell_formula_units_Z   1
loop_
 _symmetry_equiv_pos_site_id
 _symmetry_equiv_pos_as_xyz
  1  'x, y, z'
loop_
 _atom_site_type_symbol
 _atom_site_label
 _atom_site_symmetry_multiplicity
 _atom_site_fract_x
 _atom_site_fract_y
 _atom_site_fract_z
 _atom_site_occupancy
  Na  Na0  1  0.00302098  0.50302098  0.00604198  1
  Sr  Sr1  1  0.50302098  0.00302100  0.00604198  1
  Ca  Ca2  1  0.25038396  0.75038396  0.50076798  1
  K  K3  1  0.75038396  0.25038399  0.50076798  1
  Li  Li4  1  0.37336097  0.37336098  0.74672200  1
  Mn  Mn5  1  0.13251299  0.13251299  0.26502600  1
  Li  Li6  1  0.63558295  0.63558297  0.27116596  1
  Fe  Fe7  1  0.86442993  0.86442996  0.72885996  1
  O  O8  1  0.49630396  0.49630398  0.99260800  1
  O  O9  1  0.00058400  0.00058400  0.00116800  1
  O  O10  1  0.58797897  0.09463800  0.68261700  1
  O  O11  1  0.09463697  0.58797797  0.68261500  1
  O  O12  1  0.58797895  0.58797897  0.68261598  1
  O  O13  1  0.09463699  0.09463700  0.68261602  1
  O  O14  1  0.40741795  0.90517296  0.31259096  1
  O  O15  1  0.90517295  0.40741798  0.31259097  1
  O  O16  1  0.40741797  0.40741798  0.31259098  1
  O  O17  1  0.90517293  0.90517296  0.31259095  1
