# generated using pymatgen
data_Er4Zr2NbFe3Si8
_symmetry_space_group_name_H-M   'P 1'
_cell_length_a   6.85224104
_cell_length_b   6.86642981
_cell_length_c   6.97095299
_cell_angle_alpha   110.65932465
_cell_angle_beta   90.00000000
_cell_angle_gamma   90.00000000
_symmetry_Int_Tables_number   1
_chemical_formula_structural   Er4Zr2NbFe3Si8
_chemical_formula_sum   'Er4 Zr2 Nb1 Fe3 Si8'
_cell_volume   306.89510063
_cell_formula_units_Z   1
loop_
 _symmetry_equiv_pos_site_id
 _symmetry_equiv_pos_as_xyz
  1  'x, y, z'
loop_
 _atom_site_type_symbol
 _atom_site_label
 _atom_site_symmetry_multiplicity
 _atom_site_fract_x
 _atom_site_fract_y
 _atom_site_fract_z
 _atom_site_occupancy
  Er  Er0  1  0.36953000  0.84824401  0.44899096  1
  Er  Er1  1  0.86953000  0.15175600  0.05100899  1
  Er  Er2  1  0.63047000  0.15175600  0.55100900  1
  Er  Er3  1  0.13047000  0.84824401  0.94899097  1
  Zr  Zr4  1  0.31633600  0.25445300  0.25145099  1
  Zr  Zr5  1  0.81633600  0.74554700  0.24854896  1
  Nb  Nb6  1  0.50000000  0.50000000  -0.00000003  1
  Fe  Fe7  1  -0.00000000  0.50000000  0.49999998  1
  Fe  Fe8  1  0.68366400  0.74554700  0.74854897  1
  Fe  Fe9  1  0.18366400  0.25445300  0.75145100  1
  Si  Si10  1  0.13375000  0.52389900  0.13923997  1
  Si  Si11  1  0.63375000  0.47610100  0.36075998  1
  Si  Si12  1  0.86625000  0.47610100  0.86075999  1
  Si  Si13  1  0.36625000  0.52389900  0.63923998  1
  Si  Si14  1  0.46377900  0.08728700  0.88262401  1
  Si  Si15  1  0.96377899  0.91271301  0.61737596  1
  Si  Si16  1  0.03622100  0.08728700  0.38262400  1
  Si  Si17  1  0.53622100  0.91271301  0.11737595  1
