# generated using pymatgen
data_Li3YMn2BeN7
_symmetry_space_group_name_H-M   'P 1'
_cell_length_a   3.30732894
_cell_length_b   5.80308723
_cell_length_c   9.84109020
_cell_angle_alpha   90.00000000
_cell_angle_beta   90.00000000
_cell_angle_gamma   90.00000000
_symmetry_Int_Tables_number   1
_chemical_formula_structural   Li3YMn2BeN7
_chemical_formula_sum   'Li3 Y1 Mn2 Be1 N7'
_cell_volume   188.87727250
_cell_formula_units_Z   1
loop_
 _symmetry_equiv_pos_site_id
 _symmetry_equiv_pos_as_xyz
  1  'x, y, z'
loop_
 _atom_site_type_symbol
 _atom_site_label
 _atom_site_symmetry_multiplicity
 _atom_site_fract_x
 _atom_site_fract_y
 _atom_site_fract_z
 _atom_site_occupancy
  Li  Li0  1  0.50000001  0.07037300  0.31834799  1
  Y  Y1  1  0.50000001  0.92962696  0.68165199  1
  Li  Li2  1  0.50000001  0.42962698  0.81834798  1
  Li  Li3  1  0.50000001  0.57037298  0.18165200  1
  Mn  Mn4  1  0.00000000  0.00000000  0.00000000  1
  Mn  Mn5  1  0.00000000  0.49999998  0.49999999  1
  Be  Be6  1  0.00000000  0.13602099  0.80675498  1
  N  N7  1  0.00000000  0.86397897  0.19324500  1
  N  N8  1  0.00000000  0.63602097  0.69324499  1
  N  N9  1  0.00000000  0.36397899  0.30675499  1
  N  N10  1  0.50000001  0.27068799  0.54792799  1
  N  N11  1  0.50000001  0.72931197  0.45207199  1
  N  N12  1  0.50000001  0.22931199  0.04792800  1
  N  N13  1  0.50000001  0.77068797  0.95207198  1
