# generated using pymatgen
data_KCu5Se8
_symmetry_space_group_name_H-M   'P 1'
_cell_length_a   4.03281593
_cell_length_b   9.61556530
_cell_length_c   10.44004726
_cell_angle_alpha   104.32822418
_cell_angle_beta   101.13618469
_cell_angle_gamma   90.00000000
_symmetry_Int_Tables_number   1
_chemical_formula_structural   KCu5Se8
_chemical_formula_sum   'K1 Cu5 Se8'
_cell_volume   384.37659427
_cell_formula_units_Z   1
loop_
 _symmetry_equiv_pos_site_id
 _symmetry_equiv_pos_as_xyz
  1  'x, y, z'
loop_
 _atom_site_type_symbol
 _atom_site_label
 _atom_site_symmetry_multiplicity
 _atom_site_fract_x
 _atom_site_fract_y
 _atom_site_fract_z
 _atom_site_occupancy
  K  K0  1  0.50000000  0.49999997  -0.00000001  1
  Cu  Cu1  1  0.00000000  0.00000000  0.00000000  1
  Cu  Cu2  1  0.65915899  0.98654395  0.31831796  1
  Cu  Cu3  1  0.34084100  0.01345600  0.68168197  1
  Cu  Cu4  1  0.70426101  0.33135698  0.40852197  1
  Cu  Cu5  1  0.29573899  0.66864297  0.59147796  1
  Se  Se6  1  0.42747699  0.83720196  0.85495394  1
  Se  Se7  1  0.57252301  0.16279799  0.14504599  1
  Se  Se8  1  0.91188001  0.17002099  0.82375996  1
  Se  Se9  1  0.08811999  0.82997896  0.17623997  1
  Se  Se10  1  0.82959600  0.50911597  0.65919196  1
  Se  Se11  1  0.17040399  0.49088397  0.34080797  1
  Se  Se12  1  0.76025500  0.84201196  0.52050996  1
  Se  Se13  1  0.23974500  0.15798799  0.47948998  1
