# generated using pymatgen
data_VCuO
_symmetry_space_group_name_H-M   'P 1'
_cell_length_a   2.93249726
_cell_length_b   2.93249726
_cell_length_c   4.90777826
_cell_angle_alpha   84.23992920
_cell_angle_beta   84.23992920
_cell_angle_gamma   67.67707062
_symmetry_Int_Tables_number   1
_chemical_formula_structural   VCuO
_chemical_formula_sum   'V1 Cu1 O1'
_cell_volume   38.75567546
_cell_formula_units_Z   1
loop_
 _symmetry_equiv_pos_site_id
 _symmetry_equiv_pos_as_xyz
  1  'x, y, z'
loop_
 _atom_site_type_symbol
 _atom_site_label
 _atom_site_symmetry_multiplicity
 _atom_site_fract_x
 _atom_site_fract_y
 _atom_site_fract_z
 _atom_site_occupancy
  Cu  Cu0  1  0.76535201  0.76535202  0.26303605  1
  V  V1  1  0.23464800  0.23464801  0.73696405  1
  O  O2  1  0.50000000  0.50000001  1.00000007  1
