# generated using pymatgen
data_Y6Er2GaSi4Ni3
_symmetry_space_group_name_H-M   'P 1'
_cell_length_a   3.97975898
_cell_length_b   7.87446499
_cell_length_c   10.65979481
_cell_angle_alpha   90.00000000
_cell_angle_beta   90.00000000
_cell_angle_gamma   90.00000000
_symmetry_Int_Tables_number   1
_chemical_formula_structural   Y6Er2GaSi4Ni3
_chemical_formula_sum   'Y6 Er2 Ga1 Si4 Ni3'
_cell_volume   334.06168893
_cell_formula_units_Z   1
loop_
 _symmetry_equiv_pos_site_id
 _symmetry_equiv_pos_as_xyz
  1  'x, y, z'
loop_
 _atom_site_type_symbol
 _atom_site_label
 _atom_site_symmetry_multiplicity
 _atom_site_fract_x
 _atom_site_fract_y
 _atom_site_fract_z
 _atom_site_occupancy
  Y  Y0  1  0.25000000  0.48737200  0.10590800  1
  Y  Y1  1  0.25000000  0.98737200  0.39409201  1
  Y  Y2  1  0.75000000  0.01262800  0.60590801  1
  Er  Er3  1  0.75000000  0.51262800  0.89409202  1
  Er  Er4  1  0.25000000  0.13474100  0.86492202  1
  Y  Y5  1  0.75000000  0.86525900  0.13507800  1
  Y  Y6  1  0.25000000  0.63474100  0.63507801  1
  Y  Y7  1  0.75000000  0.36525900  0.36492201  1
  Ni  Ni8  1  0.75000000  0.84261600  0.81082401  1
  Si  Si9  1  0.25000000  0.65738400  0.31082401  1
  Ga  Ga10  1  0.25000000  0.15738400  0.18917600  1
  Ni  Ni11  1  0.75000000  0.34261600  0.68917601  1
  Si  Si12  1  0.75000000  0.27050900  0.06481600  1
  Si  Si13  1  0.25000000  0.72949100  0.93518402  1
  Ni  Ni14  1  0.75000000  0.77050900  0.43518401  1
  Si  Si15  1  0.25000000  0.22949100  0.56481601  1
