# generated using pymatgen
data_ErTh2ZrSn8PdAu7
_symmetry_space_group_name_H-M   'P 1'
_cell_length_a   7.31643915
_cell_length_b   7.74604511
_cell_length_c   7.74604511
_cell_angle_alpha   90.00000000
_cell_angle_beta   90.00000000
_cell_angle_gamma   90.00000000
_symmetry_Int_Tables_number   1
_chemical_formula_structural   ErTh2ZrSn8PdAu7
_chemical_formula_sum   'Er1 Th2 Zr1 Sn8 Pd1 Au7'
_cell_volume   438.99523775
_cell_formula_units_Z   1
loop_
 _symmetry_equiv_pos_site_id
 _symmetry_equiv_pos_as_xyz
  1  'x, y, z'
loop_
 _atom_site_type_symbol
 _atom_site_label
 _atom_site_symmetry_multiplicity
 _atom_site_fract_x
 _atom_site_fract_y
 _atom_site_fract_z
 _atom_site_occupancy
  Er  Er0  1  0.49999999  0.68676899  0.31323100  1
  Zr  Zr1  1  0.49999999  0.31323100  0.68676899  1
  Th  Th2  1  0.00000000  0.18676900  0.18676900  1
  Th  Th3  1  0.00000000  0.81323099  0.81323099  1
  Sn  Sn4  1  0.49999999  0.84551999  0.84551999  1
  Sn  Sn5  1  0.49999999  0.15448000  0.15448000  1
  Sn  Sn6  1  0.00000000  0.34551999  0.65447999  1
  Sn  Sn7  1  0.00000000  0.65447999  0.34551999  1
  Au  Au8  1  0.24999999  0.49999999  0.00000000  1
  Sn  Sn9  1  0.74999998  0.99999999  0.49999999  1
  Sn  Sn10  1  0.74999998  0.49999999  0.00000000  1
  Au  Au11  1  0.24999999  0.99999999  0.49999999  1
  Pd  Pd12  1  0.21911700  0.86869099  0.13130900  1
  Sn  Sn13  1  0.21911700  0.13130900  0.86869099  1
  Au  Au14  1  0.71911699  0.36869099  0.36869099  1
  Au  Au15  1  0.71911699  0.63130899  0.63130899  1
  Sn  Sn16  1  0.78088298  0.13130900  0.86869099  1
  Au  Au17  1  0.78088298  0.86869099  0.13130900  1
  Au  Au18  1  0.28088299  0.63130899  0.63130899  1
  Au  Au19  1  0.28088299  0.36869099  0.36869099  1
