# generated using pymatgen
data_Ba6Eu2TlHgBi3SbPb2
_symmetry_space_group_name_H-M   'P 1'
_cell_length_a   4.26812410
_cell_length_b   7.62199926
_cell_length_c   20.43162727
_cell_angle_alpha   87.50382996
_cell_angle_beta   84.00457764
_cell_angle_gamma   73.74056244
_symmetry_Int_Tables_number   1
_chemical_formula_structural   Ba6Eu2TlHgBi3SbPb2
_chemical_formula_sum   'Ba6 Eu2 Tl1 Hg1 Bi3 Sb1 Pb2'
_cell_volume   634.52837481
_cell_formula_units_Z   1
loop_
 _symmetry_equiv_pos_site_id
 _symmetry_equiv_pos_as_xyz
  1  'x, y, z'
loop_
 _atom_site_type_symbol
 _atom_site_label
 _atom_site_symmetry_multiplicity
 _atom_site_fract_x
 _atom_site_fract_y
 _atom_site_fract_z
 _atom_site_occupancy
  Ba  Ba0  1  0.82618300  0.35317801  0.99445602  1
  Eu  Eu1  1  0.17381702  0.64682201  0.00554401  1
  Ba  Ba2  1  0.82116801  0.85258901  0.50507501  1
  Eu  Eu3  1  0.79424399  0.26769500  0.14381700  1
  Ba  Ba4  1  0.20575602  0.73230501  0.85618303  1
  Ba  Ba5  1  0.17883200  0.14741100  0.49492501  1
  Ba  Ba6  1  0.92928201  0.78631301  0.35512301  1
  Ba  Ba7  1  0.07071800  0.21368700  0.64487702  1
  Hg  Hg8  1  0.85230600  0.47745301  0.81793502  1
  Sb  Sb9  1  0.54971701  0.51879901  0.38176701  1
  Tl  Tl10  1  0.55913602  0.99476902  0.88695903  1
  Bi  Bi11  1  0.44086399  0.00523100  0.11304100  1
  Pb  Pb12  1  0.45028301  0.48120101  0.61823302  1
  Pb  Pb13  1  0.31790800  0.04590300  0.31828101  1
  Bi  Bi14  1  0.68209202  0.95409702  0.68171902  1
  Bi  Bi15  1  0.14769401  0.52254701  0.18206501  1
