# generated using pymatgen
data_Na2LiCu2P2O11
_symmetry_space_group_name_H-M   'P 1'
_cell_length_a   3.40376091
_cell_length_b   8.41836166
_cell_length_c   8.41836166
_cell_angle_alpha   120.00000000
_cell_angle_beta   90.00000000
_cell_angle_gamma   90.00000000
_symmetry_Int_Tables_number   1
_chemical_formula_structural   Na2LiCu2P2O11
_chemical_formula_sum   'Na2 Li1 Cu2 P2 O11'
_cell_volume   208.90307726
_cell_formula_units_Z   1
loop_
 _symmetry_equiv_pos_site_id
 _symmetry_equiv_pos_as_xyz
  1  'x, y, z'
loop_
 _atom_site_type_symbol
 _atom_site_label
 _atom_site_symmetry_multiplicity
 _atom_site_fract_x
 _atom_site_fract_y
 _atom_site_fract_z
 _atom_site_occupancy
  Na  Na0  1  0.50000001  0.65551802  -0.00000002  1
  Na  Na1  1  0.50000001  0.00000000  0.65551800  1
  Cu  Cu2  1  0.50000001  0.34448201  0.34448199  1
  Li  Li3  1  -0.00000000  0.28978901  -0.00000001  1
  Cu  Cu4  1  1.00000003  0.71021102  0.71021099  1
  P  P5  1  -0.00000000  0.00000000  0.28978900  1
  P  P6  1  1.00000003  0.33333334  0.66666666  1
  O  O7  1  -0.00000000  0.66666669  0.33333332  1
  O  O8  1  0.50000001  0.00000000  -0.00000000  1
  O  O9  1  0.50000001  0.15447600  -0.00000000  1
  O  O10  1  -0.00000000  0.76347802  0.51150798  1
  O  O11  1  -0.00000000  0.51150701  0.76347699  1
  O  O12  1  0.50000001  0.84552402  0.84552398  1
  O  O13  1  0.50000001  0.00000000  0.15447600  1
  O  O14  1  -0.00000000  0.25197001  0.48849200  1
  O  O15  1  -0.00000000  0.48849301  0.25197099  1
  O  O16  1  -0.00000000  0.74803002  0.23652298  1
  O  O17  1  -0.00000000  0.23652201  0.74802900  1
