# generated using pymatgen
data_Li3Mg2Zn
_symmetry_space_group_name_H-M   'P 1'
_cell_length_a   5.31898355
_cell_length_b   5.31898355
_cell_length_c   5.90391397
_cell_angle_alpha   63.22664261
_cell_angle_beta   63.22664261
_cell_angle_gamma   60.00000763
_symmetry_Int_Tables_number   1
_chemical_formula_structural   Li3Mg2Zn
_chemical_formula_sum   'Li3 Mg2 Zn1'
_cell_volume   123.54471954
_cell_formula_units_Z   1
loop_
 _symmetry_equiv_pos_site_id
 _symmetry_equiv_pos_as_xyz
  1  'x, y, z'
loop_
 _atom_site_type_symbol
 _atom_site_label
 _atom_site_symmetry_multiplicity
 _atom_site_fract_x
 _atom_site_fract_y
 _atom_site_fract_z
 _atom_site_occupancy
  Li  Li0  1  -0.00000000  0.33333332  0.00000001  1
  Li  Li1  1  0.33333332  0.66666664  0.00000002  1
  Li  Li2  1  0.66666663  0.99999997  0.00000004  1
  Mg  Mg3  1  0.49999998  0.49999998  0.50000003  1
  Mg  Mg4  1  0.83329296  0.83329297  0.50012105  1
  Zn  Zn5  1  0.16670699  0.16670699  0.49987901  1
