# generated using pymatgen
data_Y(GaGe)2
_symmetry_space_group_name_H-M   'P 1'
_cell_length_a   4.29229593
_cell_length_b   4.29229641
_cell_length_c   6.58722210
_cell_angle_alpha   90.00000000
_cell_angle_beta   90.00000000
_cell_angle_gamma   119.99999237
_symmetry_Int_Tables_number   1
_chemical_formula_structural   Y(GaGe)2
_chemical_formula_sum   'Y1 Ga2 Ge2'
_cell_volume   105.10232749
_cell_formula_units_Z   1
loop_
 _symmetry_equiv_pos_site_id
 _symmetry_equiv_pos_as_xyz
  1  'x, y, z'
loop_
 _atom_site_type_symbol
 _atom_site_label
 _atom_site_symmetry_multiplicity
 _atom_site_fract_x
 _atom_site_fract_y
 _atom_site_fract_z
 _atom_site_occupancy
  Y  Y0  1  0.00000000  0.00000000  0.00000000  1
  Ga  Ga1  1  0.33333329  0.66666666  0.64446799  1
  Ga  Ga2  1  0.66666665  0.33333333  0.35553199  1
  Ge  Ge3  1  0.33333329  0.66666666  0.25743800  1
  Ge  Ge4  1  0.66666665  0.33333333  0.74256199  1
