# generated using pymatgen
data_YTl3Bi2(SbSe)2
_symmetry_space_group_name_H-M   'P 1'
_cell_length_a   4.30493641
_cell_length_b   4.30493641
_cell_length_c   20.81931877
_cell_angle_alpha   84.06568909
_cell_angle_beta   84.06568909
_cell_angle_gamma   59.99999237
_symmetry_Int_Tables_number   1
_chemical_formula_structural   YTl3Bi2(SbSe)2
_chemical_formula_sum   'Y1 Tl3 Bi2 Sb2 Se2'
_cell_volume   331.75197165
_cell_formula_units_Z   1
loop_
 _symmetry_equiv_pos_site_id
 _symmetry_equiv_pos_as_xyz
  1  'x, y, z'
loop_
 _atom_site_type_symbol
 _atom_site_label
 _atom_site_symmetry_multiplicity
 _atom_site_fract_x
 _atom_site_fract_y
 _atom_site_fract_z
 _atom_site_occupancy
  Y  Y0  1  0.19856101  0.19856101  0.40431698  1
  Tl  Tl1  1  0.69624905  0.69624902  0.91125296  1
  Tl  Tl2  1  0.30212802  0.30212801  0.09361599  1
  Tl  Tl3  1  0.80481106  0.80481102  0.58556697  1
  Bi  Bi4  1  0.39187403  0.39187401  0.82437797  1
  Bi  Bi5  1  0.60652604  0.60652602  0.18042199  1
  Sb  Sb6  1  0.10912001  0.10912000  0.67263998  1
  Sb  Sb7  1  0.99940807  0.99940803  0.00177598  1
  Se  Se8  1  0.50176904  0.50176901  0.49469298  1
  Se  Se9  1  0.88955606  0.88955602  0.33133198  1
