# generated using pymatgen
data_BaLiLaIn3Sn2SbAu7
_symmetry_space_group_name_H-M   'P 1'
_cell_length_a   4.08193588
_cell_length_b   4.08193588
_cell_length_c   20.68530273
_cell_angle_alpha   90.00000000
_cell_angle_beta   90.00000000
_cell_angle_gamma   89.88446808
_symmetry_Int_Tables_number   1
_chemical_formula_structural   BaLiLaIn3Sn2SbAu7
_chemical_formula_sum   'Ba1 Li1 La1 In3 Sn2 Sb1 Au7'
_cell_volume   344.66196190
_cell_formula_units_Z   1
loop_
 _symmetry_equiv_pos_site_id
 _symmetry_equiv_pos_as_xyz
  1  'x, y, z'
loop_
 _atom_site_type_symbol
 _atom_site_label
 _atom_site_symmetry_multiplicity
 _atom_site_fract_x
 _atom_site_fract_y
 _atom_site_fract_z
 _atom_site_occupancy
  Ba  Ba0  1  0.73473696  0.73473698  0.38272400  1
  La  La1  1  0.26526298  0.26526299  0.61727601  1
  In  In2  1  0.23473699  0.23473699  0.11727600  1
  In  In3  1  0.76526295  0.76526298  0.88272401  1
  Li  Li4  1  0.23443499  0.23443499  0.34309600  1
  In  In5  1  0.76556495  0.76556498  0.65690401  1
  Sn  Sn6  1  0.73443496  0.73443498  0.15690400  1
  Sb  Sb7  1  0.26556498  0.26556499  0.84309601  1
  Au  Au8  1  0.22418297  0.77581698  0.50000001  1
  Sn  Sn9  1  0.27581697  0.72418298  -0.00000000  1
  Au  Au10  1  0.77581697  0.22418299  0.50000001  1
  Au  Au11  1  0.72418297  0.27581699  -0.00000000  1
  Au  Au12  1  0.23137597  0.73137598  0.25000000  1
  Au  Au13  1  0.26862397  0.76862398  0.75000001  1
  Au  Au14  1  0.76862397  0.26862399  0.75000001  1
  Au  Au15  1  0.73137597  0.23137599  0.25000000  1
