# generated using pymatgen
data_PrY2InGe2
_symmetry_space_group_name_H-M   'P 1'
_cell_length_a   4.14424610
_cell_length_b   4.26723385
_cell_length_c   8.58078003
_cell_angle_alpha   104.39768219
_cell_angle_beta   103.97415924
_cell_angle_gamma   90.00000000
_symmetry_Int_Tables_number   1
_chemical_formula_structural   PrY2InGe2
_chemical_formula_sum   'Pr1 Y2 In1 Ge2'
_cell_volume   142.33938576
_cell_formula_units_Z   1
loop_
 _symmetry_equiv_pos_site_id
 _symmetry_equiv_pos_as_xyz
  1  'x, y, z'
loop_
 _atom_site_type_symbol
 _atom_site_label
 _atom_site_symmetry_multiplicity
 _atom_site_fract_x
 _atom_site_fract_y
 _atom_site_fract_z
 _atom_site_occupancy
  Y  Y0  1  0.62716500  0.37716501  0.25433003  1
  Pr  Pr1  1  0.37283501  0.62283502  0.74567005  1
  Y  Y2  1  0.20273501  0.95273504  0.40547003  1
  In  In3  1  0.79726499  0.04726500  0.59453005  1
  Ge  Ge4  1  0.04184901  0.79184903  0.08369801  1
  Ge  Ge5  1  0.95815099  0.20815101  0.91630207  1
