# generated using pymatgen
data_LaYEr2In2Sn2PdAu
_symmetry_space_group_name_H-M   'P 1'
_cell_length_a   3.89912510
_cell_length_b   7.81924820
_cell_length_c   7.81924820
_cell_angle_alpha   90.00000000
_cell_angle_beta   90.00000000
_cell_angle_gamma   90.00000000
_symmetry_Int_Tables_number   1
_chemical_formula_structural   LaYEr2In2Sn2PdAu
_chemical_formula_sum   'La1 Y1 Er2 In2 Sn2 Pd1 Au1'
_cell_volume   238.39501338
_cell_formula_units_Z   1
loop_
 _symmetry_equiv_pos_site_id
 _symmetry_equiv_pos_as_xyz
  1  'x, y, z'
loop_
 _atom_site_type_symbol
 _atom_site_label
 _atom_site_symmetry_multiplicity
 _atom_site_fract_x
 _atom_site_fract_y
 _atom_site_fract_z
 _atom_site_occupancy
  Er  Er0  1  0.49999999  0.83450498  0.66549498  1
  Er  Er1  1  0.49999999  0.33450499  0.83450498  1
  Y  Y2  1  0.49999999  0.66549498  0.16549500  1
  La  La3  1  0.49999999  0.16549500  0.33450499  1
  In  In4  1  0.00000000  0.00000000  0.00000000  1
  In  In5  1  0.00000000  0.49999999  0.49999999  1
  Sn  Sn6  1  0.99999997  0.86193498  0.36193499  1
  Sn  Sn7  1  0.00000000  0.36193499  0.13806500  1
  Pd  Pd8  1  0.00000000  0.63806498  0.86193498  1
  Au  Au9  1  0.99999997  0.13806500  0.63806498  1
