# generated using pymatgen
data_ErHfZrPd6
_symmetry_space_group_name_H-M   'P 1'
_cell_length_a   3.34113503
_cell_length_b   7.32570982
_cell_length_c   7.32570934
_cell_angle_alpha   120.00000000
_cell_angle_beta   90.00000000
_cell_angle_gamma   90.00000000
_symmetry_Int_Tables_number   1
_chemical_formula_structural   ErHfZrPd6
_chemical_formula_sum   'Er1 Hf1 Zr1 Pd6'
_cell_volume   155.28305047
_cell_formula_units_Z   1
loop_
 _symmetry_equiv_pos_site_id
 _symmetry_equiv_pos_as_xyz
  1  'x, y, z'
loop_
 _atom_site_type_symbol
 _atom_site_label
 _atom_site_symmetry_multiplicity
 _atom_site_fract_x
 _atom_site_fract_y
 _atom_site_fract_z
 _atom_site_occupancy
  Er  Er0  1  0.50000000  0.00000000  0.39296699  1
  Zr  Zr1  1  0.50000000  0.39296699  -0.00000003  1
  Hf  Hf2  1  0.50000000  0.60703299  0.60703294  1
  Pd  Pd3  1  0.99999999  0.00000000  0.72688898  1
  Pd  Pd4  1  -0.00000000  0.72688899  -0.00000006  1
  Pd  Pd5  1  -0.00000000  0.27311100  0.27311097  1
  Pd  Pd6  1  -0.00000000  0.66666666  0.33333328  1
  Pd  Pd7  1  -0.00000000  0.33333333  0.66666663  1
  Pd  Pd8  1  0.50000000  0.00000000  -0.00000000  1
