# generated using pymatgen
data_HfMnAl4VFeSi5
_symmetry_space_group_name_H-M   'P 1'
_cell_length_a   5.13836193
_cell_length_b   5.14079905
_cell_length_c   8.28242970
_cell_angle_alpha   90.00000000
_cell_angle_beta   90.00000000
_cell_angle_gamma   119.98432159
_symmetry_Int_Tables_number   1
_chemical_formula_structural   HfMnAl4VFeSi5
_chemical_formula_sum   'Hf1 Mn1 Al4 V1 Fe1 Si5'
_cell_volume   189.50134622
_cell_formula_units_Z   1
loop_
 _symmetry_equiv_pos_site_id
 _symmetry_equiv_pos_as_xyz
  1  'x, y, z'
loop_
 _atom_site_type_symbol
 _atom_site_label
 _atom_site_symmetry_multiplicity
 _atom_site_fract_x
 _atom_site_fract_y
 _atom_site_fract_z
 _atom_site_occupancy
  Mn  Mn0  1  0.50000001  0.00000000  0.99971404  1
  Hf  Hf1  1  0.00000003  0.50000003  0.25058901  1
  Al  Al2  1  0.50000004  0.50000003  0.25058901  1
  Al  Al3  1  0.00000000  0.00000000  0.24942401  1
  Al  Al4  1  0.00000003  0.50000003  0.74933603  1
  V  V5  1  0.50000004  0.50000003  0.74933603  1
  Fe  Fe6  1  0.00000000  0.00000000  0.74995103  1
  Al  Al7  1  0.83432505  0.66865004  0.49883202  1
  Si  Si8  1  0.16567502  0.33135002  0.49883202  1
  Si  Si9  1  0.83376505  0.66753004  0.00197500  1
  Si  Si10  1  0.16623502  0.33247002  0.00197500  1
  Si  Si11  1  0.50000001  0.00000000  0.34572901  1
  Si  Si12  1  0.50000001  0.00000000  0.65370802  1
