# generated using pymatgen
data_Na2Li2CuBiO9
_symmetry_space_group_name_H-M   'P 1'
_cell_length_a   3.86304998
_cell_length_b   3.86304998
_cell_length_c   13.94785500
_cell_angle_alpha   97.96000671
_cell_angle_beta   97.96000671
_cell_angle_gamma   90.00000000
_symmetry_Int_Tables_number   1
_chemical_formula_structural   Na2Li2CuBiO9
_chemical_formula_sum   'Na2 Li2 Cu1 Bi1 O9'
_cell_volume   204.11531589
_cell_formula_units_Z   1
loop_
 _symmetry_equiv_pos_site_id
 _symmetry_equiv_pos_as_xyz
  1  'x, y, z'
loop_
 _atom_site_type_symbol
 _atom_site_label
 _atom_site_symmetry_multiplicity
 _atom_site_fract_x
 _atom_site_fract_y
 _atom_site_fract_z
 _atom_site_occupancy
  Li  Li0  1  0.00000000  0.00000000  0.00000000  1
  Na  Na1  1  0.39767800  0.39767800  0.79535602  1
  Na  Na2  1  0.79922500  0.79922500  0.59845001  1
  Bi  Bi3  1  0.20077500  0.20077500  0.40155001  1
  Li  Li4  1  0.60232200  0.60232200  0.20464400  1
  O  O5  1  0.05213700  0.55213700  0.10427400  1
  Cu  Cu6  1  0.25000000  0.75000000  0.50000001  1
  O  O7  1  0.65087800  0.15087800  0.30175600  1
  O  O8  1  0.44786300  0.94786300  0.89572602  1
  O  O9  1  0.84912200  0.34912200  0.69824401  1
  O  O10  1  0.94786300  0.44786300  0.89572602  1
  O  O11  1  0.15087800  0.65087800  0.30175600  1
  O  O12  1  0.55213700  0.05213700  0.10427400  1
  O  O13  1  0.34912200  0.84912200  0.69824401  1
  O  O14  1  0.75000000  0.25000000  0.50000001  1
