# generated using pymatgen
data_Tl3InSbPb
_symmetry_space_group_name_H-M   'P 1'
_cell_length_a   3.79357791
_cell_length_b   6.08778715
_cell_length_c   9.80766010
_cell_angle_alpha   90.00000000
_cell_angle_beta   101.15119934
_cell_angle_gamma   90.00000000
_symmetry_Int_Tables_number   1
_chemical_formula_structural   Tl3InSbPb
_chemical_formula_sum   'Tl3 In1 Sb1 Pb1'
_cell_volume   222.22663324
_cell_formula_units_Z   1
loop_
 _symmetry_equiv_pos_site_id
 _symmetry_equiv_pos_as_xyz
  1  'x, y, z'
loop_
 _atom_site_type_symbol
 _atom_site_label
 _atom_site_symmetry_multiplicity
 _atom_site_fract_x
 _atom_site_fract_y
 _atom_site_fract_z
 _atom_site_occupancy
  In  In0  1  0.99838303  0.00000000  0.99676603  1
  Tl  Tl1  1  0.32758601  0.00000000  0.65517201  1
  Tl  Tl2  1  0.66754402  0.00000000  0.33508802  1
  Tl  Tl3  1  0.43804201  0.49999999  0.87608402  1
  Pb  Pb4  1  0.12112300  0.49999999  0.24224601  1
  Sb  Sb5  1  0.78065403  0.49999999  0.56130802  1
