# generated using pymatgen
data_Li7Cu(NiO5)2
_symmetry_space_group_name_H-M   'P 1'
_cell_length_a   5.26224518
_cell_length_b   5.64844894
_cell_length_c   6.28351259
_cell_angle_alpha   93.70669556
_cell_angle_beta   92.52753448
_cell_angle_gamma   91.35138702
_symmetry_Int_Tables_number   1
_chemical_formula_structural   Li7Cu(NiO5)2
_chemical_formula_sum   'Li7 Cu1 Ni2 O10'
_cell_volume   186.13063887
_cell_formula_units_Z   1
loop_
 _symmetry_equiv_pos_site_id
 _symmetry_equiv_pos_as_xyz
  1  'x, y, z'
loop_
 _atom_site_type_symbol
 _atom_site_label
 _atom_site_symmetry_multiplicity
 _atom_site_fract_x
 _atom_site_fract_y
 _atom_site_fract_z
 _atom_site_occupancy
  Li  Li0  1  0.36446802  0.83467099  0.75180904  1
  Li  Li1  1  0.36523001  0.33533500  0.50081403  1
  Li  Li2  1  0.36422602  0.83376499  0.25071003  1
  Li  Li3  1  0.36499401  0.33412900  0.00210501  1
  Li  Li4  1  0.63497500  0.16599600  0.74827804  1
  Li  Li5  1  0.63580301  0.66612899  0.49912704  1
  Cu  Cu6  1  0.63478300  0.16455200  0.24938203  1
  Li  Li7  1  0.63558601  0.66531799  0.99792505  1
  Ni  Ni8  1  0.99864599  0.00087400  0.00076803  1
  Ni  Ni9  1  0.00141601  0.49899599  0.74926402  1
  O  O10  1  0.00032300  0.00063300  0.50064901  1
  O  O11  1  0.99958601  0.49935499  0.24940304  1
  O  O12  1  0.75518402  0.84118399  0.76206405  1
  O  O13  1  0.75508700  0.34081100  0.51194204  1
  O  O14  1  0.75689202  0.84092699  0.26183304  1
  O  O15  1  0.75549700  0.34041900  0.01160203  1
  O  O16  1  0.24439600  0.15960700  0.73856503  1
  O  O17  1  0.24320502  0.65894899  0.48801703  1
  O  O18  1  0.24482200  0.15911000  0.23818102  1
  O  O19  1  0.24488202  0.65883899  0.98776304  1
