# generated using pymatgen
data_LiMg3Ga
_symmetry_space_group_name_H-M   'P 1'
_cell_length_a   4.97390985
_cell_length_b   4.97390985
_cell_length_c   6.65141010
_cell_angle_alpha   111.95627594
_cell_angle_beta   111.95627594
_cell_angle_gamma   90.00000000
_symmetry_Int_Tables_number   1
_chemical_formula_structural   LiMg3Ga
_chemical_formula_sum   'Li1 Mg3 Ga1'
_cell_volume   139.66775540
_cell_formula_units_Z   1
loop_
 _symmetry_equiv_pos_site_id
 _symmetry_equiv_pos_as_xyz
  1  'x, y, z'
loop_
 _atom_site_type_symbol
 _atom_site_label
 _atom_site_symmetry_multiplicity
 _atom_site_fract_x
 _atom_site_fract_y
 _atom_site_fract_z
 _atom_site_occupancy
  Li  Li0  1  0.00171000  0.00171000  0.00342000  1
  Mg  Mg1  1  0.25336702  0.75336703  0.50673401  1
  Mg  Mg2  1  0.75336703  0.25336701  0.50673401  1
  Mg  Mg3  1  0.41707602  0.41707601  0.83415200  1
  Ga  Ga4  1  0.65358003  0.65358002  0.30716001  1
