# generated using pymatgen
data_KNb3VMo(WS6)2
_symmetry_space_group_name_H-M   'P 1'
_cell_length_a   5.82139015
_cell_length_b   5.82138968
_cell_length_c   15.06039906
_cell_angle_alpha   90.00000000
_cell_angle_beta   90.00000000
_cell_angle_gamma   120.00000000
_symmetry_Int_Tables_number   1
_chemical_formula_structural   KNb3VMo(WS6)2
_chemical_formula_sum   'K1 Nb3 V1 Mo1 W2 S12'
_cell_volume   441.99818843
_cell_formula_units_Z   1
loop_
 _symmetry_equiv_pos_site_id
 _symmetry_equiv_pos_as_xyz
  1  'x, y, z'
loop_
 _atom_site_type_symbol
 _atom_site_label
 _atom_site_symmetry_multiplicity
 _atom_site_fract_x
 _atom_site_fract_y
 _atom_site_fract_z
 _atom_site_occupancy
  K  K0  1  0.00000000  0.00000000  0.75000000  1
  Nb  Nb1  1  0.00000000  0.00000000  0.25000000  1
  V  V2  1  0.66666663  0.33333331  0.75000000  1
  Nb  Nb3  1  0.33333328  0.66666662  0.25000000  1
  Mo  Mo4  1  0.33333328  0.66666662  0.75000000  1
  Nb  Nb5  1  0.66666663  0.33333331  0.25000000  1
  W  W6  1  0.00000000  0.00000000  0.50000000  1
  W  W7  1  0.00000000  0.00000000  0.00000000  1
  S  S8  1  0.66372294  0.66372295  0.85328600  1
  S  S9  1  0.99999995  0.33627698  0.85328600  1
  S  S10  1  0.33627693  0.99999993  0.85328600  1
  S  S11  1  0.66372292  0.99999993  0.35328600  1
  S  S12  1  0.33627693  0.99999993  0.64671400  1
  S  S13  1  0.33627697  0.33627698  0.35328600  1
  S  S14  1  0.99999993  0.66372295  0.35328600  1
  S  S15  1  0.99999993  0.66372295  0.14671400  1
  S  S16  1  0.66372292  0.99999993  0.14671400  1
  S  S17  1  0.99999995  0.33627698  0.64671400  1
  S  S18  1  0.66372294  0.66372295  0.64671400  1
  S  S19  1  0.33627697  0.33627698  0.14671400  1
