# generated using pymatgen
data_Li3Mn(HN2)2
_symmetry_space_group_name_H-M   'P 1'
_cell_length_a   3.52196002
_cell_length_b   3.52196026
_cell_length_c   12.11084557
_cell_angle_alpha   90.00000000
_cell_angle_beta   90.00000000
_cell_angle_gamma   120.00000000
_symmetry_Int_Tables_number   1
_chemical_formula_structural   Li3Mn(HN2)2
_chemical_formula_sum   'Li3 Mn1 H2 N4'
_cell_volume   130.09900368
_cell_formula_units_Z   1
loop_
 _symmetry_equiv_pos_site_id
 _symmetry_equiv_pos_as_xyz
  1  'x, y, z'
loop_
 _atom_site_type_symbol
 _atom_site_label
 _atom_site_symmetry_multiplicity
 _atom_site_fract_x
 _atom_site_fract_y
 _atom_site_fract_z
 _atom_site_occupancy
  Li  Li0  1  0.00000000  0.00000000  0.50000002  1
  Mn  Mn1  1  0.00000000  0.00000000  0.00000000  1
  Li  Li2  1  0.33333335  0.66666666  0.25000001  1
  Li  Li3  1  0.66666667  0.33333333  0.75000003  1
  N  N4  1  0.66666667  0.33333333  0.58578002  1
  H  H5  1  0.33333335  0.66666666  0.08578000  1
  N  N6  1  0.33333335  0.66666666  0.41422001  1
  H  H7  1  0.66666667  0.33333333  0.91422003  1
  N  N8  1  0.00000000  0.00000000  0.75000003  1
  N  N9  1  0.00000000  0.00000000  0.25000001  1
