# generated using pymatgen
data_In3Sn3PdAu
_symmetry_space_group_name_H-M   'P 1'
_cell_length_a   5.08331442
_cell_length_b   5.08331442
_cell_length_c   16.20585442
_cell_angle_alpha   80.97672272
_cell_angle_beta   80.97672272
_cell_angle_gamma   59.99999237
_symmetry_Int_Tables_number   1
_chemical_formula_structural   In3Sn3PdAu
_chemical_formula_sum   'In6 Sn6 Pd2 Au2'
_cell_volume   356.66080689
_cell_formula_units_Z   2
loop_
 _symmetry_equiv_pos_site_id
 _symmetry_equiv_pos_as_xyz
  1  'x, y, z'
loop_
 _atom_site_type_symbol
 _atom_site_label
 _atom_site_symmetry_multiplicity
 _atom_site_fract_x
 _atom_site_fract_y
 _atom_site_fract_z
 _atom_site_occupancy
  In  In0  1  0.25034000  0.25034001  0.24897999  1
  In  In1  1  0.50000001  0.50000002  0.49999998  1
  In  In2  1  0.74966001  0.74966002  0.75101997  1
  In  In3  1  0.00000000  0.00000000  0.00000000  1
  In  In4  1  0.87549102  0.87549103  0.37352698  1
  In  In5  1  0.12450900  0.12450900  0.62647298  1
  Sn  Sn6  1  0.37508201  0.37508201  0.87475397  1
  Sn  Sn7  1  0.62491801  0.62491802  0.12524599  1
  Pd  Pd8  1  0.18630300  0.18630301  0.44109098  1
  Sn  Sn9  1  0.43575101  0.43575101  0.69274697  1
  Sn  Sn10  1  0.68463901  0.68463902  0.94608296  1
  Au  Au11  1  0.93666502  0.93666503  0.19000498  1
  Sn  Sn12  1  0.81369701  0.81369702  0.55890897  1
  Sn  Sn13  1  0.06333500  0.06333500  0.80999498  1
  Pd  Pd14  1  0.31536101  0.31536101  0.05391699  1
  Au  Au15  1  0.56424901  0.56424902  0.30725298  1
