# generated using pymatgen
data_Li2Mn2Fe5Si6Ge3P2
_symmetry_space_group_name_H-M   'P 1'
_cell_length_a   5.34718132
_cell_length_b   7.67490816
_cell_length_c   7.67490816
_cell_angle_alpha   93.94393921
_cell_angle_beta   108.70332336
_cell_angle_gamma   108.70332336
_symmetry_Int_Tables_number   1
_chemical_formula_structural   Li2Mn2Fe5Si6Ge3P2
_chemical_formula_sum   'Li2 Mn2 Fe5 Si6 Ge3 P2'
_cell_volume   277.36606050
_cell_formula_units_Z   1
loop_
 _symmetry_equiv_pos_site_id
 _symmetry_equiv_pos_as_xyz
  1  'x, y, z'
loop_
 _atom_site_type_symbol
 _atom_site_label
 _atom_site_symmetry_multiplicity
 _atom_site_fract_x
 _atom_site_fract_y
 _atom_site_fract_z
 _atom_site_occupancy
  Mn  Mn0  1  0.23521205  0.59378599  0.87119698  1
  Li  Li1  1  0.26478801  0.12880300  0.40621400  1
  Mn  Mn2  1  0.76478804  0.40621400  0.12880302  1
  Li  Li3  1  0.73521208  0.87119699  0.59378601  1
  Fe  Fe4  1  0.37336205  0.54253399  0.26272600  1
  Fe  Fe5  1  0.12663806  0.73727399  0.45746599  1
  Fe  Fe6  1  0.62663804  0.45746600  0.73727400  1
  Fe  Fe7  1  0.87336203  0.26272600  0.54253401  1
  Si  Si8  1  0.25000008  0.99705999  0.00294001  1
  Fe  Fe9  1  0.75000001  0.00294000  0.99706000  1
  Si  Si10  1  0.16992702  0.26547700  0.07225000  1
  Si  Si11  1  0.33007307  0.92774999  0.73452299  1
  P  P12  1  0.83007307  0.73452299  0.92775000  1
  Ge  Ge13  1  0.66992702  0.07225000  0.26547701  1
  Ge  Ge14  1  0.25000006  0.78943599  0.21056400  1
  Si  Si15  1  0.75000003  0.21056400  0.78943600  1
  Ge  Ge16  1  0.25000004  0.48673700  0.51326299  1
  Si  Si17  1  0.75000005  0.51326300  0.48673701  1
  P  P18  1  0.25000002  0.22723600  0.77276399  1
  Si  Si19  1  0.75000007  0.77276399  0.22723602  1
