# generated using pymatgen
data_In3SnGeAu5
_symmetry_space_group_name_H-M   'P 1'
_cell_length_a   7.84638500
_cell_length_b   7.84638500
_cell_length_c   7.84638500
_cell_angle_alpha   61.22915268
_cell_angle_beta   61.22915268
_cell_angle_gamma   61.22915268
_symmetry_Int_Tables_number   1
_chemical_formula_structural   In3SnGeAu5
_chemical_formula_sum   'In3 Sn1 Ge1 Au5'
_cell_volume   351.02352314
_cell_formula_units_Z   1
loop_
 _symmetry_equiv_pos_site_id
 _symmetry_equiv_pos_as_xyz
  1  'x, y, z'
loop_
 _atom_site_type_symbol
 _atom_site_label
 _atom_site_symmetry_multiplicity
 _atom_site_fract_x
 _atom_site_fract_y
 _atom_site_fract_z
 _atom_site_occupancy
  In  In0  1  0.72777898  0.72777900  0.72777904  1
  In  In1  1  0.22777899  0.22777900  0.22777901  1
  In  In2  1  0.99947697  0.99947700  0.99947706  1
  Ge  Ge3  1  0.49947699  0.49947700  0.49947703  1
  Au  Au4  1  0.78010599  0.15088000  0.31325702  1
  Au  Au5  1  0.15087999  0.31325700  0.78010602  1
  Au  Au6  1  0.31325698  0.78010600  0.15088003  1
  Sn  Sn7  1  0.81325698  0.65088000  0.28010604  1
  Au  Au8  1  0.28010598  0.81325700  0.65088004  1
  Au  Au9  1  0.65087999  0.28010600  0.81325703  1
