# generated using pymatgen
data_HfZrMnAl3Si4
_symmetry_space_group_name_H-M   'P 1'
_cell_length_a   3.30239391
_cell_length_b   7.22298813
_cell_length_c   7.22298813
_cell_angle_alpha   90.00000000
_cell_angle_beta   90.00000000
_cell_angle_gamma   90.00000000
_symmetry_Int_Tables_number   1
_chemical_formula_structural   HfZrMnAl3Si4
_chemical_formula_sum   'Hf1 Zr1 Mn1 Al3 Si4'
_cell_volume   172.29103396
_cell_formula_units_Z   1
loop_
 _symmetry_equiv_pos_site_id
 _symmetry_equiv_pos_as_xyz
  1  'x, y, z'
loop_
 _atom_site_type_symbol
 _atom_site_label
 _atom_site_symmetry_multiplicity
 _atom_site_fract_x
 _atom_site_fract_y
 _atom_site_fract_z
 _atom_site_occupancy
  Mn  Mn0  1  0.50000001  0.66881399  0.16881400  1
  Hf  Hf1  1  0.50000001  0.16881400  0.33118599  1
  Zr  Zr2  1  0.50000001  0.83118599  0.66881399  1
  Al  Al3  1  0.50000001  0.33118599  0.83118599  1
  Al  Al4  1  0.00000000  0.00000000  0.00000000  1
  Al  Al5  1  0.00000000  0.49999999  0.49999999  1
  Si  Si6  1  0.00000000  0.37387899  0.12612100  1
  Si  Si7  1  1.00000003  0.12612100  0.62612099  1
  Si  Si8  1  0.00000000  0.62612099  0.87387898  1
  Si  Si9  1  0.00000000  0.87387898  0.37387899  1
