# generated using pymatgen
data_Y2BeNi4C6N5
_symmetry_space_group_name_H-M   'P 1'
_cell_length_a   5.39641619
_cell_length_b   5.61798286
_cell_length_c   10.63445854
_cell_angle_alpha   90.00000000
_cell_angle_beta   90.00000000
_cell_angle_gamma   93.28053284
_symmetry_Int_Tables_number   1
_chemical_formula_structural   Y2BeNi4C6N5
_chemical_formula_sum   'Y2 Be1 Ni4 C6 N5'
_cell_volume   321.87628076
_cell_formula_units_Z   1
loop_
 _symmetry_equiv_pos_site_id
 _symmetry_equiv_pos_as_xyz
  1  'x, y, z'
loop_
 _atom_site_type_symbol
 _atom_site_label
 _atom_site_symmetry_multiplicity
 _atom_site_fract_x
 _atom_site_fract_y
 _atom_site_fract_z
 _atom_site_occupancy
  N  N0  1  0.02385301  0.45250902  0.75665203  1
  Be  Be1  1  0.97614697  0.54749102  0.25665201  1
  Y  Y2  1  0.02454901  0.95214004  0.99861104  1
  Y  Y3  1  0.97545097  0.04786000  0.49861102  1
  Ni  Ni4  1  0.50459298  0.01264700  0.25260701  1
  Ni  Ni5  1  0.48364699  0.49881702  0.48347202  1
  Ni  Ni6  1  0.51635299  0.50118302  0.98347204  1
  Ni  Ni7  1  0.49540700  0.98735304  0.75260703  1
  N  N8  1  0.07176400  0.47164502  0.59217703  1
  C  C9  1  0.62066799  0.90437404  0.95008504  1
  N  N10  1  0.17211600  0.70013303  0.83852504  1
  C  C11  1  0.82788398  0.29986701  0.33852501  1
  C  C12  1  0.92823598  0.52835502  0.09217700  1
  C  C13  1  0.37933199  0.09562600  0.45008502  1
  N  N14  1  0.69946098  0.41480702  0.79051103  1
  N  N15  1  0.16280200  0.19410601  0.81846104  1
  C  C16  1  0.30053900  0.58519302  0.29051101  1
  C  C17  1  0.83719798  0.80589403  0.31846101  1
