# generated using pymatgen
data_Mn4Fe2(SiGe)3
_symmetry_space_group_name_H-M   'P 1'
_cell_length_a   3.46899796
_cell_length_b   6.59589386
_cell_length_c   7.85111380
_cell_angle_alpha   90.00000000
_cell_angle_beta   90.00000000
_cell_angle_gamma   90.00000000
_symmetry_Int_Tables_number   1
_chemical_formula_structural   Mn4Fe2(SiGe)3
_chemical_formula_sum   'Mn4 Fe2 Si3 Ge3'
_cell_volume   179.64245209
_cell_formula_units_Z   1
loop_
 _symmetry_equiv_pos_site_id
 _symmetry_equiv_pos_as_xyz
  1  'x, y, z'
loop_
 _atom_site_type_symbol
 _atom_site_label
 _atom_site_symmetry_multiplicity
 _atom_site_fract_x
 _atom_site_fract_y
 _atom_site_fract_z
 _atom_site_occupancy
  Mn  Mn0  1  0.25000000  0.03936000  0.83019102  1
  Mn  Mn1  1  0.25000000  0.53936001  0.66980902  1
  Mn  Mn2  1  0.75000001  0.96064002  0.16980900  1
  Mn  Mn3  1  0.75000001  0.46064001  0.33019101  1
  Fe  Fe4  1  0.25000000  0.13053400  0.44051101  1
  Fe  Fe5  1  0.25000000  0.63053401  0.05948900  1
  Si  Si6  1  0.75000001  0.86946602  0.55948901  1
  Si  Si7  1  0.75000001  0.36946601  0.94051102  1
  Si  Si8  1  0.25000000  0.76058802  0.36349301  1
  Ge  Ge9  1  0.25000000  0.26058801  0.13650700  1
  Ge  Ge10  1  0.75000001  0.23941201  0.63650702  1
  Ge  Ge11  1  0.75000001  0.73941202  0.86349302  1
