# generated using pymatgen
data_Na3Cu5PO8
_symmetry_space_group_name_H-M   'P 1'
_cell_length_a   7.02829838
_cell_length_b   7.02829838
_cell_length_c   7.02829838
_cell_angle_alpha   109.47122192
_cell_angle_beta   109.47122192
_cell_angle_gamma   109.47122192
_symmetry_Int_Tables_number   1
_chemical_formula_structural   Na3Cu5PO8
_chemical_formula_sum   'Na3 Cu5 P1 O8'
_cell_volume   267.25673627
_cell_formula_units_Z   1
loop_
 _symmetry_equiv_pos_site_id
 _symmetry_equiv_pos_as_xyz
  1  'x, y, z'
loop_
 _atom_site_type_symbol
 _atom_site_label
 _atom_site_symmetry_multiplicity
 _atom_site_fract_x
 _atom_site_fract_y
 _atom_site_fract_z
 _atom_site_occupancy
  Na  Na0  1  0.00000000  0.00000000  0.00000000  1
  Na  Na1  1  0.49827002  0.14315801  0.35511202  1
  Na  Na2  1  0.50173006  0.85684204  0.64488807  1
  Cu  Cu3  1  0.21195406  0.85684204  0.35511206  1
  Cu  Cu4  1  0.78804602  0.14315801  0.64488803  1
  Cu  Cu5  1  0.14315804  0.64488803  0.78804605  1
  Cu  Cu6  1  0.85684204  0.35511202  0.21195404  1
  O  O7  1  0.85684206  0.64488803  0.50173006  1
  O  O8  1  0.14315803  0.35511202  0.49827003  1
  Cu  Cu9  1  0.35511202  0.21195401  0.85684203  1
  P  P10  1  0.64488806  0.78804604  0.14315806  1
  O  O11  1  0.35511204  0.49827002  0.14315804  1
  O  O12  1  0.64488804  0.50173003  0.85684205  1
  O  O13  1  0.50000007  1.00000005  1.00000008  1
  O  O14  1  0.00000000  0.00000000  0.50000001  1
  O  O15  1  0.00000003  0.50000002  0.00000003  1
  O  O16  1  0.50000004  0.50000002  0.50000004  1
