# generated using pymatgen
data_BaNa2Ti2CuO9
_symmetry_space_group_name_H-M   'P 1'
_cell_length_a   5.84164524
_cell_length_b   5.84164524
_cell_length_c   8.08217907
_cell_angle_alpha   68.81438446
_cell_angle_beta   68.81438446
_cell_angle_gamma   60.00000763
_symmetry_Int_Tables_number   1
_chemical_formula_structural   BaNa2Ti2CuO9
_chemical_formula_sum   'Ba1 Na2 Ti2 Cu1 O9'
_cell_volume   217.06178704
_cell_formula_units_Z   1
loop_
 _symmetry_equiv_pos_site_id
 _symmetry_equiv_pos_as_xyz
  1  'x, y, z'
loop_
 _atom_site_type_symbol
 _atom_site_label
 _atom_site_symmetry_multiplicity
 _atom_site_fract_x
 _atom_site_fract_y
 _atom_site_fract_z
 _atom_site_occupancy
  Na  Na0  1  0.00000000  0.00000000  0.00000000  1
  Ba  Ba1  1  0.77976404  0.77976302  0.66070890  1
  Na  Na2  1  0.22023601  0.22023700  0.33929096  1
  Ti  Ti3  1  0.62206403  0.62206401  0.13380894  1
  Cu  Cu4  1  0.37793602  0.37793601  0.86619092  1
  Ti  Ti5  1  0.50000002  0.50000001  0.49999993  1
  O  O6  1  0.29127102  0.75043502  0.66702292  1
  O  O7  1  0.29127101  0.29127101  0.66702294  1
  O  O8  1  0.75043503  0.29127101  0.66702292  1
  O  O9  1  0.70872902  0.24956501  0.33297694  1
  O  O10  1  0.70872903  0.70872901  0.33297692  1
  O  O11  1  0.24956502  0.70872901  0.33297694  1
  O  O12  1  0.50000002  0.50000001  -0.00000004  1
  O  O13  1  0.00000001  0.50000001  0.99999992  1
  O  O14  1  0.50000001  0.00000000  -0.00000002  1
