# generated using pymatgen
data_Ca2(LaPr)3
_symmetry_space_group_name_H-M   'P 1'
_cell_length_a   6.18328094
_cell_length_b   7.50806999
_cell_length_c   7.50807047
_cell_angle_alpha   60.00000381
_cell_angle_beta   90.00000000
_cell_angle_gamma   90.00000000
_symmetry_Int_Tables_number   1
_chemical_formula_structural   Ca2(LaPr)3
_chemical_formula_sum   'Ca2 La3 Pr3'
_cell_volume   301.86049560
_cell_formula_units_Z   1
loop_
 _symmetry_equiv_pos_site_id
 _symmetry_equiv_pos_as_xyz
  1  'x, y, z'
loop_
 _atom_site_type_symbol
 _atom_site_label
 _atom_site_symmetry_multiplicity
 _atom_site_fract_x
 _atom_site_fract_y
 _atom_site_fract_z
 _atom_site_occupancy
  La  La0  1  0.25000000  0.33333333  0.33333335  1
  Pr  Pr1  1  0.75000001  0.66666666  0.66666669  1
  La  La2  1  0.75000001  0.67405399  0.16297302  1
  La  La3  1  0.75000001  0.16297300  0.16297301  1
  Pr  Pr4  1  0.75000001  0.16297300  0.67405401  1
  Pr  Pr5  1  0.25000000  0.32594600  0.83702702  1
  Ca  Ca6  1  0.25000000  0.83702699  0.83702703  1
  Ca  Ca7  1  0.25000000  0.83702699  0.32594603  1
