# generated using pymatgen
data_DyHoEr2In2SnPd2Au
_symmetry_space_group_name_H-M   'P 1'
_cell_length_a   3.67632890
_cell_length_b   7.68482780
_cell_length_c   7.68482780
_cell_angle_alpha   90.00000000
_cell_angle_beta   90.00000000
_cell_angle_gamma   90.00000000
_symmetry_Int_Tables_number   1
_chemical_formula_structural   DyHoEr2In2SnPd2Au
_chemical_formula_sum   'Dy1 Ho1 Er2 In2 Sn1 Pd2 Au1'
_cell_volume   217.11140571
_cell_formula_units_Z   1
loop_
 _symmetry_equiv_pos_site_id
 _symmetry_equiv_pos_as_xyz
  1  'x, y, z'
loop_
 _atom_site_type_symbol
 _atom_site_label
 _atom_site_symmetry_multiplicity
 _atom_site_fract_x
 _atom_site_fract_y
 _atom_site_fract_z
 _atom_site_occupancy
  Er  Er0  1  0.50000001  0.82879602  0.32879601  1
  Dy  Dy1  1  0.50000001  0.32879601  0.17120400  1
  Er  Er2  1  0.50000001  0.67120402  0.82879602  1
  Ho  Ho3  1  0.50000001  0.17120400  0.67120402  1
  In  In4  1  0.00000000  0.50000001  0.50000001  1
  In  In5  1  0.00000000  0.00000000  0.00000000  1
  Sn  Sn6  1  0.00000000  0.37838801  0.87838802  1
  Au  Au7  1  0.00000000  0.87838802  0.62161202  1
  Pd  Pd8  1  0.00000000  0.62161202  0.12161200  1
  Pd  Pd9  1  -0.00000000  0.12161200  0.37838801  1
