# generated using pymatgen
data_La2YErIn3GaCu2SnGe2PAu3C
_symmetry_space_group_name_H-M   'P 1'
_cell_length_a   6.30019712
_cell_length_b   8.31437206
_cell_length_c   8.31437206
_cell_angle_alpha   120.00000000
_cell_angle_beta   90.00000000
_cell_angle_gamma   90.00000000
_symmetry_Int_Tables_number   1
_chemical_formula_structural   La2YErIn3GaCu2SnGe2PAu3C
_chemical_formula_sum   'La2 Y1 Er1 In3 Ga1 Cu2 Sn1 Ge2 P1 Au3 C1'
_cell_volume   377.17567813
_cell_formula_units_Z   1
loop_
 _symmetry_equiv_pos_site_id
 _symmetry_equiv_pos_as_xyz
  1  'x, y, z'
loop_
 _atom_site_type_symbol
 _atom_site_label
 _atom_site_symmetry_multiplicity
 _atom_site_fract_x
 _atom_site_fract_y
 _atom_site_fract_z
 _atom_site_occupancy
  Er  Er0  1  0.49999999  0.33333333  0.66666663  1
  La  La1  1  0.49999999  0.66666665  0.33333330  1
  La  La2  1  0.99999998  0.66666665  0.33333330  1
  Y  Y3  1  -0.00000000  0.33333333  0.66666663  1
  In  In4  1  0.74999999  0.22099600  -0.00000001  1
  In  In5  1  0.74999999  0.77900398  0.77900394  1
  In  In6  1  0.74999999  0.99999998  0.22099596  1
  Ga  Ga7  1  0.25000000  0.77900398  -0.00000002  1
  Ge  Ge8  1  0.25000000  0.22099600  0.22099598  1
  Ge  Ge9  1  0.25000000  0.99999998  0.77900394  1
  Cu  Cu10  1  0.74999999  0.59320699  -0.00000002  1
  Au  Au11  1  0.74999999  0.40679299  0.40679297  1
  Sn  Sn12  1  0.74999999  0.99999998  0.59320695  1
  Cu  Cu13  1  0.25000000  0.40679299  -0.00000001  1
  Au  Au14  1  0.25000000  0.59320699  0.59320696  1
  Au  Au15  1  0.25000000  0.99999998  0.40679296  1
  C  C16  1  0.49999999  0.00000000  -0.00000000  1
  P  P17  1  0.00000000  0.00000000  0.00000000  1
