# generated using pymatgen
data_ErMnAl3(GaSi2)2
_symmetry_space_group_name_H-M   'P 1'
_cell_length_a   4.19053507
_cell_length_b   4.19053507
_cell_length_c   10.59538078
_cell_angle_alpha   90.00000000
_cell_angle_beta   90.00000000
_cell_angle_gamma   90.00000000
_symmetry_Int_Tables_number   1
_chemical_formula_structural   ErMnAl3(GaSi2)2
_chemical_formula_sum   'Er1 Mn1 Al3 Ga2 Si4'
_cell_volume   186.06107595
_cell_formula_units_Z   1
loop_
 _symmetry_equiv_pos_site_id
 _symmetry_equiv_pos_as_xyz
  1  'x, y, z'
loop_
 _atom_site_type_symbol
 _atom_site_label
 _atom_site_symmetry_multiplicity
 _atom_site_fract_x
 _atom_site_fract_y
 _atom_site_fract_z
 _atom_site_occupancy
  Mn  Mn0  1  0.00000000  0.00000000  0.31193101  1
  Er  Er1  1  0.00000000  0.00000000  0.68806901  1
  Al  Al2  1  0.00000000  0.49999999  0.12536200  1
  Al  Al3  1  0.00000000  0.49999999  0.87463802  1
  Ga  Ga4  1  0.49999999  0.00000000  0.12536200  1
  Al  Al5  1  0.49999999  0.00000000  0.87463802  1
  Si  Si6  1  0.00000000  0.49999999  0.50000001  1
  Si  Si7  1  0.49999999  0.00000000  0.50000001  1
  Ga  Ga8  1  0.49999999  0.49999999  0.30438801  1
  Si  Si9  1  0.49999999  0.49999999  0.69561201  1
  Si  Si10  1  0.00000000  0.00000000  0.00000000  1
