# generated using pymatgen
data_ErMnAl10Ga6FeCo
_symmetry_space_group_name_H-M   'P 1'
_cell_length_a   6.96458006
_cell_length_b   6.96458006
_cell_length_c   6.96458006
_cell_angle_alpha   90.00000000
_cell_angle_beta   90.00000000
_cell_angle_gamma   90.00000000
_symmetry_Int_Tables_number   1
_chemical_formula_structural   ErMnAl10Ga6FeCo
_chemical_formula_sum   'Er1 Mn1 Al10 Ga6 Fe1 Co1'
_cell_volume   337.81957026
_cell_formula_units_Z   1
loop_
 _symmetry_equiv_pos_site_id
 _symmetry_equiv_pos_as_xyz
  1  'x, y, z'
loop_
 _atom_site_type_symbol
 _atom_site_label
 _atom_site_symmetry_multiplicity
 _atom_site_fract_x
 _atom_site_fract_y
 _atom_site_fract_z
 _atom_site_occupancy
  Mn  Mn0  1  0.62499999  0.29445700  0.54445700  1
  Er  Er1  1  0.70554299  0.04445700  0.87499999  1
  Ga  Ga2  1  0.54445700  0.62499999  0.29445700  1
  Al  Al3  1  0.95554299  0.37500000  0.79445699  1
  Ga  Ga4  1  0.29445700  0.54445700  0.62499999  1
  Ga  Ga5  1  0.45554300  0.12500000  0.20554300  1
  Al  Al6  1  0.04445700  0.87499999  0.70554299  1
  Fe  Fe7  1  0.79445699  0.95554299  0.37500000  1
  Al  Al8  1  0.12500000  0.20554300  0.45554300  1
  Co  Co9  1  0.37500000  0.79445699  0.95554299  1
  Al  Al10  1  0.87499999  0.70554299  0.04445700  1
  Al  Al11  1  0.20554300  0.45554300  0.12500000  1
  Al  Al12  1  0.67571499  0.67571499  0.67571499  1
  Al  Al13  1  0.92571499  0.57428500  0.42571500  1
  Ga  Ga14  1  0.57428500  0.42571500  0.92571499  1
  Ga  Ga15  1  0.42571500  0.92571499  0.57428500  1
  Al  Al16  1  0.17571500  0.82428499  0.32428500  1
  Ga  Ga17  1  0.82428499  0.32428500  0.17571500  1
  Al  Al18  1  0.32428500  0.17571500  0.82428499  1
  Al  Al19  1  0.07428500  0.07428500  0.07428500  1
