# generated using pymatgen
data_CsRbIBrClO
_symmetry_space_group_name_H-M   'P 1'
_cell_length_a   4.00048923
_cell_length_b   4.00048923
_cell_length_c   9.29825687
_cell_angle_alpha   90.00000000
_cell_angle_beta   90.00000000
_cell_angle_gamma   90.00000000
_symmetry_Int_Tables_number   1
_chemical_formula_structural   CsRbIBrClO
_chemical_formula_sum   'Cs1 Rb1 I1 Br1 Cl1 O1'
_cell_volume   148.80850447
_cell_formula_units_Z   1
loop_
 _symmetry_equiv_pos_site_id
 _symmetry_equiv_pos_as_xyz
  1  'x, y, z'
loop_
 _atom_site_type_symbol
 _atom_site_label
 _atom_site_symmetry_multiplicity
 _atom_site_fract_x
 _atom_site_fract_y
 _atom_site_fract_z
 _atom_site_occupancy
  Cs  Cs0  1  0.49999997  0.00000000  0.12569100  1
  Rb  Rb1  1  0.00000000  0.49999997  0.87430901  1
  I  I2  1  0.49999997  0.00000000  0.67303301  1
  Br  Br3  1  0.00000000  0.49999997  0.32696700  1
  Cl  Cl4  1  0.00000000  0.00000000  0.00000000  1
  O  O5  1  0.49999997  0.49999997  0.00000000  1
