# generated using pymatgen
data_MnBe3N2
_symmetry_space_group_name_H-M   'P 1'
_cell_length_a   3.03907990
_cell_length_b   3.03908038
_cell_length_c   6.74385118
_cell_angle_alpha   90.00000000
_cell_angle_beta   90.00000000
_cell_angle_gamma   119.99999237
_symmetry_Int_Tables_number   1
_chemical_formula_structural   MnBe3N2
_chemical_formula_sum   'Mn1 Be3 N2'
_cell_volume   53.94149131
_cell_formula_units_Z   1
loop_
 _symmetry_equiv_pos_site_id
 _symmetry_equiv_pos_as_xyz
  1  'x, y, z'
loop_
 _atom_site_type_symbol
 _atom_site_label
 _atom_site_symmetry_multiplicity
 _atom_site_fract_x
 _atom_site_fract_y
 _atom_site_fract_z
 _atom_site_occupancy
  Be  Be0  1  0.00000000  0.00000000  0.49999999  1
  Mn  Mn1  1  0.00000000  0.00000000  0.00000000  1
  Be  Be2  1  0.66666667  0.33333333  0.76627298  1
  Be  Be3  1  0.33333331  0.66666666  0.23372699  1
  N  N4  1  0.33333331  0.66666666  0.76627298  1
  N  N5  1  0.66666667  0.33333333  0.23372699  1
