# generated using pymatgen
data_Li2CuO5
_symmetry_space_group_name_H-M   'P 1'
_cell_length_a   5.29854012
_cell_length_b   5.29854012
_cell_length_c   5.69970560
_cell_angle_alpha   62.30218506
_cell_angle_beta   62.30218506
_cell_angle_gamma   59.99999619
_symmetry_Int_Tables_number   1
_chemical_formula_structural   Li2CuO5
_chemical_formula_sum   'Li2 Cu1 O5'
_cell_volume   116.92745225
_cell_formula_units_Z   1
loop_
 _symmetry_equiv_pos_site_id
 _symmetry_equiv_pos_as_xyz
  1  'x, y, z'
loop_
 _atom_site_type_symbol
 _atom_site_label
 _atom_site_symmetry_multiplicity
 _atom_site_fract_x
 _atom_site_fract_y
 _atom_site_fract_z
 _atom_site_occupancy
  Li  Li0  1  0.00000000  0.00000000  0.00000000  1
  Li  Li1  1  0.50000003  0.50000002  0.49999999  1
  Cu  Cu2  1  0.37126802  0.11625400  0.75539699  1
  O  O3  1  0.11625401  0.75708103  0.75539698  1
  O  O4  1  0.24291902  0.62873202  0.24460299  1
  O  O5  1  0.88374604  0.24291901  0.24460299  1
  O  O6  1  0.62873204  0.88374604  0.24460299  1
  O  O7  1  0.75708104  0.37126801  0.75539698  1
