# generated using pymatgen
data_ScTiNiRh3
_symmetry_space_group_name_H-M   'P 1'
_cell_length_a   5.10846186
_cell_length_b   5.10846186
_cell_length_c   5.10846186
_cell_angle_alpha   60.00000000
_cell_angle_beta   60.00000000
_cell_angle_gamma   60.00000000
_symmetry_Int_Tables_number   1
_chemical_formula_structural   ScTiNiRh3
_chemical_formula_sum   'Sc1 Ti1 Ni1 Rh3'
_cell_volume   94.26608425
_cell_formula_units_Z   1
loop_
 _symmetry_equiv_pos_site_id
 _symmetry_equiv_pos_as_xyz
  1  'x, y, z'
loop_
 _atom_site_type_symbol
 _atom_site_label
 _atom_site_symmetry_multiplicity
 _atom_site_fract_x
 _atom_site_fract_y
 _atom_site_fract_z
 _atom_site_occupancy
  Ti  Ti0  1  0.75000000  0.75000000  0.75000000  1
  Sc  Sc1  1  0.00000000  0.00000000  0.00000000  1
  Ni  Ni2  1  0.87455300  0.37514900  0.37514900  1
  Rh  Rh3  1  0.37514800  0.87455400  0.37514900  1
  Rh  Rh4  1  0.37514800  0.37514900  0.37514900  1
  Rh  Rh5  1  0.37514800  0.37514900  0.87455400  1
