# generated using pymatgen
data_Ba2Y2InSnGe3SbPd2
_symmetry_space_group_name_H-M   'P 1'
_cell_length_a   3.90731597
_cell_length_b   7.72837782
_cell_length_c   10.24176788
_cell_angle_alpha   90.00000000
_cell_angle_beta   90.00000000
_cell_angle_gamma   104.64268494
_symmetry_Int_Tables_number   1
_chemical_formula_structural   Ba2Y2InSnGe3SbPd2
_chemical_formula_sum   'Ba2 Y2 In1 Sn1 Ge3 Sb1 Pd2'
_cell_volume   299.22801878
_cell_formula_units_Z   1
loop_
 _symmetry_equiv_pos_site_id
 _symmetry_equiv_pos_as_xyz
  1  'x, y, z'
loop_
 _atom_site_type_symbol
 _atom_site_label
 _atom_site_symmetry_multiplicity
 _atom_site_fract_x
 _atom_site_fract_y
 _atom_site_fract_z
 _atom_site_occupancy
  Ba  Ba0  1  0.74927306  0.49854602  0.25000000  1
  Ba  Ba1  1  0.25072706  0.50145402  0.75000001  1
  Y  Y2  1  0.00000000  0.00000000  0.00000000  1
  Y  Y3  1  0.00000000  0.00000000  0.50000001  1
  In  In4  1  0.46851311  0.93702604  0.25000000  1
  Sn  Sn5  1  0.53148701  0.06297400  0.75000001  1
  Pd  Pd6  1  0.37759809  0.75519603  0.05407700  1
  Sb  Sb7  1  0.93170911  0.86341803  0.75000001  1
  Ge  Ge8  1  0.62240203  0.24480401  0.55407701  1
  Ge  Ge9  1  0.62240203  0.24480401  0.94592301  1
  Pd  Pd10  1  0.37759809  0.75519603  0.44592301  1
  Ge  Ge11  1  0.06829102  0.13658201  0.25000000  1
