# generated using pymatgen
data_Dy2ErLuInSn3PdAu
_symmetry_space_group_name_H-M   'P 1'
_cell_length_a   3.94486094
_cell_length_b   7.81035614
_cell_length_c   7.81035614
_cell_angle_alpha   90.00000000
_cell_angle_beta   90.00000000
_cell_angle_gamma   90.00000000
_symmetry_Int_Tables_number   1
_chemical_formula_structural   Dy2ErLuInSn3PdAu
_chemical_formula_sum   'Dy2 Er1 Lu1 In1 Sn3 Pd1 Au1'
_cell_volume   240.64307749
_cell_formula_units_Z   1
loop_
 _symmetry_equiv_pos_site_id
 _symmetry_equiv_pos_as_xyz
  1  'x, y, z'
loop_
 _atom_site_type_symbol
 _atom_site_label
 _atom_site_symmetry_multiplicity
 _atom_site_fract_x
 _atom_site_fract_y
 _atom_site_fract_z
 _atom_site_occupancy
  Er  Er0  1  0.50000001  0.83518899  0.66481099  1
  Dy  Dy1  1  0.50000001  0.33518899  0.83518899  1
  Dy  Dy2  1  0.50000001  0.16481100  0.33518899  1
  Lu  Lu3  1  0.50000001  0.66481099  0.16481100  1
  In  In4  1  0.00000000  0.49999999  0.49999999  1
  Sn  Sn5  1  0.00000000  0.00000000  0.00000000  1
  Sn  Sn6  1  0.00000000  0.13248000  0.63247999  1
  Pd  Pd7  1  0.00000000  0.63247999  0.86751998  1
  Sn  Sn8  1  -0.00000000  0.36751999  0.13248000  1
  Au  Au9  1  0.00000000  0.86751998  0.36751999  1
