# generated using pymatgen
data_LaErIn3Sn2PdAu2
_symmetry_space_group_name_H-M   'P 1'
_cell_length_a   4.30683184
_cell_length_b   7.30698395
_cell_length_c   7.30698395
_cell_angle_alpha   90.00000000
_cell_angle_beta   90.00000000
_cell_angle_gamma   90.00000000
_symmetry_Int_Tables_number   1
_chemical_formula_structural   LaErIn3Sn2PdAu2
_chemical_formula_sum   'La1 Er1 In3 Sn2 Pd1 Au2'
_cell_volume   229.95042750
_cell_formula_units_Z   1
loop_
 _symmetry_equiv_pos_site_id
 _symmetry_equiv_pos_as_xyz
  1  'x, y, z'
loop_
 _atom_site_type_symbol
 _atom_site_label
 _atom_site_symmetry_multiplicity
 _atom_site_fract_x
 _atom_site_fract_y
 _atom_site_fract_z
 _atom_site_occupancy
  Er  Er0  1  0.50000002  0.67935800  0.17935800  1
  La  La1  1  0.50000002  0.32064200  0.82064201  1
  In  In2  1  0.50000002  0.17935800  0.32064200  1
  In  In3  1  0.50000002  0.82064201  0.67935800  1
  Sn  Sn4  1  0.00000000  0.00000000  0.00000000  1
  In  In5  1  0.00000000  0.50000000  0.50000000  1
  Sn  Sn6  1  0.00000000  0.11620100  0.61620100  1
  Pd  Pd7  1  -0.00000000  0.88379901  0.38379900  1
  Au  Au8  1  -0.00000000  0.61620100  0.88379901  1
  Au  Au9  1  -0.00000000  0.38379900  0.11620100  1
