# generated using pymatgen
data_La3YIn7Sn3SbAu3
_symmetry_space_group_name_H-M   'P 1'
_cell_length_a   7.81017399
_cell_length_b   8.54006672
_cell_length_c   7.83837223
_cell_angle_alpha   90.00000000
_cell_angle_beta   90.00000000
_cell_angle_gamma   117.21086121
_symmetry_Int_Tables_number   1
_chemical_formula_structural   La3YIn7Sn3SbAu3
_chemical_formula_sum   'La3 Y1 In7 Sn3 Sb1 Au3'
_cell_volume   464.95471498
_cell_formula_units_Z   1
loop_
 _symmetry_equiv_pos_site_id
 _symmetry_equiv_pos_as_xyz
  1  'x, y, z'
loop_
 _atom_site_type_symbol
 _atom_site_label
 _atom_site_symmetry_multiplicity
 _atom_site_fract_x
 _atom_site_fract_y
 _atom_site_fract_z
 _atom_site_occupancy
  Y  Y0  1  0.95978399  0.25260900  0.66557098  1
  La  La1  1  0.04021596  0.74739100  0.33442899  1
  La  La2  1  0.54021596  0.74739100  0.16557100  1
  La  La3  1  0.20717496  0.74739100  0.83442898  1
  In  In4  1  0.45978399  0.25260900  0.83442898  1
  In  In5  1  0.79282499  0.25260900  0.16557100  1
  In  In6  1  0.29282499  0.25260900  0.33442899  1
  In  In7  1  0.70717496  0.74739100  0.66557098  1
  In  In8  1  0.00000000  0.00000000  0.00000000  1
  Sn  Sn9  1  0.50000000  0.00000000  0.49999999  1
  In  In10  1  0.63233900  0.00000000  0.86880197  1
  Sn  Sn11  1  0.36766100  0.00000000  0.13119800  1
  In  In12  1  0.86766100  0.00000000  0.36880199  1
  Sn  Sn13  1  0.13233900  0.00000000  0.63119798  1
  Au  Au14  1  0.20571198  0.41142400  -0.00000000  1
  Sb  Sb15  1  0.79428797  0.58857600  -0.00000000  1
  Au  Au16  1  0.29428797  0.58857600  0.49999999  1
  Au  Au17  1  0.70571198  0.41142400  0.49999999  1
