# generated using pymatgen
data_PrY(AlSi)5
_symmetry_space_group_name_H-M   'P 1'
_cell_length_a   4.25980616
_cell_length_b   4.25980663
_cell_length_c   15.33632565
_cell_angle_alpha   90.00000000
_cell_angle_beta   90.00000000
_cell_angle_gamma   119.99999237
_symmetry_Int_Tables_number   1
_chemical_formula_structural   PrY(AlSi)5
_chemical_formula_sum   'Pr1 Y1 Al5 Si5'
_cell_volume   241.00813887
_cell_formula_units_Z   1
loop_
 _symmetry_equiv_pos_site_id
 _symmetry_equiv_pos_as_xyz
  1  'x, y, z'
loop_
 _atom_site_type_symbol
 _atom_site_label
 _atom_site_symmetry_multiplicity
 _atom_site_fract_x
 _atom_site_fract_y
 _atom_site_fract_z
 _atom_site_occupancy
  Y  Y0  1  0.00000000  0.00000000  0.50000001  1
  Pr  Pr1  1  0.00000000  0.00000000  0.00000000  1
  Al  Al2  1  0.00000000  0.00000000  0.75000002  1
  Al  Al3  1  0.00000000  0.00000000  0.25000001  1
  Al  Al4  1  0.66666663  0.33333333  0.11507700  1
  Al  Al5  1  0.33333329  0.66666666  0.88492302  1
  Si  Si6  1  0.33333329  0.66666666  0.61507701  1
  Si  Si7  1  0.66666663  0.33333333  0.38492301  1
  Si  Si8  1  0.66666663  0.33333333  0.63570201  1
  Si  Si9  1  0.33333329  0.66666666  0.36429801  1
  Al  Al10  1  0.33333329  0.66666666  0.13570200  1
  Si  Si11  1  0.66666663  0.33333333  0.86429802  1
