# generated using pymatgen
data_YNb3CuS13
_symmetry_space_group_name_H-M   'P 1'
_cell_length_a   6.07805014
_cell_length_b   7.39085054
_cell_length_c   8.69264793
_cell_angle_alpha   106.90692902
_cell_angle_beta   90.00000000
_cell_angle_gamma   114.27944946
_symmetry_Int_Tables_number   1
_chemical_formula_structural   YNb3CuS13
_chemical_formula_sum   'Y1 Nb3 Cu1 S13'
_cell_volume   337.35100703
_cell_formula_units_Z   1
loop_
 _symmetry_equiv_pos_site_id
 _symmetry_equiv_pos_as_xyz
  1  'x, y, z'
loop_
 _atom_site_type_symbol
 _atom_site_label
 _atom_site_symmetry_multiplicity
 _atom_site_fract_x
 _atom_site_fract_y
 _atom_site_fract_z
 _atom_site_occupancy
  Y  Y0  1  0.57990498  0.66595002  0.41847104  1
  Nb  Nb1  1  0.91324098  0.33178901  0.08206101  1
  Nb  Nb2  1  0.57637398  0.66019902  0.91003406  1
  Nb  Nb3  1  0.24620399  0.00038500  0.74581803  1
  Cu  Cu4  1  0.75567398  0.00502900  0.75679503  1
  S  S5  1  0.41854799  0.33178901  0.58206104  1
  S  S6  1  0.08382500  0.66019902  0.41003404  1
  S  S7  1  0.24935499  0.00502900  0.25679501  1
  S  S8  1  0.75418098  0.00038500  0.24581801  1
  S  S9  1  0.08604500  0.66595002  0.91847106  1
  S  S10  1  0.92984998  0.33401701  0.58784704  1
  S  S11  1  0.40416699  0.33401701  0.08784702  1
  S  S12  1  0.02310000  0.01031100  0.00545400  1
  S  S13  1  0.31070299  0.65529402  0.65914505  1
  S  S14  1  0.98721098  0.01031100  0.50545402  1
  S  S15  1  0.66486698  0.33159101  0.33031503  1
  S  S16  1  0.34459099  0.65529402  0.15914503  1
  S  S17  1  0.66672398  0.33159101  0.83031505  1
