# generated using pymatgen
data_Li4RuO5
_symmetry_space_group_name_H-M   'P 1'
_cell_length_a   5.70871830
_cell_length_b   5.70871830
_cell_length_c   5.70871830
_cell_angle_alpha   89.26587677
_cell_angle_beta   60.05677032
_cell_angle_gamma   119.21221924
_symmetry_Int_Tables_number   1
_chemical_formula_structural   Li4RuO5
_chemical_formula_sum   'Li4 Ru1 O5'
_cell_volume   132.37429392
_cell_formula_units_Z   1
loop_
 _symmetry_equiv_pos_site_id
 _symmetry_equiv_pos_as_xyz
  1  'x, y, z'
loop_
 _atom_site_type_symbol
 _atom_site_label
 _atom_site_symmetry_multiplicity
 _atom_site_fract_x
 _atom_site_fract_y
 _atom_site_fract_z
 _atom_site_occupancy
  Li  Li0  1  0.98511696  0.73511697  0.24999998  1
  Li  Li1  1  0.01488299  0.26488299  0.74999998  1
  Li  Li2  1  0.49999998  0.49999998  0.99999996  1
  Li  Li3  1  0.49999999  0.00000000  0.49999998  1
  Ru  Ru4  1  0.60488597  0.85488597  0.74999997  1
  O  O5  1  0.39511399  0.14511399  0.24999999  1
  O  O6  1  -0.00000001  0.69086497  0.80913497  1
  O  O7  1  0.49999998  0.30913499  0.69086497  1
  O  O8  1  -0.00000001  0.30913499  0.19086499  1
  O  O9  1  0.49999997  0.69086497  0.30913498  1
