# generated using pymatgen
data_MnAlVCrO4
_symmetry_space_group_name_H-M   'P 1'
_cell_length_a   2.93385792
_cell_length_b   2.93385744
_cell_length_c   12.37706757
_cell_angle_alpha   90.00000000
_cell_angle_beta   90.00000000
_cell_angle_gamma   120.00000763
_symmetry_Int_Tables_number   1
_chemical_formula_structural   MnAlVCrO4
_chemical_formula_sum   'Mn1 Al1 V1 Cr1 O4'
_cell_volume   92.26276061
_cell_formula_units_Z   1
loop_
 _symmetry_equiv_pos_site_id
 _symmetry_equiv_pos_as_xyz
  1  'x, y, z'
loop_
 _atom_site_type_symbol
 _atom_site_label
 _atom_site_symmetry_multiplicity
 _atom_site_fract_x
 _atom_site_fract_y
 _atom_site_fract_z
 _atom_site_occupancy
  Al  Al0  1  0.00000000  0.00000000  0.00000000  1
  Mn  Mn1  1  0.00000000  0.00000000  0.50000002  1
  Cr  Cr2  1  0.33333337  0.66666670  0.25000001  1
  V  V3  1  0.66666670  0.33333335  0.75000003  1
  O  O4  1  0.66666670  0.33333335  0.57663402  1
  O  O5  1  0.33333337  0.66666670  0.07663400  1
  O  O6  1  0.66666670  0.33333335  0.92336603  1
  O  O7  1  0.33333337  0.66666670  0.42336601  1
