# generated using pymatgen
data_Na2Cu4P5(SO)3
_symmetry_space_group_name_H-M   'P 1'
_cell_length_a   7.02479601
_cell_length_b   7.02479601
_cell_length_c   7.02479601
_cell_angle_alpha   109.47122192
_cell_angle_beta   109.47122192
_cell_angle_gamma   109.47122192
_symmetry_Int_Tables_number   1
_chemical_formula_structural   Na2Cu4P5(SO)3
_chemical_formula_sum   'Na2 Cu4 P5 S3 O3'
_cell_volume   266.85739410
_cell_formula_units_Z   1
loop_
 _symmetry_equiv_pos_site_id
 _symmetry_equiv_pos_as_xyz
  1  'x, y, z'
loop_
 _atom_site_type_symbol
 _atom_site_label
 _atom_site_symmetry_multiplicity
 _atom_site_fract_x
 _atom_site_fract_y
 _atom_site_fract_z
 _atom_site_occupancy
  Na  Na0  1  0.00000000  0.00000000  0.00000000  1
  Na  Na1  1  0.35818102  0.14407901  0.50225903  1
  Cu  Cu2  1  0.64181904  0.14407801  0.78589705  1
  Cu  Cu3  1  0.35818107  0.85592206  0.21410306  1
  Cu  Cu4  1  0.49774106  0.64181905  0.85592208  1
  O  O5  1  0.85592207  0.49774104  0.64182007  1
  Cu  Cu6  1  0.64181908  0.85592106  0.49774108  1
  P  P7  1  0.21410203  0.35818003  0.85592105  1
  P  P8  1  0.14407806  0.78589706  0.64181907  1
  P  P9  1  0.50225904  0.35818103  0.14407804  1
  P  P10  1  0.85592205  0.21410302  0.35818104  1
  S  S11  1  0.78589807  0.64182005  0.14407906  1
  O  O12  1  0.14407804  0.50225904  0.35818004  1
  S  S13  1  0.00000000  0.00000000  0.50000002  1
  O  O14  1  0.50000002  0.00000000  1.00000004  1
  P  P15  1  1.00000007  0.50000004  0.00000005  1
  S  S16  1  0.50000005  0.50000004  0.50000006  1
