# generated using pymatgen
data_KNaCo2NiBHS3O4
_symmetry_space_group_name_H-M   'P 1'
_cell_length_a   5.82164001
_cell_length_b   7.42874193
_cell_length_c   7.42874193
_cell_angle_alpha   76.14535522
_cell_angle_beta   66.93144989
_cell_angle_gamma   66.93144989
_symmetry_Int_Tables_number   1
_chemical_formula_structural   KNaCo2NiBHS3O4
_chemical_formula_sum   'K1 Na1 Co2 Ni1 B1 H1 S3 O4'
_cell_volume   270.54339642
_cell_formula_units_Z   1
loop_
 _symmetry_equiv_pos_site_id
 _symmetry_equiv_pos_as_xyz
  1  'x, y, z'
loop_
 _atom_site_type_symbol
 _atom_site_label
 _atom_site_symmetry_multiplicity
 _atom_site_fract_x
 _atom_site_fract_y
 _atom_site_fract_z
 _atom_site_occupancy
  Na  Na0  1  0.95150701  0.54849298  0.54849296  1
  K  K1  1  0.04833403  0.95166597  0.95166592  1
  Co  Co2  1  0.66854800  0.13220600  0.53069898  1
  Co  Co3  1  0.66854701  0.53069998  0.13220598  1
  Ni  Ni4  1  0.33078503  0.98111797  0.35731194  1
  B  B5  1  0.33078501  0.35731199  0.98111795  1
  S  S6  1  0.00726402  0.51545198  0.98071894  1
  H  H7  1  0.49656601  0.51545198  0.98071895  1
  S  S8  1  0.00726303  0.98071997  0.51545194  1
  S  S9  1  0.49656503  0.98071997  0.51545194  1
  O  O10  1  0.49676402  0.75417698  0.25229596  1
  O  O11  1  0.49676301  0.25229699  0.75417697  1
  O  O12  1  0.32492600  0.17507399  0.17507399  1
  O  O13  1  0.67538601  0.32461399  0.32461398  1
