# generated using pymatgen
data_Li2MnCuO4
_symmetry_space_group_name_H-M   'P 1'
_cell_length_a   2.95579696
_cell_length_b   5.10790777
_cell_length_c   5.18503475
_cell_angle_alpha   109.69116974
_cell_angle_beta   90.00000000
_cell_angle_gamma   90.00000000
_symmetry_Int_Tables_number   1
_chemical_formula_structural   Li2MnCuO4
_chemical_formula_sum   'Li2 Mn1 Cu1 O4'
_cell_volume   73.70551970
_cell_formula_units_Z   1
loop_
 _symmetry_equiv_pos_site_id
 _symmetry_equiv_pos_as_xyz
  1  'x, y, z'
loop_
 _atom_site_type_symbol
 _atom_site_label
 _atom_site_symmetry_multiplicity
 _atom_site_fract_x
 _atom_site_fract_y
 _atom_site_fract_z
 _atom_site_occupancy
  Li  Li0  1  0.50000001  0.50000003  1.00000005  1
  Li  Li1  1  0.00000000  0.00000000  0.00000000  1
  Mn  Mn2  1  1.00000001  0.50000003  0.50000004  1
  Cu  Cu3  1  0.50000001  0.00000000  0.50000001  1
  O  O4  1  1.00000001  0.76143805  0.27277605  1
  O  O5  1  0.50000001  0.25728402  0.26838702  1
  O  O6  1  0.50000001  0.74271605  0.73161306  1
  O  O7  1  1.00000001  0.23856202  0.72722403  1
