# generated using pymatgen
data_LaDyYErGaSiGe6
_symmetry_space_group_name_H-M   'P 1'
_cell_length_a   4.22515917
_cell_length_b   6.91572523
_cell_length_c   7.28816891
_cell_angle_alpha   90.00000000
_cell_angle_beta   90.00000000
_cell_angle_gamma   90.00000000
_symmetry_Int_Tables_number   1
_chemical_formula_structural   LaDyYErGaSiGe6
_chemical_formula_sum   'La1 Dy1 Y1 Er1 Ga1 Si1 Ge6'
_cell_volume   212.96058601
_cell_formula_units_Z   1
loop_
 _symmetry_equiv_pos_site_id
 _symmetry_equiv_pos_as_xyz
  1  'x, y, z'
loop_
 _atom_site_type_symbol
 _atom_site_label
 _atom_site_symmetry_multiplicity
 _atom_site_fract_x
 _atom_site_fract_y
 _atom_site_fract_z
 _atom_site_occupancy
  Er  Er0  1  0.24999999  0.99318897  0.29444300  1
  Dy  Dy1  1  0.24999999  0.49318898  0.20555700  1
  Y  Y2  1  0.74999997  0.00681100  0.70555701  1
  La  La3  1  0.74999997  0.50681098  0.79444301  1
  Ga  Ga4  1  0.24999999  0.19359399  0.91588401  1
  Si  Si5  1  0.24999999  0.69359398  0.58411601  1
  Ge  Ge6  1  0.74999997  0.80640597  0.08411600  1
  Ge  Ge7  1  0.74999997  0.30640599  0.41588401  1
  Ge  Ge8  1  0.24999999  0.30400399  0.58789701  1
  Ge  Ge9  1  0.24999999  0.80400397  0.91210301  1
  Ge  Ge10  1  0.74999997  0.69599598  0.41210301  1
  Ge  Ge11  1  0.74999997  0.19599599  0.08789700  1
