# generated using pymatgen
data_SrLi3PO5
_symmetry_space_group_name_H-M   'P 1'
_cell_length_a   5.66247988
_cell_length_b   5.77399588
_cell_length_c   5.77399588
_cell_angle_alpha   60.07717896
_cell_angle_beta   60.63685226
_cell_angle_gamma   60.63685226
_symmetry_Int_Tables_number   1
_chemical_formula_structural   SrLi3PO5
_chemical_formula_sum   'Sr1 Li3 P1 O5'
_cell_volume   134.83920516
_cell_formula_units_Z   1
loop_
 _symmetry_equiv_pos_site_id
 _symmetry_equiv_pos_as_xyz
  1  'x, y, z'
loop_
 _atom_site_type_symbol
 _atom_site_label
 _atom_site_symmetry_multiplicity
 _atom_site_fract_x
 _atom_site_fract_y
 _atom_site_fract_z
 _atom_site_occupancy
  Li  Li0  1  0.75000001  0.74521397  0.75478598  1
  Li  Li1  1  0.25000000  0.25478599  0.24521399  1
  Li  Li2  1  0.50000001  0.49999998  0.49999999  1
  Sr  Sr3  1  0.00000000  0.00000000  0.00000000  1
  P  P4  1  0.75000002  0.17729099  0.32270898  1
  O  O5  1  0.25000000  0.82270897  0.67729099  1
  O  O6  1  0.70696801  0.29303199  0.79303197  1
  O  O7  1  0.79303201  0.70696797  0.20696800  1
  O  O8  1  0.20696800  0.29303199  0.79303197  1
  O  O9  1  0.29303200  0.70696797  0.20696800  1
