# generated using pymatgen
data_MnFe12
_symmetry_space_group_name_H-M   'P 1'
_cell_length_a   3.53382611
_cell_length_b   7.28516531
_cell_length_c   7.28516531
_cell_angle_alpha   86.62770844
_cell_angle_beta   75.96375275
_cell_angle_gamma   75.96375275
_symmetry_Int_Tables_number   1
_chemical_formula_structural   MnFe12
_chemical_formula_sum   'Mn1 Fe12'
_cell_volume   176.52045750
_cell_formula_units_Z   1
loop_
 _symmetry_equiv_pos_site_id
 _symmetry_equiv_pos_as_xyz
  1  'x, y, z'
loop_
 _atom_site_type_symbol
 _atom_site_label
 _atom_site_symmetry_multiplicity
 _atom_site_fract_x
 _atom_site_fract_y
 _atom_site_fract_z
 _atom_site_occupancy
  Mn  Mn0  1  0.19472813  0.93617898  0.67436496  1
  Fe  Fe1  1  0.86909301  0.32563499  0.93617901  1
  Fe  Fe2  1  0.13090709  0.67436499  0.06382097  1
  Fe  Fe3  1  0.80527197  0.06382100  0.32563502  1
  Fe  Fe4  1  0.49999998  0.00000000  0.00000001  1
  Fe  Fe5  1  0.08511804  0.30508599  0.52467799  1
  Fe  Fe6  1  0.91488206  0.69491399  0.47532200  1
  Fe  Fe7  1  0.39020506  0.52467699  0.69491399  1
  Fe  Fe8  1  0.60979504  0.47532299  0.30508600  1
  Fe  Fe9  1  0.44444810  0.79581899  0.31528498  1
  Fe  Fe10  1  0.75973407  0.68471399  0.79581899  1
  Fe  Fe11  1  0.24026604  0.31528599  0.20418099  1
  Fe  Fe12  1  0.55555200  0.20418100  0.68471501  1
