# generated using pymatgen
data_NaNb2Cu3S7
_symmetry_space_group_name_H-M   'P 1'
_cell_length_a   7.42870426
_cell_length_b   7.42870426
_cell_length_c   7.42870426
_cell_angle_alpha   60.00000000
_cell_angle_beta   60.00000000
_cell_angle_gamma   60.00000000
_symmetry_Int_Tables_number   1
_chemical_formula_structural   NaNb2Cu3S7
_chemical_formula_sum   'Na1 Nb2 Cu3 S7'
_cell_volume   289.88397653
_cell_formula_units_Z   1
loop_
 _symmetry_equiv_pos_site_id
 _symmetry_equiv_pos_as_xyz
  1  'x, y, z'
loop_
 _atom_site_type_symbol
 _atom_site_label
 _atom_site_symmetry_multiplicity
 _atom_site_fract_x
 _atom_site_fract_y
 _atom_site_fract_z
 _atom_site_occupancy
  Na  Na0  1  0.60218198  0.19345599  0.60218098  1
  Cu  Cu1  1  0.60218198  0.60218098  0.60218098  1
  Nb  Nb2  1  0.60218198  0.60218098  0.19345599  1
  Nb  Nb3  1  0.19345699  0.60218098  0.60218098  1
  Cu  Cu4  1  0.00000000  0.00000000  0.00000000  1
  Cu  Cu5  1  0.36436699  0.90689897  0.36436699  1
  S  S6  1  0.36436699  0.36436699  0.36436699  1
  S  S7  1  0.36436699  0.36436699  0.90689897  1
  S  S8  1  0.90689897  0.36436699  0.36436699  1
  S  S9  1  0.86423297  0.40729899  0.86423397  1
  S  S10  1  0.86423297  0.86423397  0.86423397  1
  S  S11  1  0.86423297  0.86423397  0.40729899  1
  S  S12  1  0.40729799  0.86423397  0.86423397  1
