# generated using pymatgen
data_LaDyYErGa3SiGe4
_symmetry_space_group_name_H-M   'P 1'
_cell_length_a   4.36178493
_cell_length_b   7.01969624
_cell_length_c   7.49364424
_cell_angle_alpha   90.00000000
_cell_angle_beta   90.00000000
_cell_angle_gamma   90.00000000
_symmetry_Int_Tables_number   1
_chemical_formula_structural   LaDyYErGa3SiGe4
_chemical_formula_sum   'La1 Dy1 Y1 Er1 Ga3 Si1 Ge4'
_cell_volume   229.44343636
_cell_formula_units_Z   1
loop_
 _symmetry_equiv_pos_site_id
 _symmetry_equiv_pos_as_xyz
  1  'x, y, z'
loop_
 _atom_site_type_symbol
 _atom_site_label
 _atom_site_symmetry_multiplicity
 _atom_site_fract_x
 _atom_site_fract_y
 _atom_site_fract_z
 _atom_site_occupancy
  Er  Er0  1  0.25000000  0.02027800  0.80092197  1
  Dy  Dy1  1  0.25000000  0.52027798  0.69907798  1
  Y  Y2  1  0.75000001  0.97972197  0.19907799  1
  La  La3  1  0.75000001  0.47972198  0.30092199  1
  Ga  Ga4  1  0.25000000  0.17933999  0.42079099  1
  Ga  Ga5  1  0.25000000  0.67933998  0.07920900  1
  Ge  Ge6  1  0.75000001  0.82065997  0.57920898  1
  Ga  Ga7  1  0.75000001  0.32065999  0.92079097  1
  Ge  Ge8  1  0.25000000  0.79393297  0.40948999  1
  Si  Si9  1  0.25000000  0.29393299  0.09051000  1
  Ge  Ge10  1  0.75000001  0.20606699  0.59050998  1
  Ge  Ge11  1  0.75000001  0.70606698  0.90948997  1
