# generated using pymatgen
data_CoCu5BiO5
_symmetry_space_group_name_H-M   'P 1'
_cell_length_a   6.69472837
_cell_length_b   6.69472837
_cell_length_c   6.69472837
_cell_angle_alpha   60.00000000
_cell_angle_beta   60.00000000
_cell_angle_gamma   60.00000000
_symmetry_Int_Tables_number   1
_chemical_formula_structural   CoCu5BiO5
_chemical_formula_sum   'Co1 Cu5 Bi1 O5'
_cell_volume   212.16995552
_cell_formula_units_Z   1
loop_
 _symmetry_equiv_pos_site_id
 _symmetry_equiv_pos_as_xyz
  1  'x, y, z'
loop_
 _atom_site_type_symbol
 _atom_site_label
 _atom_site_symmetry_multiplicity
 _atom_site_fract_x
 _atom_site_fract_y
 _atom_site_fract_z
 _atom_site_occupancy
  O  O0  1  0.37500001  0.87500003  0.87500003  1
  Cu  Cu1  1  0.87500003  0.87500003  0.87500003  1
  Cu  Cu2  1  0.87500003  0.87500003  0.37500001  1
  Cu  Cu3  1  0.87500003  0.37500001  0.87500003  1
  Cu  Cu4  1  0.63708402  0.63708302  0.63708302  1
  Bi  Bi5  1  0.08875100  0.63708302  0.63708302  1
  Cu  Cu6  1  0.63708402  0.08875000  0.63708302  1
  O  O7  1  0.63708402  0.63708302  0.08875000  1
  Co  Co8  1  0.66124902  0.11291700  0.11291700  1
  O  O9  1  0.11291600  0.11291700  0.11291700  1
  O  O10  1  0.11291600  0.11291700  0.66125002  1
  O  O11  1  0.11291600  0.66125002  0.11291700  1
