# generated using pymatgen
data_TiAl
_symmetry_space_group_name_H-M   'P 1'
_cell_length_a   2.88932991
_cell_length_b   2.88932991
_cell_length_c   8.70293617
_cell_angle_alpha   90.00000000
_cell_angle_beta   90.00000000
_cell_angle_gamma   120.00000000
_symmetry_Int_Tables_number   1
_chemical_formula_structural   TiAl
_chemical_formula_sum   'Ti2 Al2'
_cell_volume   62.92028729
_cell_formula_units_Z   2
loop_
 _symmetry_equiv_pos_site_id
 _symmetry_equiv_pos_as_xyz
  1  'x, y, z'
loop_
 _atom_site_type_symbol
 _atom_site_label
 _atom_site_symmetry_multiplicity
 _atom_site_fract_x
 _atom_site_fract_y
 _atom_site_fract_z
 _atom_site_occupancy
  Ti  Ti0  1  0.33333332  0.66666664  0.49999999  1
  Al  Al1  1  0.66666667  0.33333332  0.74308399  1
  Ti  Ti2  1  0.66666667  0.33333332  0.25691599  1
  Al  Al3  1  0.33333332  0.66666664  -0.00000000  1
