# generated using pymatgen
data_LaEuTl2Te
_symmetry_space_group_name_H-M   'P 1'
_cell_length_a   4.59886980
_cell_length_b   4.59887075
_cell_length_c   11.19510746
_cell_angle_alpha   90.00000000
_cell_angle_beta   90.00000000
_cell_angle_gamma   119.99999237
_symmetry_Int_Tables_number   1
_chemical_formula_structural   LaEuTl2Te
_chemical_formula_sum   'La1 Eu1 Tl2 Te1'
_cell_volume   205.05069731
_cell_formula_units_Z   1
loop_
 _symmetry_equiv_pos_site_id
 _symmetry_equiv_pos_as_xyz
  1  'x, y, z'
loop_
 _atom_site_type_symbol
 _atom_site_label
 _atom_site_symmetry_multiplicity
 _atom_site_fract_x
 _atom_site_fract_y
 _atom_site_fract_z
 _atom_site_occupancy
  Eu  Eu0  1  0.66666668  0.33333332  0.83984297  1
  La  La1  1  0.33333331  0.66666663  0.16015699  1
  Tl  Tl2  1  0.00000000  0.00000000  0.00000000  1
  Tl  Tl3  1  0.66666668  0.33333332  0.33908099  1
  Te  Te4  1  0.33333331  0.66666663  0.66091897  1
