# generated using pymatgen
data_La2YIn2Sn
_symmetry_space_group_name_H-M   'P 1'
_cell_length_a   4.58767414
_cell_length_b   4.58767462
_cell_length_c   11.25189400
_cell_angle_alpha   90.00000000
_cell_angle_beta   90.00000000
_cell_angle_gamma   119.99999237
_symmetry_Int_Tables_number   1
_chemical_formula_structural   La2YIn2Sn
_chemical_formula_sum   'La2 Y1 In2 Sn1'
_cell_volume   205.08857509
_cell_formula_units_Z   1
loop_
 _symmetry_equiv_pos_site_id
 _symmetry_equiv_pos_as_xyz
  1  'x, y, z'
loop_
 _atom_site_type_symbol
 _atom_site_label
 _atom_site_symmetry_multiplicity
 _atom_site_fract_x
 _atom_site_fract_y
 _atom_site_fract_z
 _atom_site_occupancy
  Y  Y0  1  0.00000000  0.00000000  0.50000000  1
  La  La1  1  0.66666663  0.33333333  0.82304900  1
  In  In2  1  0.33333329  0.66666666  0.17695100  1
  La  La3  1  0.00000000  0.00000000  0.00000000  1
  In  In4  1  0.66666663  0.33333333  0.33811100  1
  Sn  Sn5  1  0.33333329  0.66666666  0.66188900  1
