# generated using pymatgen
data_Y5ErAlGa2Si3Ni
_symmetry_space_group_name_H-M   'P 1'
_cell_length_a   5.64066601
_cell_length_b   7.26591110
_cell_length_c   7.26591110
_cell_angle_alpha   81.39224243
_cell_angle_beta   67.15996552
_cell_angle_gamma   67.15996552
_symmetry_Int_Tables_number   1
_chemical_formula_structural   Y5ErAlGa2Si3Ni
_chemical_formula_sum   'Y5 Er1 Al1 Ga2 Si3 Ni1'
_cell_volume   252.92268570
_cell_formula_units_Z   1
loop_
 _symmetry_equiv_pos_site_id
 _symmetry_equiv_pos_as_xyz
  1  'x, y, z'
loop_
 _atom_site_type_symbol
 _atom_site_label
 _atom_site_symmetry_multiplicity
 _atom_site_fract_x
 _atom_site_fract_y
 _atom_site_fract_z
 _atom_site_occupancy
  Y  Y0  1  1.00000002  0.00145300  0.99854696  1
  Er  Er1  1  -0.00000008  0.65805602  0.34194406  1
  Y  Y2  1  -0.00000004  0.33410601  0.66589404  1
  Y  Y3  1  0.34049893  0.64815702  0.67084505  1
  Y  Y4  1  0.65950097  0.32915501  0.35184300  1
  Y  Y5  1  0.49999991  0.77581203  0.22418805  1
  Ga  Ga6  1  0.29855398  0.21320201  0.18969001  1
  Ga  Ga7  1  0.70144591  0.81031003  0.78679805  1
  Si  Si8  1  0.49346201  0.00677800  0.50340798  1
  Ni  Ni9  1  0.99635302  0.00677700  0.50340696  1
  Al  Al10  1  0.00364694  0.49659302  0.99322306  1
  Si  Si11  1  0.50653795  0.49659202  0.99322303  1
  Si  Si12  1  0.49999998  0.22301001  0.77699000  1
