# generated using pymatgen
data_LiMgGaSiRh
_symmetry_space_group_name_H-M   'P 1'
_cell_length_a   4.28363800
_cell_length_b   4.28363800
_cell_length_c   6.01006794
_cell_angle_alpha   110.87754822
_cell_angle_beta   110.87754822
_cell_angle_gamma   90.00000000
_symmetry_Int_Tables_number   1
_chemical_formula_structural   LiMgGaSiRh
_chemical_formula_sum   'Li1 Mg1 Ga1 Si1 Rh1'
_cell_volume   95.25192899
_cell_formula_units_Z   1
loop_
 _symmetry_equiv_pos_site_id
 _symmetry_equiv_pos_as_xyz
  1  'x, y, z'
loop_
 _atom_site_type_symbol
 _atom_site_label
 _atom_site_symmetry_multiplicity
 _atom_site_fract_x
 _atom_site_fract_y
 _atom_site_fract_z
 _atom_site_occupancy
  Li  Li0  1  0.00000000  0.00000000  0.00000000  1
  Mg  Mg1  1  0.63032204  0.63032202  0.26064405  1
  Ga  Ga2  1  0.36967802  0.36967801  0.73935602  1
  Si  Si3  1  0.25000004  0.75000002  0.50000004  1
  Rh  Rh4  1  0.75000003  0.25000001  0.50000004  1
