# generated using pymatgen
data_Li2O2
_symmetry_space_group_name_H-M   'P 1'
_cell_length_a   2.89542389
_cell_length_b   5.86586094
_cell_length_c   6.38896513
_cell_angle_alpha   103.88761902
_cell_angle_beta   103.09672546
_cell_angle_gamma   90.00000000
_symmetry_Int_Tables_number   1
_chemical_formula_structural   Li2O2
_chemical_formula_sum   'Li6 O6'
_cell_volume   102.42934825
_cell_formula_units_Z   3
loop_
 _symmetry_equiv_pos_site_id
 _symmetry_equiv_pos_as_xyz
  1  'x, y, z'
loop_
 _atom_site_type_symbol
 _atom_site_label
 _atom_site_symmetry_multiplicity
 _atom_site_fract_x
 _atom_site_fract_y
 _atom_site_fract_z
 _atom_site_occupancy
  Li  Li0  1  0.16008199  0.84040799  0.32016401  1
  Li  Li1  1  0.83991802  0.15959200  0.67983596  1
  Li  Li2  1  0.50000000  0.50000000  0.00000000  1
  Li  Li3  1  0.50000001  0.00000000  -0.00000001  1
  Li  Li4  1  0.16111300  0.32701400  0.32222600  1
  Li  Li5  1  0.83888701  0.67298599  0.67777398  1
  O  O6  1  0.32576600  0.43627900  0.65153199  1
  O  O7  1  0.01441300  0.25968000  0.02882601  1
  O  O8  1  0.98558701  0.74031999  0.97117397  1
  O  O9  1  0.32994099  0.88510599  0.65988200  1
  O  O10  1  0.67423401  0.56372100  0.34846799  1
  O  O11  1  0.67005901  0.11489400  0.34011798  1
