# generated using pymatgen
data_YAl2SiC3
_symmetry_space_group_name_H-M   'P 1'
_cell_length_a   3.15729594
_cell_length_b   3.32419610
_cell_length_c   7.44591141
_cell_angle_alpha   102.89839935
_cell_angle_beta   102.24048615
_cell_angle_gamma   90.00000000
_symmetry_Int_Tables_number   1
_chemical_formula_structural   YAl2SiC3
_chemical_formula_sum   'Y1 Al2 Si1 C3'
_cell_volume   74.35276186
_cell_formula_units_Z   1
loop_
 _symmetry_equiv_pos_site_id
 _symmetry_equiv_pos_as_xyz
  1  'x, y, z'
loop_
 _atom_site_type_symbol
 _atom_site_label
 _atom_site_symmetry_multiplicity
 _atom_site_fract_x
 _atom_site_fract_y
 _atom_site_fract_z
 _atom_site_occupancy
  Al  Al0  1  0.50000001  0.00000000  -0.00000000  1
  Y  Y1  1  0.81486000  0.81485997  0.62971997  1
  Al  Al2  1  0.18514000  0.18513999  0.37027999  1
  C  C3  1  0.63228600  0.63228598  0.26457198  1
  C  C4  1  0.36771400  0.36771399  0.73542798  1
  C  C5  1  0.06431599  0.56431598  0.12863199  1
  Si  Si6  1  0.93568401  0.43568398  0.87136797  1
