# generated using pymatgen
data_NaLi7NiO11
_symmetry_space_group_name_H-M   'P 1'
_cell_length_a   5.03076172
_cell_length_b   5.03136349
_cell_length_c   9.62579536
_cell_angle_alpha   90.09635925
_cell_angle_beta   104.97998810
_cell_angle_gamma   119.57987976
_symmetry_Int_Tables_number   1
_chemical_formula_structural   NaLi7NiO11
_chemical_formula_sum   'Na1 Li7 Ni1 O11'
_cell_volume   202.25083876
_cell_formula_units_Z   1
loop_
 _symmetry_equiv_pos_site_id
 _symmetry_equiv_pos_as_xyz
  1  'x, y, z'
loop_
 _atom_site_type_symbol
 _atom_site_label
 _atom_site_symmetry_multiplicity
 _atom_site_fract_x
 _atom_site_fract_y
 _atom_site_fract_z
 _atom_site_occupancy
  Li  Li0  1  0.28706398  0.14749799  0.42785599  1
  Li  Li1  1  0.28144696  0.63538598  0.92793000  1
  Li  Li2  1  0.00119398  0.49690298  0.50368900  1
  Na  Na3  1  0.01099900  0.01165500  0.00444400  1
  Li  Li4  1  0.48695597  0.23974699  0.74505299  1
  Li  Li5  1  0.50365295  0.75908897  0.24529301  1
  Li  Li6  1  0.80310695  0.40425899  0.20431000  1
  Li  Li7  1  0.80488793  0.89768397  0.70416101  1
  O  O8  1  0.39191994  0.88506997  0.60976501  1
  Ni  Ni9  1  0.38175997  0.37243999  0.10517001  1
  O  O10  1  0.74357895  0.51247198  0.60335700  1
  O  O11  1  0.73010897  0.01490900  0.10652399  1
  O  O12  1  0.09776099  0.21558199  0.60586099  1
  O  O13  1  0.10499396  0.72800797  0.10902802  1
  O  O14  1  0.86347796  0.21373599  0.85301598  1
  O  O15  1  0.85242493  0.73986697  0.34619901  1
  O  O16  1  0.21169095  0.97295897  0.85002401  1
  O  O17  1  0.20940097  0.49526198  0.35408401  1
  O  O18  1  0.61445795  0.61352298  0.84605600  1
  O  O19  1  0.61911397  0.14394899  0.34977599  1
