# generated using pymatgen
data_KBaCu4SiP2Se
_symmetry_space_group_name_H-M   'P 1'
_cell_length_a   6.07622480
_cell_length_b   7.12508202
_cell_length_c   7.12508202
_cell_angle_alpha   120.00000000
_cell_angle_beta   90.00000000
_cell_angle_gamma   90.00000000
_symmetry_Int_Tables_number   1
_chemical_formula_structural   KBaCu4SiP2Se
_chemical_formula_sum   'K1 Ba1 Cu4 Si1 P2 Se1'
_cell_volume   267.14324715
_cell_formula_units_Z   1
loop_
 _symmetry_equiv_pos_site_id
 _symmetry_equiv_pos_as_xyz
  1  'x, y, z'
loop_
 _atom_site_type_symbol
 _atom_site_label
 _atom_site_symmetry_multiplicity
 _atom_site_fract_x
 _atom_site_fract_y
 _atom_site_fract_z
 _atom_site_occupancy
  Ba  Ba0  1  0.75709802  0.66666667  0.33333333  1
  K  K1  1  0.24290201  0.33333333  0.66666666  1
  Cu  Cu2  1  0.00000000  0.00000000  0.00000000  1
  Si  Si3  1  0.50000002  0.00000000  -0.00000000  1
  Cu  Cu4  1  0.73223402  0.15697100  0.31394200  1
  Cu  Cu5  1  0.26776601  0.84302900  0.68605800  1
  P  P6  1  0.73223402  0.15697100  0.84302900  1
  Cu  Cu7  1  0.26776601  0.84302900  0.15697100  1
  P  P8  1  0.73223402  0.68605800  0.84302900  1
  Se  Se9  1  0.26776601  0.31394200  0.15697100  1
