# generated using pymatgen
data_K3HO4
_symmetry_space_group_name_H-M   'P 1'
_cell_length_a   6.24972820
_cell_length_b   7.62867117
_cell_length_c   7.64527273
_cell_angle_alpha   119.89191437
_cell_angle_beta   90.00000000
_cell_angle_gamma   90.00000000
_symmetry_Int_Tables_number   1
_chemical_formula_structural   K3HO4
_chemical_formula_sum   'K6 H2 O8'
_cell_volume   316.01348778
_cell_formula_units_Z   2
loop_
 _symmetry_equiv_pos_site_id
 _symmetry_equiv_pos_as_xyz
  1  'x, y, z'
loop_
 _atom_site_type_symbol
 _atom_site_label
 _atom_site_symmetry_multiplicity
 _atom_site_fract_x
 _atom_site_fract_y
 _atom_site_fract_z
 _atom_site_occupancy
  K  K0  1  0.74999998  0.66568301  0.41693404  1
  K  K1  1  0.24999999  0.91545901  0.75072505  1
  K  K2  1  0.24999999  0.33431700  0.58306602  1
  K  K3  1  0.74999998  0.08454100  0.24927500  1
  K  K4  1  0.74999998  0.25336400  0.83358701  1
  K  K5  1  0.24999999  0.74663601  0.16641305  1
  H  H6  1  0.74999998  0.67122201  0.83309904  1
  H  H7  1  0.24999999  0.32877800  0.16690102  1
  O  O8  1  0.74999998  0.69371801  0.01383104  1
  O  O9  1  0.74999998  0.82970701  0.81014505  1
  O  O10  1  0.74999998  0.49030800  0.67516403  1
  O  O11  1  0.24999999  0.30628200  0.98616901  1
  O  O12  1  0.24999999  0.17029300  0.18985501  1
  O  O13  1  0.24999999  0.50969200  0.32483603  1
  O  O14  1  0.00000000  0.00000000  0.50000000  1
  O  O15  1  0.49999998  0.00000000  0.50000000  1
