# generated using pymatgen
data_KBaNa2Tl5AgHg6
_symmetry_space_group_name_H-M   'P 1'
_cell_length_a   6.98171711
_cell_length_b   7.17215395
_cell_length_c   15.67187786
_cell_angle_alpha   90.00000000
_cell_angle_beta   90.00000000
_cell_angle_gamma   90.00000000
_symmetry_Int_Tables_number   1
_chemical_formula_structural   KBaNa2Tl5AgHg6
_chemical_formula_sum   'K1 Ba1 Na2 Tl5 Ag1 Hg6'
_cell_volume   784.75282754
_cell_formula_units_Z   1
loop_
 _symmetry_equiv_pos_site_id
 _symmetry_equiv_pos_as_xyz
  1  'x, y, z'
loop_
 _atom_site_type_symbol
 _atom_site_label
 _atom_site_symmetry_multiplicity
 _atom_site_fract_x
 _atom_site_fract_y
 _atom_site_fract_z
 _atom_site_occupancy
  K  K0  1  0.99381098  0.50000000  0.50000000  1
  Na  Na1  1  0.60413899  0.50000000  0.69406301  1
  Ba  Ba2  1  0.00618900  0.00000000  0.00000000  1
  Tl  Tl3  1  0.39586099  0.00000000  0.80593701  1
  Tl  Tl4  1  0.39586099  0.00000000  0.19406300  1
  Na  Na5  1  0.60413899  0.50000000  0.30593700  1
  Tl  Tl6  1  0.55127899  0.72961901  0.00000000  1
  Hg  Hg7  1  0.14012300  0.00000000  0.60434501  1
  Hg  Hg8  1  0.44872099  0.77038101  0.50000000  1
  Hg  Hg9  1  0.55127899  0.27038100  0.00000000  1
  Tl  Tl10  1  0.85987699  0.50000000  0.89565501  1
  Tl  Tl11  1  0.85987699  0.50000000  0.10434500  1
  Hg  Hg12  1  0.44872099  0.22961900  0.50000000  1
  Hg  Hg13  1  0.14012300  0.00000000  0.39565500  1
  Hg  Hg14  1  0.79275199  0.00000000  0.50000000  1
  Ag  Ag15  1  0.20724800  0.50000000  0.00000000  1
