# generated using pymatgen
data_DyY3Ga6Ge5Au
_symmetry_space_group_name_H-M   'P 1'
_cell_length_a   4.43109989
_cell_length_b   8.51837349
_cell_length_c   8.93571377
_cell_angle_alpha   90.00000000
_cell_angle_beta   90.00000000
_cell_angle_gamma   105.07544708
_symmetry_Int_Tables_number   1
_chemical_formula_structural   DyY3Ga6Ge5Au
_chemical_formula_sum   'Y3 Dy1 Ga6 Ge5 Au1'
_cell_volume   325.67738873
_cell_formula_units_Z   1
loop_
 _symmetry_equiv_pos_site_id
 _symmetry_equiv_pos_as_xyz
  1  'x, y, z'
loop_
 _atom_site_type_symbol
 _atom_site_label
 _atom_site_symmetry_multiplicity
 _atom_site_fract_x
 _atom_site_fract_y
 _atom_site_fract_z
 _atom_site_occupancy
  Y  Y0  1  0.79226905  0.58453803  0.75000002  1
  Dy  Dy1  1  0.20773103  0.41546202  0.25000001  1
  Y  Y2  1  0.00000000  0.00000000  0.50000001  1
  Y  Y3  1  0.00000000  0.00000000  0.00000000  1
  Ga  Ga4  1  0.18571603  0.37143202  0.60605302  1
  Ga  Ga5  1  0.81428406  0.62856803  0.39394701  1
  Ga  Ga6  1  0.18571603  0.37143202  0.89394702  1
  Ga  Ga7  1  0.81428406  0.62856803  0.10605300  1
  Ge  Ge8  1  0.34302005  0.68604003  0.51656701  1
  Ga  Ga9  1  0.65698003  0.31396001  0.48343301  1
  Au  Au10  1  0.34302005  0.68604003  0.98343303  1
  Ga  Ga11  1  0.65698003  0.31396001  0.01656700  1
  Ge  Ge12  1  0.60506603  0.21013201  0.75000002  1
  Ge  Ge13  1  0.39493406  0.78986803  0.25000001  1
  Ge  Ge14  1  0.44363406  0.88726804  0.75000002  1
  Ge  Ge15  1  0.55636602  0.11273200  0.25000001  1
