# generated using pymatgen
data_KNaTiRuS3O
_symmetry_space_group_name_H-M   'P 1'
_cell_length_a   6.01650286
_cell_length_b   6.01650286
_cell_length_c   6.01650286
_cell_angle_alpha   60.00000000
_cell_angle_beta   60.00000000
_cell_angle_gamma   60.00000000
_symmetry_Int_Tables_number   1
_chemical_formula_structural   KNaTiRuS3O
_chemical_formula_sum   'K1 Na1 Ti1 Ru1 S3 O1'
_cell_volume   153.99881677
_cell_formula_units_Z   1
loop_
 _symmetry_equiv_pos_site_id
 _symmetry_equiv_pos_as_xyz
  1  'x, y, z'
loop_
 _atom_site_type_symbol
 _atom_site_label
 _atom_site_symmetry_multiplicity
 _atom_site_fract_x
 _atom_site_fract_y
 _atom_site_fract_z
 _atom_site_occupancy
  K  K0  1  0.00000000  0.00000000  0.00000000  1
  Na  Na1  1  0.75000001  0.75000001  0.75000001  1
  Ti  Ti2  1  0.50000000  0.50000000  0.50000000  1
  Ru  Ru3  1  0.25000000  0.25000000  0.25000000  1
  S  S4  1  0.37500000  0.37500000  0.87500001  1
  S  S5  1  0.87500001  0.37500000  0.37500000  1
  O  O6  1  0.37500000  0.37500000  0.37500000  1
  S  S7  1  0.37500000  0.87500001  0.37500000  1
