# generated using pymatgen
data_LaErIn4SnPd2Au
_symmetry_space_group_name_H-M   'P 1'
_cell_length_a   4.21751881
_cell_length_b   7.30274677
_cell_length_c   7.30274677
_cell_angle_alpha   90.00000000
_cell_angle_beta   90.00000000
_cell_angle_gamma   90.00000000
_symmetry_Int_Tables_number   1
_chemical_formula_structural   LaErIn4SnPd2Au
_chemical_formula_sum   'La1 Er1 In4 Sn1 Pd2 Au1'
_cell_volume   224.92074368
_cell_formula_units_Z   1
loop_
 _symmetry_equiv_pos_site_id
 _symmetry_equiv_pos_as_xyz
  1  'x, y, z'
loop_
 _atom_site_type_symbol
 _atom_site_label
 _atom_site_symmetry_multiplicity
 _atom_site_fract_x
 _atom_site_fract_y
 _atom_site_fract_z
 _atom_site_occupancy
  Er  Er0  1  0.50000002  0.67787402  0.17787401  1
  La  La1  1  0.50000002  0.32212601  0.82212603  1
  In  In2  1  0.50000002  0.17787401  0.32212601  1
  In  In3  1  0.50000002  0.82212603  0.67787402  1
  In  In4  1  -0.00000000  0.50000002  0.50000002  1
  In  In5  1  0.00000000  0.00000000  0.00000000  1
  Sn  Sn6  1  0.00000000  0.12239500  0.62239502  1
  Pd  Pd7  1  0.00000000  0.87760503  0.37760501  1
  Au  Au8  1  -0.00000000  0.62239502  0.87760503  1
  Pd  Pd9  1  -0.00000000  0.37760501  0.12239500  1
