# generated using pymatgen
data_K3BiO8
_symmetry_space_group_name_H-M   'P 1'
_cell_length_a   6.81624746
_cell_length_b   6.81624746
_cell_length_c   6.81624746
_cell_angle_alpha   77.05511475
_cell_angle_beta   67.17031860
_cell_angle_gamma   112.82968140
_symmetry_Int_Tables_number   1
_chemical_formula_structural   K3BiO8
_chemical_formula_sum   'K3 Bi1 O8'
_cell_volume   241.45399890
_cell_formula_units_Z   1
loop_
 _symmetry_equiv_pos_site_id
 _symmetry_equiv_pos_as_xyz
  1  'x, y, z'
loop_
 _atom_site_type_symbol
 _atom_site_label
 _atom_site_symmetry_multiplicity
 _atom_site_fract_x
 _atom_site_fract_y
 _atom_site_fract_z
 _atom_site_occupancy
  K  K0  1  -0.00000007  0.49999997  0.50000007  1
  K  K1  1  0.49999996  0.24999998  0.25000006  1
  K  K2  1  0.49999989  0.74999995  0.75000014  1
  Bi  Bi3  1  0.00000000  0.00000000  0.00000000  1
  O  O4  1  -0.00000014  0.95147794  0.30441612  1
  O  O5  1  0.61066688  0.82459295  0.17540714  1
  O  O6  1  0.74410499  0.04852100  0.95147907  1
  O  O7  1  -0.00000010  0.69558396  0.04852208  1
  O  O8  1  0.25589495  0.30441698  0.69558307  1
  O  O9  1  0.38933297  0.21392599  0.78607407  1
  O  O10  1  -0.00000012  0.78607395  0.82459311  1
  O  O11  1  -0.00000003  0.17540699  0.21392603  1
