# generated using pymatgen
data_EuY3Te3Se7
_symmetry_space_group_name_H-M   'P 1'
_cell_length_a   7.39651012
_cell_length_b   7.39651012
_cell_length_c   7.39651012
_cell_angle_alpha   109.60992432
_cell_angle_beta   109.40191650
_cell_angle_gamma   109.40191650
_symmetry_Int_Tables_number   1
_chemical_formula_structural   EuY3Te3Se7
_chemical_formula_sum   'Eu1 Y3 Te3 Se7'
_cell_volume   311.49905547
_cell_formula_units_Z   1
loop_
 _symmetry_equiv_pos_site_id
 _symmetry_equiv_pos_as_xyz
  1  'x, y, z'
loop_
 _atom_site_type_symbol
 _atom_site_label
 _atom_site_symmetry_multiplicity
 _atom_site_fract_x
 _atom_site_fract_y
 _atom_site_fract_z
 _atom_site_occupancy
  Eu  Eu0  1  0.00000006  0.50000003  0.50000003  1
  Y  Y1  1  0.50000010  0.75000005  0.25000007  1
  Y  Y2  1  0.12981302  0.12500001  0.75481302  1
  Y  Y3  1  0.37018704  0.24518701  0.37500004  1
  Te  Te4  1  0.87018709  0.62500004  0.99518709  1
  Te  Te5  1  0.62981302  0.00481300  0.87500004  1
  Se  Se6  1  0.25392111  0.89202305  0.49300507  1
  Te  Te7  1  0.75392111  0.74300505  0.64202309  1
  Se  Se8  1  0.60098206  0.36189802  0.10797706  1
  Se  Se9  1  0.74607905  0.23908401  0.63810206  1
  Se  Se10  1  0.24607911  0.88810205  0.98908407  1
  Se  Se11  1  0.89901802  0.01091600  0.25699506  1
  Se  Se12  1  0.10098204  0.35797702  0.11189803  1
  Se  Se13  1  0.39901807  0.50699503  0.76091605  1
