# generated using pymatgen
data_NaSr(CuO3)2
_symmetry_space_group_name_H-M   'P 1'
_cell_length_a   7.28599644
_cell_length_b   7.28599644
_cell_length_c   7.28599644
_cell_angle_alpha   109.47122192
_cell_angle_beta   109.47122192
_cell_angle_gamma   109.47122192
_symmetry_Int_Tables_number   1
_chemical_formula_structural   NaSr(CuO3)2
_chemical_formula_sum   'Na2 Sr2 Cu4 O12'
_cell_volume   297.74532562
_cell_formula_units_Z   2
loop_
 _symmetry_equiv_pos_site_id
 _symmetry_equiv_pos_as_xyz
  1  'x, y, z'
loop_
 _atom_site_type_symbol
 _atom_site_label
 _atom_site_symmetry_multiplicity
 _atom_site_fract_x
 _atom_site_fract_y
 _atom_site_fract_z
 _atom_site_occupancy
  Na  Na0  1  1.00000004  0.50000002  0.00000005  1
  Sr  Sr1  1  0.00000000  0.00000000  0.50000000  1
  Sr  Sr2  1  0.50000004  0.50000002  0.50000004  1
  Na  Na3  1  0.50000000  0.00000000  0.00000001  1
  Cu  Cu4  1  0.00000000  0.00000000  0.00000000  1
  Cu  Cu5  1  0.50000000  0.00000000  0.50000001  1
  Cu  Cu6  1  0.00000003  0.50000002  0.50000003  1
  Cu  Cu7  1  0.50000004  0.50000002  0.00000004  1
  O  O8  1  0.00000005  0.72783903  0.72783904  1
  O  O9  1  0.72783905  0.72783903  0.00000006  1
  O  O10  1  0.27216102  0.27216101  0.00000002  1
  O  O11  1  0.27216100  0.00000000  0.27216101  1
  O  O12  1  0.72783901  0.00000000  0.72783902  1
  O  O13  1  0.00000002  0.27216101  0.27216101  1
  O  O14  1  0.50000002  0.25000001  0.75000003  1
  O  O15  1  0.75000002  0.25000001  0.50000003  1
  O  O16  1  0.50000005  0.75000003  0.25000005  1
  O  O17  1  0.25000003  0.50000002  0.75000003  1
  O  O18  1  0.75000004  0.50000002  0.25000005  1
  O  O19  1  0.25000005  0.75000003  0.50000005  1
