# generated using pymatgen
data_La2Y5ErInGaCuSn4GeP2
_symmetry_space_group_name_H-M   'P 1'
_cell_length_a   5.89961720
_cell_length_b   8.73189831
_cell_length_c   8.73189735
_cell_angle_alpha   120.00000000
_cell_angle_beta   90.00000000
_cell_angle_gamma   90.00000000
_symmetry_Int_Tables_number   1
_chemical_formula_structural   La2Y5ErInGaCuSn4GeP2
_chemical_formula_sum   'La2 Y5 Er1 In1 Ga1 Cu1 Sn4 Ge1 P2'
_cell_volume   389.55766634
_cell_formula_units_Z   1
loop_
 _symmetry_equiv_pos_site_id
 _symmetry_equiv_pos_as_xyz
  1  'x, y, z'
loop_
 _atom_site_type_symbol
 _atom_site_label
 _atom_site_symmetry_multiplicity
 _atom_site_fract_x
 _atom_site_fract_y
 _atom_site_fract_z
 _atom_site_occupancy
  Er  Er0  1  0.49999998  0.33333332  0.66666667  1
  La  La1  1  0.49999998  0.66666663  0.33333332  1
  La  La2  1  -0.00000000  0.66666663  0.33333332  1
  Y  Y3  1  -0.00000000  0.33333332  0.66666667  1
  Y  Y4  1  0.74999998  0.25589799  -0.00000001  1
  Y  Y5  1  0.74999998  0.74410196  0.74410199  1
  Y  Y6  1  0.74999998  0.00000000  0.25589801  1
  Y  Y7  1  0.24999999  0.74410196  -0.00000002  1
  In  In8  1  0.24999999  0.25589799  0.25589800  1
  Ga  Ga9  1  0.24999999  0.00000000  0.74410202  1
  P  P10  1  0.74999998  0.60636397  1.00000001  1
  Sn  Sn11  1  0.74999998  0.39363598  0.39363600  1
  Sn  Sn12  1  0.74999998  0.00000000  0.60636401  1
  Cu  Cu13  1  0.24999999  0.39363598  -0.00000001  1
  Sn  Sn14  1  0.24999999  0.60636397  0.60636400  1
  Sn  Sn15  1  0.24999999  0.00000000  0.39363601  1
  P  P16  1  0.49999998  0.00000000  -0.00000000  1
  Ge  Ge17  1  0.00000000  0.00000000  0.00000000  1
