# generated using pymatgen
data_NbCu3SeS7
_symmetry_space_group_name_H-M   'P 1'
_cell_length_a   5.84365892
_cell_length_b   5.84365892
_cell_length_c   5.84365892
_cell_angle_alpha   90.00000000
_cell_angle_beta   90.00000000
_cell_angle_gamma   90.00000000
_symmetry_Int_Tables_number   1
_chemical_formula_structural   NbCu3SeS7
_chemical_formula_sum   'Nb1 Cu3 Se1 S7'
_cell_volume   199.55130801
_cell_formula_units_Z   1
loop_
 _symmetry_equiv_pos_site_id
 _symmetry_equiv_pos_as_xyz
  1  'x, y, z'
loop_
 _atom_site_type_symbol
 _atom_site_label
 _atom_site_symmetry_multiplicity
 _atom_site_fract_x
 _atom_site_fract_y
 _atom_site_fract_z
 _atom_site_occupancy
  Cu  Cu0  1  0.48047801  0.98047801  0.51952201  1
  Nb  Nb1  1  0.98047801  0.51952201  0.48047801  1
  Cu  Cu2  1  0.51952201  0.48047801  0.98047801  1
  Cu  Cu3  1  0.01952200  0.01952200  0.01952200  1
  Se  Se4  1  0.12781600  0.62781601  0.87218401  1
  S  S5  1  0.62781601  0.87218401  0.12781600  1
  S  S6  1  0.87218401  0.12781600  0.62781601  1
  S  S7  1  0.37218400  0.37218400  0.37218400  1
  S  S8  1  0.87749001  0.37749000  0.12251000  1
  S  S9  1  0.37749000  0.12251000  0.87749001  1
  S  S10  1  0.12251000  0.87749001  0.37749000  1
  S  S11  1  0.62251001  0.62251001  0.62251001  1
