# generated using pymatgen
data_K2RbTlHCl
_symmetry_space_group_name_H-M   'P 1'
_cell_length_a   6.04236174
_cell_length_b   6.04236174
_cell_length_c   6.04236174
_cell_angle_alpha   60.00000000
_cell_angle_beta   60.00000000
_cell_angle_gamma   60.00000000
_symmetry_Int_Tables_number   1
_chemical_formula_structural   K2RbTlHCl
_chemical_formula_sum   'K2 Rb1 Tl1 H1 Cl1'
_cell_volume   155.99302023
_cell_formula_units_Z   1
loop_
 _symmetry_equiv_pos_site_id
 _symmetry_equiv_pos_as_xyz
  1  'x, y, z'
loop_
 _atom_site_type_symbol
 _atom_site_label
 _atom_site_symmetry_multiplicity
 _atom_site_fract_x
 _atom_site_fract_y
 _atom_site_fract_z
 _atom_site_occupancy
  K  K0  1  0.75000001  0.75000001  0.75000001  1
  K  K1  1  0.00000000  0.00000000  0.00000000  1
  Rb  Rb2  1  0.37500000  0.37500000  0.37500000  1
  H  H3  1  0.87500001  0.37500000  0.37500000  1
  Tl  Tl4  1  0.37500000  0.37500000  0.87500001  1
  Cl  Cl5  1  0.37500000  0.87500001  0.37500000  1
