# generated using pymatgen
data_La3YInSn5Au6
_symmetry_space_group_name_H-M   'P 1'
_cell_length_a   7.63075209
_cell_length_b   8.70719528
_cell_length_c   7.63075209
_cell_angle_alpha   115.98823547
_cell_angle_beta   90.00000000
_cell_angle_gamma   115.98823547
_symmetry_Int_Tables_number   1
_chemical_formula_structural   La3YInSn5Au6
_chemical_formula_sum   'La3 Y1 In1 Sn5 Au6'
_cell_volume   397.92209188
_cell_formula_units_Z   1
loop_
 _symmetry_equiv_pos_site_id
 _symmetry_equiv_pos_as_xyz
  1  'x, y, z'
loop_
 _atom_site_type_symbol
 _atom_site_label
 _atom_site_symmetry_multiplicity
 _atom_site_fract_x
 _atom_site_fract_y
 _atom_site_fract_z
 _atom_site_occupancy
  Y  Y0  1  0.00000000  0.00000000  0.00000000  1
  La  La1  1  0.49999999  0.00000000  0.49999999  1
  La  La2  1  0.20308605  0.72346608  0.02038006  1
  La  La3  1  0.79691401  0.27653403  0.97962001  1
  Sn  Sn4  1  0.52038105  0.72346808  0.70308705  1
  In  In5  1  0.70308605  0.72346708  0.20308605  1
  Sn  Sn6  1  0.97961901  0.27653303  0.47961902  1
  Sn  Sn7  1  0.47961902  0.27653203  0.29691302  1
  Sn  Sn8  1  0.29691402  0.27653303  0.79691401  1
  Sn  Sn9  1  0.02038106  0.72346708  0.52038105  1
  Au  Au10  1  0.75000003  0.50000005  0.75000003  1
  Au  Au11  1  0.25000004  0.50000005  0.25000004  1
  Au  Au12  1  0.86185699  0.00000100  0.63814399  1
  Au  Au13  1  0.13814308  0.99999910  0.36185607  1
  Au  Au14  1  0.36185700  0.00000000  0.86185699  1
  Au  Au15  1  0.63814299  0.00000000  0.13814300  1
