# generated using pymatgen
data_LaCeIn3Sn2PdAu4
_symmetry_space_group_name_H-M   'P 1'
_cell_length_a   4.54933310
_cell_length_b   7.23642921
_cell_length_c   8.19801712
_cell_angle_alpha   90.00000000
_cell_angle_beta   90.00000000
_cell_angle_gamma   90.00000000
_symmetry_Int_Tables_number   1
_chemical_formula_structural   LaCeIn3Sn2PdAu4
_chemical_formula_sum   'La1 Ce1 In3 Sn2 Pd1 Au4'
_cell_volume   269.88632250
_cell_formula_units_Z   1
loop_
 _symmetry_equiv_pos_site_id
 _symmetry_equiv_pos_as_xyz
  1  'x, y, z'
loop_
 _atom_site_type_symbol
 _atom_site_label
 _atom_site_symmetry_multiplicity
 _atom_site_fract_x
 _atom_site_fract_y
 _atom_site_fract_z
 _atom_site_occupancy
  La  La0  1  0.24999999  0.52848198  0.18203600  1
  Ce  Ce1  1  0.74999998  0.47151799  0.81796399  1
  In  In2  1  0.24999999  0.02848200  0.31796400  1
  In  In3  1  0.74999998  0.97151797  0.68203599  1
  In  In4  1  0.24999999  0.15750700  0.93506699  1
  Sn  Sn5  1  0.74999998  0.34249299  0.43506699  1
  Au  Au6  1  0.24999999  0.65750698  0.56493299  1
  Sn  Sn7  1  0.74999998  0.84249298  0.06493300  1
  Au  Au8  1  0.74999998  0.22540099  0.11948700  1
  Pd  Pd9  1  0.24999999  0.27459899  0.61948699  1
  Au  Au10  1  0.74999998  0.72540098  0.38051299  1
  Au  Au11  1  0.24999999  0.77459898  0.88051299  1
