# generated using pymatgen
data_TiCu4Se3
_symmetry_space_group_name_H-M   'P 1'
_cell_length_a   6.48229456
_cell_length_b   6.48229456
_cell_length_c   7.63880157
_cell_angle_alpha   64.89360809
_cell_angle_beta   64.89360809
_cell_angle_gamma   59.99999237
_symmetry_Int_Tables_number   1
_chemical_formula_structural   TiCu4Se3
_chemical_formula_sum   'Ti1 Cu4 Se3'
_cell_volume   242.33067525
_cell_formula_units_Z   1
loop_
 _symmetry_equiv_pos_site_id
 _symmetry_equiv_pos_as_xyz
  1  'x, y, z'
loop_
 _atom_site_type_symbol
 _atom_site_label
 _atom_site_symmetry_multiplicity
 _atom_site_fract_x
 _atom_site_fract_y
 _atom_site_fract_z
 _atom_site_occupancy
  Cu  Cu0  1  0.33341399  0.33341401  0.99975801  1
  Ti  Ti1  1  0.66658597  0.66658601  0.00024203  1
  Cu  Cu2  1  0.72464198  0.42651801  0.77380302  1
  Cu  Cu3  1  0.92496299  0.27535800  0.22619702  1
  Cu  Cu4  1  0.27535798  0.57348201  0.22619702  1
  Se  Se5  1  0.42651800  0.07503700  0.77380301  1
  Se  Se6  1  0.57348196  0.92496302  0.22619704  1
  Se  Se7  1  0.07503697  0.72464201  0.77380302  1
