# generated using pymatgen
data_Y2ErInSn3Pd
_symmetry_space_group_name_H-M   'P 1'
_cell_length_a   4.19597197
_cell_length_b   4.64073706
_cell_length_c   11.81023407
_cell_angle_alpha   90.00000000
_cell_angle_beta   90.00000000
_cell_angle_gamma   90.00000000
_symmetry_Int_Tables_number   1
_chemical_formula_structural   Y2ErInSn3Pd
_chemical_formula_sum   'Y2 Er1 In1 Sn3 Pd1'
_cell_volume   229.97363250
_cell_formula_units_Z   1
loop_
 _symmetry_equiv_pos_site_id
 _symmetry_equiv_pos_as_xyz
  1  'x, y, z'
loop_
 _atom_site_type_symbol
 _atom_site_label
 _atom_site_symmetry_multiplicity
 _atom_site_fract_x
 _atom_site_fract_y
 _atom_site_fract_z
 _atom_site_occupancy
  Y  Y0  1  0.25000000  0.39180300  0.62183700  1
  Y  Y1  1  0.25000000  0.10819700  0.12183700  1
  In  In2  1  0.75000001  0.60819699  0.37816300  1
  Er  Er3  1  0.75000001  0.89180299  0.87816299  1
  Sn  Sn4  1  0.25000000  0.49415299  0.85444599  1
  Sn  Sn5  1  0.25000000  0.00584700  0.35444600  1
  Sn  Sn6  1  0.75000001  0.50584699  0.14555400  1
  Pd  Pd7  1  0.75000001  0.99415299  0.64555400  1
