# generated using pymatgen
data_Na3EuCu2P4S
_symmetry_space_group_name_H-M   'P 1'
_cell_length_a   3.99524689
_cell_length_b   4.10291910
_cell_length_c   13.62149048
_cell_angle_alpha   89.76625061
_cell_angle_beta   90.00000000
_cell_angle_gamma   90.00000000
_symmetry_Int_Tables_number   1
_chemical_formula_structural   Na3EuCu2P4S
_chemical_formula_sum   'Na3 Eu1 Cu2 P4 S1'
_cell_volume   223.28399437
_cell_formula_units_Z   1
loop_
 _symmetry_equiv_pos_site_id
 _symmetry_equiv_pos_as_xyz
  1  'x, y, z'
loop_
 _atom_site_type_symbol
 _atom_site_label
 _atom_site_symmetry_multiplicity
 _atom_site_fract_x
 _atom_site_fract_y
 _atom_site_fract_z
 _atom_site_occupancy
  Eu  Eu0  1  0.25000001  0.98925304  0.62362198  1
  Na  Na1  1  0.75000002  0.48219802  0.12700700  1
  Na  Na2  1  0.25000001  0.48379902  0.87874197  1
  Na  Na3  1  0.75000002  0.99204204  0.37747199  1
  Cu  Cu4  1  0.75000002  0.48684302  0.70877298  1
  Cu  Cu5  1  0.25000001  0.97260504  0.22070199  1
  P  P6  1  0.75000002  0.98551504  0.79211497  1
  P  P7  1  0.75000002  0.49068502  0.53742798  1
  S  S8  1  0.25000001  0.98700404  0.05120900  1
  P  P9  1  0.75000002  0.98036004  0.96174297  1
  P  P10  1  0.25000001  0.49169402  0.43898699  1
