# generated using pymatgen
data_BaY2UNb2(TlS6)2
_symmetry_space_group_name_H-M   'P 1'
_cell_length_a   3.94802594
_cell_length_b   11.00358295
_cell_length_c   11.20936298
_cell_angle_alpha   109.05455017
_cell_angle_beta   90.00000000
_cell_angle_gamma   90.00000000
_symmetry_Int_Tables_number   1
_chemical_formula_structural   BaY2UNb2(TlS6)2
_chemical_formula_sum   'Ba1 Y2 U1 Nb2 Tl2 S12'
_cell_volume   460.28044455
_cell_formula_units_Z   1
loop_
 _symmetry_equiv_pos_site_id
 _symmetry_equiv_pos_as_xyz
  1  'x, y, z'
loop_
 _atom_site_type_symbol
 _atom_site_label
 _atom_site_symmetry_multiplicity
 _atom_site_fract_x
 _atom_site_fract_y
 _atom_site_fract_z
 _atom_site_occupancy
  Y  Y0  1  0.25000000  0.44921100  0.80397695  1
  Ba  Ba1  1  0.75000001  0.55078899  0.19602297  1
  Y  Y2  1  0.25000000  0.82070699  0.00000397  1
  Nb  Nb3  1  0.75000001  0.17929300  0.99999595  1
  Nb  Nb4  1  0.25000000  0.05646100  0.66592097  1
  U  U5  1  0.75000001  0.94353899  0.33407895  1
  Tl  Tl6  1  0.25000000  0.33913100  0.41287297  1
  Tl  Tl7  1  0.75000001  0.66086899  0.58712695  1
  S  S8  1  0.25000000  0.02209600  0.88832796  1
  S  S9  1  0.75000001  0.97790399  0.11167196  1
  S  S10  1  0.25000000  0.69791199  0.74857794  1
  S  S11  1  0.75000001  0.30208800  0.25142198  1
  S  S12  1  0.25000000  0.10731400  0.44240098  1
  S  S13  1  0.75000001  0.89268599  0.55759894  1
  S  S14  1  0.25000000  0.58077899  0.40762696  1
  S  S15  1  0.75000001  0.41922100  0.59237296  1
  S  S16  1  0.25000000  0.76969099  0.23018996  1
  S  S17  1  0.75000001  0.23030900  0.76980996  1
  S  S18  1  0.25000000  0.37874800  0.03610798  1
  S  S19  1  0.75000001  0.62125199  0.96389193  1
