# generated using pymatgen
data_Hf2MnGa4Pd3
_symmetry_space_group_name_H-M   'P 1'
_cell_length_a   3.97927189
_cell_length_b   5.64445591
_cell_length_c   10.61752224
_cell_angle_alpha   105.41500092
_cell_angle_beta   100.80060577
_cell_angle_gamma   90.00000000
_symmetry_Int_Tables_number   1
_chemical_formula_structural   Hf2MnGa4Pd3
_chemical_formula_sum   'Hf2 Mn1 Ga4 Pd3'
_cell_volume   225.51401633
_cell_formula_units_Z   1
loop_
 _symmetry_equiv_pos_site_id
 _symmetry_equiv_pos_as_xyz
  1  'x, y, z'
loop_
 _atom_site_type_symbol
 _atom_site_label
 _atom_site_symmetry_multiplicity
 _atom_site_fract_x
 _atom_site_fract_y
 _atom_site_fract_z
 _atom_site_occupancy
  Mn  Mn0  1  0.39889698  0.89889701  0.79779394  1
  Hf  Hf1  1  0.79929401  0.29929400  0.59858795  1
  Hf  Hf2  1  0.20070598  0.70070601  0.40141197  1
  Ga  Ga3  1  0.60110301  0.10110300  0.20220598  1
  Ga  Ga4  1  -0.00000001  0.50000000  -0.00000001  1
  Ga  Ga5  1  0.19962300  0.19962300  0.39924598  1
  Ga  Ga6  1  0.60100799  0.60100801  0.20201597  1
  Pd  Pd7  1  0.00000000  0.00000000  0.00000000  1
  Pd  Pd8  1  0.39899100  0.39899100  0.79798295  1
  Pd  Pd9  1  0.80037699  0.80037701  0.60075395  1
