# generated using pymatgen
data_MnFe15
_symmetry_space_group_name_H-M   'P 1'
_cell_length_a   3.46734905
_cell_length_b   7.63072014
_cell_length_c   7.63071966
_cell_angle_alpha   120.00000000
_cell_angle_beta   90.00000000
_cell_angle_gamma   90.00000000
_symmetry_Int_Tables_number   1
_chemical_formula_structural   MnFe15
_chemical_formula_sum   'Mn1 Fe15'
_cell_volume   174.84741655
_cell_formula_units_Z   1
loop_
 _symmetry_equiv_pos_site_id
 _symmetry_equiv_pos_as_xyz
  1  'x, y, z'
loop_
 _atom_site_type_symbol
 _atom_site_label
 _atom_site_symmetry_multiplicity
 _atom_site_fract_x
 _atom_site_fract_y
 _atom_site_fract_z
 _atom_site_occupancy
  Mn  Mn0  1  0.25000000  0.66666665  0.33333332  1
  Fe  Fe1  1  0.74999999  0.33333332  0.66666666  1
  Fe  Fe2  1  0.25000000  0.40161799  0.94985899  1
  Fe  Fe3  1  0.74999999  0.94985897  0.54824097  1
  Fe  Fe4  1  0.74999999  0.45175899  0.40161799  1
  Fe  Fe5  1  0.25000000  0.54824098  0.59838199  1
  Fe  Fe6  1  0.00000000  0.00000000  0.00000000  1
  Fe  Fe7  1  0.74999999  0.59838198  0.05014098  1
  Fe  Fe8  1  0.49999999  0.00000000  -0.00000000  1
  Fe  Fe9  1  0.25000000  0.05014100  0.45175900  1
  Fe  Fe10  1  0.25000000  0.25345399  0.32948499  1
  Fe  Fe11  1  0.25000000  0.67051498  0.92396898  1
  Fe  Fe12  1  0.74999999  0.32948499  0.07603099  1
  Fe  Fe13  1  0.74999999  0.92396897  0.25345397  1
  Fe  Fe14  1  0.74999999  0.74654598  0.67051498  1
  Fe  Fe15  1  0.25000000  0.07603100  0.74654600  1
