# generated using pymatgen
data_Sc2TiNiRuRh
_symmetry_space_group_name_H-M   'P 1'
_cell_length_a   5.45579147
_cell_length_b   5.45579147
_cell_length_c   5.45579147
_cell_angle_alpha   60.00000000
_cell_angle_beta   60.00000000
_cell_angle_gamma   60.00000000
_symmetry_Int_Tables_number   1
_chemical_formula_structural   Sc2TiNiRuRh
_chemical_formula_sum   'Sc2 Ti1 Ni1 Ru1 Rh1'
_cell_volume   114.83077353
_cell_formula_units_Z   1
loop_
 _symmetry_equiv_pos_site_id
 _symmetry_equiv_pos_as_xyz
  1  'x, y, z'
loop_
 _atom_site_type_symbol
 _atom_site_label
 _atom_site_symmetry_multiplicity
 _atom_site_fract_x
 _atom_site_fract_y
 _atom_site_fract_z
 _atom_site_occupancy
  Sc  Sc0  1  0.74999997  0.74999997  0.74999997  1
  Sc  Sc1  1  0.00000000  0.00000000  0.00000000  1
  Ti  Ti2  1  0.87499997  0.37499999  0.37499999  1
  Ni  Ni3  1  0.37499999  0.37499999  0.87499997  1
  Ru  Ru4  1  0.37499999  0.37499999  0.37499999  1
  Rh  Rh5  1  0.37499999  0.87499997  0.37499999  1
