# generated using pymatgen
data_Y2AlSi2Ni3
_symmetry_space_group_name_H-M   'P 1'
_cell_length_a   3.95843506
_cell_length_b   3.99557590
_cell_length_c   8.48989773
_cell_angle_alpha   103.61010742
_cell_angle_beta   90.00000000
_cell_angle_gamma   90.00000000
_symmetry_Int_Tables_number   1
_chemical_formula_structural   Y2AlSi2Ni3
_chemical_formula_sum   'Y2 Al1 Si2 Ni3'
_cell_volume   130.50755882
_cell_formula_units_Z   1
loop_
 _symmetry_equiv_pos_site_id
 _symmetry_equiv_pos_as_xyz
  1  'x, y, z'
loop_
 _atom_site_type_symbol
 _atom_site_label
 _atom_site_symmetry_multiplicity
 _atom_site_fract_x
 _atom_site_fract_y
 _atom_site_fract_z
 _atom_site_occupancy
  Y  Y0  1  0.25000000  0.39441601  0.78883198  1
  Y  Y1  1  0.74999999  0.60558402  0.21116800  1
  Al  Al2  1  0.25000000  0.04003600  0.08007200  1
  Si  Si3  1  0.74999999  0.95996403  0.91992798  1
  Ni  Ni4  1  0.25000000  0.75016702  0.50033399  1
  Ni  Ni5  1  0.74999999  0.24983301  0.49966599  1
  Si  Si6  1  0.25000000  0.17748100  0.35496199  1
  Ni  Ni7  1  0.74999999  0.82251902  0.64503799  1
