# generated using pymatgen
data_BaInCuTe3Se7Cl
_symmetry_space_group_name_H-M   'P 1'
_cell_length_a   6.32622623
_cell_length_b   6.32622623
_cell_length_c   12.84603977
_cell_angle_alpha   90.00000000
_cell_angle_beta   90.00000000
_cell_angle_gamma   90.00000000
_symmetry_Int_Tables_number   1
_chemical_formula_structural   BaInCuTe3Se7Cl
_chemical_formula_sum   'Ba1 In1 Cu1 Te3 Se7 Cl1'
_cell_volume   514.11313521
_cell_formula_units_Z   1
loop_
 _symmetry_equiv_pos_site_id
 _symmetry_equiv_pos_as_xyz
  1  'x, y, z'
loop_
 _atom_site_type_symbol
 _atom_site_label
 _atom_site_symmetry_multiplicity
 _atom_site_fract_x
 _atom_site_fract_y
 _atom_site_fract_z
 _atom_site_occupancy
  Ba  Ba0  1  0.00000000  0.49999998  0.25469300  1
  Te  Te1  1  0.00000000  0.49999998  0.74530701  1
  In  In2  1  0.49999998  0.00000000  0.74530701  1
  Cu  Cu3  1  0.49999998  0.49999998  0.00000000  1
  Te  Te4  1  0.49999998  0.00000000  0.25469300  1
  Te  Te5  1  0.00000000  0.00000000  0.50000001  1
  Se  Se6  1  0.72926697  0.27073299  0.38659701  1
  Se  Se7  1  0.22265799  0.77734197  0.88844302  1
  Se  Se8  1  0.77734197  0.22265799  0.88844302  1
  Se  Se9  1  0.77734197  0.77734197  0.11155700  1
  Cl  Cl10  1  0.27073299  0.72926697  0.38659701  1
  Se  Se11  1  0.22265799  0.22265799  0.11155700  1
  Se  Se12  1  0.72926697  0.72926697  0.61340301  1
  Se  Se13  1  0.27073299  0.27073299  0.61340301  1
