# generated using pymatgen
data_TiAlNi3Pd
_symmetry_space_group_name_H-M   'P 1'
_cell_length_a   4.96701241
_cell_length_b   4.96701241
_cell_length_c   4.96701241
_cell_angle_alpha   60.00000000
_cell_angle_beta   60.00000000
_cell_angle_gamma   60.00000000
_symmetry_Int_Tables_number   1
_chemical_formula_structural   TiAlNi3Pd
_chemical_formula_sum   'Ti1 Al1 Ni3 Pd1'
_cell_volume   86.65043278
_cell_formula_units_Z   1
loop_
 _symmetry_equiv_pos_site_id
 _symmetry_equiv_pos_as_xyz
  1  'x, y, z'
loop_
 _atom_site_type_symbol
 _atom_site_label
 _atom_site_symmetry_multiplicity
 _atom_site_fract_x
 _atom_site_fract_y
 _atom_site_fract_z
 _atom_site_occupancy
  Ti  Ti0  1  0.00000000  0.00000000  0.00000000  1
  Al  Al1  1  0.37528398  0.37528298  0.37528298  1
  Ni  Ni2  1  0.87415096  0.37528298  0.37528298  1
  Ni  Ni3  1  0.37528398  0.37528298  0.87414996  1
  Ni  Ni4  1  0.37528398  0.87414996  0.37528298  1
  Pd  Pd5  1  0.74999997  0.74999997  0.74999997  1
