# generated using pymatgen
data_LaErIn3Sn2PdAu2
_symmetry_space_group_name_H-M   'P 1'
_cell_length_a   4.16407299
_cell_length_b   7.43411589
_cell_length_c   7.43411589
_cell_angle_alpha   90.00000000
_cell_angle_beta   90.00000000
_cell_angle_gamma   90.00000000
_symmetry_Int_Tables_number   1
_chemical_formula_structural   LaErIn3Sn2PdAu2
_chemical_formula_sum   'La1 Er1 In3 Sn2 Pd1 Au2'
_cell_volume   230.13198692
_cell_formula_units_Z   1
loop_
 _symmetry_equiv_pos_site_id
 _symmetry_equiv_pos_as_xyz
  1  'x, y, z'
loop_
 _atom_site_type_symbol
 _atom_site_label
 _atom_site_symmetry_multiplicity
 _atom_site_fract_x
 _atom_site_fract_y
 _atom_site_fract_z
 _atom_site_occupancy
  Er  Er0  1  0.50000000  0.17914000  0.67914001  1
  La  La1  1  0.50000000  0.82086001  0.32086000  1
  In  In2  1  0.50000000  0.32086000  0.17914000  1
  In  In3  1  0.50000000  0.67914001  0.82086001  1
  Sn  Sn4  1  0.00000000  0.00000000  0.00000000  1
  In  In5  1  0.00000000  0.50000001  0.50000001  1
  Sn  Sn6  1  0.00000000  0.62113001  0.12113000  1
  Pd  Pd7  1  0.00000000  0.37887001  0.87887001  1
  Au  Au8  1  0.00000000  0.87887001  0.62113001  1
  Au  Au9  1  0.00000000  0.12113000  0.37887001  1
