# generated using pymatgen
data_La4NdY(InSn4)2
_symmetry_space_group_name_H-M   'P 1'
_cell_length_a   8.11675167
_cell_length_b   8.66905403
_cell_length_c   8.11675167
_cell_angle_alpha   117.91396332
_cell_angle_beta   90.00000000
_cell_angle_gamma   117.91396332
_symmetry_Int_Tables_number   1
_chemical_formula_structural   La4NdY(InSn4)2
_chemical_formula_sum   'La4 Nd1 Y1 In2 Sn8'
_cell_volume   428.03647458
_cell_formula_units_Z   1
loop_
 _symmetry_equiv_pos_site_id
 _symmetry_equiv_pos_as_xyz
  1  'x, y, z'
loop_
 _atom_site_type_symbol
 _atom_site_label
 _atom_site_symmetry_multiplicity
 _atom_site_fract_x
 _atom_site_fract_y
 _atom_site_fract_z
 _atom_site_occupancy
  Y  Y0  1  0.50000002  0.00000000  0.50000002  1
  Nd  Nd1  1  0.00000000  0.00000000  0.00000000  1
  La  La2  1  0.48517802  0.28433201  0.29915401  1
  La  La3  1  0.79915303  0.28433001  0.98517704  1
  La  La4  1  0.98517804  0.28433101  0.48517802  1
  La  La5  1  0.29915301  0.28433101  0.79915303  1
  In  In6  1  0.51482202  0.71566803  0.70084603  1
  In  In7  1  0.20084701  0.71567003  0.01482300  1
  Sn  Sn8  1  0.01482200  0.71566903  0.51482202  1
  Sn  Sn9  1  0.70084703  0.71566903  0.20084701  1
  Sn  Sn10  1  0.75000003  0.50000002  0.75000003  1
  Sn  Sn11  1  0.25000001  0.50000002  0.25000001  1
  Sn  Sn12  1  0.86379003  0.99999904  0.63620903  1
  Sn  Sn13  1  0.13621001  0.00000100  0.36379101  1
  Sn  Sn14  1  0.36379001  0.00000000  0.86379003  1
  Sn  Sn15  1  0.63621003  0.00000000  0.13621001  1
