# generated using pymatgen
data_Na2Li4NiO4
_symmetry_space_group_name_H-M   'P 1'
_cell_length_a   3.90707397
_cell_length_b   3.90707397
_cell_length_c   12.30049133
_cell_angle_alpha   99.13828278
_cell_angle_beta   99.13828278
_cell_angle_gamma   90.00000000
_symmetry_Int_Tables_number   1
_chemical_formula_structural   Na2Li4NiO4
_chemical_formula_sum   'Na2 Li4 Ni1 O4'
_cell_volume   182.97237312
_cell_formula_units_Z   1
loop_
 _symmetry_equiv_pos_site_id
 _symmetry_equiv_pos_as_xyz
  1  'x, y, z'
loop_
 _atom_site_type_symbol
 _atom_site_label
 _atom_site_symmetry_multiplicity
 _atom_site_fract_x
 _atom_site_fract_y
 _atom_site_fract_z
 _atom_site_occupancy
  Na  Na0  1  0.91875100  0.91875100  0.83750198  1
  Na  Na1  1  0.08124900  0.08124900  0.16249800  1
  Li  Li2  1  0.70227200  0.70227200  0.40454399  1
  Li  Li3  1  0.29772800  0.29772800  0.59545599  1
  Li  Li4  1  0.50000000  0.50000000  -0.00000001  1
  Li  Li5  1  0.78881300  0.78881300  0.57762598  1
  Ni  Ni6  1  0.21118700  0.21118700  0.42237399  1
  O  O7  1  0.38216100  0.38216100  0.76432199  1
  O  O8  1  0.61783900  0.61783900  0.23567799  1
  O  O9  1  0.49999999  1.00000000  0.99999998  1
  O  O10  1  1.00000000  0.50000000  -0.00000001  1
