# generated using pymatgen
data_Li4Ni
_symmetry_space_group_name_H-M   'P 1'
_cell_length_a   4.77234077
_cell_length_b   4.91583920
_cell_length_c   5.04052019
_cell_angle_alpha   94.56653595
_cell_angle_beta   92.35238647
_cell_angle_gamma   91.16891479
_symmetry_Int_Tables_number   1
_chemical_formula_structural   Li4Ni
_chemical_formula_sum   'Li4 Ni1'
_cell_volume   117.74292959
_cell_formula_units_Z   1
loop_
 _symmetry_equiv_pos_site_id
 _symmetry_equiv_pos_as_xyz
  1  'x, y, z'
loop_
 _atom_site_type_symbol
 _atom_site_label
 _atom_site_symmetry_multiplicity
 _atom_site_fract_x
 _atom_site_fract_y
 _atom_site_fract_z
 _atom_site_occupancy
  Li  Li0  1  0.00579900  0.00177100  0.98547299  1
  Li  Li1  1  0.50430503  0.49868498  0.48672996  1
  Li  Li2  1  0.96225905  0.52813198  0.53133996  1
  Li  Li3  1  0.51485203  0.52583998  0.90807396  1
  Ni  Ni4  1  0.51278304  0.93557496  0.52838294  1
