# generated using pymatgen
data_Hf3ZnInCuGePd8
_symmetry_space_group_name_H-M   'P 1'
_cell_length_a   6.30280018
_cell_length_b   6.30280113
_cell_length_c   7.97114611
_cell_angle_alpha   90.00000000
_cell_angle_beta   90.00000000
_cell_angle_gamma   119.99999237
_symmetry_Int_Tables_number   1
_chemical_formula_structural   Hf3ZnInCuGePd8
_chemical_formula_sum   'Hf3 Zn1 In1 Cu1 Ge1 Pd8'
_cell_volume   274.23228203
_cell_formula_units_Z   1
loop_
 _symmetry_equiv_pos_site_id
 _symmetry_equiv_pos_as_xyz
  1  'x, y, z'
loop_
 _atom_site_type_symbol
 _atom_site_label
 _atom_site_symmetry_multiplicity
 _atom_site_fract_x
 _atom_site_fract_y
 _atom_site_fract_z
 _atom_site_occupancy
  In  In0  1  0.92445492  0.92445495  0.66666666  1
  Hf  Hf1  1  0.07554500  0.00000000  -0.00000000  1
  Hf  Hf2  1  -0.00000000  0.07554500  0.33333333  1
  Hf  Hf3  1  0.38624497  0.38624498  0.66666666  1
  Zn  Zn4  1  0.61375498  0.00000000  -0.00000000  1
  Ge  Ge5  1  0.99999994  0.61375496  0.33333333  1
  Cu  Cu6  1  0.73455295  0.51182997  0.88961799  1
  Pd  Pd7  1  0.48817097  0.22272399  0.22295100  1
  Pd  Pd8  1  0.77727696  0.26544798  0.55628499  1
  Pd  Pd9  1  0.26544695  0.77727596  0.77704899  1
  Pd  Pd10  1  0.22272297  0.48816997  0.11038200  1
  Pd  Pd11  1  0.51182895  0.73455196  0.44371499  1
  Pd  Pd12  1  0.68207394  0.68207396  0.16666700  1
  Pd  Pd13  1  0.31792599  0.00000000  0.49999999  1
  Pd  Pd14  1  0.99999995  0.31792598  0.83333299  1
