# generated using pymatgen
data_ErZr(AlSi4)2
_symmetry_space_group_name_H-M   'P 1'
_cell_length_a   5.06721210
_cell_length_b   5.06721163
_cell_length_c   8.01649475
_cell_angle_alpha   90.00000000
_cell_angle_beta   90.00000000
_cell_angle_gamma   120.00000000
_symmetry_Int_Tables_number   1
_chemical_formula_structural   ErZr(AlSi4)2
_chemical_formula_sum   'Er1 Zr1 Al2 Si8'
_cell_volume   178.25974066
_cell_formula_units_Z   1
loop_
 _symmetry_equiv_pos_site_id
 _symmetry_equiv_pos_as_xyz
  1  'x, y, z'
loop_
 _atom_site_type_symbol
 _atom_site_label
 _atom_site_symmetry_multiplicity
 _atom_site_fract_x
 _atom_site_fract_y
 _atom_site_fract_z
 _atom_site_occupancy
  Er  Er0  1  0.66666664  0.33333333  0.56160802  1
  Zr  Zr1  1  0.33333330  0.66666667  0.43839201  1
  Al  Al2  1  0.33333330  0.66666667  0.06160800  1
  Al  Al3  1  0.66666664  0.33333333  0.93839203  1
  Si  Si4  1  0.83100698  0.16899200  0.25000001  1
  Si  Si5  1  0.83100696  0.66201400  0.25000001  1
  Si  Si6  1  0.66201496  0.83100800  0.75000002  1
  Si  Si7  1  0.16899297  0.83100800  0.75000002  1
  Si  Si8  1  0.33798499  0.16899200  0.25000001  1
  Si  Si9  1  0.00000000  0.00000000  0.00000000  1
  Si  Si10  1  0.16899298  0.33798600  0.75000002  1
  Si  Si11  1  0.00000000  0.00000000  0.50000002  1
