# generated using pymatgen
data_HoErInSn2Pd2Au
_symmetry_space_group_name_H-M   'P 1'
_cell_length_a   4.55766201
_cell_length_b   4.55766201
_cell_length_c   9.17161846
_cell_angle_alpha   90.00000000
_cell_angle_beta   90.00000000
_cell_angle_gamma   120.00000000
_symmetry_Int_Tables_number   1
_chemical_formula_structural   HoErInSn2Pd2Au
_chemical_formula_sum   'Ho1 Er1 In1 Sn2 Pd2 Au1'
_cell_volume   164.99122319
_cell_formula_units_Z   1
loop_
 _symmetry_equiv_pos_site_id
 _symmetry_equiv_pos_as_xyz
  1  'x, y, z'
loop_
 _atom_site_type_symbol
 _atom_site_label
 _atom_site_symmetry_multiplicity
 _atom_site_fract_x
 _atom_site_fract_y
 _atom_site_fract_z
 _atom_site_occupancy
  Er  Er0  1  0.66666666  0.33333333  0.74999996  1
  Ho  Ho1  1  0.33333333  0.66666665  0.24999999  1
  In  In2  1  0.00000000  0.00000000  0.49999997  1
  Sn  Sn3  1  0.00000000  0.00000000  0.00000000  1
  Sn  Sn4  1  0.66666666  0.33333333  0.09072100  1
  Pd  Pd5  1  0.33333333  0.66666665  0.90927895  1
  Pd  Pd6  1  0.33333333  0.66666665  0.59072097  1
  Au  Au7  1  0.66666666  0.33333333  0.40927898  1
