# generated using pymatgen
data_NaLiCuRuO3
_symmetry_space_group_name_H-M   'P 1'
_cell_length_a   3.95431399
_cell_length_b   3.95431399
_cell_length_c   6.96971750
_cell_angle_alpha   106.47985840
_cell_angle_beta   106.47985840
_cell_angle_gamma   90.00000000
_symmetry_Int_Tables_number   1
_chemical_formula_structural   NaLiCuRuO3
_chemical_formula_sum   'Na1 Li1 Cu1 Ru1 O3'
_cell_volume   99.82797215
_cell_formula_units_Z   1
loop_
 _symmetry_equiv_pos_site_id
 _symmetry_equiv_pos_as_xyz
  1  'x, y, z'
loop_
 _atom_site_type_symbol
 _atom_site_label
 _atom_site_symmetry_multiplicity
 _atom_site_fract_x
 _atom_site_fract_y
 _atom_site_fract_z
 _atom_site_occupancy
  Li  Li0  1  0.64627703  0.64627701  0.29255404  1
  Na  Na1  1  0.35372302  0.35372301  0.70744601  1
  Ru  Ru2  1  0.00000000  0.00000000  0.00000000  1
  Cu  Cu3  1  0.00000002  0.50000001  0.00000002  1
  O  O4  1  0.50000001  0.00000000  0.00000002  1
  O  O5  1  0.83698304  0.83698302  0.67396605  1
  O  O6  1  0.16301701  0.16301700  0.32603401  1
