# generated using pymatgen
data_CaEuO3
_symmetry_space_group_name_H-M   'P 1'
_cell_length_a   3.82634401
_cell_length_b   3.82634401
_cell_length_c   6.80783510
_cell_angle_alpha   90.00000000
_cell_angle_beta   90.00000000
_cell_angle_gamma   120.00000000
_symmetry_Int_Tables_number   1
_chemical_formula_structural   CaEuO3
_chemical_formula_sum   'Ca1 Eu1 O3'
_cell_volume   86.31925556
_cell_formula_units_Z   1
loop_
 _symmetry_equiv_pos_site_id
 _symmetry_equiv_pos_as_xyz
  1  'x, y, z'
loop_
 _atom_site_type_symbol
 _atom_site_label
 _atom_site_symmetry_multiplicity
 _atom_site_fract_x
 _atom_site_fract_y
 _atom_site_fract_z
 _atom_site_occupancy
  Eu  Eu0  1  0.33333332  0.66666664  0.29142300  1
  Ca  Ca1  1  0.66666666  0.33333332  0.70857699  1
  O  O2  1  0.00000000  0.00000000  0.00000000  1
  O  O3  1  0.33333332  0.66666664  0.62559799  1
  O  O4  1  0.66666666  0.33333332  0.37440199  1
