# generated using pymatgen
data_Er2In5Sn6Ge(PdAu2)2
_symmetry_space_group_name_H-M   'P 1'
_cell_length_a   4.10547495
_cell_length_b   4.10547495
_cell_length_c   20.48827553
_cell_angle_alpha   90.00000000
_cell_angle_beta   90.00000000
_cell_angle_gamma   90.00000000
_symmetry_Int_Tables_number   1
_chemical_formula_structural   Er2In5Sn6Ge(PdAu2)2
_chemical_formula_sum   'Er2 In5 Sn6 Ge1 Pd2 Au4'
_cell_volume   345.32833830
_cell_formula_units_Z   1
loop_
 _symmetry_equiv_pos_site_id
 _symmetry_equiv_pos_as_xyz
  1  'x, y, z'
loop_
 _atom_site_type_symbol
 _atom_site_label
 _atom_site_symmetry_multiplicity
 _atom_site_fract_x
 _atom_site_fract_y
 _atom_site_fract_z
 _atom_site_occupancy
  Er  Er0  1  0.00000000  0.00000000  0.20054199  1
  Er  Er1  1  0.00000000  0.00000000  0.39995899  1
  In  In2  1  0.00000000  0.00000000  0.60004098  1
  In  In3  1  0.00000000  0.00000000  0.79945798  1
  In  In4  1  0.50000001  0.50000001  0.00000000  1
  In  In5  1  0.50000001  0.50000001  0.19957199  1
  In  In6  1  0.50000001  0.50000001  0.39998699  1
  Sn  Sn7  1  0.50000001  0.50000001  0.60001298  1
  Sn  Sn8  1  0.50000001  0.50000001  0.80042798  1
  Au  Au9  1  0.50000001  0.00000000  0.10019700  1
  Pd  Pd10  1  0.50000001  0.00000000  0.30019899  1
  Sn  Sn11  1  0.50000001  0.00000000  0.49999999  1
  Ge  Ge12  1  0.50000001  0.00000000  0.69980098  1
  Sn  Sn13  1  0.50000001  0.00000000  0.89980298  1
  Au  Au14  1  0.00000000  0.50000001  0.10019700  1
  Pd  Pd15  1  0.00000000  0.50000001  0.30019899  1
  Au  Au16  1  0.00000000  0.50000001  0.49999999  1
  Sn  Sn17  1  0.00000000  0.50000001  0.69980098  1
  Sn  Sn18  1  0.00000000  0.50000001  0.89980298  1
  Au  Au19  1  0.00000000  0.00000000  0.00000000  1
