# generated using pymatgen
data_MnSi2W
_symmetry_space_group_name_H-M   'P 1'
_cell_length_a   2.79638600
_cell_length_b   4.44838285
_cell_length_c   4.44838285
_cell_angle_alpha   97.95994568
_cell_angle_beta   90.00000000
_cell_angle_gamma   90.00000000
_symmetry_Int_Tables_number   1
_chemical_formula_structural   MnSi2W
_chemical_formula_sum   'Mn1 Si2 W1'
_cell_volume   54.80204593
_cell_formula_units_Z   1
loop_
 _symmetry_equiv_pos_site_id
 _symmetry_equiv_pos_as_xyz
  1  'x, y, z'
loop_
 _atom_site_type_symbol
 _atom_site_label
 _atom_site_symmetry_multiplicity
 _atom_site_fract_x
 _atom_site_fract_y
 _atom_site_fract_z
 _atom_site_occupancy
  Mn  Mn0  1  -0.00000000  0.29640400  0.29640399  1
  Si  Si1  1  -0.00000000  0.70359601  0.70359597  1
  W  W2  1  0.50000000  0.78570201  0.21429796  1
  Si  Si3  1  0.50000000  0.21429800  0.78570200  1
