# generated using pymatgen
data_Y2ScCu2SbS3
_symmetry_space_group_name_H-M   'P 1'
_cell_length_a   3.90908289
_cell_length_b   7.49844980
_cell_length_c   7.49845076
_cell_angle_alpha   120.00000000
_cell_angle_beta   90.00000000
_cell_angle_gamma   90.00000000
_symmetry_Int_Tables_number   1
_chemical_formula_structural   Y2ScCu2SbS3
_chemical_formula_sum   'Y2 Sc1 Cu2 Sb1 S3'
_cell_volume   190.34809876
_cell_formula_units_Z   1
loop_
 _symmetry_equiv_pos_site_id
 _symmetry_equiv_pos_as_xyz
  1  'x, y, z'
loop_
 _atom_site_type_symbol
 _atom_site_label
 _atom_site_symmetry_multiplicity
 _atom_site_fract_x
 _atom_site_fract_y
 _atom_site_fract_z
 _atom_site_occupancy
  Y  Y0  1  0.50000001  0.58945403  0.58945403  1
  Sc  Sc1  1  0.50000001  1.00000006  0.41054606  1
  Y  Y2  1  0.50000001  0.41054602  0.00000003  1
  Cu  Cu3  1  -0.00000000  0.25330201  0.25330201  1
  Cu  Cu4  1  1.00000003  0.00000000  0.74669799  1
  Sb  Sb5  1  -0.00000000  0.74669804  0.00000005  1
  S  S6  1  0.50000001  0.00000000  -0.00000000  1
  S  S7  1  -0.00000000  0.66666670  0.33333337  1
  S  S8  1  -0.00000000  0.33333335  0.66666668  1
