# generated using pymatgen
data_NaSrLi2NiRuO4
_symmetry_space_group_name_H-M   'P 1'
_cell_length_a   3.84785795
_cell_length_b   5.58062124
_cell_length_c   6.76024818
_cell_angle_alpha   90.00000000
_cell_angle_beta   90.00000000
_cell_angle_gamma   110.16664124
_symmetry_Int_Tables_number   1
_chemical_formula_structural   NaSrLi2NiRuO4
_chemical_formula_sum   'Na1 Sr1 Li2 Ni1 Ru1 O4'
_cell_volume   136.26622239
_cell_formula_units_Z   1
loop_
 _symmetry_equiv_pos_site_id
 _symmetry_equiv_pos_as_xyz
  1  'x, y, z'
loop_
 _atom_site_type_symbol
 _atom_site_label
 _atom_site_symmetry_multiplicity
 _atom_site_fract_x
 _atom_site_fract_y
 _atom_site_fract_z
 _atom_site_occupancy
  Li  Li0  1  0.44724695  0.89449398  0.74999998  1
  Sr  Sr1  1  0.55275300  0.10550600  0.24999999  1
  Na  Na2  1  0.16548698  0.33097399  0.93640097  1
  Li  Li3  1  0.83451297  0.66902598  0.06359900  1
  O  O4  1  0.83451297  0.66902598  0.43640099  1
  O  O5  1  0.16548698  0.33097399  0.56359898  1
  O  O6  1  0.72849498  0.45698999  0.74999998  1
  Ru  Ru7  1  0.27150497  0.54300999  0.24999999  1
  O  O8  1  0.00000000  0.00000000  0.00000000  1
  Ni  Ni9  1  0.00000000  0.00000000  0.49999999  1
