# generated using pymatgen
data_ErMnAl6(FeSi3)2
_symmetry_space_group_name_H-M   'P 1'
_cell_length_a   3.94716597
_cell_length_b   5.34184456
_cell_length_c   12.89573765
_cell_angle_alpha   90.00000000
_cell_angle_beta   90.00000000
_cell_angle_gamma   111.68214417
_symmetry_Int_Tables_number   1
_chemical_formula_structural   ErMnAl6(FeSi3)2
_chemical_formula_sum   'Er1 Mn1 Al6 Fe2 Si6'
_cell_volume   252.67038605
_cell_formula_units_Z   1
loop_
 _symmetry_equiv_pos_site_id
 _symmetry_equiv_pos_as_xyz
  1  'x, y, z'
loop_
 _atom_site_type_symbol
 _atom_site_label
 _atom_site_symmetry_multiplicity
 _atom_site_fract_x
 _atom_site_fract_y
 _atom_site_fract_z
 _atom_site_occupancy
  Mn  Mn0  1  0.36112397  0.72224799  0.25000001  1
  Er  Er1  1  0.08051099  0.16102200  0.38731001  1
  Al  Al2  1  0.08051099  0.16102200  0.11269000  1
  Al  Al3  1  0.91948897  0.83897799  0.88731002  1
  Al  Al4  1  0.63887599  0.27775200  0.75000002  1
  Al  Al5  1  0.91948897  0.83897799  0.61269002  1
  Al  Al6  1  0.21430298  0.42860599  0.91785803  1
  Al  Al7  1  0.78569698  0.57139399  0.41785801  1
  Fe  Fe8  1  0.21430298  0.42860599  0.58214202  1
  Fe  Fe9  1  0.78569698  0.57139399  0.08214200  1
  Si  Si10  1  0.32858197  0.65716399  0.75000002  1
  Si  Si11  1  0.61686899  0.23373800  0.54059901  1
  Si  Si12  1  0.61686899  0.23373800  0.95940103  1
  Si  Si13  1  0.38313097  0.76626199  0.45940101  1
  Si  Si14  1  0.67141799  0.34283600  0.25000001  1
  Si  Si15  1  0.38313097  0.76626199  0.04059900  1
