# generated using pymatgen
data_MnAl13Ga2
_symmetry_space_group_name_H-M   'P 1'
_cell_length_a   5.04131699
_cell_length_b   7.37326336
_cell_length_c   7.37326336
_cell_angle_alpha   82.72902679
_cell_angle_beta   70.00948334
_cell_angle_gamma   70.00948334
_symmetry_Int_Tables_number   1
_chemical_formula_structural   MnAl13Ga2
_chemical_formula_sum   'Mn1 Al13 Ga2'
_cell_volume   242.02559465
_cell_formula_units_Z   1
loop_
 _symmetry_equiv_pos_site_id
 _symmetry_equiv_pos_as_xyz
  1  'x, y, z'
loop_
 _atom_site_type_symbol
 _atom_site_label
 _atom_site_symmetry_multiplicity
 _atom_site_fract_x
 _atom_site_fract_y
 _atom_site_fract_z
 _atom_site_occupancy
  Mn  Mn0  1  0.57888100  0.14755499  0.69468200  1
  Al  Al1  1  0.42111906  0.85244497  0.30531798  1
  Al  Al2  1  0.07888106  0.69468197  0.14755498  1
  Al  Al3  1  0.92111901  0.30531799  0.85244500  1
  Al  Al4  1  0.74999999  0.00000000  0.00000002  1
  Al  Al5  1  0.25000000  0.00000000  0.00000001  1
  Al  Al6  1  0.66528803  0.49846098  0.17096400  1
  Ga  Ga7  1  0.33471204  0.50153898  0.82903597  1
  Al  Al8  1  0.16528801  0.17096399  0.49846099  1
  Ga  Ga9  1  0.83471206  0.82903597  0.50153899  1
  Al  Al10  1  0.28105502  0.29469299  0.14319600  1
  Al  Al11  1  0.71894505  0.70530697  0.85680398  1
  Al  Al12  1  0.21894507  0.85680397  0.70530696  1
  Al  Al13  1  0.78105500  0.14319599  0.29469301  1
  Al  Al14  1  0.75000003  0.49999998  0.50000000  1
  Al  Al15  1  0.25000004  0.49999998  0.49999998  1
