# generated using pymatgen
data_ErAl7Si4
_symmetry_space_group_name_H-M   'P 1'
_cell_length_a   5.04447126
_cell_length_b   5.04695654
_cell_length_c   8.23680496
_cell_angle_alpha   90.00000000
_cell_angle_beta   90.00000000
_cell_angle_gamma   119.51377869
_symmetry_Int_Tables_number   1
_chemical_formula_structural   ErAl7Si4
_chemical_formula_sum   'Er1 Al7 Si4'
_cell_volume   182.49109179
_cell_formula_units_Z   1
loop_
 _symmetry_equiv_pos_site_id
 _symmetry_equiv_pos_as_xyz
  1  'x, y, z'
loop_
 _atom_site_type_symbol
 _atom_site_label
 _atom_site_symmetry_multiplicity
 _atom_site_fract_x
 _atom_site_fract_y
 _atom_site_fract_z
 _atom_site_occupancy
  Er  Er0  1  0.33547100  0.66486499  0.55233000  1
  Al  Al1  1  0.67096702  0.32899099  0.42745800  1
  Al  Al2  1  0.67096702  0.32899099  0.07254200  1
  Al  Al3  1  0.33547100  0.66486499  0.94767000  1
  Al  Al4  1  0.99345804  0.00659100  0.49056500  1
  Al  Al5  1  0.99345804  0.00659100  0.00943500  1
  Al  Al6  1  0.34414301  0.16642700  0.75000000  1
  Al  Al7  1  0.83357202  0.65506199  0.75000000  1
  Si  Si8  1  0.83291303  0.16562300  0.75000000  1
  Si  Si9  1  0.64970301  0.82995599  0.25000000  1
  Si  Si10  1  0.17076700  0.35087699  0.25000000  1
  Si  Si11  1  0.16911100  0.83115999  0.25000000  1
