# generated using pymatgen
data_Mn3Fe(SiNi)2
_symmetry_space_group_name_H-M   'P 1'
_cell_length_a   3.25082493
_cell_length_b   5.61024714
_cell_length_c   6.37541008
_cell_angle_alpha   89.98961639
_cell_angle_beta   90.00000000
_cell_angle_gamma   90.00000000
_symmetry_Int_Tables_number   1
_chemical_formula_structural   Mn3Fe(SiNi)2
_chemical_formula_sum   'Mn3 Fe1 Si2 Ni2'
_cell_volume   116.27428876
_cell_formula_units_Z   1
loop_
 _symmetry_equiv_pos_site_id
 _symmetry_equiv_pos_as_xyz
  1  'x, y, z'
loop_
 _atom_site_type_symbol
 _atom_site_label
 _atom_site_symmetry_multiplicity
 _atom_site_fract_x
 _atom_site_fract_y
 _atom_site_fract_z
 _atom_site_occupancy
  Mn  Mn0  1  0.50000001  0.49999999  0.49999997  1
  Mn  Mn1  1  0.00000000  0.00000000  0.00000000  1
  Mn  Mn2  1  0.50000001  0.49999999  -0.00000003  1
  Fe  Fe3  1  0.00000000  0.00000000  0.50000000  1
  Si  Si4  1  0.50000001  0.83702398  0.25411295  1
  Ni  Ni5  1  -0.00000000  0.33029099  0.25251298  1
  Ni  Ni6  1  -0.00000000  0.66970898  0.74748697  1
  Si  Si7  1  0.50000001  0.16297600  0.74588699  1
