# generated using pymatgen
data_KNaBr2Cl7O9
_symmetry_space_group_name_H-M   'P 1'
_cell_length_a   6.54360008
_cell_length_b   6.54360008
_cell_length_c   9.45204926
_cell_angle_alpha   90.00000000
_cell_angle_beta   90.00000000
_cell_angle_gamma   90.00000000
_symmetry_Int_Tables_number   1
_chemical_formula_structural   KNaBr2Cl7O9
_chemical_formula_sum   'K1 Na1 Br2 Cl7 O9'
_cell_volume   404.72448072
_cell_formula_units_Z   1
loop_
 _symmetry_equiv_pos_site_id
 _symmetry_equiv_pos_as_xyz
  1  'x, y, z'
loop_
 _atom_site_type_symbol
 _atom_site_label
 _atom_site_symmetry_multiplicity
 _atom_site_fract_x
 _atom_site_fract_y
 _atom_site_fract_z
 _atom_site_occupancy
  Na  Na0  1  0.00000000  0.00000000  0.00000000  1
  Cl  Cl1  1  0.49999999  0.49999999  0.49999999  1
  K  K2  1  0.00000000  0.49999999  0.24999999  1
  Cl  Cl3  1  0.00000000  0.49999999  0.74999998  1
  Cl  Cl4  1  0.49999999  0.00000000  0.24999999  1
  Cl  Cl5  1  0.49999999  0.00000000  0.74999998  1
  Cl  Cl6  1  0.00000000  0.00000000  0.49999999  1
  Cl  Cl7  1  0.49999999  0.49999999  0.00000000  1
  Br  Br8  1  0.14167900  0.27810000  0.00000000  1
  O  O9  1  0.85832099  0.72189999  -0.00000000  1
  O  O10  1  0.72189999  0.14167900  0.00000000  1
  O  O11  1  0.35832100  0.77809999  0.49999999  1
  O  O12  1  0.27810000  0.85832099  0.00000000  1
  O  O13  1  0.64167899  0.22190000  0.49999999  1
  O  O14  1  0.77809999  0.64167899  0.49999999  1
  Cl  Cl15  1  0.22190000  0.35832100  0.49999999  1
  O  O16  1  0.00000000  0.00000000  0.21596399  1
  O  O17  1  0.00000000  0.00000000  0.78403598  1
  Br  Br18  1  0.49999999  0.49999999  0.28403599  1
  O  O19  1  0.49999999  0.49999999  0.71596398  1
