# generated using pymatgen
data_Li2MgZn2(CuGe2)2
_symmetry_space_group_name_H-M   'P 1'
_cell_length_a   4.15883017
_cell_length_b   6.55806589
_cell_length_c   7.90366650
_cell_angle_alpha   114.51143646
_cell_angle_beta   105.25378418
_cell_angle_gamma   90.00000000
_symmetry_Int_Tables_number   1
_chemical_formula_structural   Li2MgZn2(CuGe2)2
_chemical_formula_sum   'Li2 Mg1 Zn2 Cu2 Ge4'
_cell_volume   187.75829493
_cell_formula_units_Z   1
loop_
 _symmetry_equiv_pos_site_id
 _symmetry_equiv_pos_as_xyz
  1  'x, y, z'
loop_
 _atom_site_type_symbol
 _atom_site_label
 _atom_site_symmetry_multiplicity
 _atom_site_fract_x
 _atom_site_fract_y
 _atom_site_fract_z
 _atom_site_occupancy
  Li  Li0  1  0.12997398  0.12997400  0.25994799  1
  Li  Li1  1  0.87002590  0.87002599  0.74005193  1
  Mg  Mg2  1  -0.00000003  0.49999999  -0.00000003  1
  Cu  Cu3  1  0.66803093  0.47792399  0.33606195  1
  Zn  Zn4  1  0.33196797  0.14186100  0.66393699  1
  Cu  Cu5  1  0.66803191  0.85813899  0.33606293  1
  Zn  Zn6  1  0.33196895  0.52207599  0.66393796  1
  Ge  Ge7  1  0.49999996  0.18410300  0.99999998  1
  Ge  Ge8  1  0.49999992  0.81589699  -0.00000006  1
  Ge  Ge9  1  0.21590894  0.71590899  0.43181795  1
  Ge  Ge10  1  0.78409094  0.28409100  0.56818196  1
