# generated using pymatgen
data_Li4Ni3P
_symmetry_space_group_name_H-M   'P 1'
_cell_length_a   4.02080584
_cell_length_b   4.09571123
_cell_length_c   8.56241322
_cell_angle_alpha   90.00000000
_cell_angle_beta   103.57947540
_cell_angle_gamma   90.00000000
_symmetry_Int_Tables_number   1
_chemical_formula_structural   Li4Ni3P
_chemical_formula_sum   'Li4 Ni3 P1'
_cell_volume   137.06452348
_cell_formula_units_Z   1
loop_
 _symmetry_equiv_pos_site_id
 _symmetry_equiv_pos_as_xyz
  1  'x, y, z'
loop_
 _atom_site_type_symbol
 _atom_site_label
 _atom_site_symmetry_multiplicity
 _atom_site_fract_x
 _atom_site_fract_y
 _atom_site_fract_z
 _atom_site_occupancy
  Li  Li0  1  0.66362302  0.24999999  0.32724597  1
  Li  Li1  1  0.33637701  0.74999996  0.67275397  1
  Li  Li2  1  0.93842602  0.24999999  0.87685194  1
  Li  Li3  1  0.06157400  0.74999996  0.12314799  1
  Ni  Ni4  1  0.17569400  0.74999996  0.35138798  1
  Ni  Ni5  1  0.05181400  0.24999999  0.10362799  1
  P  P6  1  0.82430602  0.24999999  0.64861195  1
  Ni  Ni7  1  0.94818603  0.74999996  0.89637194  1
