# generated using pymatgen
data_YMg3(Cu4Ge3)2
_symmetry_space_group_name_H-M   'P 1'
_cell_length_a   5.03474903
_cell_length_b   5.03474951
_cell_length_c   12.54537487
_cell_angle_alpha   78.42434692
_cell_angle_beta   78.42434692
_cell_angle_gamma   59.99999619
_symmetry_Int_Tables_number   1
_chemical_formula_structural   YMg3(Cu4Ge3)2
_chemical_formula_sum   'Y1 Mg3 Cu8 Ge6'
_cell_volume   267.90906185
_cell_formula_units_Z   1
loop_
 _symmetry_equiv_pos_site_id
 _symmetry_equiv_pos_as_xyz
  1  'x, y, z'
loop_
 _atom_site_type_symbol
 _atom_site_label
 _atom_site_symmetry_multiplicity
 _atom_site_fract_x
 _atom_site_fract_y
 _atom_site_fract_z
 _atom_site_occupancy
  Y  Y0  1  0.05047600  0.05047600  0.84857099  1
  Mg  Mg1  1  0.94952399  0.94952404  0.15142896  1
  Mg  Mg2  1  0.14747700  0.14747701  0.55756799  1
  Mg  Mg3  1  0.85252299  0.85252304  0.44243196  1
  Cu  Cu4  1  0.49999999  0.50000002  0.49999998  1
  Cu  Cu5  1  0.27842600  0.27842601  0.16472099  1
  Ge  Ge6  1  0.72157399  0.72157403  0.83527896  1
  Cu  Cu7  1  0.38804199  0.38804202  0.83587398  1
  Cu  Cu8  1  0.61195799  0.61195803  0.16412597  1
  Ge  Ge9  1  0.49999998  1.00000005  -0.00000003  1
  Ge  Ge10  1  -0.00000001  0.50000002  -0.00000001  1
  Ge  Ge11  1  0.49999999  0.50000002  0.99999997  1
  Cu  Cu12  1  0.60854499  0.60854503  0.67422897  1
  Ge  Ge13  1  0.60854500  0.10868201  0.67422898  1
  Ge  Ge14  1  0.10868199  0.60854503  0.67422898  1
  Cu  Cu15  1  0.39145499  0.39145502  0.32577098  1
  Cu  Cu16  1  0.39145499  0.89131804  0.32577097  1
  Cu  Cu17  1  0.89131800  0.39145502  0.32577097  1
