# generated using pymatgen
data_Li4Cu3O13
_symmetry_space_group_name_H-M   'P 1'
_cell_length_a   5.39140749
_cell_length_b   6.66562128
_cell_length_c   6.66562128
_cell_angle_alpha   84.00466919
_cell_angle_beta   74.81429291
_cell_angle_gamma   74.81429291
_symmetry_Int_Tables_number   1
_chemical_formula_structural   Li4Cu3O13
_chemical_formula_sum   'Li4 Cu3 O13'
_cell_volume   222.94109797
_cell_formula_units_Z   1
loop_
 _symmetry_equiv_pos_site_id
 _symmetry_equiv_pos_as_xyz
  1  'x, y, z'
loop_
 _atom_site_type_symbol
 _atom_site_label
 _atom_site_symmetry_multiplicity
 _atom_site_fract_x
 _atom_site_fract_y
 _atom_site_fract_z
 _atom_site_occupancy
  Li  Li0  1  0.50000002  0.25349699  0.74650299  1
  Li  Li1  1  0.00000007  0.75173597  0.24826395  1
  Li  Li2  1  0.50000008  0.89712396  0.10287598  1
  Li  Li3  1  0.00000001  0.10767000  0.89232997  1
  Cu  Cu4  1  0.47864803  0.38328998  0.20883400  1
  Cu  Cu5  1  0.97458900  0.20760299  0.38617903  1
  Cu  Cu6  1  0.52135207  0.79116597  0.61670997  1
  O  O7  1  0.02541106  0.61382097  0.79239695  1
  O  O8  1  0.60417601  0.20563499  0.02933402  1
  O  O9  1  0.08817100  0.03416000  0.20308500  1
  O  O10  1  0.41193505  0.62063297  0.11937799  1
  O  O11  1  0.68919102  0.35448698  0.35548901  1
  O  O12  1  0.91186700  0.11791099  0.62533303  1
  O  O13  1  0.19439003  0.34650798  0.35262398  1
  O  O14  1  0.31080906  0.64451097  0.64551296  1
  O  O15  1  0.58806508  0.88062196  0.37936697  1
  O  O16  1  0.80561005  0.64737597  0.65349199  1
  O  O17  1  0.08813304  0.37466698  0.88208896  1
  O  O18  1  0.39582409  0.97066596  0.79436495  1
  O  O19  1  0.91182906  0.79691397  0.96583998  1
