# generated using pymatgen
data_H2O
_symmetry_space_group_name_H-M   'P 1'
_cell_length_a   4.16381884
_cell_length_b   4.45195055
_cell_length_c   4.45195055
_cell_angle_alpha   70.84967041
_cell_angle_beta   62.11878967
_cell_angle_gamma   62.11878967
_symmetry_Int_Tables_number   1
_chemical_formula_structural   H2O
_chemical_formula_sum   'H2 O1'
_cell_volume   63.84412633
_cell_formula_units_Z   1
loop_
 _symmetry_equiv_pos_site_id
 _symmetry_equiv_pos_as_xyz
  1  'x, y, z'
loop_
 _atom_site_type_symbol
 _atom_site_label
 _atom_site_symmetry_multiplicity
 _atom_site_fract_x
 _atom_site_fract_y
 _atom_site_fract_z
 _atom_site_occupancy
  H  H0  1  0.00000000  0.00000000  0.00000000  1
  H  H1  1  0.50000003  0.38494301  0.61505698  1
  O  O2  1  0.50000003  0.61505702  0.38494296  1
