# generated using pymatgen
data_HfMnAlSiRh5
_symmetry_space_group_name_H-M   'P 1'
_cell_length_a   2.82085109
_cell_length_b   7.32528019
_cell_length_c   7.32527971
_cell_angle_alpha   120.00000000
_cell_angle_beta   90.00000000
_cell_angle_gamma   90.00000000
_symmetry_Int_Tables_number   1
_chemical_formula_structural   HfMnAlSiRh5
_chemical_formula_sum   'Hf1 Mn1 Al1 Si1 Rh5'
_cell_volume   131.08688568
_cell_formula_units_Z   1
loop_
 _symmetry_equiv_pos_site_id
 _symmetry_equiv_pos_as_xyz
  1  'x, y, z'
loop_
 _atom_site_type_symbol
 _atom_site_label
 _atom_site_symmetry_multiplicity
 _atom_site_fract_x
 _atom_site_fract_y
 _atom_site_fract_z
 _atom_site_occupancy
  Mn  Mn0  1  0.99999997  0.63312197  0.63312195  1
  Hf  Hf1  1  -0.00000000  0.99999995  0.36687794  1
  Al  Al2  1  0.99999997  0.36687798  -0.00000002  1
  Si  Si3  1  0.00000000  0.00000000  0.00000000  1
  Rh  Rh4  1  0.49999998  0.68631497  -0.00000003  1
  Rh  Rh5  1  0.49999998  0.00000000  0.68631498  1
  Rh  Rh6  1  0.49999998  0.31368498  0.31368498  1
  Rh  Rh7  1  0.49999998  0.66666663  0.33333329  1
  Rh  Rh8  1  0.49999998  0.33333332  0.66666663  1
