# generated using pymatgen
data_LiEr2Mg2Ga3Ge4
_symmetry_space_group_name_H-M   'P 1'
_cell_length_a   4.45399141
_cell_length_b   7.40475512
_cell_length_c   8.51335430
_cell_angle_alpha   89.92591095
_cell_angle_beta   104.52853394
_cell_angle_gamma   89.94079590
_symmetry_Int_Tables_number   1
_chemical_formula_structural   LiEr2Mg2Ga3Ge4
_chemical_formula_sum   'Li1 Er2 Mg2 Ga3 Ge4'
_cell_volume   271.79758438
_cell_formula_units_Z   1
loop_
 _symmetry_equiv_pos_site_id
 _symmetry_equiv_pos_as_xyz
  1  'x, y, z'
loop_
 _atom_site_type_symbol
 _atom_site_label
 _atom_site_symmetry_multiplicity
 _atom_site_fract_x
 _atom_site_fract_y
 _atom_site_fract_z
 _atom_site_occupancy
  Er  Er0  1  0.87686230  0.25320899  0.74560032  1
  Li  Li1  1  0.12588641  0.75259535  0.25493598  1
  Er  Er2  1  0.06977923  0.24866913  0.14056419  1
  Mg  Mg3  1  0.68314106  0.45466499  0.37162824  1
  Mg  Mg4  1  0.93064340  0.75166408  0.85863816  1
  Ga  Ga5  1  0.68476918  0.05059332  0.37313933  1
  Ga  Ga6  1  0.31398036  0.55035289  0.62600912  1
  Ga  Ga7  1  0.50165146  0.00197495  0.99866655  1
  Ge  Ge8  1  0.49955752  0.50328189  0.99978883  1
  Ge  Ge9  1  0.31370409  0.95489153  0.62671359  1
  Ge  Ge10  1  0.22538671  0.25294872  0.45585780  1
  Ge  Ge11  1  0.77089608  0.75197622  0.54311611  1
