# generated using pymatgen
data_SrLi3Cu2
_symmetry_space_group_name_H-M   'P 1'
_cell_length_a   4.33422709
_cell_length_b   4.33422709
_cell_length_c   7.02727318
_cell_angle_alpha   90.00000000
_cell_angle_beta   90.00000000
_cell_angle_gamma   90.00000000
_symmetry_Int_Tables_number   1
_chemical_formula_structural   SrLi3Cu2
_chemical_formula_sum   'Sr1 Li3 Cu2'
_cell_volume   132.01101193
_cell_formula_units_Z   1
loop_
 _symmetry_equiv_pos_site_id
 _symmetry_equiv_pos_as_xyz
  1  'x, y, z'
loop_
 _atom_site_type_symbol
 _atom_site_label
 _atom_site_symmetry_multiplicity
 _atom_site_fract_x
 _atom_site_fract_y
 _atom_site_fract_z
 _atom_site_occupancy
  Li  Li0  1  0.49999999  0.00000000  0.65989898  1
  Sr  Sr1  1  0.00000000  0.49999999  0.34010099  1
  Li  Li2  1  0.49999999  0.49999999  0.00000000  1
  Li  Li3  1  0.00000000  0.00000000  0.00000000  1
  Cu  Cu4  1  0.49999999  0.00000000  0.18774600  1
  Cu  Cu5  1  0.00000000  0.49999999  0.81225398  1
