# generated using pymatgen
data_ErMnAl6FeCoSi2
_symmetry_space_group_name_H-M   'P 1'
_cell_length_a   5.04734993
_cell_length_b   5.05783463
_cell_length_c   7.92829180
_cell_angle_alpha   90.00000000
_cell_angle_beta   90.00000000
_cell_angle_gamma   119.93144989
_symmetry_Int_Tables_number   1
_chemical_formula_structural   ErMnAl6FeCoSi2
_chemical_formula_sum   'Er1 Mn1 Al6 Fe1 Co1 Si2'
_cell_volume   175.40334664
_cell_formula_units_Z   1
loop_
 _symmetry_equiv_pos_site_id
 _symmetry_equiv_pos_as_xyz
  1  'x, y, z'
loop_
 _atom_site_type_symbol
 _atom_site_label
 _atom_site_symmetry_multiplicity
 _atom_site_fract_x
 _atom_site_fract_y
 _atom_site_fract_z
 _atom_site_occupancy
  Er  Er0  1  0.66620901  0.33241802  0.81821302  1
  Al  Al1  1  0.33445001  0.66890003  0.68513702  1
  Al  Al2  1  0.33445001  0.66890003  0.31486301  1
  Mn  Mn3  1  0.66620901  0.33241802  0.18178700  1
  Al  Al4  1  0.17114800  0.34229602  -0.00000000  1
  Al  Al5  1  0.82988701  0.17136801  0.50000001  1
  Co  Co6  1  0.34148101  0.17136801  0.50000001  1
  Al  Al7  1  0.82906202  0.65812403  0.50000001  1
  Al  Al8  1  0.99906602  0.99813205  0.75121602  1
  Fe  Fe9  1  0.99906602  0.99813205  0.24878401  1
  Si  Si10  1  0.17003901  0.82881604  -0.00000000  1
  Si  Si11  1  0.65877701  0.82881604  -0.00000000  1
