# generated using pymatgen
data_TbErLuHfZrScSnGePd5Au
_symmetry_space_group_name_H-M   'P 1'
_cell_length_a   7.44643450
_cell_length_b   7.44643450
_cell_length_c   7.44643450
_cell_angle_alpha   109.47122192
_cell_angle_beta   109.47122192
_cell_angle_gamma   109.47122192
_symmetry_Int_Tables_number   1
_chemical_formula_structural   TbErLuHfZrScSnGePd5Au
_chemical_formula_sum   'Tb1 Er1 Lu1 Hf1 Zr1 Sc1 Sn1 Ge1 Pd5 Au1'
_cell_volume   317.85072718
_cell_formula_units_Z   1
loop_
 _symmetry_equiv_pos_site_id
 _symmetry_equiv_pos_as_xyz
  1  'x, y, z'
loop_
 _atom_site_type_symbol
 _atom_site_label
 _atom_site_symmetry_multiplicity
 _atom_site_fract_x
 _atom_site_fract_y
 _atom_site_fract_z
 _atom_site_occupancy
  Er  Er0  1  0.87500002  0.12500001  0.75000003  1
  Hf  Hf1  1  0.62500003  0.37500002  0.25000004  1
  Zr  Zr2  1  0.12500002  0.25000001  0.37500002  1
  Tb  Tb3  1  0.37500005  0.75000004  0.12500005  1
  Lu  Lu4  1  0.75000005  0.62500003  0.87500006  1
  Sc  Sc5  1  0.25000006  0.87500004  0.62500006  1
  Ge  Ge6  1  1.00000005  0.50000002  0.64538906  1
  Sn  Sn7  1  0.35461103  0.35461102  0.85461104  1
  Pd  Pd8  1  0.50000002  0.14538901  0.50000002  1
  Pd  Pd9  1  0.14538907  1.00000005  1.00000007  1
  Pd  Pd10  1  0.85461107  0.85461104  0.35461107  1
  Pd  Pd11  1  1.00000005  0.50000002  0.14538905  1
  Pd  Pd12  1  0.50000005  0.64538903  0.50000005  1
  Au  Au13  1  0.64538907  1.00000005  1.00000008  1
