# generated using pymatgen
data_BaNa3SrTi(CuO6)2
_symmetry_space_group_name_H-M   'P 1'
_cell_length_a   5.93640232
_cell_length_b   5.95565701
_cell_length_c   8.47521591
_cell_angle_alpha   89.88108826
_cell_angle_beta   89.85515594
_cell_angle_gamma   90.78342438
_symmetry_Int_Tables_number   1
_chemical_formula_structural   BaNa3SrTi(CuO6)2
_chemical_formula_sum   'Ba1 Na3 Sr1 Ti1 Cu2 O12'
_cell_volume   299.61311615
_cell_formula_units_Z   1
loop_
 _symmetry_equiv_pos_site_id
 _symmetry_equiv_pos_as_xyz
  1  'x, y, z'
loop_
 _atom_site_type_symbol
 _atom_site_label
 _atom_site_symmetry_multiplicity
 _atom_site_fract_x
 _atom_site_fract_y
 _atom_site_fract_z
 _atom_site_occupancy
  Na  Na0  1  0.00422744  0.02071115  0.74943367  1
  Ba  Ba1  1  0.99577254  0.97928882  0.25056633  1
  Sr  Sr2  1  0.49895568  0.53245806  0.74846165  1
  Na  Na3  1  0.50104430  0.46754191  0.25153835  1
  Na  Na4  1  0.49999998  0.00000000  -0.00000000  1
  Ti  Ti5  1  0.00000001  0.49999999  0.50000000  1
  Cu  Cu6  1  0.00000001  0.49999999  0.00000000  1
  Cu  Cu7  1  0.49999998  0.00000000  0.50000000  1
  O  O8  1  0.79335070  0.24110050  0.03335303  1
  O  O9  1  0.69854697  0.72541405  0.46117932  1
  O  O10  1  0.20664928  0.75889947  0.96664697  1
  O  O11  1  0.30145301  0.27458592  0.53882068  1
  O  O12  1  0.72836267  0.70136213  0.03879142  1
  O  O13  1  0.75945408  0.20892933  0.47195599  1
  O  O14  1  0.27163730  0.29863784  0.96120858  1
  O  O15  1  0.24054590  0.79107064  0.52804401  1
  O  O16  1  0.55198327  0.97113430  0.73786503  1
  O  O17  1  0.91919990  0.50014264  0.76300301  1
  O  O18  1  0.44801671  0.02886567  0.26213497  1
  O  O19  1  0.08080008  0.49985734  0.23699699  1
