# generated using pymatgen
data_Na5LiMn2O12
_symmetry_space_group_name_H-M   'P 1'
_cell_length_a   5.53011322
_cell_length_b   5.60654020
_cell_length_c   7.85578823
_cell_angle_alpha   90.00000000
_cell_angle_beta   90.00000000
_cell_angle_gamma   90.00000000
_symmetry_Int_Tables_number   1
_chemical_formula_structural   Na5LiMn2O12
_chemical_formula_sum   'Na5 Li1 Mn2 O12'
_cell_volume   243.56715941
_cell_formula_units_Z   1
loop_
 _symmetry_equiv_pos_site_id
 _symmetry_equiv_pos_as_xyz
  1  'x, y, z'
loop_
 _atom_site_type_symbol
 _atom_site_label
 _atom_site_symmetry_multiplicity
 _atom_site_fract_x
 _atom_site_fract_y
 _atom_site_fract_z
 _atom_site_occupancy
  Na  Na0  1  0.25864799  0.53865298  0.00000000  1
  Na  Na1  1  0.74135197  0.03865300  0.00000000  1
  Na  Na2  1  0.24207599  0.44971598  0.49999999  1
  Na  Na3  1  0.75792397  0.94971597  0.49999999  1
  Na  Na4  1  0.74888497  0.49904298  0.74549198  1
  Li  Li5  1  0.25111499  0.99904296  0.25450799  1
  Mn  Mn6  1  0.74888497  0.49904298  0.25450799  1
  Mn  Mn7  1  0.25111499  0.99904296  0.74549198  1
  O  O8  1  0.54543898  0.79325997  0.78091398  1
  O  O9  1  0.45456098  0.29325999  0.21908599  1
  O  O10  1  0.95402796  0.20526299  0.29879199  1
  O  O11  1  0.04597200  0.70526297  0.70120798  1
  O  O12  1  0.95402796  0.20526299  0.70120798  1
  O  O13  1  0.04597200  0.70526297  0.29879199  1
  O  O14  1  0.54543898  0.79325997  0.21908599  1
  O  O15  1  0.45456098  0.29325999  0.78091398  1
  O  O16  1  0.18329299  0.99185896  0.00000000  1
  O  O17  1  0.81670697  0.49185898  0.00000000  1
  O  O18  1  0.33856799  0.02464000  0.49999999  1
  O  O19  1  0.66143197  0.52463998  0.49999999  1
