# generated using pymatgen
data_K4RbSrPmCl
_symmetry_space_group_name_H-M   'P 1'
_cell_length_a   4.10335779
_cell_length_b   11.49968433
_cell_length_c   11.49968433
_cell_angle_alpha   120.00000000
_cell_angle_beta   90.00000000
_cell_angle_gamma   90.00000000
_symmetry_Int_Tables_number   1
_chemical_formula_structural   K4RbSrPmCl
_chemical_formula_sum   'Rb1 K4 Sr1 Pm1 Cl1'
_cell_volume   469.93939870
_cell_formula_units_Z   1
loop_
 _symmetry_equiv_pos_site_id
 _symmetry_equiv_pos_as_xyz
  1  'x, y, z'
loop_
 _atom_site_type_symbol
 _atom_site_label
 _atom_site_symmetry_multiplicity
 _atom_site_fract_x
 _atom_site_fract_y
 _atom_site_fract_z
 _atom_site_occupancy
  Pm  Pm0  1  0.25000001  0.66666666  0.33333335  1
  Sr  Sr1  1  0.75000004  0.33333333  0.66666668  1
  Rb  Rb2  1  0.75000004  0.78557599  0.21442402  1
  Cl  Cl3  1  0.75000004  0.42884799  0.21442401  1
  K  K4  1  0.75000004  0.78557599  0.57115203  1
  K  K5  1  0.25000001  0.21442400  0.78557601  1
  K  K6  1  0.25000001  0.57115199  0.78557602  1
  K  K7  1  0.25000001  0.21442400  0.42884801  1
