# generated using pymatgen
data_Dy2YErIn2SnPd2Au
_symmetry_space_group_name_H-M   'P 1'
_cell_length_a   3.80259204
_cell_length_b   7.77246714
_cell_length_c   7.77246714
_cell_angle_alpha   90.00000000
_cell_angle_beta   90.00000000
_cell_angle_gamma   90.00000000
_symmetry_Int_Tables_number   1
_chemical_formula_structural   Dy2YErIn2SnPd2Au
_chemical_formula_sum   'Dy2 Y1 Er1 In2 Sn1 Pd2 Au1'
_cell_volume   229.71932078
_cell_formula_units_Z   1
loop_
 _symmetry_equiv_pos_site_id
 _symmetry_equiv_pos_as_xyz
  1  'x, y, z'
loop_
 _atom_site_type_symbol
 _atom_site_label
 _atom_site_symmetry_multiplicity
 _atom_site_fract_x
 _atom_site_fract_y
 _atom_site_fract_z
 _atom_site_occupancy
  Er  Er0  1  0.49999999  0.32591599  0.82591599  1
  Dy  Dy1  1  0.49999999  0.82591599  0.67408399  1
  Y  Y2  1  0.49999999  0.17408400  0.32591599  1
  Dy  Dy3  1  0.49999999  0.67408399  0.17408400  1
  In  In4  1  0.00000000  0.00000000  0.00000000  1
  In  In5  1  0.00000000  0.49999999  0.49999999  1
  Pd  Pd6  1  0.00000000  0.37183999  0.12816000  1
  Sn  Sn7  1  0.00000000  0.87183998  0.37183999  1
  Pd  Pd8  1  0.00000000  0.12816000  0.62815999  1
  Au  Au9  1  0.00000000  0.62815999  0.87183998  1
