# generated using pymatgen
data_CaYAl2Ga2Si4NiGe
_symmetry_space_group_name_H-M   'P 1'
_cell_length_a   4.11039591
_cell_length_b   6.52962303
_cell_length_c   8.04996967
_cell_angle_alpha   90.00000000
_cell_angle_beta   104.79166412
_cell_angle_gamma   90.00000000
_symmetry_Int_Tables_number   1
_chemical_formula_structural   CaYAl2Ga2Si4NiGe
_chemical_formula_sum   'Ca1 Y1 Al2 Ga2 Si4 Ni1 Ge1'
_cell_volume   208.89586594
_cell_formula_units_Z   1
loop_
 _symmetry_equiv_pos_site_id
 _symmetry_equiv_pos_as_xyz
  1  'x, y, z'
loop_
 _atom_site_type_symbol
 _atom_site_label
 _atom_site_symmetry_multiplicity
 _atom_site_fract_x
 _atom_site_fract_y
 _atom_site_fract_z
 _atom_site_occupancy
  Y  Y0  1  0.88478303  0.75000000  0.76956600  1
  Ca  Ca1  1  0.11521700  0.25000000  0.23043400  1
  Al  Al2  1  0.50000001  1.00000000  0.00000001  1
  Al  Al3  1  0.50000001  0.50000000  0.00000001  1
  Si  Si4  1  0.07639900  0.75000000  0.15279800  1
  Ga  Ga5  1  0.92360103  0.25000000  0.84720200  1
  Ga  Ga6  1  0.68973502  0.94887400  0.37947001  1
  Si  Si7  1  0.31026501  0.05112600  0.62053000  1
  Ge  Ge8  1  0.68973502  0.55112600  0.37947001  1
  Si  Si9  1  0.31026501  0.44887400  0.62053000  1
  Ni  Ni10  1  0.22383601  0.75000000  0.44767200  1
  Si  Si11  1  0.77616402  0.25000000  0.55232800  1
