# generated using pymatgen
data_Li3CuBiO6
_symmetry_space_group_name_H-M   'P 1'
_cell_length_a   5.60284376
_cell_length_b   5.60284376
_cell_length_c   6.59856653
_cell_angle_alpha   65.61367035
_cell_angle_beta   65.61367035
_cell_angle_gamma   88.79949951
_symmetry_Int_Tables_number   1
_chemical_formula_structural   Li3CuBiO6
_chemical_formula_sum   'Li3 Cu1 Bi1 O6'
_cell_volume   169.01417363
_cell_formula_units_Z   1
loop_
 _symmetry_equiv_pos_site_id
 _symmetry_equiv_pos_as_xyz
  1  'x, y, z'
loop_
 _atom_site_type_symbol
 _atom_site_label
 _atom_site_symmetry_multiplicity
 _atom_site_fract_x
 _atom_site_fract_y
 _atom_site_fract_z
 _atom_site_occupancy
  Li  Li0  1  0.22295300  0.76217002  0.51374199  1
  Li  Li1  1  0.50152301  0.50152301  0.96651698  1
  Li  Li2  1  0.76217002  0.22295301  0.51374199  1
  Bi  Bi3  1  0.04161100  0.04161100  0.97632598  1
  Cu  Cu4  1  0.83393102  0.83393102  0.85389298  1
  O  O5  1  0.36743201  0.89355702  0.74894698  1
  O  O6  1  0.06527600  0.65378202  0.24384599  1
  O  O7  1  0.89355702  0.36743201  0.74894698  1
  O  O8  1  0.38798501  0.38798501  0.70905398  1
  O  O9  1  0.65378202  0.06527600  0.24384599  1
  O  O10  1  0.14478100  0.14478100  0.23114099  1
