# generated using pymatgen
data_CsKRbHS2N
_symmetry_space_group_name_H-M   'P 1'
_cell_length_a   4.30946016
_cell_length_b   4.30946016
_cell_length_c   14.11805058
_cell_angle_alpha   81.22107697
_cell_angle_beta   81.22107697
_cell_angle_gamma   59.99999619
_symmetry_Int_Tables_number   1
_chemical_formula_structural   CsKRbHS2N
_chemical_formula_sum   'Cs1 K1 Rb1 H1 S2 N1'
_cell_volume   223.51154513
_cell_formula_units_Z   1
loop_
 _symmetry_equiv_pos_site_id
 _symmetry_equiv_pos_as_xyz
  1  'x, y, z'
loop_
 _atom_site_type_symbol
 _atom_site_label
 _atom_site_symmetry_multiplicity
 _atom_site_fract_x
 _atom_site_fract_y
 _atom_site_fract_z
 _atom_site_occupancy
  K  K0  1  0.42954304  0.42954301  0.71137097  1
  Cs  Cs1  1  0.57347205  0.57347202  0.27958397  1
  Rb  Rb2  1  0.00201200  0.00201200  0.99396398  1
  N  N3  1  0.13023001  0.13023000  0.60930998  1
  H  H4  1  0.86583507  0.86583503  0.40249496  1
  S  S5  1  0.28863002  0.28863001  0.13410999  1
  S  S6  1  0.71027906  0.71027902  0.86916295  1
