# generated using pymatgen
data_LiFe3CuSi(P3C)3
_symmetry_space_group_name_H-M   'P 1'
_cell_length_a   6.48813581
_cell_length_b   7.18737221
_cell_length_c   7.18737125
_cell_angle_alpha   120.00000000
_cell_angle_beta   90.00000000
_cell_angle_gamma   90.00000000
_symmetry_Int_Tables_number   1
_chemical_formula_structural   LiFe3CuSi(P3C)3
_chemical_formula_sum   'Li1 Fe3 Cu1 Si1 P9 C3'
_cell_volume   290.26239761
_cell_formula_units_Z   1
loop_
 _symmetry_equiv_pos_site_id
 _symmetry_equiv_pos_as_xyz
  1  'x, y, z'
loop_
 _atom_site_type_symbol
 _atom_site_label
 _atom_site_symmetry_multiplicity
 _atom_site_fract_x
 _atom_site_fract_y
 _atom_site_fract_z
 _atom_site_occupancy
  Li  Li0  1  0.50000001  0.49999997  0.49999998  1
  Cu  Cu1  1  0.83333302  0.49999997  -0.00000003  1
  Fe  Fe2  1  0.16666700  0.00000000  0.50000001  1
  Fe  Fe3  1  0.66666669  0.00000000  0.50000001  1
  P  P4  1  1.00000003  0.49999997  0.49999998  1
  Fe  Fe5  1  0.33333334  0.49999997  -0.00000003  1
  P  P6  1  0.52000801  0.86306695  0.55417196  1
  P  P7  1  0.47999201  0.55417197  0.86306698  1
  P  P8  1  0.14665800  0.69110496  0.55417197  1
  C  C9  1  0.18667501  0.69110496  0.13693296  1
  P  P10  1  0.85334202  0.55417197  0.69110498  1
  Si  Si11  1  0.47999201  0.44582797  0.13693298  1
  C  C12  1  0.81332502  0.13693299  0.69110500  1
  P  P13  1  0.52000801  0.13693299  0.44582800  1
  P  P14  1  0.85334202  0.44582797  0.30889498  1
  C  C15  1  0.18667501  0.30889498  0.86306699  1
  P  P16  1  0.14665800  0.30889498  0.44582799  1
  P  P17  1  0.81332502  0.86306695  0.30889495  1
