# generated using pymatgen
data_NaLiCuO4
_symmetry_space_group_name_H-M   'P 1'
_cell_length_a   6.55948734
_cell_length_b   6.55948734
_cell_length_c   6.73428440
_cell_angle_alpha   104.89202118
_cell_angle_beta   104.89202118
_cell_angle_gamma   118.18412781
_symmetry_Int_Tables_number   1
_chemical_formula_structural   NaLiCuO4
_chemical_formula_sum   'Na2 Li2 Cu2 O8'
_cell_volume   221.13475278
_cell_formula_units_Z   2
loop_
 _symmetry_equiv_pos_site_id
 _symmetry_equiv_pos_as_xyz
  1  'x, y, z'
loop_
 _atom_site_type_symbol
 _atom_site_label
 _atom_site_symmetry_multiplicity
 _atom_site_fract_x
 _atom_site_fract_y
 _atom_site_fract_z
 _atom_site_occupancy
  Na  Na0  1  0.68206200  0.31793800  -0.00000001  1
  Li  Li1  1  0.31793804  0.68206201  0.00000000  1
  Na  Na2  1  0.56793801  0.43206200  0.50000001  1
  Li  Li3  1  0.93206198  0.06793800  0.50000000  1
  Cu  Cu4  1  0.00000000  0.00000000  0.00000000  1
  Cu  Cu5  1  0.25000004  0.75000001  0.50000001  1
  O  O6  1  0.96236098  0.16343600  0.83394200  1
  O  O7  1  0.32949400  0.12841900  0.16605800  1
  O  O8  1  0.83656398  0.03763900  0.16605799  1
  O  O9  1  0.87158102  0.67050601  0.83394201  1
  O  O10  1  0.28763903  0.58656401  0.66605801  1
  O  O11  1  0.92050602  0.62158101  0.33394200  1
  O  O12  1  0.37841899  0.07949400  0.66605801  1
  O  O13  1  0.41343604  0.71236101  0.33394201  1
