# generated using pymatgen
data_K3NaCu3SiS12
_symmetry_space_group_name_H-M   'P 1'
_cell_length_a   6.22439051
_cell_length_b   6.22439051
_cell_length_c   10.77368927
_cell_angle_alpha   73.57788086
_cell_angle_beta   73.57788086
_cell_angle_gamma   60.02843857
_symmetry_Int_Tables_number   1
_chemical_formula_structural   K3NaCu3SiS12
_chemical_formula_sum   'K3 Na1 Cu3 Si1 S12'
_cell_volume   341.77198855
_cell_formula_units_Z   1
loop_
 _symmetry_equiv_pos_site_id
 _symmetry_equiv_pos_as_xyz
  1  'x, y, z'
loop_
 _atom_site_type_symbol
 _atom_site_label
 _atom_site_symmetry_multiplicity
 _atom_site_fract_x
 _atom_site_fract_y
 _atom_site_fract_z
 _atom_site_occupancy
  Na  Na0  1  0.87081602  0.87081602  0.38026605  1
  K  K1  1  0.37257501  0.37257501  0.87567701  1
  K  K2  1  0.62742501  0.62742501  0.12432304  1
  K  K3  1  0.12918400  0.12918400  0.61973400  1
  Cu  Cu4  1  0.24923301  0.24923301  0.25109301  1
  Cu  Cu5  1  0.75076702  0.75076702  0.74890703  1
  Cu  Cu6  1  0.00000000  0.00000000  0.00000000  1
  S  S7  1  0.50000001  0.50000001  0.50000002  1
  Si  Si8  1  0.09363300  0.09363300  0.15794500  1
  S  S9  1  0.59408301  0.59408301  0.65636903  1
  S  S10  1  0.40591701  0.40591701  0.34363102  1
  S  S11  1  0.90636702  0.90636702  0.84205504  1
  S  S12  1  0.39279001  0.89184902  0.39202003  1
  S  S13  1  0.89196102  0.39310401  0.88972702  1
  S  S14  1  0.60689601  0.10803900  0.11027302  1
  S  S15  1  0.10815100  0.60721001  0.60798001  1
  S  S16  1  0.89184902  0.39279001  0.39202003  1
  S  S17  1  0.39310401  0.89196102  0.88972702  1
  S  S18  1  0.10803900  0.60689601  0.11027302  1
  S  S19  1  0.60721001  0.10815100  0.60798001  1
