# generated using pymatgen
data_CeEuYIn3(Sn2Au)2
_symmetry_space_group_name_H-M   'P 1'
_cell_length_a   4.40141010
_cell_length_b   4.40141010
_cell_length_c   20.47163773
_cell_angle_alpha   90.00000000
_cell_angle_beta   90.00000000
_cell_angle_gamma   120.00000000
_symmetry_Int_Tables_number   1
_chemical_formula_structural   CeEuYIn3(Sn2Au)2
_chemical_formula_sum   'Ce1 Eu1 Y1 In3 Sn4 Au2'
_cell_volume   343.45266544
_cell_formula_units_Z   1
loop_
 _symmetry_equiv_pos_site_id
 _symmetry_equiv_pos_as_xyz
  1  'x, y, z'
loop_
 _atom_site_type_symbol
 _atom_site_label
 _atom_site_symmetry_multiplicity
 _atom_site_fract_x
 _atom_site_fract_y
 _atom_site_fract_z
 _atom_site_occupancy
  Eu  Eu0  1  0.00000000  0.00000000  0.49999998  1
  Ce  Ce1  1  0.00000000  0.00000000  0.00000000  1
  Y  Y2  1  0.00000000  0.00000000  0.74999997  1
  In  In3  1  0.00000000  0.00000000  0.24999999  1
  In  In4  1  0.66666666  0.33333334  0.63499898  1
  In  In5  1  0.33333334  0.66666667  0.36500099  1
  Sn  Sn6  1  0.33333334  0.66666667  0.13499900  1
  Sn  Sn7  1  0.66666666  0.33333334  0.86500097  1
  Sn  Sn8  1  0.66666666  0.33333334  0.11628100  1
  Sn  Sn9  1  0.33333334  0.66666667  0.88371897  1
  Au  Au10  1  0.33333334  0.66666667  0.61628098  1
  Au  Au11  1  0.66666666  0.33333334  0.38371899  1
