# generated using pymatgen
data_Na2YTiCuBiTeO13
_symmetry_space_group_name_H-M   'P 1'
_cell_length_a   6.61703157
_cell_length_b   6.61703157
_cell_length_c   8.61429119
_cell_angle_alpha   90.00000000
_cell_angle_beta   90.00000000
_cell_angle_gamma   117.20075226
_symmetry_Int_Tables_number   1
_chemical_formula_structural   Na2YTiCuBiTeO13
_chemical_formula_sum   'Na2 Y1 Ti1 Cu1 Bi1 Te1 O13'
_cell_volume   335.46572306
_cell_formula_units_Z   1
loop_
 _symmetry_equiv_pos_site_id
 _symmetry_equiv_pos_as_xyz
  1  'x, y, z'
loop_
 _atom_site_type_symbol
 _atom_site_label
 _atom_site_symmetry_multiplicity
 _atom_site_fract_x
 _atom_site_fract_y
 _atom_site_fract_z
 _atom_site_occupancy
  Y  Y0  1  0.30746799  0.69253198  0.24999999  1
  Ti  Ti1  1  0.69253198  0.30746799  0.74999998  1
  Na  Na2  1  0.00000000  0.00000000  0.00000000  1
  Na  Na3  1  0.00000000  0.00000000  0.49999999  1
  Bi  Bi4  1  0.69082798  0.30917199  0.24999999  1
  Cu  Cu5  1  0.30917199  0.69082798  0.74999998  1
  O  O6  1  0.06524200  0.34995699  0.24999999  1
  Te  Te7  1  0.93475797  0.65004298  0.74999998  1
  O  O8  1  0.65004298  0.93475797  0.24999999  1
  O  O9  1  0.34995699  0.06524200  0.74999998  1
  O  O10  1  0.48786299  0.51213698  0.24999999  1
  O  O11  1  0.51213698  0.48786298  0.74999998  1
  O  O12  1  0.29665999  0.70333998  0.01718000  1
  O  O13  1  0.70333998  0.29665999  0.98281998  1
  O  O14  1  0.70333998  0.29665999  0.51717999  1
  O  O15  1  0.29665999  0.70333998  0.48281999  1
  O  O16  1  0.97775097  0.66957298  0.24999999  1
  O  O17  1  0.02224900  0.33042699  0.74999998  1
  O  O18  1  0.33042699  0.02224900  0.24999999  1
  O  O19  1  0.66957298  0.97775097  0.74999998  1
