# generated using pymatgen
data_BiTe3Se8
_symmetry_space_group_name_H-M   'P 1'
_cell_length_a   3.28669810
_cell_length_b   3.28669810
_cell_length_c   37.38919830
_cell_angle_alpha   90.00000000
_cell_angle_beta   90.00000000
_cell_angle_gamma   120.00000000
_symmetry_Int_Tables_number   1
_chemical_formula_structural   BiTe3Se8
_chemical_formula_sum   'Bi1 Te3 Se8'
_cell_volume   349.78115953
_cell_formula_units_Z   1
loop_
 _symmetry_equiv_pos_site_id
 _symmetry_equiv_pos_as_xyz
  1  'x, y, z'
loop_
 _atom_site_type_symbol
 _atom_site_label
 _atom_site_symmetry_multiplicity
 _atom_site_fract_x
 _atom_site_fract_y
 _atom_site_fract_z
 _atom_site_occupancy
  Te  Te0  1  0.00000000  0.00000000  0.90609102  1
  Te  Te1  1  0.00000000  0.00000000  0.53033601  1
  Te  Te2  1  0.66666665  0.33333333  0.71818701  1
  Bi  Bi3  1  0.66666665  0.33333333  0.34246601  1
  Se  Se4  1  0.00000000  0.00000000  0.67283901  1
  Se  Se5  1  0.00000000  0.00000000  0.29709801  1
  Se  Se6  1  0.66666665  0.33333333  0.95117502  1
  Se  Se7  1  0.66666665  0.33333333  0.86099702  1
  Se  Se8  1  0.00000000  0.00000000  0.76354801  1
  Se  Se9  1  0.00000000  0.00000000  0.38784101  1
  Se  Se10  1  0.66666665  0.33333333  0.57154801  1
  Se  Se11  1  0.66666665  0.33333333  0.48912601  1
