# generated using pymatgen
data_Li4MgCu
_symmetry_space_group_name_H-M   'P 1'
_cell_length_a   5.20789480
_cell_length_b   5.20789480
_cell_length_c   5.20789528
_cell_angle_alpha   60.29932785
_cell_angle_beta   60.29932785
_cell_angle_gamma   60.29933548
_symmetry_Int_Tables_number   1
_chemical_formula_structural   Li4MgCu
_chemical_formula_sum   'Li4 Mg1 Cu1'
_cell_volume   100.55495785
_cell_formula_units_Z   1
loop_
 _symmetry_equiv_pos_site_id
 _symmetry_equiv_pos_as_xyz
  1  'x, y, z'
loop_
 _atom_site_type_symbol
 _atom_site_label
 _atom_site_symmetry_multiplicity
 _atom_site_fract_x
 _atom_site_fract_y
 _atom_site_fract_z
 _atom_site_occupancy
  Li  Li0  1  0.37727303  0.37727301  0.37727299  1
  Li  Li1  1  0.62272705  0.62272702  0.62272699  1
  Li  Li2  1  0.00000000  0.00000000  0.00000000  1
  Mg  Mg3  1  0.50000002  0.00000000  -0.00000001  1
  Li  Li4  1  0.00000002  0.50000002  -0.00000001  1
  Cu  Cu5  1  0.00000000  0.00000000  0.50000001  1
