# generated using pymatgen
data_LiFeNiO6
_symmetry_space_group_name_H-M   'P 1'
_cell_length_a   5.32912064
_cell_length_b   5.32912064
_cell_length_c   5.32912016
_cell_angle_alpha   97.59452057
_cell_angle_beta   97.59452057
_cell_angle_gamma   97.59452820
_symmetry_Int_Tables_number   1
_chemical_formula_structural   LiFeNiO6
_chemical_formula_sum   'Li1 Fe1 Ni1 O6'
_cell_volume   146.96657000
_cell_formula_units_Z   1
loop_
 _symmetry_equiv_pos_site_id
 _symmetry_equiv_pos_as_xyz
  1  'x, y, z'
loop_
 _atom_site_type_symbol
 _atom_site_label
 _atom_site_symmetry_multiplicity
 _atom_site_fract_x
 _atom_site_fract_y
 _atom_site_fract_z
 _atom_site_occupancy
  Li  Li0  1  0.28450500  0.71549497  0.49999996  1
  Fe  Fe1  1  0.49999999  0.28450499  0.71549496  1
  Ni  Ni2  1  0.71549498  0.49999998  0.28450495  1
  O  O3  1  0.69127498  0.30872499  0.49999995  1
  O  O4  1  0.49999999  0.69127497  0.30872495  1
  O  O5  1  0.30872500  0.49999998  0.69127496  1
  O  O6  1  0.00000001  0.66717697  0.33282297  1
  O  O7  1  0.33282299  0.00000000  0.66717698  1
  O  O8  1  0.66717698  0.33282299  -0.00000004  1
