# generated using pymatgen
data_LiHfBe
_symmetry_space_group_name_H-M   'P 1'
_cell_length_a   4.12962389
_cell_length_b   4.48756742
_cell_length_c   4.12962389
_cell_angle_alpha   62.60525513
_cell_angle_beta   90.00000000
_cell_angle_gamma   117.39474487
_symmetry_Int_Tables_number   1
_chemical_formula_structural   LiHfBe
_chemical_formula_sum   'Li1 Hf1 Be1'
_cell_volume   58.11156912
_cell_formula_units_Z   1
loop_
 _symmetry_equiv_pos_site_id
 _symmetry_equiv_pos_as_xyz
  1  'x, y, z'
loop_
 _atom_site_type_symbol
 _atom_site_label
 _atom_site_symmetry_multiplicity
 _atom_site_fract_x
 _atom_site_fract_y
 _atom_site_fract_z
 _atom_site_occupancy
  Hf  Hf0  1  0.00000000  0.00000000  0.00000000  1
  Be  Be1  1  0.40733903  0.81467799  0.59266099  1
  Li  Li2  1  0.59266102  0.18532200  0.40733901  1
