# generated using pymatgen
data_LiMg2ZnAg
_symmetry_space_group_name_H-M   'P 1'
_cell_length_a   4.62109184
_cell_length_b   4.62109184
_cell_length_c   6.35139275
_cell_angle_alpha   111.33287048
_cell_angle_beta   111.33287048
_cell_angle_gamma   90.00000000
_symmetry_Int_Tables_number   1
_chemical_formula_structural   LiMg2ZnAg
_chemical_formula_sum   'Li1 Mg2 Zn1 Ag1'
_cell_volume   116.30445368
_cell_formula_units_Z   1
loop_
 _symmetry_equiv_pos_site_id
 _symmetry_equiv_pos_as_xyz
  1  'x, y, z'
loop_
 _atom_site_type_symbol
 _atom_site_label
 _atom_site_symmetry_multiplicity
 _atom_site_fract_x
 _atom_site_fract_y
 _atom_site_fract_z
 _atom_site_occupancy
  Li  Li0  1  0.00000000  0.00000000  0.00000000  1
  Mg  Mg1  1  0.62108799  0.62108801  0.24217596  1
  Mg  Mg2  1  0.24999998  0.75000001  0.49999998  1
  Zn  Zn3  1  0.75000001  0.25000000  0.49999998  1
  Ag  Ag4  1  0.37891199  0.37891201  0.75782399  1
