# generated using pymatgen
data_LaYInPbAu2
_symmetry_space_group_name_H-M   'P 1'
_cell_length_a   4.81231785
_cell_length_b   6.11162519
_cell_length_c   6.15659094
_cell_angle_alpha   77.60614777
_cell_angle_beta   66.99406433
_cell_angle_gamma   66.81495667
_symmetry_Int_Tables_number   1
_chemical_formula_structural   LaYInPbAu2
_chemical_formula_sum   'La1 Y1 In1 Pb1 Au2'
_cell_volume   152.81417465
_cell_formula_units_Z   1
loop_
 _symmetry_equiv_pos_site_id
 _symmetry_equiv_pos_as_xyz
  1  'x, y, z'
loop_
 _atom_site_type_symbol
 _atom_site_label
 _atom_site_symmetry_multiplicity
 _atom_site_fract_x
 _atom_site_fract_y
 _atom_site_fract_z
 _atom_site_occupancy
  Y  Y0  1  0.53756102  0.21082200  0.71405603  1
  La  La1  1  0.46243902  0.78917800  0.28594404  1
  In  In2  1  0.84711902  0.20495200  0.10081003  1
  Pb  Pb3  1  0.15288102  0.79504800  0.89919005  1
  Au  Au4  1  0.17139801  0.38298400  0.27422002  1
  Au  Au5  1  0.82860203  0.61701600  0.72578005  1
