# generated using pymatgen
data_DyTiPC
_symmetry_space_group_name_H-M   'P 1'
_cell_length_a   3.53447700
_cell_length_b   3.53447700
_cell_length_c   6.18379736
_cell_angle_alpha   73.39418793
_cell_angle_beta   73.39418793
_cell_angle_gamma   59.99998093
_symmetry_Int_Tables_number   1
_chemical_formula_structural   DyTiPC
_chemical_formula_sum   'Dy1 Ti1 P1 C1'
_cell_volume   63.15385481
_cell_formula_units_Z   1
loop_
 _symmetry_equiv_pos_site_id
 _symmetry_equiv_pos_as_xyz
  1  'x, y, z'
loop_
 _atom_site_type_symbol
 _atom_site_label
 _atom_site_symmetry_multiplicity
 _atom_site_fract_x
 _atom_site_fract_y
 _atom_site_fract_z
 _atom_site_occupancy
  Dy  Dy0  1  0.00000000  0.00000000  0.00000000  1
  Ti  Ti1  1  0.50000002  0.50000001  0.49999995  1
  P  P2  1  0.23405101  0.23405100  0.29784698  1
  C  C3  1  0.76594904  0.76594901  0.70215293  1
