# generated using pymatgen
data_Mg3Cd2In
_symmetry_space_group_name_H-M   'P 1'
_cell_length_a   3.39304209
_cell_length_b   6.33126307
_cell_length_c   7.39528847
_cell_angle_alpha   105.69654083
_cell_angle_beta   90.00000000
_cell_angle_gamma   105.54286957
_symmetry_Int_Tables_number   1
_chemical_formula_structural   Mg3Cd2In
_chemical_formula_sum   'Mg3 Cd2 In1'
_cell_volume   146.89904290
_cell_formula_units_Z   1
loop_
 _symmetry_equiv_pos_site_id
 _symmetry_equiv_pos_as_xyz
  1  'x, y, z'
loop_
 _atom_site_type_symbol
 _atom_site_label
 _atom_site_symmetry_multiplicity
 _atom_site_fract_x
 _atom_site_fract_y
 _atom_site_fract_z
 _atom_site_occupancy
  Mg  Mg0  1  0.37897795  0.75795598  0.25766604  1
  Mg  Mg1  1  0.01390300  0.02780600  0.00972700  1
  Mg  Mg2  1  0.71134396  0.42268799  0.92444304  1
  In  In3  1  0.34194395  0.68388798  0.68577005  1
  Cd  Cd4  1  0.05272199  0.10544400  0.60456602  1
  Cd  Cd5  1  0.66777496  0.33554999  0.35116102  1
