# generated using pymatgen
data_LiMgCu2Ge
_symmetry_space_group_name_H-M   'P 1'
_cell_length_a   4.23412991
_cell_length_b   4.23412991
_cell_length_c   5.74890518
_cell_angle_alpha   111.60806274
_cell_angle_beta   111.60806274
_cell_angle_gamma   90.00000000
_symmetry_Int_Tables_number   1
_chemical_formula_structural   LiMgCu2Ge
_chemical_formula_sum   'Li1 Mg1 Cu2 Ge1'
_cell_volume   87.98538016
_cell_formula_units_Z   1
loop_
 _symmetry_equiv_pos_site_id
 _symmetry_equiv_pos_as_xyz
  1  'x, y, z'
loop_
 _atom_site_type_symbol
 _atom_site_label
 _atom_site_symmetry_multiplicity
 _atom_site_fract_x
 _atom_site_fract_y
 _atom_site_fract_z
 _atom_site_occupancy
  Li  Li0  1  0.99892709  0.99892705  0.99785406  1
  Mg  Mg1  1  0.41627304  0.41627302  0.83254602  1
  Cu  Cu2  1  0.26811205  0.76811204  0.53622404  1
  Ge  Ge3  1  0.76811204  0.26811201  0.53622403  1
  Cu  Cu4  1  0.65757606  0.65757603  0.31515205  1
