# generated using pymatgen
data_K2BaTl5
_symmetry_space_group_name_H-M   'P 1'
_cell_length_a   5.75883102
_cell_length_b   8.27542400
_cell_length_c   8.27542400
_cell_angle_alpha   120.00000000
_cell_angle_beta   90.00000000
_cell_angle_gamma   90.00000000
_symmetry_Int_Tables_number   1
_chemical_formula_structural   K2BaTl5
_chemical_formula_sum   'K2 Ba1 Tl5'
_cell_volume   341.54306921
_cell_formula_units_Z   1
loop_
 _symmetry_equiv_pos_site_id
 _symmetry_equiv_pos_as_xyz
  1  'x, y, z'
loop_
 _atom_site_type_symbol
 _atom_site_label
 _atom_site_symmetry_multiplicity
 _atom_site_fract_x
 _atom_site_fract_y
 _atom_site_fract_z
 _atom_site_occupancy
  K  K0  1  0.25000000  0.66666666  0.33333330  1
  Ba  Ba1  1  0.75000000  0.33333333  0.66666663  1
  K  K2  1  0.75000000  0.87054199  0.12945697  1
  Tl  Tl3  1  0.75000000  0.25891500  0.12945699  1
  Tl  Tl4  1  0.75000000  0.87054199  0.74108394  1
  Tl  Tl5  1  0.25000000  0.12945800  0.87054296  1
  Tl  Tl6  1  0.25000000  0.74108499  0.87054294  1
  Tl  Tl7  1  0.25000000  0.12945800  0.25891598  1
