# generated using pymatgen
data_Tl2SbAuS3
_symmetry_space_group_name_H-M   'P 1'
_cell_length_a   6.41349602
_cell_length_b   6.41349602
_cell_length_c   7.81043196
_cell_angle_alpha   114.24079895
_cell_angle_beta   114.24079895
_cell_angle_gamma   90.00000000
_symmetry_Int_Tables_number   1
_chemical_formula_structural   Tl2SbAuS3
_chemical_formula_sum   'Tl2 Sb1 Au1 S3'
_cell_volume   261.56269429
_cell_formula_units_Z   1
loop_
 _symmetry_equiv_pos_site_id
 _symmetry_equiv_pos_as_xyz
  1  'x, y, z'
loop_
 _atom_site_type_symbol
 _atom_site_label
 _atom_site_symmetry_multiplicity
 _atom_site_fract_x
 _atom_site_fract_y
 _atom_site_fract_z
 _atom_site_occupancy
  Tl  Tl0  1  0.25000001  0.75000001  0.50000003  1
  Tl  Tl1  1  0.50000001  0.50000000  0.00000002  1
  Sb  Sb2  1  0.00000000  0.00000000  0.00000000  1
  S  S3  1  0.09285400  0.13824300  0.72523402  1
  S  S4  1  0.63238001  0.58699100  0.72523404  1
  Au  Au5  1  0.41300902  0.90714601  0.27476603  1
  S  S6  1  0.86175701  0.36762000  0.27476602  1
