# generated using pymatgen
data_Er2ZrAl2Ga2Si2Ge3
_symmetry_space_group_name_H-M   'P 1'
_cell_length_a   5.33937979
_cell_length_b   5.33938026
_cell_length_c   8.85238266
_cell_angle_alpha   90.00000000
_cell_angle_beta   90.00000000
_cell_angle_gamma   120.00000000
_symmetry_Int_Tables_number   1
_chemical_formula_structural   Er2ZrAl2Ga2Si2Ge3
_chemical_formula_sum   'Er2 Zr1 Al2 Ga2 Si2 Ge3'
_cell_volume   218.56090259
_cell_formula_units_Z   1
loop_
 _symmetry_equiv_pos_site_id
 _symmetry_equiv_pos_as_xyz
  1  'x, y, z'
loop_
 _atom_site_type_symbol
 _atom_site_label
 _atom_site_symmetry_multiplicity
 _atom_site_fract_x
 _atom_site_fract_y
 _atom_site_fract_z
 _atom_site_occupancy
  Er  Er0  1  0.66666670  0.33333334  0.56536402  1
  Er  Er1  1  0.33333337  0.66666667  0.43463602  1
  Zr  Zr2  1  0.33333337  0.66666667  0.06536400  1
  Al  Al3  1  0.66666670  0.33333334  0.93463604  1
  Al  Al4  1  0.00000000  0.00000000  0.50000002  1
  Ga  Ga5  1  0.00000000  0.00000000  0.00000000  1
  Ga  Ga6  1  0.17255202  0.34510400  0.75000003  1
  Si  Si7  1  0.17255203  0.82744901  0.75000003  1
  Si  Si8  1  0.65489705  0.82744901  0.75000003  1
  Ge  Ge9  1  0.82744805  0.65489601  0.25000001  1
  Ge  Ge10  1  0.82744804  0.17255100  0.25000001  1
  Ge  Ge11  1  0.34510302  0.17255100  0.25000001  1
