# generated using pymatgen
data_NaLiPH8O7
_symmetry_space_group_name_H-M   'P 1'
_cell_length_a   5.80625820
_cell_length_b   5.80625820
_cell_length_c   6.14105177
_cell_angle_alpha   90.00000000
_cell_angle_beta   90.00000000
_cell_angle_gamma   120.00000000
_symmetry_Int_Tables_number   1
_chemical_formula_structural   NaLiPH8O7
_chemical_formula_sum   'Na1 Li1 P1 H8 O7'
_cell_volume   179.29413355
_cell_formula_units_Z   1
loop_
 _symmetry_equiv_pos_site_id
 _symmetry_equiv_pos_as_xyz
  1  'x, y, z'
loop_
 _atom_site_type_symbol
 _atom_site_label
 _atom_site_symmetry_multiplicity
 _atom_site_fract_x
 _atom_site_fract_y
 _atom_site_fract_z
 _atom_site_occupancy
  Na  Na0  1  0.00000000  0.00000000  0.50069302  1
  Li  Li1  1  0.00000000  0.00000000  0.00069300  1
  H  H2  1  0.33333333  0.66666665  0.19235301  1
  P  P3  1  0.66666665  0.33333333  0.69235303  1
  H  H4  1  0.15501200  0.64678099  0.83753103  1
  H  H5  1  0.35321899  0.50823099  0.83753103  1
  O  O6  1  0.49176899  0.84498798  0.83753103  1
  H  H7  1  0.84498797  0.35321899  0.33753101  1
  H  H8  1  0.64678098  0.49176899  0.33753101  1
  H  H9  1  0.50823098  0.15501200  0.33753101  1
  H  H10  1  0.33333333  0.66666665  0.89823303  1
  H  H11  1  0.66666665  0.33333333  0.39823301  1
  O  O12  1  0.62517698  0.77314098  0.25000601  1
  O  O13  1  0.22685900  0.85203598  0.25000601  1
  O  O14  1  0.14796400  0.37482299  0.25000601  1
  O  O15  1  0.37482299  0.22685900  0.75000603  1
  O  O16  1  0.77314097  0.14796400  0.75000603  1
  O  O17  1  0.85203597  0.62517699  0.75000603  1
