# generated using pymatgen
data_ZrCuBiSb2Au3Se2
_symmetry_space_group_name_H-M   'P 1'
_cell_length_a   6.99183035
_cell_length_b   7.02706623
_cell_length_c   7.04283237
_cell_angle_alpha   102.07958221
_cell_angle_beta   102.80757141
_cell_angle_gamma   105.36809540
_symmetry_Int_Tables_number   1
_chemical_formula_structural   ZrCuBiSb2Au3Se2
_chemical_formula_sum   'Zr1 Cu1 Bi1 Sb2 Au3 Se2'
_cell_volume   311.85650243
_cell_formula_units_Z   1
loop_
 _symmetry_equiv_pos_site_id
 _symmetry_equiv_pos_as_xyz
  1  'x, y, z'
loop_
 _atom_site_type_symbol
 _atom_site_label
 _atom_site_symmetry_multiplicity
 _atom_site_fract_x
 _atom_site_fract_y
 _atom_site_fract_z
 _atom_site_occupancy
  Cu  Cu0  1  0.00000000  0.00000000  0.50000001  1
  Zr  Zr1  1  0.50000000  0.00000000  0.99999998  1
  Bi  Bi2  1  0.00000002  0.49999999  -0.00000000  1
  Sb  Sb3  1  0.00000000  0.00000000  0.00000000  1
  Au  Au4  1  0.95353901  0.20463600  0.20255495  1
  Sb  Sb5  1  0.04646103  0.79536399  0.79744501  1
  Au  Au6  1  0.20517903  0.95022299  0.20499299  1
  Au  Au7  1  0.79482101  0.04977700  0.79500696  1
  Se  Se8  1  0.21298201  0.21030200  0.94485400  1
  Se  Se9  1  0.78701803  0.78969799  0.05514595  1
