# generated using pymatgen
data_Li9NiO10
_symmetry_space_group_name_H-M   'P 1'
_cell_length_a   5.09498215
_cell_length_b   5.14208746
_cell_length_c   7.67066431
_cell_angle_alpha   83.24066162
_cell_angle_beta   70.60321045
_cell_angle_gamma   69.24330139
_symmetry_Int_Tables_number   1
_chemical_formula_structural   Li9NiO10
_chemical_formula_sum   'Li9 Ni1 O10'
_cell_volume   177.25278426
_cell_formula_units_Z   1
loop_
 _symmetry_equiv_pos_site_id
 _symmetry_equiv_pos_as_xyz
  1  'x, y, z'
loop_
 _atom_site_type_symbol
 _atom_site_label
 _atom_site_symmetry_multiplicity
 _atom_site_fract_x
 _atom_site_fract_y
 _atom_site_fract_z
 _atom_site_occupancy
  Li  Li0  1  0.09830702  0.50000000  0.80338600  1
  Li  Li1  1  0.70058301  0.50000000  0.59883400  1
  Li  Li2  1  0.30419402  0.50000000  0.39161200  1
  Li  Li3  1  0.89874900  0.50000000  0.20250200  1
  Li  Li4  1  0.49709001  0.50000000  0.00582001  1
  Li  Li5  1  0.39983504  1.00000000  0.20033002  1
  Li  Li6  1  0.00060700  0.00000000  0.99878598  1
  Li  Li7  1  0.20158799  0.00000000  0.59682399  1
  Li  Li8  1  0.59793298  0.00000000  0.80413398  1
  Ni  Ni9  1  0.80429398  0.00000000  0.39141199  1
  O  O10  1  0.87282999  0.23253300  0.80132698  1
  O  O11  1  0.44871300  0.21192600  0.60406699  1
  O  O12  1  0.04927401  0.23271100  0.41826800  1
  O  O13  1  0.68376499  0.23576500  0.19150300  1
  O  O14  1  0.25419400  0.21332600  0.98801298  1
  O  O15  1  0.32584303  0.76746700  0.80132700  1
  O  O16  1  0.94722002  0.78807400  0.60406700  1
  O  O17  1  0.53245802  0.76728900  0.41826801  1
  O  O18  1  0.12473203  0.76423500  0.19150302  1
  O  O19  1  0.75779302  0.78667400  0.98801300  1
