# generated using pymatgen
data_Li3Be2CoCN7
_symmetry_space_group_name_H-M   'P 1'
_cell_length_a   5.86499977
_cell_length_b   5.86499977
_cell_length_c   5.86499977
_cell_angle_alpha   60.00000000
_cell_angle_beta   60.00000000
_cell_angle_gamma   60.00000000
_symmetry_Int_Tables_number   1
_chemical_formula_structural   Li3Be2CoCN7
_chemical_formula_sum   'Li3 Be2 Co1 C1 N7'
_cell_volume   142.65565780
_cell_formula_units_Z   1
loop_
 _symmetry_equiv_pos_site_id
 _symmetry_equiv_pos_as_xyz
  1  'x, y, z'
loop_
 _atom_site_type_symbol
 _atom_site_label
 _atom_site_symmetry_multiplicity
 _atom_site_fract_x
 _atom_site_fract_y
 _atom_site_fract_z
 _atom_site_occupancy
  Li  Li0  1  0.37499999  0.37499999  0.37499999  1
  Li  Li1  1  0.37499999  0.87499998  0.37499999  1
  Li  Li2  1  0.37499999  0.37499999  0.87499998  1
  Be  Be3  1  0.87499998  0.37499999  0.37499999  1
  Be  Be4  1  0.00000000  0.00000000  0.00000000  1
  Co  Co5  1  0.74999998  0.74999998  0.74999998  1
  N  N6  1  0.15824900  0.61391698  0.61391698  1
  N  N7  1  0.61391798  0.61391698  0.15824800  1
  N  N8  1  0.61391798  0.15824800  0.61391698  1
  C  C9  1  0.61391798  0.61391698  0.61391698  1
  N  N10  1  0.13608200  0.13608300  0.13608300  1
  N  N11  1  0.13608200  0.59175198  0.13608300  1
  N  N12  1  0.13608200  0.13608300  0.59175198  1
  N  N13  1  0.59175098  0.13608300  0.13608300  1
