# generated using pymatgen
data_K3LiCuSeS5Cl
_symmetry_space_group_name_H-M   'P 1'
_cell_length_a   7.05473232
_cell_length_b   7.05473232
_cell_length_c   7.09560442
_cell_angle_alpha   99.68984985
_cell_angle_beta   99.68984985
_cell_angle_gamma   119.98052979
_symmetry_Int_Tables_number   1
_chemical_formula_structural   K3LiCuSeS5Cl
_chemical_formula_sum   'K3 Li1 Cu1 Se1 S5 Cl1'
_cell_volume   288.04888738
_cell_formula_units_Z   1
loop_
 _symmetry_equiv_pos_site_id
 _symmetry_equiv_pos_as_xyz
  1  'x, y, z'
loop_
 _atom_site_type_symbol
 _atom_site_label
 _atom_site_symmetry_multiplicity
 _atom_site_fract_x
 _atom_site_fract_y
 _atom_site_fract_z
 _atom_site_occupancy
  Li  Li0  1  0.88750797  0.38148499  0.38035301  1
  K  K1  1  0.38148495  0.88750797  0.88035299  1
  K  K2  1  0.03776699  0.20222299  0.88040398  1
  K  K3  1  0.20222300  0.03776700  0.38040400  1
  Cl  Cl4  1  0.73367997  0.55162398  0.89726700  1
  Cu  Cu5  1  0.55162396  0.73367997  0.39726700  1
  S  S6  1  0.39668797  0.58430398  0.99518099  1
  S  S7  1  0.23631496  0.75975097  0.51853800  1
  S  S8  1  0.11746395  0.94918997  0.01825700  1
  S  S9  1  0.58430398  0.39668799  0.49518100  1
  S  S10  1  0.94918999  0.11746400  0.51825701  1
  Se  Se11  1  0.75975098  0.23631499  0.01853801  1
