# generated using pymatgen
data_NbV2Cu3Pd2
_symmetry_space_group_name_H-M   'P 1'
_cell_length_a   4.75109816
_cell_length_b   4.75109816
_cell_length_c   4.75109816
_cell_angle_alpha   90.00000000
_cell_angle_beta   90.00000000
_cell_angle_gamma   90.00000000
_symmetry_Int_Tables_number   1
_chemical_formula_structural   NbV2Cu3Pd2
_chemical_formula_sum   'Nb1 V2 Cu3 Pd2'
_cell_volume   107.24622362
_cell_formula_units_Z   1
loop_
 _symmetry_equiv_pos_site_id
 _symmetry_equiv_pos_as_xyz
  1  'x, y, z'
loop_
 _atom_site_type_symbol
 _atom_site_label
 _atom_site_symmetry_multiplicity
 _atom_site_fract_x
 _atom_site_fract_y
 _atom_site_fract_z
 _atom_site_occupancy
  V  V0  1  0.00000000  0.49999998  0.74944498  1
  Nb  Nb1  1  0.49999998  0.25055499  0.00000000  1
  Cu  Cu2  1  0.74944498  0.00000000  0.49999998  1
  V  V3  1  0.00000000  0.49999998  0.25055499  1
  Cu  Cu4  1  0.49999998  0.74944498  0.00000000  1
  Cu  Cu5  1  0.25055499  0.00000000  0.49999998  1
  Pd  Pd6  1  0.00000000  0.00000000  0.00000000  1
  Pd  Pd7  1  0.49999998  0.49999998  0.49999998  1
