# generated using pymatgen
data_DySc(AlNi)2
_symmetry_space_group_name_H-M   'P 1'
_cell_length_a   5.42114019
_cell_length_b   5.42114019
_cell_length_c   5.42114019
_cell_angle_alpha   60.00000000
_cell_angle_beta   60.00000000
_cell_angle_gamma   60.00000000
_symmetry_Int_Tables_number   1
_chemical_formula_structural   DySc(AlNi)2
_chemical_formula_sum   'Dy1 Sc1 Al2 Ni2'
_cell_volume   112.65667206
_cell_formula_units_Z   1
loop_
 _symmetry_equiv_pos_site_id
 _symmetry_equiv_pos_as_xyz
  1  'x, y, z'
loop_
 _atom_site_type_symbol
 _atom_site_label
 _atom_site_symmetry_multiplicity
 _atom_site_fract_x
 _atom_site_fract_y
 _atom_site_fract_z
 _atom_site_occupancy
  Sc  Sc0  1  0.00000000  0.00000000  0.00000000  1
  Dy  Dy1  1  0.75000000  0.75000000  0.75000000  1
  Al  Al2  1  0.87500000  0.37500000  0.37500000  1
  Al  Al3  1  0.37500000  0.37500000  0.87500000  1
  Ni  Ni4  1  0.37500000  0.37500000  0.37500000  1
  Ni  Ni5  1  0.37500000  0.87500000  0.37500000  1
