# generated using pymatgen
data_Cu2NiSe4
_symmetry_space_group_name_H-M   'P 1'
_cell_length_a   3.72037005
_cell_length_b   6.57067013
_cell_length_c   6.62887239
_cell_angle_alpha   118.30245209
_cell_angle_beta   106.29712677
_cell_angle_gamma   90.00000000
_symmetry_Int_Tables_number   1
_chemical_formula_structural   Cu2NiSe4
_chemical_formula_sum   'Cu2 Ni1 Se4'
_cell_volume   135.23306267
_cell_formula_units_Z   1
loop_
 _symmetry_equiv_pos_site_id
 _symmetry_equiv_pos_as_xyz
  1  'x, y, z'
loop_
 _atom_site_type_symbol
 _atom_site_label
 _atom_site_symmetry_multiplicity
 _atom_site_fract_x
 _atom_site_fract_y
 _atom_site_fract_z
 _atom_site_occupancy
  Cu  Cu0  1  0.00000000  0.00000000  0.00000000  1
  Cu  Cu1  1  0.73983694  0.72452899  0.47967395  1
  Ni  Ni2  1  0.26016298  0.27547099  0.52032598  1
  Se  Se3  1  0.63269292  0.97157298  0.26538594  1
  Se  Se4  1  0.36730699  0.02842700  0.73461399  1
  Se  Se5  1  0.87205094  0.54275599  0.74410195  1
  Se  Se6  1  0.12794897  0.45724299  0.25589797  1
