# generated using pymatgen
data_SrCaYCu4GeP3
_symmetry_space_group_name_H-M   'P 1'
_cell_length_a   4.07600880
_cell_length_b   7.64938211
_cell_length_c   7.64938259
_cell_angle_alpha   120.00000000
_cell_angle_beta   90.00000000
_cell_angle_gamma   90.00000000
_symmetry_Int_Tables_number   1
_chemical_formula_structural   SrCaYCu4GeP3
_chemical_formula_sum   'Sr1 Ca1 Y1 Cu4 Ge1 P3'
_cell_volume   206.54680598
_cell_formula_units_Z   1
loop_
 _symmetry_equiv_pos_site_id
 _symmetry_equiv_pos_as_xyz
  1  'x, y, z'
loop_
 _atom_site_type_symbol
 _atom_site_label
 _atom_site_symmetry_multiplicity
 _atom_site_fract_x
 _atom_site_fract_y
 _atom_site_fract_z
 _atom_site_occupancy
  Y  Y0  1  -0.00000000  0.33333334  0.66666670  1
  Sr  Sr1  1  -0.00000000  0.66666668  0.33333338  1
  Ca  Ca2  1  0.50000002  0.28613101  0.28613102  1
  Cu  Cu3  1  0.50000002  1.00000002  0.71386908  1
  Cu  Cu4  1  -0.00000000  0.80950601  0.80950607  1
  Cu  Cu5  1  -0.00000000  0.19049400  0.00000001  1
  Ge  Ge6  1  0.50000002  0.71386901  0.00000005  1
  Cu  Cu7  1  1.00000005  0.00000000  0.19049400  1
  P  P8  1  0.50000002  0.61423901  0.61423905  1
  P  P9  1  0.50000002  0.38576101  0.00000003  1
  P  P10  1  0.50000002  0.00000000  0.38576101  1
