# generated using pymatgen
data_EuYIn2Ga2(SnGe)3
_symmetry_space_group_name_H-M   'P 1'
_cell_length_a   4.53929996
_cell_length_b   7.25953579
_cell_length_c   8.81776047
_cell_angle_alpha   90.00000000
_cell_angle_beta   104.91556549
_cell_angle_gamma   90.00000000
_symmetry_Int_Tables_number   1
_chemical_formula_structural   EuYIn2Ga2(SnGe)3
_chemical_formula_sum   'Eu1 Y1 In2 Ga2 Sn3 Ge3'
_cell_volume   280.78298803
_cell_formula_units_Z   1
loop_
 _symmetry_equiv_pos_site_id
 _symmetry_equiv_pos_as_xyz
  1  'x, y, z'
loop_
 _atom_site_type_symbol
 _atom_site_label
 _atom_site_symmetry_multiplicity
 _atom_site_fract_x
 _atom_site_fract_y
 _atom_site_fract_z
 _atom_site_occupancy
  Eu  Eu0  1  0.87807002  0.25000001  0.75614005  1
  Y  Y1  1  0.12193000  0.75000002  0.24386001  1
  In  In2  1  0.30969201  0.95132903  0.61938404  1
  Ga  Ga3  1  0.69030801  0.45132901  0.38061603  1
  In  In4  1  0.07279200  0.25000001  0.14558401  1
  Sn  Sn5  1  0.30969201  0.54867102  0.61938404  1
  Ga  Ga6  1  0.92720802  0.75000002  0.85441606  1
  Sn  Sn7  1  0.50000001  0.50000001  1.00000006  1
  Sn  Sn8  1  0.50000001  0.00000000  1.00000006  1
  Ge  Ge9  1  0.69030801  0.04867100  0.38061603  1
  Ge  Ge10  1  0.22309700  0.25000001  0.44619403  1
  Ge  Ge11  1  0.77690301  0.75000002  0.55380604  1
