# generated using pymatgen
data_LaYInSnAu2
_symmetry_space_group_name_H-M   'P 1'
_cell_length_a   3.76566696
_cell_length_b   4.77292728
_cell_length_c   8.24238110
_cell_angle_alpha   90.02128601
_cell_angle_beta   90.00000000
_cell_angle_gamma   90.00000000
_symmetry_Int_Tables_number   1
_chemical_formula_structural   LaYInSnAu2
_chemical_formula_sum   'La1 Y1 In1 Sn1 Au2'
_cell_volume   148.14240360
_cell_formula_units_Z   1
loop_
 _symmetry_equiv_pos_site_id
 _symmetry_equiv_pos_as_xyz
  1  'x, y, z'
loop_
 _atom_site_type_symbol
 _atom_site_label
 _atom_site_symmetry_multiplicity
 _atom_site_fract_x
 _atom_site_fract_y
 _atom_site_fract_z
 _atom_site_occupancy
  Y  Y0  1  0.00000000  0.00006000  0.02890100  1
  La  La1  1  0.00000000  0.49976902  0.48539903  1
  In  In2  1  0.50000001  0.50004702  0.83504803  1
  Sn  Sn3  1  0.50000001  0.49995202  0.18270302  1
  Au  Au4  1  0.50000001  0.99986403  0.64380605  1
  Au  Au5  1  0.50000001  0.00010900  0.32414401  1
