# generated using pymatgen
data_DyYMgIn5
_symmetry_space_group_name_H-M   'P 1'
_cell_length_a   5.16770697
_cell_length_b   6.60003805
_cell_length_c   6.60003853
_cell_angle_alpha   60.00000000
_cell_angle_beta   90.00000000
_cell_angle_gamma   90.00000000
_symmetry_Int_Tables_number   1
_chemical_formula_structural   DyYMgIn5
_chemical_formula_sum   'Y1 Dy1 Mg1 In5'
_cell_volume   194.94918370
_cell_formula_units_Z   1
loop_
 _symmetry_equiv_pos_site_id
 _symmetry_equiv_pos_as_xyz
  1  'x, y, z'
loop_
 _atom_site_type_symbol
 _atom_site_label
 _atom_site_symmetry_multiplicity
 _atom_site_fract_x
 _atom_site_fract_y
 _atom_site_fract_z
 _atom_site_occupancy
  Y  Y0  1  0.75000000  0.66666667  0.66666663  1
  Dy  Dy1  1  0.25000000  0.33333334  0.33333331  1
  In  In2  1  0.75000000  0.67134701  0.16432597  1
  Mg  Mg3  1  0.75000000  0.16432700  0.67134598  1
  In  In4  1  0.75000000  0.16432700  0.16432599  1
  In  In5  1  0.25000000  0.83567301  0.83567395  1
  In  In6  1  0.25000000  0.83567301  0.32865396  1
  In  In7  1  0.25000000  0.32865300  0.83567397  1
