# generated using pymatgen
data_CuAgTeSe
_symmetry_space_group_name_H-M   'P 1'
_cell_length_a   4.29769802
_cell_length_b   4.29765177
_cell_length_c   7.00787306
_cell_angle_alpha   89.99952698
_cell_angle_beta   90.00003052
_cell_angle_gamma   59.99966049
_symmetry_Int_Tables_number   1
_chemical_formula_structural   CuAgTeSe
_chemical_formula_sum   'Cu1 Ag1 Te1 Se1'
_cell_volume   112.09403202
_cell_formula_units_Z   1
loop_
 _symmetry_equiv_pos_site_id
 _symmetry_equiv_pos_as_xyz
  1  'x, y, z'
loop_
 _atom_site_type_symbol
 _atom_site_label
 _atom_site_symmetry_multiplicity
 _atom_site_fract_x
 _atom_site_fract_y
 _atom_site_fract_z
 _atom_site_occupancy
  Cu  Cu0  1  0.33333333  0.33333334  0.50977300  1
  Ag  Ag1  1  0.66666666  0.66666669  0.99035599  1
  Te  Te2  1  0.66666666  0.66666669  0.37425400  1
  Se  Se3  1  0.33333333  0.33333334  0.87761799  1
