# generated using pymatgen
data_LaYIn2GePd
_symmetry_space_group_name_H-M   'P 1'
_cell_length_a   4.32710791
_cell_length_b   4.45609999
_cell_length_c   8.10589123
_cell_angle_alpha   105.95414734
_cell_angle_beta   105.48055267
_cell_angle_gamma   90.00000000
_symmetry_Int_Tables_number   1
_chemical_formula_structural   LaYIn2GePd
_chemical_formula_sum   'La1 Y1 In2 Ge1 Pd1'
_cell_volume   144.37113242
_cell_formula_units_Z   1
loop_
 _symmetry_equiv_pos_site_id
 _symmetry_equiv_pos_as_xyz
  1  'x, y, z'
loop_
 _atom_site_type_symbol
 _atom_site_label
 _atom_site_symmetry_multiplicity
 _atom_site_fract_x
 _atom_site_fract_y
 _atom_site_fract_z
 _atom_site_occupancy
  Y  Y0  1  0.37840601  0.37840600  0.75681203  1
  La  La1  1  0.62189901  0.12189900  0.24379801  1
  In  In2  1  0.20811701  0.70811701  0.41623402  1
  In  In3  1  0.95914202  0.95914201  0.91828404  1
  Pd  Pd4  1  0.79047202  0.79047201  0.58094403  1
  Ge  Ge5  1  0.04196400  0.54196400  0.08392801  1
