# generated using pymatgen
data_KNa8MnO8
_symmetry_space_group_name_H-M   'P 1'
_cell_length_a   2.98974991
_cell_length_b   8.69833755
_cell_length_c   8.69833755
_cell_angle_alpha   90.00000000
_cell_angle_beta   90.00000000
_cell_angle_gamma   90.00000000
_symmetry_Int_Tables_number   1
_chemical_formula_structural   KNa8MnO8
_chemical_formula_sum   'K1 Na8 Mn1 O8'
_cell_volume   226.20769570
_cell_formula_units_Z   1
loop_
 _symmetry_equiv_pos_site_id
 _symmetry_equiv_pos_as_xyz
  1  'x, y, z'
loop_
 _atom_site_type_symbol
 _atom_site_label
 _atom_site_symmetry_multiplicity
 _atom_site_fract_x
 _atom_site_fract_y
 _atom_site_fract_z
 _atom_site_occupancy
  Mn  Mn0  1  0.50000002  0.65787903  0.34212102  1
  Na  Na1  1  0.50000002  0.34212102  0.65787903  1
  Na  Na2  1  -0.00000000  0.15787901  0.15787901  1
  Na  Na3  1  1.00000003  0.84212104  0.84212104  1
  K  K4  1  0.50000002  0.11259701  0.88740305  1
  Na  Na5  1  0.50000002  0.88740305  0.11259701  1
  Na  Na6  1  1.00000003  0.61259703  0.61259703  1
  Na  Na7  1  -0.00000000  0.38740302  0.38740302  1
  Na  Na8  1  0.50000002  0.12650201  0.38557402  1
  Na  Na9  1  0.50000002  0.87349804  0.61442603  1
  O  O10  1  0.00000000  0.62650203  0.11442601  1
  O  O11  1  1.00000003  0.37349802  0.88557405  1
  O  O12  1  0.50000002  0.38557402  0.12650201  1
  O  O13  1  0.50000002  0.61442603  0.87349804  1
  O  O14  1  -0.00000000  0.11442601  0.62650203  1
  O  O15  1  1.00000003  0.88557405  0.37349802  1
  O  O16  1  0.50000002  0.50000003  0.50000003  1
  O  O17  1  0.00000000  0.00000000  0.00000000  1
