# generated using pymatgen
data_LiMgCdIn
_symmetry_space_group_name_H-M   'P 1'
_cell_length_a   4.30096388
_cell_length_b   4.30096388
_cell_length_c   5.44237757
_cell_angle_alpha   113.27449036
_cell_angle_beta   113.27449036
_cell_angle_gamma   90.00000000
_symmetry_Int_Tables_number   1
_chemical_formula_structural   LiMgCdIn
_chemical_formula_sum   'Li1 Mg1 Cd1 In1'
_cell_volume   83.48925301
_cell_formula_units_Z   1
loop_
 _symmetry_equiv_pos_site_id
 _symmetry_equiv_pos_as_xyz
  1  'x, y, z'
loop_
 _atom_site_type_symbol
 _atom_site_label
 _atom_site_symmetry_multiplicity
 _atom_site_fract_x
 _atom_site_fract_y
 _atom_site_fract_z
 _atom_site_occupancy
  Li  Li0  1  0.75000006  0.25000002  0.50000006  1
  Mg  Mg1  1  0.25000006  0.75000005  0.50000007  1
  In  In2  1  0.50000006  0.50000003  0.00000006  1
  Cd  Cd3  1  0.00000000  0.00000000  0.00000000  1
