# generated using pymatgen
data_YEr(FeNi4)2
_symmetry_space_group_name_H-M   'P 1'
_cell_length_a   5.18395662
_cell_length_b   5.18395662
_cell_length_c   6.97212887
_cell_angle_alpha   90.00000000
_cell_angle_beta   90.00000000
_cell_angle_gamma   119.86710358
_symmetry_Int_Tables_number   1
_chemical_formula_structural   YEr(FeNi4)2
_chemical_formula_sum   'Y1 Er1 Fe2 Ni8'
_cell_volume   162.47957914
_cell_formula_units_Z   1
loop_
 _symmetry_equiv_pos_site_id
 _symmetry_equiv_pos_as_xyz
  1  'x, y, z'
loop_
 _atom_site_type_symbol
 _atom_site_label
 _atom_site_symmetry_multiplicity
 _atom_site_fract_x
 _atom_site_fract_y
 _atom_site_fract_z
 _atom_site_occupancy
  Y  Y0  1  0.49999997  0.49999998  -0.00000000  1
  Er  Er1  1  0.49999997  0.49999998  0.50000001  1
  Fe  Fe2  1  0.83331597  0.16668399  -0.00000000  1
  Fe  Fe3  1  0.16668396  0.83331596  1.00000002  1
  Ni  Ni4  1  0.00000000  0.00000000  0.71224401  1
  Ni  Ni5  1  -0.00000002  0.49999998  0.71228701  1
  Ni  Ni6  1  0.49999999  0.00000000  0.71228701  1
  Ni  Ni7  1  0.00000000  0.00000000  0.28775601  1
  Ni  Ni8  1  -0.00000002  0.49999998  0.28771301  1
  Ni  Ni9  1  0.49999999  0.00000000  0.28771301  1
  Ni  Ni10  1  0.83322597  0.16677399  0.50000001  1
  Ni  Ni11  1  0.16677396  0.83322596  0.50000001  1
