# generated using pymatgen
data_K3HgCl4
_symmetry_space_group_name_H-M   'P 1'
_cell_length_a   6.10078001
_cell_length_b   6.10078001
_cell_length_c   7.99234056
_cell_angle_alpha   67.56319427
_cell_angle_beta   67.56319427
_cell_angle_gamma   60.00000000
_symmetry_Int_Tables_number   1
_chemical_formula_structural   K3HgCl4
_chemical_formula_sum   'K3 Hg1 Cl4'
_cell_volume   231.25049026
_cell_formula_units_Z   1
loop_
 _symmetry_equiv_pos_site_id
 _symmetry_equiv_pos_as_xyz
  1  'x, y, z'
loop_
 _atom_site_type_symbol
 _atom_site_label
 _atom_site_symmetry_multiplicity
 _atom_site_fract_x
 _atom_site_fract_y
 _atom_site_fract_z
 _atom_site_occupancy
  K  K0  1  0.09120001  0.09120000  0.72640000  1
  K  K1  1  0.90880009  0.90880001  0.27359994  1
  K  K2  1  0.50000005  0.50000001  0.49999997  1
  Hg  Hg3  1  0.50000002  0.00000000  -0.00000002  1
  Cl  Cl4  1  0.50000005  0.50000001  -0.00000004  1
  Cl  Cl5  1  0.00000003  0.50000001  -0.00000002  1
  Cl  Cl6  1  0.75434808  0.75434801  0.73695595  1
  Cl  Cl7  1  0.24565203  0.24565200  0.26304398  1
