# generated using pymatgen
data_ErHfAl4Ga2FeSi11
_symmetry_space_group_name_H-M   'P 1'
_cell_length_a   3.08425999
_cell_length_b   9.32826805
_cell_length_c   9.32826805
_cell_angle_alpha   90.00000000
_cell_angle_beta   90.00000000
_cell_angle_gamma   90.00000000
_symmetry_Int_Tables_number   1
_chemical_formula_structural   ErHfAl4Ga2FeSi11
_chemical_formula_sum   'Er1 Hf1 Al4 Ga2 Fe1 Si11'
_cell_volume   268.38177080
_cell_formula_units_Z   1
loop_
 _symmetry_equiv_pos_site_id
 _symmetry_equiv_pos_as_xyz
  1  'x, y, z'
loop_
 _atom_site_type_symbol
 _atom_site_label
 _atom_site_symmetry_multiplicity
 _atom_site_fract_x
 _atom_site_fract_y
 _atom_site_fract_z
 _atom_site_occupancy
  Er  Er0  1  -0.00000000  0.82476600  0.32476600  1
  Hf  Hf1  1  0.00000000  0.32476600  0.17523400  1
  Al  Al2  1  0.00000000  0.67523400  0.82476600  1
  Al  Al3  1  -0.00000000  0.17523400  0.67523400  1
  Al  Al4  1  0.00000000  0.00000000  0.00000000  1
  Al  Al5  1  -0.00000000  0.50000000  0.50000000  1
  Si  Si6  1  -0.00000000  0.62430600  0.12430600  1
  Ga  Ga7  1  -0.00000000  0.12430600  0.37569400  1
  Ga  Ga8  1  1.00000000  0.87569400  0.62430600  1
  Fe  Fe9  1  -0.00000000  0.37569400  0.87569400  1
  Si  Si10  1  0.50000000  0.07065500  0.21584900  1
  Si  Si11  1  0.50000000  0.21584900  0.92934499  1
  Si  Si12  1  0.50000000  0.78415100  0.07065500  1
  Si  Si13  1  0.50000000  0.92934499  0.78415100  1
  Si  Si14  1  0.50000000  0.42934500  0.71584900  1
  Si  Si15  1  0.50000000  0.57065500  0.28415100  1
  Si  Si16  1  0.50000000  0.71584900  0.57065500  1
  Si  Si17  1  0.50000000  0.28415100  0.42934500  1
  Si  Si18  1  0.50000000  0.50000000  0.00000000  1
  Si  Si19  1  0.50000000  0.00000000  0.50000000  1
