# generated using pymatgen
data_LaY2In2Sn2Au3
_symmetry_space_group_name_H-M   'P 1'
_cell_length_a   5.03028822
_cell_length_b   5.03028822
_cell_length_c   12.43790340
_cell_angle_alpha   90.00000000
_cell_angle_beta   90.00000000
_cell_angle_gamma   90.00000000
_symmetry_Int_Tables_number   1
_chemical_formula_structural   LaY2In2Sn2Au3
_chemical_formula_sum   'La1 Y2 In2 Sn2 Au3'
_cell_volume   314.72621482
_cell_formula_units_Z   1
loop_
 _symmetry_equiv_pos_site_id
 _symmetry_equiv_pos_as_xyz
  1  'x, y, z'
loop_
 _atom_site_type_symbol
 _atom_site_label
 _atom_site_symmetry_multiplicity
 _atom_site_fract_x
 _atom_site_fract_y
 _atom_site_fract_z
 _atom_site_occupancy
  Y  Y0  1  0.00000000  0.49999998  0.74721698  1
  La  La1  1  0.49999998  0.00000000  0.25278299  1
  Y  Y2  1  0.49999998  0.00000000  0.63574398  1
  In  In3  1  0.00000000  0.49999998  0.36425599  1
  In  In4  1  0.49999998  0.49999998  0.00000000  1
  Sn  Sn5  1  0.00000000  0.00000000  0.00000000  1
  Au  Au6  1  0.49999998  0.00000000  0.86532897  1
  Sn  Sn7  1  0.00000000  0.49999998  0.13467100  1
  Au  Au8  1  0.00000000  0.00000000  0.49999998  1
  Au  Au9  1  0.49999998  0.49999998  0.49999998  1
