# generated using pymatgen
data_La3In(SnAu3)2
_symmetry_space_group_name_H-M   'P 1'
_cell_length_a   4.60283899
_cell_length_b   7.34507895
_cell_length_c   7.78470421
_cell_angle_alpha   90.00000000
_cell_angle_beta   90.00000000
_cell_angle_gamma   90.00000000
_symmetry_Int_Tables_number   1
_chemical_formula_structural   La3In(SnAu3)2
_chemical_formula_sum   'La3 In1 Sn2 Au6'
_cell_volume   263.18695963
_cell_formula_units_Z   1
loop_
 _symmetry_equiv_pos_site_id
 _symmetry_equiv_pos_as_xyz
  1  'x, y, z'
loop_
 _atom_site_type_symbol
 _atom_site_label
 _atom_site_symmetry_multiplicity
 _atom_site_fract_x
 _atom_site_fract_y
 _atom_site_fract_z
 _atom_site_occupancy
  La  La0  1  0.75000000  0.49407600  0.79950698  1
  La  La1  1  0.25000000  0.00592400  0.29950699  1
  In  In2  1  0.75000000  0.99407601  0.70049298  1
  La  La3  1  0.25000000  0.50592400  0.20049299  1
  Sn  Sn4  1  0.25000000  0.18039800  0.92054398  1
  Sn  Sn5  1  0.75000000  0.31960200  0.42054399  1
  Au  Au6  1  0.25000000  0.68039801  0.57945598  1
  Au  Au7  1  0.75000000  0.81960201  0.07945600  1
  Au  Au8  1  0.25000000  0.79311501  0.90658798  1
  Au  Au9  1  0.75000000  0.20688500  0.09341200  1
  Au  Au10  1  0.25000000  0.29311500  0.59341198  1
  Au  Au11  1  0.75000000  0.70688501  0.40658799  1
