# generated using pymatgen
data_LiMgCu
_symmetry_space_group_name_H-M   'P 1'
_cell_length_a   3.84048009
_cell_length_b   4.25306511
_cell_length_c   4.26136684
_cell_angle_alpha   119.93185425
_cell_angle_beta   90.00000000
_cell_angle_gamma   90.00000000
_symmetry_Int_Tables_number   1
_chemical_formula_structural   LiMgCu
_chemical_formula_sum   'Li1 Mg1 Cu1'
_cell_volume   60.32049768
_cell_formula_units_Z   1
loop_
 _symmetry_equiv_pos_site_id
 _symmetry_equiv_pos_as_xyz
  1  'x, y, z'
loop_
 _atom_site_type_symbol
 _atom_site_label
 _atom_site_symmetry_multiplicity
 _atom_site_fract_x
 _atom_site_fract_y
 _atom_site_fract_z
 _atom_site_occupancy
  Li  Li0  1  0.00000000  0.99983909  0.99964509  1
  Mg  Mg1  1  0.49999999  0.33361303  0.66756704  1
  Cu  Cu2  1  0.49999999  0.66644706  0.33278805  1
