# generated using pymatgen
data_Er3Al4FeNi4
_symmetry_space_group_name_H-M   'P 1'
_cell_length_a   4.79398394
_cell_length_b   4.91615629
_cell_length_c   7.88458490
_cell_angle_alpha   90.00000000
_cell_angle_beta   90.00000000
_cell_angle_gamma   119.18127441
_symmetry_Int_Tables_number   1
_chemical_formula_structural   Er3Al4FeNi4
_chemical_formula_sum   'Er3 Al4 Fe1 Ni4'
_cell_volume   162.23922502
_cell_formula_units_Z   1
loop_
 _symmetry_equiv_pos_site_id
 _symmetry_equiv_pos_as_xyz
  1  'x, y, z'
loop_
 _atom_site_type_symbol
 _atom_site_label
 _atom_site_symmetry_multiplicity
 _atom_site_fract_x
 _atom_site_fract_y
 _atom_site_fract_z
 _atom_site_occupancy
  Er  Er0  1  0.66285999  0.32572000  0.81125001  1
  Er  Er1  1  0.33643696  0.67287400  0.68951401  1
  Er  Er2  1  0.33643696  0.67287400  0.31048600  1
  Al  Al3  1  0.66285999  0.32572000  0.18875000  1
  Al  Al4  1  0.99889795  0.99779600  0.75125701  1
  Fe  Fe5  1  0.99889795  0.99779600  0.24874300  1
  Al  Al6  1  0.16560695  0.83290800  -0.00000000  1
  Al  Al7  1  0.66730095  0.83290800  1.00000001  1
  Ni  Ni8  1  0.17398698  0.34797400  -0.00000000  1
  Ni  Ni9  1  0.83043600  0.16586500  0.50000001  1
  Ni  Ni10  1  0.33542899  0.16586500  0.50000001  1
  Ni  Ni11  1  0.83069697  0.66139400  0.50000001  1
