# generated using pymatgen
data_K2BaUTe3Se7
_symmetry_space_group_name_H-M   'P 1'
_cell_length_a   4.57513523
_cell_length_b   7.77929211
_cell_length_c   13.06369209
_cell_angle_alpha   92.92765808
_cell_angle_beta   90.00000000
_cell_angle_gamma   90.00000000
_symmetry_Int_Tables_number   1
_chemical_formula_structural   K2BaUTe3Se7
_chemical_formula_sum   'K2 Ba1 U1 Te3 Se7'
_cell_volume   464.34710993
_cell_formula_units_Z   1
loop_
 _symmetry_equiv_pos_site_id
 _symmetry_equiv_pos_as_xyz
  1  'x, y, z'
loop_
 _atom_site_type_symbol
 _atom_site_label
 _atom_site_symmetry_multiplicity
 _atom_site_fract_x
 _atom_site_fract_y
 _atom_site_fract_z
 _atom_site_occupancy
  Ba  Ba0  1  0.74999996  0.05528900  0.84323803  1
  K  K1  1  0.24999999  0.94471099  0.15676203  1
  K  K2  1  0.24999999  0.43644800  0.65385903  1
  U  U3  1  0.74999996  0.56355199  0.34614103  1
  Te  Te4  1  0.24999999  0.07942800  0.66029702  1
  Se  Se5  1  0.74999996  0.15482600  0.07558801  1
  Te  Te6  1  0.74999996  0.32957100  0.52018602  1
  Te  Te7  1  0.24999999  0.36270200  0.85856403  1
  Se  Se8  1  0.24999999  0.36281800  0.28294002  1
  Se  Se9  1  0.74999996  0.63718199  0.71706004  1
  Se  Se10  1  0.74999996  0.63729799  0.14143602  1
  Se  Se11  1  0.24999999  0.67042899  0.47981403  1
  Se  Se12  1  0.24999999  0.84517399  0.92441205  1
  Se  Se13  1  0.74999996  0.92057199  0.33970304  1
