# generated using pymatgen
data_NaSrCuNiO6
_symmetry_space_group_name_H-M   'P 1'
_cell_length_a   3.83704090
_cell_length_b   5.48352623
_cell_length_c   5.48352623
_cell_angle_alpha   90.00000000
_cell_angle_beta   90.00000000
_cell_angle_gamma   90.00000000
_symmetry_Int_Tables_number   1
_chemical_formula_structural   NaSrCuNiO6
_chemical_formula_sum   'Na1 Sr1 Cu1 Ni1 O6'
_cell_volume   115.37621275
_cell_formula_units_Z   1
loop_
 _symmetry_equiv_pos_site_id
 _symmetry_equiv_pos_as_xyz
  1  'x, y, z'
loop_
 _atom_site_type_symbol
 _atom_site_label
 _atom_site_symmetry_multiplicity
 _atom_site_fract_x
 _atom_site_fract_y
 _atom_site_fract_z
 _atom_site_occupancy
  Na  Na0  1  0.50000001  0.00000000  0.49999998  1
  Sr  Sr1  1  0.50000001  0.49999998  0.00000000  1
  Cu  Cu2  1  0.00000000  0.00000000  0.00000000  1
  Ni  Ni3  1  0.00000000  0.49999998  0.49999998  1
  O  O4  1  0.00000000  0.25145199  0.25145199  1
  O  O5  1  0.00000000  0.74854797  0.74854797  1
  O  O6  1  0.00000000  0.25145199  0.74854797  1
  O  O7  1  0.00000000  0.74854797  0.25145199  1
  O  O8  1  0.50000001  0.00000000  0.00000000  1
  O  O9  1  0.50000001  0.49999998  0.49999998  1
