# generated using pymatgen
data_HfTiMnNbV2CuSi3Ge2PRh2
_symmetry_space_group_name_H-M   'P 1'
_cell_length_a   6.70757580
_cell_length_b   6.74600363
_cell_length_c   6.80200481
_cell_angle_alpha   89.97791290
_cell_angle_beta   90.00893402
_cell_angle_gamma   89.74962616
_symmetry_Int_Tables_number   1
_chemical_formula_structural   HfTiMnNbV2CuSi3Ge2PRh2
_chemical_formula_sum   'Hf1 Ti1 Mn1 Nb1 V2 Cu1 Si3 Ge2 P1 Rh2'
_cell_volume   307.78319967
_cell_formula_units_Z   1
loop_
 _symmetry_equiv_pos_site_id
 _symmetry_equiv_pos_as_xyz
  1  'x, y, z'
loop_
 _atom_site_type_symbol
 _atom_site_label
 _atom_site_symmetry_multiplicity
 _atom_site_fract_x
 _atom_site_fract_y
 _atom_site_fract_z
 _atom_site_occupancy
  Cu  Cu0  1  0.99861804  0.99749997  0.99939794  1
  Hf  Hf1  1  0.23330601  0.44601899  0.41928699  1
  Ti  Ti2  1  0.55727102  0.58421298  0.23800598  1
  Nb  Nb3  1  0.41742002  0.76969098  0.55791698  1
  V  V4  1  0.77091003  0.55893298  0.58102696  1
  V  V5  1  0.44456202  0.42231899  0.76352696  1
  Mn  Mn6  1  0.58415702  0.22773399  0.44680696  1
  Si  Si7  1  0.38050401  0.25261399  0.12334098  1
  Si  Si8  1  0.24857401  0.12441300  0.62570697  1
  Si  Si9  1  0.87907603  0.37417299  0.25130496  1
  Rh  Rh10  1  0.62502303  0.75106498  0.87925596  1
  P  P11  1  0.24197102  0.75797298  0.24972300  1
  Rh  Rh12  1  0.75960803  0.24699099  0.75192494  1
  Ge  Ge13  1  0.72802003  0.86892697  0.38718397  1
  Ge  Ge14  1  0.13098101  0.61743498  0.72558999  1
