# generated using pymatgen
data_Cu5SbTe2(Se3S)3
_symmetry_space_group_name_H-M   'P 1'
_cell_length_a   6.05617619
_cell_length_b   6.05617666
_cell_length_c   12.64023495
_cell_angle_alpha   90.00000000
_cell_angle_beta   90.00000000
_cell_angle_gamma   120.00000000
_symmetry_Int_Tables_number   1
_chemical_formula_structural   Cu5SbTe2(Se3S)3
_chemical_formula_sum   'Cu5 Sb1 Te2 Se9 S3'
_cell_volume   401.49747143
_cell_formula_units_Z   1
loop_
 _symmetry_equiv_pos_site_id
 _symmetry_equiv_pos_as_xyz
  1  'x, y, z'
loop_
 _atom_site_type_symbol
 _atom_site_label
 _atom_site_symmetry_multiplicity
 _atom_site_fract_x
 _atom_site_fract_y
 _atom_site_fract_z
 _atom_site_occupancy
  Cu  Cu0  1  0.00000000  0.00000000  0.50000000  1
  Cu  Cu1  1  0.00000000  0.00000000  0.00000000  1
  Cu  Cu2  1  0.66666667  0.33333334  0.99891900  1
  Cu  Cu3  1  0.33333337  0.66666669  0.00108100  1
  Cu  Cu4  1  0.33333337  0.66666669  0.49891900  1
  Sb  Sb5  1  0.66666667  0.33333334  0.50108100  1
  Te  Te6  1  0.66666667  0.33333334  0.75000000  1
  Te  Te7  1  0.33333337  0.66666669  0.25000000  1
  Se  Se8  1  0.66704905  0.99616503  0.63320500  1
  Se  Se9  1  0.32911601  0.33295101  0.63320500  1
  Se  Se10  1  0.00383505  0.67088402  0.63320500  1
  Se  Se11  1  0.67088398  0.00383500  0.36679500  1
  Se  Se12  1  0.99616502  0.66704902  0.36679500  1
  Se  Se13  1  0.33295101  0.32911601  0.36679500  1
  Se  Se14  1  0.33295099  0.00383500  0.13320500  1
  Se  Se15  1  0.67088403  0.66704902  0.13320500  1
  S  S16  1  0.99616499  0.32911601  0.13320500  1
  S  S17  1  0.32911606  0.99616503  0.86679500  1
  S  S18  1  0.00383502  0.33295101  0.86679500  1
  Se  Se19  1  0.66704903  0.67088402  0.86679500  1
