# generated using pymatgen
data_K3BaTl4
_symmetry_space_group_name_H-M   'P 1'
_cell_length_a   6.42188120
_cell_length_b   7.99914408
_cell_length_c   7.99914312
_cell_angle_alpha   120.00000000
_cell_angle_beta   90.00000000
_cell_angle_gamma   90.00000000
_symmetry_Int_Tables_number   1
_chemical_formula_structural   K3BaTl4
_chemical_formula_sum   'K3 Ba1 Tl4'
_cell_volume   355.86058259
_cell_formula_units_Z   1
loop_
 _symmetry_equiv_pos_site_id
 _symmetry_equiv_pos_as_xyz
  1  'x, y, z'
loop_
 _atom_site_type_symbol
 _atom_site_label
 _atom_site_symmetry_multiplicity
 _atom_site_fract_x
 _atom_site_fract_y
 _atom_site_fract_z
 _atom_site_occupancy
  K  K0  1  0.24999999  0.66666664  0.33333329  1
  Ba  Ba1  1  0.74999998  0.33333332  0.66666665  1
  Tl  Tl2  1  0.74999998  0.83300196  0.16699695  1
  K  K3  1  0.74999998  0.33399499  0.16699698  1
  K  K4  1  0.74999998  0.83300196  0.66600395  1
  Tl  Tl5  1  0.24999999  0.16699799  0.83300300  1
  Tl  Tl6  1  0.24999999  0.66600497  0.83300297  1
  Tl  Tl7  1  0.24999999  0.16699799  0.33399599  1
