# generated using pymatgen
data_Hf3Nb3CuSbPdAu6
_symmetry_space_group_name_H-M   'P 1'
_cell_length_a   3.52821398
_cell_length_b   10.09991360
_cell_length_c   10.09991455
_cell_angle_alpha   120.00000000
_cell_angle_beta   90.00000000
_cell_angle_gamma   90.00000000
_symmetry_Int_Tables_number   1
_chemical_formula_structural   Hf3Nb3CuSbPdAu6
_chemical_formula_sum   'Hf3 Nb3 Cu1 Sb1 Pd1 Au6'
_cell_volume   311.68859111
_cell_formula_units_Z   1
loop_
 _symmetry_equiv_pos_site_id
 _symmetry_equiv_pos_as_xyz
  1  'x, y, z'
loop_
 _atom_site_type_symbol
 _atom_site_label
 _atom_site_symmetry_multiplicity
 _atom_site_fract_x
 _atom_site_fract_y
 _atom_site_fract_z
 _atom_site_occupancy
  Cu  Cu0  1  0.50000000  0.00000000  -0.00000000  1
  Hf  Hf1  1  0.74976000  0.89394506  0.51241506  1
  Nb  Nb2  1  0.74976000  0.48758503  0.38153003  1
  Hf  Hf3  1  0.74976000  0.61847004  0.10605503  1
  Nb  Nb4  1  0.25024000  0.10605501  0.48758502  1
  Hf  Hf5  1  0.25024000  0.51241503  0.61847004  1
  Nb  Nb6  1  0.25024000  0.38153003  0.89394504  1
  Au  Au7  1  0.75068600  0.72141405  0.66229405  1
  Au  Au8  1  0.75068600  0.33770602  0.05912002  1
  Au  Au9  1  0.75068600  0.94088006  0.27858605  1
  Au  Au10  1  0.24931400  0.27858602  0.33770602  1
  Sb  Sb11  1  0.24931400  0.66229404  0.94088006  1
  Au  Au12  1  0.24931400  0.05912000  0.72141402  1
  Au  Au13  1  0.74998200  0.33333336  0.66666670  1
  Pd  Pd14  1  0.25001800  0.66666671  0.33333338  1
