# generated using pymatgen
data_NaLaScZnInCu2GeAsP3
_symmetry_space_group_name_H-M   'P 1'
_cell_length_a   5.52100420
_cell_length_b   5.52100420
_cell_length_c   7.70971918
_cell_angle_alpha   90.00000000
_cell_angle_beta   90.00000000
_cell_angle_gamma   120.00000000
_symmetry_Int_Tables_number   1
_chemical_formula_structural   NaLaScZnInCu2GeAsP3
_chemical_formula_sum   'Na1 La1 Sc1 Zn1 In1 Cu2 Ge1 As1 P3'
_cell_volume   203.51918102
_cell_formula_units_Z   1
loop_
 _symmetry_equiv_pos_site_id
 _symmetry_equiv_pos_as_xyz
  1  'x, y, z'
loop_
 _atom_site_type_symbol
 _atom_site_label
 _atom_site_symmetry_multiplicity
 _atom_site_fract_x
 _atom_site_fract_y
 _atom_site_fract_z
 _atom_site_occupancy
  Na  Na0  1  0.00000000  0.00000000  0.49999999  1
  La  La1  1  0.00000000  0.00000000  0.00000000  1
  Sc  Sc2  1  0.33333334  0.66666668  0.49999999  1
  In  In3  1  0.66666665  0.33333334  0.49999999  1
  Zn  Zn4  1  0.33333334  0.66666668  0.99999998  1
  P  P5  1  0.50000001  1.00000002  0.69906898  1
  Cu  Cu6  1  0.50000000  0.50000001  0.69906898  1
  Cu  Cu7  1  0.50000000  0.50000001  0.30093099  1
  P  P8  1  0.50000001  1.00000002  0.30093099  1
  Ge  Ge9  1  0.00000001  0.50000001  0.30093099  1
  As  As10  1  0.66666665  0.33333334  0.99999998  1
  P  P11  1  0.00000001  0.50000001  0.69906898  1
