# generated using pymatgen
data_MnCoCu3(PO4)3
_symmetry_space_group_name_H-M   'P 1'
_cell_length_a   6.47628355
_cell_length_b   6.47628355
_cell_length_c   6.47628355
_cell_angle_alpha   109.47122192
_cell_angle_beta   109.47122192
_cell_angle_gamma   109.47122192
_symmetry_Int_Tables_number   1
_chemical_formula_structural   MnCoCu3(PO4)3
_chemical_formula_sum   'Mn1 Co1 Cu3 P3 O12'
_cell_volume   209.10078054
_cell_formula_units_Z   1
loop_
 _symmetry_equiv_pos_site_id
 _symmetry_equiv_pos_as_xyz
  1  'x, y, z'
loop_
 _atom_site_type_symbol
 _atom_site_label
 _atom_site_symmetry_multiplicity
 _atom_site_fract_x
 _atom_site_fract_y
 _atom_site_fract_z
 _atom_site_occupancy
  Mn  Mn0  1  0.00000000  0.00000000  0.00000000  1
  Cu  Cu1  1  0.50000003  0.50000001  0.50000003  1
  Co  Co2  1  0.00000000  0.00000000  0.49999999  1
  Cu  Cu3  1  0.00000003  0.50000001  0.00000003  1
  Cu  Cu4  1  0.50000006  1.00000003  1.00000005  1
  P  P5  1  0.50000003  0.50000001  1.00000003  1
  P  P6  1  0.50000006  1.00000003  0.50000006  1
  P  P7  1  0.00000003  0.50000001  0.50000002  1
  O  O8  1  0.30945301  0.16503600  0.47448901  1
  O  O9  1  0.69054705  0.83496402  0.52551106  1
  O  O10  1  0.30945305  0.83496302  0.14441705  1
  O  O11  1  0.69054701  0.16503700  0.85558301  1
  O  O12  1  0.83496403  0.52551101  0.69054704  1
  O  O13  1  0.16503603  0.47448901  0.30945303  1
  O  O14  1  0.16503605  0.85558302  0.69054604  1
  O  O15  1  0.83496400  0.14441700  0.30945402  1
  O  O16  1  0.14441702  0.30945301  0.83496401  1
  O  O17  1  0.85558304  0.69054702  0.16503606  1
  O  O18  1  0.47449002  0.30945401  0.16503703  1
  O  O19  1  0.52551004  0.69054602  0.83496304  1
