# generated using pymatgen
data_DyY2ErAlSi7
_symmetry_space_group_name_H-M   'P 1'
_cell_length_a   4.18098879
_cell_length_b   6.73141479
_cell_length_c   7.17669582
_cell_angle_alpha   90.00000000
_cell_angle_beta   90.00000000
_cell_angle_gamma   90.00000000
_symmetry_Int_Tables_number   1
_chemical_formula_structural   DyY2ErAlSi7
_chemical_formula_sum   'Dy1 Y2 Er1 Al1 Si7'
_cell_volume   201.98071045
_cell_formula_units_Z   1
loop_
 _symmetry_equiv_pos_site_id
 _symmetry_equiv_pos_as_xyz
  1  'x, y, z'
loop_
 _atom_site_type_symbol
 _atom_site_label
 _atom_site_symmetry_multiplicity
 _atom_site_fract_x
 _atom_site_fract_y
 _atom_site_fract_z
 _atom_site_occupancy
  Er  Er0  1  0.75000004  0.48999901  0.70291602  1
  Dy  Dy1  1  0.75000004  0.98999903  0.79708402  1
  Y  Y2  1  0.25000001  0.51000102  0.29708401  1
  Y  Y3  1  0.25000001  0.01000100  0.20291600  1
  Al  Al4  1  0.75000004  0.68773102  0.08338700  1
  Si  Si5  1  0.75000004  0.18773101  0.41661301  1
  Si  Si6  1  0.25000001  0.31226901  0.91661302  1
  Si  Si7  1  0.25000001  0.81226902  0.58338701  1
  Si  Si8  1  0.75000004  0.30347801  0.08863700  1
  Si  Si9  1  0.75000004  0.80347802  0.41136301  1
  Si  Si10  1  0.25000001  0.69652202  0.91136302  1
  Si  Si11  1  0.25000001  0.19652201  0.58863701  1
