# generated using pymatgen
data_K4TlCoSeCl9
_symmetry_space_group_name_H-M   'P 1'
_cell_length_a   8.18414974
_cell_length_b   8.18414974
_cell_length_c   8.18414974
_cell_angle_alpha   88.87347412
_cell_angle_beta   60.64825439
_cell_angle_gamma   119.35174561
_symmetry_Int_Tables_number   1
_chemical_formula_structural   K4TlCoSeCl9
_chemical_formula_sum   'K4 Tl1 Co1 Se1 Cl9'
_cell_volume   391.33573598
_cell_formula_units_Z   1
loop_
 _symmetry_equiv_pos_site_id
 _symmetry_equiv_pos_as_xyz
  1  'x, y, z'
loop_
 _atom_site_type_symbol
 _atom_site_label
 _atom_site_symmetry_multiplicity
 _atom_site_fract_x
 _atom_site_fract_y
 _atom_site_fract_z
 _atom_site_occupancy
  Tl  Tl0  1  0.82194704  0.66097304  0.83902704  1
  K  K1  1  0.50000002  0.16097401  0.66097404  1
  K  K2  1  0.50000003  0.83902605  0.33902600  1
  K  K3  1  1.00000005  0.25000001  0.75000005  1
  Cl  Cl4  1  0.17805301  0.33902702  0.16097300  1
  K  K5  1  0.00000000  0.75000004  0.24999999  1
  Cl  Cl6  1  0.78629904  0.34239902  0.15760101  1
  Co  Co7  1  0.50000003  0.44390003  0.34239901  1
  Cl  Cl8  1  0.78629904  0.94390005  0.55610001  1
  Cl  Cl9  1  0.50000003  0.84239905  0.94390003  1
  Cl  Cl10  1  0.50000002  0.15760101  0.05610001  1
  Cl  Cl11  1  0.21370101  0.65760104  0.84239903  1
  Cl  Cl12  1  0.50000003  0.55610003  0.65760103  1
  Cl  Cl13  1  0.21370101  0.05610000  0.44390003  1
  Cl  Cl14  1  0.00000000  0.50000003  0.50000001  1
  Se  Se15  1  0.00000000  0.00000000  0.00000000  1
