# generated using pymatgen
data_Na5LiCaHgO10
_symmetry_space_group_name_H-M   'P 1'
_cell_length_a   4.96815443
_cell_length_b   4.96815443
_cell_length_c   10.58080864
_cell_angle_alpha   90.00000000
_cell_angle_beta   90.00000000
_cell_angle_gamma   89.63661957
_symmetry_Int_Tables_number   1
_chemical_formula_structural   Na5LiCaHgO10
_chemical_formula_sum   'Na5 Li1 Ca1 Hg1 O10'
_cell_volume   261.15617526
_cell_formula_units_Z   1
loop_
 _symmetry_equiv_pos_site_id
 _symmetry_equiv_pos_as_xyz
  1  'x, y, z'
loop_
 _atom_site_type_symbol
 _atom_site_label
 _atom_site_symmetry_multiplicity
 _atom_site_fract_x
 _atom_site_fract_y
 _atom_site_fract_z
 _atom_site_occupancy
  Na  Na0  1  0.00000000  0.00000000  0.00000000  1
  Na  Na1  1  0.00000000  0.00000000  0.32530801  1
  Na  Na2  1  0.00000000  0.00000000  0.67469202  1
  Na  Na3  1  0.49999997  0.50000000  0.15744601  1
  Ca  Ca4  1  0.49999997  0.50000000  0.50000002  1
  Na  Na5  1  0.49999997  0.50000000  0.84255403  1
  Hg  Hg6  1  0.80529399  0.19470600  0.50000002  1
  Li  Li7  1  0.79489499  0.20510500  0.16563401  1
  O  O8  1  0.79489499  0.20510500  0.83436603  1
  O  O9  1  0.71123196  0.71123200  -0.00000000  1
  O  O10  1  0.69707896  0.69707900  0.33258901  1
  O  O11  1  0.69707896  0.69707900  0.66741102  1
  O  O12  1  0.30292098  0.30292100  0.33258901  1
  O  O13  1  0.30292098  0.30292100  0.66741102  1
  O  O14  1  0.28876799  0.28876800  -0.00000000  1
  O  O15  1  0.20510496  0.79489500  0.16563401  1
  O  O16  1  0.20510496  0.79489500  0.83436603  1
  O  O17  1  0.19470596  0.80529400  0.50000002  1
