# generated using pymatgen
data_Li3CuO6
_symmetry_space_group_name_H-M   'P 1'
_cell_length_a   4.23782110
_cell_length_b   5.18898201
_cell_length_c   10.77160168
_cell_angle_alpha   90.00000000
_cell_angle_beta   100.20544434
_cell_angle_gamma   90.00000000
_symmetry_Int_Tables_number   1
_chemical_formula_structural   Li3CuO6
_chemical_formula_sum   'Li6 Cu2 O12'
_cell_volume   233.11974798
_cell_formula_units_Z   2
loop_
 _symmetry_equiv_pos_site_id
 _symmetry_equiv_pos_as_xyz
  1  'x, y, z'
loop_
 _atom_site_type_symbol
 _atom_site_label
 _atom_site_symmetry_multiplicity
 _atom_site_fract_x
 _atom_site_fract_y
 _atom_site_fract_z
 _atom_site_occupancy
  Li  Li0  1  0.49999999  0.50000000  0.00000001  1
  Li  Li1  1  0.10348800  0.50000000  0.19566200  1
  Li  Li2  1  0.70482699  0.50000000  0.39763102  1
  Li  Li3  1  0.29517300  0.50000000  0.60236901  1
  Li  Li4  1  0.89651199  0.50000000  0.80433803  1
  Li  Li5  1  0.58285199  0.00000000  0.19899302  1
  Cu  Cu6  1  0.41714799  0.00000000  0.80100702  1
  Cu  Cu7  1  0.00000000  0.00000000  0.00000000  1
  O  O8  1  0.19410100  0.00000000  0.39553501  1
  O  O9  1  0.80589899  0.00000000  0.60446503  1
  O  O10  1  0.29701700  0.74883200  0.09669701  1
  O  O11  1  0.89243399  0.74544300  0.29252703  1
  O  O12  1  0.49999999  0.74337600  0.50000002  1
  O  O13  1  0.10756600  0.74544300  0.70747301  1
  O  O14  1  0.70298299  0.74883200  0.90330303  1
  O  O15  1  0.29701700  0.25116800  0.09669701  1
  O  O16  1  0.89243399  0.25455700  0.29252703  1
  O  O17  1  0.49999999  0.25662400  0.50000002  1
  O  O18  1  0.10756600  0.25455700  0.70747301  1
  O  O19  1  0.70298299  0.25116800  0.90330303  1
