# generated using pymatgen
data_YUTlInAgS7
_symmetry_space_group_name_H-M   'P 1'
_cell_length_a   6.42052412
_cell_length_b   6.42052412
_cell_length_c   6.42052412
_cell_angle_alpha   90.00000000
_cell_angle_beta   90.00000000
_cell_angle_gamma   90.00000000
_symmetry_Int_Tables_number   1
_chemical_formula_structural   YUTlInAgS7
_chemical_formula_sum   'Y1 U1 Tl1 In1 Ag1 S7'
_cell_volume   264.67410035
_cell_formula_units_Z   1
loop_
 _symmetry_equiv_pos_site_id
 _symmetry_equiv_pos_as_xyz
  1  'x, y, z'
loop_
 _atom_site_type_symbol
 _atom_site_label
 _atom_site_symmetry_multiplicity
 _atom_site_fract_x
 _atom_site_fract_y
 _atom_site_fract_z
 _atom_site_occupancy
  Y  Y0  1  0.36644999  0.86644998  0.63354999  1
  Tl  Tl1  1  0.86644998  0.63354999  0.36644999  1
  Ag  Ag2  1  0.63354999  0.36644999  0.86644998  1
  U  U3  1  0.13355000  0.13355000  0.13355000  1
  In  In4  1  0.66158099  0.16158100  0.33841899  1
  S  S5  1  0.16158100  0.33841899  0.66158099  1
  S  S6  1  0.33841899  0.66158099  0.16158100  1
  S  S7  1  0.83841898  0.83841898  0.83841898  1
  S  S8  1  0.07701200  0.57701199  0.92298798  1
  S  S9  1  0.57701199  0.92298798  0.07701200  1
  S  S10  1  0.92298798  0.07701200  0.57701199  1
  S  S11  1  0.42298799  0.42298799  0.42298799  1
