# generated using pymatgen
data_La2ErIn5Sn4GeAu3
_symmetry_space_group_name_H-M   'P 1'
_cell_length_a   6.31806612
_cell_length_b   7.21694422
_cell_length_c   9.16961670
_cell_angle_alpha   90.00000000
_cell_angle_beta   90.00000000
_cell_angle_gamma   90.00000000
_symmetry_Int_Tables_number   1
_chemical_formula_structural   La2ErIn5Sn4GeAu3
_chemical_formula_sum   'La2 Er1 In5 Sn4 Ge1 Au3'
_cell_volume   418.10821159
_cell_formula_units_Z   1
loop_
 _symmetry_equiv_pos_site_id
 _symmetry_equiv_pos_as_xyz
  1  'x, y, z'
loop_
 _atom_site_type_symbol
 _atom_site_label
 _atom_site_symmetry_multiplicity
 _atom_site_fract_x
 _atom_site_fract_y
 _atom_site_fract_z
 _atom_site_occupancy
  Er  Er0  1  0.32873999  0.67660198  0.06267100  1
  La  La1  1  0.17126000  0.17660199  0.43732901  1
  La  La2  1  0.67125999  0.32339799  0.56267102  1
  In  In3  1  0.82873998  0.82339798  0.93732903  1
  In  In4  1  0.67125999  0.32339799  0.93732903  1
  In  In5  1  0.82873998  0.82339798  0.56267102  1
  In  In6  1  0.32873999  0.67660198  0.43732901  1
  In  In7  1  0.17126000  0.17660199  0.06267100  1
  Sn  Sn8  1  0.86625798  0.53513898  0.25000001  1
  Sn  Sn9  1  0.63374199  0.03513900  0.25000001  1
  Au  Au10  1  0.13374200  0.46486099  0.75000002  1
  Sn  Sn11  1  0.36625799  0.96486097  0.75000002  1
  Au  Au12  1  0.04724900  0.88193497  0.25000001  1
  Sn  Sn13  1  0.45275099  0.38193499  0.25000001  1
  Ge  Ge14  1  0.95275098  0.11806500  0.75000002  1
  Au  Au15  1  0.54724899  0.61806498  0.75000002  1
