# generated using pymatgen
data_NaLiNi2(P2O)2
_symmetry_space_group_name_H-M   'P 1'
_cell_length_a   4.23372936
_cell_length_b   5.88804245
_cell_length_c   5.88804245
_cell_angle_alpha   90.81867981
_cell_angle_beta   90.00000000
_cell_angle_gamma   90.00000000
_symmetry_Int_Tables_number   1
_chemical_formula_structural   NaLiNi2(P2O)2
_chemical_formula_sum   'Na1 Li1 Ni2 P4 O2'
_cell_volume   146.76436569
_cell_formula_units_Z   1
loop_
 _symmetry_equiv_pos_site_id
 _symmetry_equiv_pos_as_xyz
  1  'x, y, z'
loop_
 _atom_site_type_symbol
 _atom_site_label
 _atom_site_symmetry_multiplicity
 _atom_site_fract_x
 _atom_site_fract_y
 _atom_site_fract_z
 _atom_site_occupancy
  Li  Li0  1  0.50000000  0.50000000  0.49999998  1
  Na  Na1  1  0.50000000  0.00000000  0.00000000  1
  Ni  Ni2  1  0.00000000  0.00000000  0.50000000  1
  Ni  Ni3  1  -0.00000000  0.50000000  -0.00000002  1
  P  P4  1  0.50000000  0.00000000  0.50000000  1
  P  P5  1  0.50000000  0.50000000  -0.00000002  1
  P  P6  1  -0.00000000  0.29526134  0.70473865  1
  P  P7  1  -0.00000000  0.70473866  0.29526131  1
  O  O8  1  0.00000000  0.80740460  0.80740457  1
  O  O9  1  0.00000000  0.19259540  0.19259539  1
