# generated using pymatgen
data_YIn5Sn2(PdAu)2
_symmetry_space_group_name_H-M   'P 1'
_cell_length_a   3.99310088
_cell_length_b   7.38083315
_cell_length_c   9.68274498
_cell_angle_alpha   89.55082703
_cell_angle_beta   90.00000000
_cell_angle_gamma   90.00000000
_symmetry_Int_Tables_number   1
_chemical_formula_structural   YIn5Sn2(PdAu)2
_chemical_formula_sum   'Y1 In5 Sn2 Pd2 Au2'
_cell_volume   285.36507380
_cell_formula_units_Z   1
loop_
 _symmetry_equiv_pos_site_id
 _symmetry_equiv_pos_as_xyz
  1  'x, y, z'
loop_
 _atom_site_type_symbol
 _atom_site_label
 _atom_site_symmetry_multiplicity
 _atom_site_fract_x
 _atom_site_fract_y
 _atom_site_fract_z
 _atom_site_occupancy
  Y  Y0  1  0.00000000  0.75840799  0.66050294  1
  In  In1  1  0.00000000  0.26359199  0.83170995  1
  In  In2  1  0.50000001  0.24184800  0.34138097  1
  In  In3  1  0.50000001  0.73990199  0.16518996  1
  In  In4  1  0.00000000  0.36807899  0.54561296  1
  Sn  Sn5  1  0.00000000  0.43274399  0.14960297  1
  Sn  Sn6  1  0.00000000  0.93096298  0.35482894  1
  In  In7  1  0.50000001  0.56819399  0.84982994  1
  Pd  Pd8  1  0.50000001  0.07932200  0.64127697  1
  Pd  Pd9  1  0.00000000  0.86859898  0.95321392  1
  Au  Au10  1  0.50000001  0.61417099  0.46084795  1
  Au  Au11  1  0.50000001  0.13417800  0.04600199  1
