# generated using pymatgen
data_BaNbTlCuSbPdS6
_symmetry_space_group_name_H-M   'P 1'
_cell_length_a   4.21460390
_cell_length_b   7.24000359
_cell_length_c   10.64851665
_cell_angle_alpha   90.00000000
_cell_angle_beta   90.00000000
_cell_angle_gamma   106.92164612
_symmetry_Int_Tables_number   1
_chemical_formula_structural   BaNbTlCuSbPdS6
_chemical_formula_sum   'Ba1 Nb1 Tl1 Cu1 Sb1 Pd1 S6'
_cell_volume   310.85804362
_cell_formula_units_Z   1
loop_
 _symmetry_equiv_pos_site_id
 _symmetry_equiv_pos_as_xyz
  1  'x, y, z'
loop_
 _atom_site_type_symbol
 _atom_site_label
 _atom_site_symmetry_multiplicity
 _atom_site_fract_x
 _atom_site_fract_y
 _atom_site_fract_z
 _atom_site_occupancy
  Ba  Ba0  1  0.74519500  0.49038999  0.75000002  1
  Tl  Tl1  1  0.25480499  0.50960999  0.25000001  1
  Cu  Cu2  1  0.00000000  0.00000000  0.50000002  1
  Nb  Nb3  1  0.00000000  0.00000000  0.00000000  1
  Sb  Sb4  1  0.46772698  0.93545398  0.75000002  1
  Pd  Pd5  1  0.53227301  0.06454600  0.25000001  1
  S  S6  1  0.36345698  0.72691398  0.55628102  1
  S  S7  1  0.63654301  0.27308599  0.44371901  1
  S  S8  1  0.36345698  0.72691398  0.94371903  1
  S  S9  1  0.63654301  0.27308599  0.05628100  1
  S  S10  1  0.07726200  0.15452400  0.75000002  1
  S  S11  1  0.92273799  0.84547598  0.25000001  1
