# generated using pymatgen
data_KLi2Cu(SO)3
_symmetry_space_group_name_H-M   'P 1'
_cell_length_a   6.05634594
_cell_length_b   6.07637358
_cell_length_c   6.05634594
_cell_angle_alpha   119.89102936
_cell_angle_beta   90.00000000
_cell_angle_gamma   119.89102936
_symmetry_Int_Tables_number   1
_chemical_formula_structural   KLi2Cu(SO)3
_chemical_formula_sum   'K1 Li2 Cu1 S3 O3'
_cell_volume   158.11577664
_cell_formula_units_Z   1
loop_
 _symmetry_equiv_pos_site_id
 _symmetry_equiv_pos_as_xyz
  1  'x, y, z'
loop_
 _atom_site_type_symbol
 _atom_site_label
 _atom_site_symmetry_multiplicity
 _atom_site_fract_x
 _atom_site_fract_y
 _atom_site_fract_z
 _atom_site_occupancy
  Li  Li0  1  0.24999999  0.49999998  0.75000000  1
  K  K1  1  0.75000000  0.49999998  0.24999999  1
  Li  Li2  1  0.50000000  0.00000000  0.50000000  1
  Cu  Cu3  1  0.00000000  0.00000000  0.00000000  1
  O  O4  1  0.73616801  0.00000100  0.20300700  1
  S  S5  1  0.26383198  0.99999897  0.79699299  1
  S  S6  1  0.79699399  0.99999997  0.73616799  1
  S  S7  1  0.20300600  0.00000000  0.26383200  1
  O  O8  1  0.76572700  0.53145398  0.76572700  1
  O  O9  1  0.23427299  0.46854599  0.23427299  1
