# generated using pymatgen
data_TiRuS2
_symmetry_space_group_name_H-M   'P 1'
_cell_length_a   3.58777618
_cell_length_b   3.58777618
_cell_length_c   6.86108589
_cell_angle_alpha   74.84338379
_cell_angle_beta   74.84338379
_cell_angle_gamma   59.99999619
_symmetry_Int_Tables_number   1
_chemical_formula_structural   TiRuS2
_chemical_formula_sum   'Ti1 Ru1 S2'
_cell_volume   72.91567514
_cell_formula_units_Z   1
loop_
 _symmetry_equiv_pos_site_id
 _symmetry_equiv_pos_as_xyz
  1  'x, y, z'
loop_
 _atom_site_type_symbol
 _atom_site_label
 _atom_site_symmetry_multiplicity
 _atom_site_fract_x
 _atom_site_fract_y
 _atom_site_fract_z
 _atom_site_occupancy
  Ti  Ti0  1  0.49999998  0.50000000  0.49999999  1
  Ru  Ru1  1  0.00000000  0.00000000  0.00000000  1
  S  S2  1  0.26560599  0.26560600  0.20318199  1
  S  S3  1  0.73439396  0.73439400  0.79681798  1
