# generated using pymatgen
data_YAlSi3
_symmetry_space_group_name_H-M   'P 1'
_cell_length_a   3.95722198
_cell_length_b   3.95722198
_cell_length_c   10.44733429
_cell_angle_alpha   90.00000000
_cell_angle_beta   90.00000000
_cell_angle_gamma   90.00000000
_symmetry_Int_Tables_number   1
_chemical_formula_structural   YAlSi3
_chemical_formula_sum   'Y2 Al2 Si6'
_cell_volume   163.60113703
_cell_formula_units_Z   2
loop_
 _symmetry_equiv_pos_site_id
 _symmetry_equiv_pos_as_xyz
  1  'x, y, z'
loop_
 _atom_site_type_symbol
 _atom_site_label
 _atom_site_symmetry_multiplicity
 _atom_site_fract_x
 _atom_site_fract_y
 _atom_site_fract_z
 _atom_site_occupancy
  Y  Y0  1  0.50000000  0.00000000  0.75130298  1
  Y  Y1  1  -0.00000000  0.50000000  0.24869699  1
  Al  Al2  1  0.00000000  0.00000000  0.49999999  1
  Al  Al3  1  0.00000000  0.00000000  0.00000000  1
  Si  Si4  1  0.50000000  0.50000000  0.49999999  1
  Si  Si5  1  0.50000000  0.50000000  0.00000000  1
  Si  Si6  1  -0.00000000  0.50000000  0.87816498  1
  Si  Si7  1  0.50000000  0.00000000  0.37439299  1
  Si  Si8  1  0.50000000  0.00000000  0.12183500  1
  Si  Si9  1  -0.00000000  0.50000000  0.62560698  1
