# generated using pymatgen
data_CuSbTeSe3
_symmetry_space_group_name_H-M   'P 1'
_cell_length_a   6.64136410
_cell_length_b   6.64136410
_cell_length_c   6.64136410
_cell_angle_alpha   90.00000000
_cell_angle_beta   90.00000000
_cell_angle_gamma   90.00000000
_symmetry_Int_Tables_number   1
_chemical_formula_structural   CuSbTeSe3
_chemical_formula_sum   'Cu2 Sb2 Te2 Se6'
_cell_volume   292.93540862
_cell_formula_units_Z   2
loop_
 _symmetry_equiv_pos_site_id
 _symmetry_equiv_pos_as_xyz
  1  'x, y, z'
loop_
 _atom_site_type_symbol
 _atom_site_label
 _atom_site_symmetry_multiplicity
 _atom_site_fract_x
 _atom_site_fract_y
 _atom_site_fract_z
 _atom_site_occupancy
  Cu  Cu0  1  0.62723999  0.62723999  0.62723999  1
  Sb  Sb1  1  0.87275999  0.37275999  0.12724000  1
  Cu  Cu2  1  0.12724000  0.87275999  0.37275999  1
  Sb  Sb3  1  0.37275999  0.12724000  0.87275999  1
  Te  Te4  1  0.37405199  0.37405199  0.37405199  1
  Te  Te5  1  0.12594800  0.62594799  0.87405199  1
  Se  Se6  1  0.87405199  0.12594800  0.62594799  1
  Se  Se7  1  0.62594799  0.87405199  0.12594800  1
  Se  Se8  1  0.00393400  0.00393400  0.00393400  1
  Se  Se9  1  0.49606599  0.99606599  0.50393399  1
  Se  Se10  1  0.50393399  0.49606599  0.99606599  1
  Se  Se11  1  0.99606599  0.50393399  0.49606599  1
