# generated using pymatgen
data_La6In3Sn6Sb
_symmetry_space_group_name_H-M   'P 1'
_cell_length_a   6.60093355
_cell_length_b   6.60093355
_cell_length_c   10.59088326
_cell_angle_alpha   90.00000000
_cell_angle_beta   90.00000000
_cell_angle_gamma   101.85653687
_symmetry_Int_Tables_number   1
_chemical_formula_structural   La6In3Sn6Sb
_chemical_formula_sum   'La6 In3 Sn6 Sb1'
_cell_volume   451.62400213
_cell_formula_units_Z   1
loop_
 _symmetry_equiv_pos_site_id
 _symmetry_equiv_pos_as_xyz
  1  'x, y, z'
loop_
 _atom_site_type_symbol
 _atom_site_label
 _atom_site_symmetry_multiplicity
 _atom_site_fract_x
 _atom_site_fract_y
 _atom_site_fract_z
 _atom_site_occupancy
  La  La0  1  0.63224496  0.63224498  0.74999998  1
  La  La1  1  0.36775498  0.36775499  0.24999999  1
  La  La2  1  0.79742797  0.20257199  0.49999999  1
  La  La3  1  0.79742797  0.20257199  -0.00000000  1
  La  La4  1  0.20257197  0.79742797  0.49999999  1
  La  La5  1  0.20257197  0.79742797  -0.00000000  1
  In  In6  1  0.01334000  0.01334100  0.74999998  1
  In  In7  1  0.98665894  0.98665996  0.24999999  1
  In  In8  1  0.30881398  0.30881399  0.95047998  1
  Sn  Sn9  1  0.69118596  0.69118597  0.04952000  1
  Sn  Sn10  1  0.30881398  0.30881399  0.54951999  1
  Sn  Sn11  1  0.69118596  0.69118597  0.45047999  1
  Sn  Sn12  1  0.07446798  0.50266498  0.74999998  1
  Sb  Sb13  1  0.49733496  0.92553197  0.24999999  1
  Sn  Sn14  1  0.92553196  0.49733498  0.24999999  1
  Sn  Sn15  1  0.50266498  0.07446800  0.74999998  1
