# generated using pymatgen
data_Na2VO4
_symmetry_space_group_name_H-M   'P 1'
_cell_length_a   3.90948987
_cell_length_b   3.90948987
_cell_length_c   6.85942650
_cell_angle_alpha   106.55718231
_cell_angle_beta   106.55716705
_cell_angle_gamma   90.00001526
_symmetry_Int_Tables_number   1
_chemical_formula_structural   Na2VO4
_chemical_formula_sum   'Na2 V1 O4'
_cell_volume   95.94925956
_cell_formula_units_Z   1
loop_
 _symmetry_equiv_pos_site_id
 _symmetry_equiv_pos_as_xyz
  1  'x, y, z'
loop_
 _atom_site_type_symbol
 _atom_site_label
 _atom_site_symmetry_multiplicity
 _atom_site_fract_x
 _atom_site_fract_y
 _atom_site_fract_z
 _atom_site_occupancy
  Na  Na0  1  0.64282804  0.64282801  0.28565498  1
  Na  Na1  1  0.35717102  0.35717200  0.71434398  1
  V  V2  1  0.00000000  0.00000000  0.00000000  1
  O  O3  1  0.84202506  0.84202401  0.68404797  1
  O  O4  1  0.15797601  0.15797600  0.31594999  1
  O  O5  1  0.50000001  0.00000000  -0.00000002  1
  O  O6  1  0.00000103  0.50000000  0.00000101  1
