# generated using pymatgen
data_LaIn3(SnAu)2
_symmetry_space_group_name_H-M   'P 1'
_cell_length_a   6.41273785
_cell_length_b   6.41273785
_cell_length_c   10.52783012
_cell_angle_alpha   90.00000000
_cell_angle_beta   90.00000000
_cell_angle_gamma   120.00000000
_symmetry_Int_Tables_number   1
_chemical_formula_structural   LaIn3(SnAu)2
_chemical_formula_sum   'La2 In6 Sn4 Au4'
_cell_volume   374.93542244
_cell_formula_units_Z   2
loop_
 _symmetry_equiv_pos_site_id
 _symmetry_equiv_pos_as_xyz
  1  'x, y, z'
loop_
 _atom_site_type_symbol
 _atom_site_label
 _atom_site_symmetry_multiplicity
 _atom_site_fract_x
 _atom_site_fract_y
 _atom_site_fract_z
 _atom_site_occupancy
  In  In0  1  0.33333334  0.66666668  0.49999999  1
  La  La1  1  0.83421002  0.16579000  0.99999999  1
  La  La2  1  0.83325602  0.16674400  0.49999999  1
  In  In3  1  0.83421002  0.66842001  0.99999999  1
  In  In4  1  0.83325602  0.66651201  0.49999999  1
  In  In5  1  0.33158001  0.16579000  -0.00000000  1
  In  In6  1  0.33348801  0.16674400  0.49999999  1
  In  In7  1  0.99630002  0.49815001  0.74729699  1
  Au  Au8  1  0.99630002  0.49815001  0.25270300  1
  Au  Au9  1  0.50185001  0.00370000  0.74729699  1
  Au  Au10  1  0.50185001  0.00370000  0.25270300  1
  Sn  Sn11  1  0.50185001  0.49815001  0.74729699  1
  Au  Au12  1  0.50185001  0.49815001  0.25270300  1
  Sn  Sn13  1  0.00000000  0.00000000  0.74976999  1
  Sn  Sn14  1  0.00000000  0.00000000  0.25023000  1
  Sn  Sn15  1  0.33333334  0.66666668  -0.00000000  1
