# generated using pymatgen
data_Mn(GaPd2)3
_symmetry_space_group_name_H-M   'P 1'
_cell_length_a   3.54310989
_cell_length_b   6.37950230
_cell_length_c   7.67381287
_cell_angle_alpha   90.00000000
_cell_angle_beta   90.00000000
_cell_angle_gamma   106.12267303
_symmetry_Int_Tables_number   1
_chemical_formula_structural   Mn(GaPd2)3
_chemical_formula_sum   'Mn1 Ga3 Pd6'
_cell_volume   166.63128962
_cell_formula_units_Z   1
loop_
 _symmetry_equiv_pos_site_id
 _symmetry_equiv_pos_as_xyz
  1  'x, y, z'
loop_
 _atom_site_type_symbol
 _atom_site_label
 _atom_site_symmetry_multiplicity
 _atom_site_fract_x
 _atom_site_fract_y
 _atom_site_fract_z
 _atom_site_occupancy
  Mn  Mn0  1  0.50000002  0.00000000  1.00000002  1
  Ga  Ga1  1  0.24448697  0.48897398  0.75000001  1
  Ga  Ga2  1  0.50000002  0.00000000  0.50000001  1
  Ga  Ga3  1  0.75551298  0.51102598  0.25000000  1
  Pd  Pd4  1  0.16057498  0.32114999  0.05811100  1
  Pd  Pd5  1  0.83942497  0.67884997  0.55811101  1
  Pd  Pd6  1  0.96632696  0.93265396  0.25000000  1
  Pd  Pd7  1  0.83942497  0.67884997  0.94188902  1
  Pd  Pd8  1  0.03367300  0.06734600  0.75000001  1
  Pd  Pd9  1  0.16057498  0.32114999  0.44188901  1
