# generated using pymatgen
data_LiMg2GaCu
_symmetry_space_group_name_H-M   'P 1'
_cell_length_a   4.21780586
_cell_length_b   4.21780586
_cell_length_c   6.14934111
_cell_angle_alpha   110.05657196
_cell_angle_beta   110.05657196
_cell_angle_gamma   90.00000000
_symmetry_Int_Tables_number   1
_chemical_formula_structural   LiMg2GaCu
_chemical_formula_sum   'Li1 Mg2 Ga1 Cu1'
_cell_volume   95.66833261
_cell_formula_units_Z   1
loop_
 _symmetry_equiv_pos_site_id
 _symmetry_equiv_pos_as_xyz
  1  'x, y, z'
loop_
 _atom_site_type_symbol
 _atom_site_label
 _atom_site_symmetry_multiplicity
 _atom_site_fract_x
 _atom_site_fract_y
 _atom_site_fract_z
 _atom_site_occupancy
  Li  Li0  1  0.00000000  0.00000000  0.00000000  1
  Mg  Mg1  1  0.60760302  0.60760302  0.21520600  1
  Mg  Mg2  1  0.39239701  0.39239701  0.78479401  1
  Ga  Ga3  1  0.75000003  0.25000001  0.50000001  1
  Cu  Cu4  1  0.25000001  0.75000003  0.50000001  1
