# generated using pymatgen
data_KSrLiO2
_symmetry_space_group_name_H-M   'P 1'
_cell_length_a   4.02316380
_cell_length_b   4.02316380
_cell_length_c   7.58881998
_cell_angle_alpha   105.37121582
_cell_angle_beta   105.37121582
_cell_angle_gamma   90.00000000
_symmetry_Int_Tables_number   1
_chemical_formula_structural   KSrLiO2
_chemical_formula_sum   'K1 Sr1 Li1 O2'
_cell_volume   113.87438294
_cell_formula_units_Z   1
loop_
 _symmetry_equiv_pos_site_id
 _symmetry_equiv_pos_as_xyz
  1  'x, y, z'
loop_
 _atom_site_type_symbol
 _atom_site_label
 _atom_site_symmetry_multiplicity
 _atom_site_fract_x
 _atom_site_fract_y
 _atom_site_fract_z
 _atom_site_occupancy
  K  K0  1  0.66579501  0.66579502  0.33158996  1
  Sr  Sr1  1  0.33420500  0.33420501  0.66840996  1
  Li  Li2  1  0.00000000  0.00000000  0.00000000  1
  O  O3  1  0.75000002  0.25000001  0.49999996  1
  O  O4  1  0.24999999  0.75000003  0.49999996  1
