# generated using pymatgen
data_BaPrY6Ga2(SiGe)2
_symmetry_space_group_name_H-M   'P 1'
_cell_length_a   4.53725004
_cell_length_b   10.10048771
_cell_length_c   10.10048676
_cell_angle_alpha   120.00000000
_cell_angle_beta   90.00000000
_cell_angle_gamma   90.00000000
_symmetry_Int_Tables_number   1
_chemical_formula_structural   BaPrY6Ga2(SiGe)2
_chemical_formula_sum   'Ba1 Pr1 Y6 Ga2 Si2 Ge2'
_cell_volume   400.87409549
_cell_formula_units_Z   1
loop_
 _symmetry_equiv_pos_site_id
 _symmetry_equiv_pos_as_xyz
  1  'x, y, z'
loop_
 _atom_site_type_symbol
 _atom_site_label
 _atom_site_symmetry_multiplicity
 _atom_site_fract_x
 _atom_site_fract_y
 _atom_site_fract_z
 _atom_site_occupancy
  Ba  Ba0  1  0.74999999  0.66666666  0.33333329  1
  Y  Y1  1  0.25000000  0.33333333  0.66666666  1
  Y  Y2  1  0.74999999  0.86110800  0.02394094  1
  Pr  Pr3  1  0.25000000  0.13889200  0.97605901  1
  Y  Y4  1  0.74999999  0.16283300  0.13889199  1
  Y  Y5  1  0.74999999  0.97605899  0.83716695  1
  Y  Y6  1  0.25000000  0.02394100  0.16283300  1
  Y  Y7  1  0.25000000  0.83716700  0.86110796  1
  Ga  Ga8  1  0.74999999  0.04843800  0.32275200  1
  Si  Si9  1  0.25000000  0.95156199  0.67724795  1
  Ge  Ge10  1  0.74999999  0.27431400  0.95156200  1
  Ga  Ga11  1  0.74999999  0.67724800  0.72568597  1
  Ge  Ge12  1  0.25000000  0.32275200  0.27431398  1
  Si  Si13  1  0.25000000  0.72568600  0.04843795  1
