# generated using pymatgen
data_NaLi2Cu9NO7
_symmetry_space_group_name_H-M   'P 1'
_cell_length_a   4.86651278
_cell_length_b   7.51702976
_cell_length_c   7.51703024
_cell_angle_alpha   120.00000000
_cell_angle_beta   90.00000000
_cell_angle_gamma   90.00000000
_symmetry_Int_Tables_number   1
_chemical_formula_structural   NaLi2Cu9NO7
_chemical_formula_sum   'Na1 Li2 Cu9 N1 O7'
_cell_volume   238.14478006
_cell_formula_units_Z   1
loop_
 _symmetry_equiv_pos_site_id
 _symmetry_equiv_pos_as_xyz
  1  'x, y, z'
loop_
 _atom_site_type_symbol
 _atom_site_label
 _atom_site_symmetry_multiplicity
 _atom_site_fract_x
 _atom_site_fract_y
 _atom_site_fract_z
 _atom_site_occupancy
  Li  Li0  1  0.95108504  0.45435302  0.90870598  1
  Na  Na1  1  0.45108502  0.54564702  0.09129400  1
  Li  Li2  1  0.95108504  0.45435302  0.54564599  1
  Cu  Cu3  1  0.95108504  0.09129300  0.54564599  1
  Cu  Cu4  1  0.45108502  0.90870703  0.45435399  1
  Cu  Cu5  1  0.45108502  0.54564702  0.45435399  1
  Cu  Cu6  1  0.74568503  0.87635903  0.75271799  1
  Cu  Cu7  1  0.24568501  0.12364100  0.24728199  1
  Cu  Cu8  1  0.74568503  0.87635903  0.12364100  1
  Cu  Cu9  1  0.74568503  0.24728201  0.12364100  1
  Cu  Cu10  1  0.24568501  0.75271803  0.87635898  1
  Cu  Cu11  1  0.24568501  0.12364100  0.87635898  1
  O  O12  1  0.91717104  0.66666669  0.33333333  1
  O  O13  1  0.41717102  0.33333334  0.66666665  1
  O  O14  1  0.66018003  0.18944201  0.81055798  1
  O  O15  1  0.16018001  0.81055803  0.62111599  1
  O  O16  1  0.66018003  0.18944201  0.37888399  1
  N  N17  1  0.66018003  0.62111602  0.81055798  1
  O  O18  1  0.16018001  0.37888401  0.18944200  1
  O  O19  1  0.16018001  0.81055803  0.18944200  1
