# generated using pymatgen
data_LaYErCu2GeSb3Pd2Au
_symmetry_space_group_name_H-M   'P 1'
_cell_length_a   6.15855455
_cell_length_b   6.15855455
_cell_length_c   7.90683985
_cell_angle_alpha   67.08004761
_cell_angle_beta   67.08004761
_cell_angle_gamma   59.99999237
_symmetry_Int_Tables_number   1
_chemical_formula_structural   LaYErCu2GeSb3Pd2Au
_chemical_formula_sum   'La1 Y1 Er1 Cu2 Ge1 Sb3 Pd2 Au1'
_cell_volume   231.97004638
_cell_formula_units_Z   1
loop_
 _symmetry_equiv_pos_site_id
 _symmetry_equiv_pos_as_xyz
  1  'x, y, z'
loop_
 _atom_site_type_symbol
 _atom_site_label
 _atom_site_symmetry_multiplicity
 _atom_site_fract_x
 _atom_site_fract_y
 _atom_site_fract_z
 _atom_site_occupancy
  Er  Er0  1  0.00000000  0.00000000  0.00000000  1
  La  La1  1  0.78182199  0.78182202  0.65453403  1
  Y  Y2  1  0.21817800  0.21817800  0.34546601  1
  Sb  Sb3  1  0.49999999  0.50000001  0.00000001  1
  Sb  Sb4  1  0.50000001  0.00000000  0.00000000  1
  Sb  Sb5  1  -0.00000001  0.50000001  0.00000000  1
  Pd  Pd6  1  0.70398799  0.70398801  0.33070502  1
  Ge  Ge7  1  0.70398800  0.26131901  0.33070501  1
  Pd  Pd8  1  0.26131899  0.70398801  0.33070502  1
  Au  Au9  1  0.29601200  0.29601201  0.66929502  1
  Cu  Cu10  1  0.29601199  0.73868101  0.66929502  1
  Cu  Cu11  1  0.73868100  0.29601201  0.66929502  1
