# generated using pymatgen
data_HoHf2AlSi4
_symmetry_space_group_name_H-M   'P 1'
_cell_length_a   4.02688980
_cell_length_b   5.04366684
_cell_length_c   7.16322088
_cell_angle_alpha   90.00000000
_cell_angle_beta   90.00000000
_cell_angle_gamma   90.00000000
_symmetry_Int_Tables_number   1
_chemical_formula_structural   HoHf2AlSi4
_chemical_formula_sum   'Ho1 Hf2 Al1 Si4'
_cell_volume   145.48709744
_cell_formula_units_Z   1
loop_
 _symmetry_equiv_pos_site_id
 _symmetry_equiv_pos_as_xyz
  1  'x, y, z'
loop_
 _atom_site_type_symbol
 _atom_site_label
 _atom_site_symmetry_multiplicity
 _atom_site_fract_x
 _atom_site_fract_y
 _atom_site_fract_z
 _atom_site_occupancy
  Hf  Hf0  1  0.50000002  0.75000002  0.27881600  1
  Ho  Ho1  1  0.50000002  0.25000001  0.72118401  1
  Hf  Hf2  1  0.00000000  0.75000002  0.65143501  1
  Al  Al3  1  0.00000000  0.25000001  0.34856501  1
  Si  Si4  1  0.50000002  0.25000001  0.08930400  1
  Si  Si5  1  0.50000002  0.75000002  0.91069601  1
  Si  Si6  1  0.00000000  0.50000002  0.00000000  1
  Si  Si7  1  0.00000000  0.00000000  0.00000000  1
