# generated using pymatgen
data_MgZn(CdAu)2
_symmetry_space_group_name_H-M   'P 1'
_cell_length_a   4.88854408
_cell_length_b   5.31517124
_cell_length_c   5.63657093
_cell_angle_alpha   62.61940765
_cell_angle_beta   64.30088043
_cell_angle_gamma   62.62147141
_symmetry_Int_Tables_number   1
_chemical_formula_structural   MgZn(CdAu)2
_chemical_formula_sum   'Mg1 Zn1 Cd2 Au2'
_cell_volume   110.80482702
_cell_formula_units_Z   1
loop_
 _symmetry_equiv_pos_site_id
 _symmetry_equiv_pos_as_xyz
  1  'x, y, z'
loop_
 _atom_site_type_symbol
 _atom_site_label
 _atom_site_symmetry_multiplicity
 _atom_site_fract_x
 _atom_site_fract_y
 _atom_site_fract_z
 _atom_site_occupancy
  Mg  Mg0  1  0.30080300  0.67782999  0.01578497  1
  Cd  Cd1  1  0.99441800  0.32216999  0.98421496  1
  Cd  Cd2  1  0.53620100  0.49999999  0.49999997  1
  Zn  Zn3  1  0.65619800  0.00000000  -0.00000001  1
  Au  Au4  1  0.81866700  0.86890398  0.50614195  1
  Au  Au5  1  0.19371300  0.13109600  0.49385798  1
