# generated using pymatgen
data_TiMnV2PdWS2O
_symmetry_space_group_name_H-M   'P 1'
_cell_length_a   4.89485121
_cell_length_b   6.94917965
_cell_length_c   8.39910221
_cell_angle_alpha   104.09874725
_cell_angle_beta   96.99604797
_cell_angle_gamma   92.98101807
_symmetry_Int_Tables_number   1
_chemical_formula_structural   TiMnV2PdWS2O
_chemical_formula_sum   'Ti1 Mn1 V2 Pd1 W1 S2 O1'
_cell_volume   274.03645021
_cell_formula_units_Z   1
loop_
 _symmetry_equiv_pos_site_id
 _symmetry_equiv_pos_as_xyz
  1  'x, y, z'
loop_
 _atom_site_type_symbol
 _atom_site_label
 _atom_site_symmetry_multiplicity
 _atom_site_fract_x
 _atom_site_fract_y
 _atom_site_fract_z
 _atom_site_occupancy
  Mn  Mn0  1  0.49999996  0.49999999  0.49999998  1
  Ti  Ti1  1  0.21688798  0.27379699  0.29592099  1
  V  V2  1  0.78311194  0.72620298  0.70407897  1
  V  V3  1  0.59270394  0.98547297  0.71860096  1
  S  S4  1  0.22330998  0.37307899  0.66340497  1
  S  S5  1  0.77668995  0.62692098  0.33659498  1
  Pd  Pd6  1  0.25052498  0.32148499  0.06911199  1
  W  W7  1  0.74947494  0.67851498  0.93088796  1
  O  O8  1  0.40729598  0.01452700  0.28139899  1
