# generated using pymatgen
data_ErAl6Ga2FeSi3Ge4
_symmetry_space_group_name_H-M   'P 1'
_cell_length_a   5.81060791
_cell_length_b   5.81079006
_cell_length_c   9.45830250
_cell_angle_alpha   90.00000000
_cell_angle_beta   107.88874817
_cell_angle_gamma   90.00000000
_symmetry_Int_Tables_number   1
_chemical_formula_structural   ErAl6Ga2FeSi3Ge4
_chemical_formula_sum   'Er1 Al6 Ga2 Fe1 Si3 Ge4'
_cell_volume   303.91306670
_cell_formula_units_Z   1
loop_
 _symmetry_equiv_pos_site_id
 _symmetry_equiv_pos_as_xyz
  1  'x, y, z'
loop_
 _atom_site_type_symbol
 _atom_site_label
 _atom_site_symmetry_multiplicity
 _atom_site_fract_x
 _atom_site_fract_y
 _atom_site_fract_z
 _atom_site_occupancy
  Er  Er0  1  0.40585901  0.74979399  0.31025203  1
  Al  Al1  1  0.90439303  0.25020600  0.31025204  1
  Al  Al2  1  0.09560700  0.25020600  0.68974804  1
  Al  Al3  1  0.59414102  0.74979399  0.68974805  1
  Al  Al4  1  0.50000002  0.25075300  0.50000004  1
  Al  Al5  1  0.00000000  0.74924699  0.50000002  1
  Fe  Fe6  1  0.50000002  0.49999999  0.00000002  1
  Ga  Ga7  1  0.50000002  0.99999999  0.00000002  1
  Si  Si8  1  0.00000000  0.49999999  -0.00000000  1
  Ga  Ga9  1  0.16928001  0.75043799  0.83913304  1
  Al  Al10  1  0.66985302  0.24956200  0.83913306  1
  Ge  Ge11  1  0.33014701  0.24956200  0.16086702  1
  Si  Si12  1  0.83072003  0.75043799  0.16086703  1
  Si  Si13  1  0.24895301  0.49999999  0.49790603  1
  Ge  Ge14  1  0.75001702  0.99999999  0.50003405  1
  Ge  Ge15  1  0.75104702  0.49999999  0.50209405  1
  Ge  Ge16  1  0.24998301  0.00000000  0.49996603  1
