# generated using pymatgen
data_ErThZr4Sn4RuPtAu6
_symmetry_space_group_name_H-M   'P 1'
_cell_length_a   6.18073988
_cell_length_b   8.56387043
_cell_length_c   8.56386948
_cell_angle_alpha   120.00000000
_cell_angle_beta   90.00000000
_cell_angle_gamma   90.00000000
_symmetry_Int_Tables_number   1
_chemical_formula_structural   ErThZr4Sn4RuPtAu6
_chemical_formula_sum   'Er1 Th1 Zr4 Sn4 Ru1 Pt1 Au6'
_cell_volume   392.56468270
_cell_formula_units_Z   1
loop_
 _symmetry_equiv_pos_site_id
 _symmetry_equiv_pos_as_xyz
  1  'x, y, z'
loop_
 _atom_site_type_symbol
 _atom_site_label
 _atom_site_symmetry_multiplicity
 _atom_site_fract_x
 _atom_site_fract_y
 _atom_site_fract_z
 _atom_site_occupancy
  Er  Er0  1  0.75000001  0.26083298  0.99999995  1
  Th  Th1  1  0.75000001  0.73916694  0.73916692  1
  Zr  Zr2  1  0.75000001  0.99999992  0.26083292  1
  Zr  Zr3  1  0.25000000  0.73916694  -0.00000005  1
  Zr  Zr4  1  0.25000000  0.26083298  0.26083297  1
  Zr  Zr5  1  0.25000000  0.99999992  0.73916691  1
  Au  Au6  1  0.50000001  0.33333331  0.66666662  1
  Sn  Sn7  1  0.50000001  0.66666661  0.33333328  1
  Sn  Sn8  1  -0.00000000  0.66666661  0.33333328  1
  Sn  Sn9  1  -0.00000000  0.33333331  0.66666662  1
  Au  Au10  1  0.75000001  0.60484395  -0.00000004  1
  Au  Au11  1  0.75000001  0.39515597  0.39515596  1
  Au  Au12  1  0.75000001  0.99999992  0.60484391  1
  Au  Au13  1  0.25000000  0.39515597  -0.00000003  1
  Sn  Sn14  1  0.25000000  0.60484395  0.60484394  1
  Pt  Pt15  1  0.25000000  0.99999992  0.39515592  1
  Au  Au16  1  0.50000001  0.00000000  -0.00000000  1
  Ru  Ru17  1  0.00000000  0.00000000  0.00000000  1
