# generated using pymatgen
data_Er2AlIn2Ga5SnGePd2
_symmetry_space_group_name_H-M   'P 1'
_cell_length_a   4.28240204
_cell_length_b   8.21984005
_cell_length_c   8.21984005
_cell_angle_alpha   72.42642212
_cell_angle_beta   74.90075684
_cell_angle_gamma   74.90075684
_symmetry_Int_Tables_number   1
_chemical_formula_structural   Er2AlIn2Ga5SnGePd2
_chemical_formula_sum   'Er2 Al1 In2 Ga5 Sn1 Ge1 Pd2'
_cell_volume   261.06791948
_cell_formula_units_Z   1
loop_
 _symmetry_equiv_pos_site_id
 _symmetry_equiv_pos_as_xyz
  1  'x, y, z'
loop_
 _atom_site_type_symbol
 _atom_site_label
 _atom_site_symmetry_multiplicity
 _atom_site_fract_x
 _atom_site_fract_y
 _atom_site_fract_z
 _atom_site_occupancy
  Er  Er0  1  0.00000000  0.00000000  0.00000000  1
  Er  Er1  1  0.30455804  0.69544195  0.69544202  1
  Ga  Ga2  1  0.69544200  0.30455798  0.30455803  1
  Al  Al3  1  0.00000004  0.49999996  0.50000001  1
  Ga  Ga4  1  0.34351001  0.28745798  0.02552203  1
  Ga  Ga5  1  0.65649004  0.71254195  0.97447803  1
  Ga  Ga6  1  0.34350999  0.02552200  0.28745800  1
  Ga  Ga7  1  0.65649006  0.97447793  0.71254205  1
  In  In8  1  0.13814904  0.57966996  0.14403103  1
  In  In9  1  0.86185101  0.42032997  0.85596902  1
  Sn  Sn10  1  0.13815001  0.14402999  0.57966999  1
  Pd  Pd11  1  0.86185004  0.85596994  0.42033007  1
  Pd  Pd12  1  0.50000001  0.30667998  0.69332001  1
  Ge  Ge13  1  0.50000004  0.69331995  0.30668005  1
