# generated using pymatgen
data_LaErLuHfZrInSn2PdAu5
_symmetry_space_group_name_H-M   'P 1'
_cell_length_a   5.86158848
_cell_length_b   8.18333530
_cell_length_c   8.18333530
_cell_angle_alpha   114.48718262
_cell_angle_beta   103.81343079
_cell_angle_gamma   103.81343079
_symmetry_Int_Tables_number   1
_chemical_formula_structural   LaErLuHfZrInSn2PdAu5
_chemical_formula_sum   'La1 Er1 Lu1 Hf1 Zr1 In1 Sn2 Pd1 Au5'
_cell_volume   320.56432902
_cell_formula_units_Z   1
loop_
 _symmetry_equiv_pos_site_id
 _symmetry_equiv_pos_as_xyz
  1  'x, y, z'
loop_
 _atom_site_type_symbol
 _atom_site_label
 _atom_site_symmetry_multiplicity
 _atom_site_fract_x
 _atom_site_fract_y
 _atom_site_fract_z
 _atom_site_occupancy
  Er  Er0  1  0.27897583  0.87485891  0.25198388  1
  Zr  Zr1  1  0.40411693  0.37712496  0.12514093  1
  La  La2  1  0.02699185  0.74801592  0.62287490  1
  Hf  Hf3  1  0.72102399  0.12514099  0.74801593  1
  Lu  Lu4  1  0.59588289  0.62287493  0.87485888  1
  In  In5  1  0.97300797  0.25198397  0.37712491  1
  Au  Au6  1  0.00000000  0.00000000  0.00000000  1
  Sn  Sn7  1  0.50000001  0.00000000  -0.00000002  1
  Au  Au8  1  0.55250994  0.32993996  0.49359592  1
  Sn  Sn9  1  0.22256997  0.16365598  0.67005995  1
  Au  Au10  1  0.05891390  0.50640395  0.83634392  1
  Au  Au11  1  0.44748987  0.67005993  0.50640389  1
  Pd  Pd12  1  0.77742985  0.83634391  0.32993985  1
  Au  Au13  1  0.94108592  0.49359595  0.16365589  1
