# generated using pymatgen
data_YIn7GaSn2Au3
_symmetry_space_group_name_H-M   'P 1'
_cell_length_a   4.34886599
_cell_length_b   8.36341476
_cell_length_c   8.36341476
_cell_angle_alpha   70.16905212
_cell_angle_beta   74.93032837
_cell_angle_gamma   74.93032837
_symmetry_Int_Tables_number   1
_chemical_formula_structural   YIn7GaSn2Au3
_chemical_formula_sum   'Y1 In7 Ga1 Sn2 Au3'
_cell_volume   271.32259216
_cell_formula_units_Z   1
loop_
 _symmetry_equiv_pos_site_id
 _symmetry_equiv_pos_as_xyz
  1  'x, y, z'
loop_
 _atom_site_type_symbol
 _atom_site_label
 _atom_site_symmetry_multiplicity
 _atom_site_fract_x
 _atom_site_fract_y
 _atom_site_fract_z
 _atom_site_occupancy
  Y  Y0  1  0.00000000  0.00000000  0.00000000  1
  In  In1  1  0.29979401  0.70020598  0.70020604  1
  In  In2  1  0.70020600  0.29979399  0.29979403  1
  In  In3  1  0.34123100  0.28967699  0.02786102  1
  Ga  Ga4  1  0.65876901  0.71032298  0.97213905  1
  In  In5  1  0.34123100  0.02786100  0.28967700  1
  In  In6  1  0.65876901  0.97213897  0.71032307  1
  In  In7  1  0.14235401  0.57732898  0.13796404  1
  In  In8  1  0.85764600  0.42267099  0.86203603  1
  Au  Au9  1  0.14235400  0.13796400  0.57732901  1
  Au  Au10  1  0.85764601  0.86203597  0.42267107  1
  Sn  Sn11  1  0.50000000  0.30915599  0.69084402  1
  Au  Au12  1  0.50000001  0.69084398  0.30915605  1
  Sn  Sn13  1  0.00000001  0.49999998  0.50000003  1
