# generated using pymatgen
data_MnAl3(FeSi)4
_symmetry_space_group_name_H-M   'P 1'
_cell_length_a   3.76452208
_cell_length_b   6.33835220
_cell_length_c   7.26310921
_cell_angle_alpha   90.00000000
_cell_angle_beta   90.00000000
_cell_angle_gamma   90.00000000
_symmetry_Int_Tables_number   1
_chemical_formula_structural   MnAl3(FeSi)4
_chemical_formula_sum   'Mn1 Al3 Fe4 Si4'
_cell_volume   173.30408129
_cell_formula_units_Z   1
loop_
 _symmetry_equiv_pos_site_id
 _symmetry_equiv_pos_as_xyz
  1  'x, y, z'
loop_
 _atom_site_type_symbol
 _atom_site_label
 _atom_site_symmetry_multiplicity
 _atom_site_fract_x
 _atom_site_fract_y
 _atom_site_fract_z
 _atom_site_occupancy
  Mn  Mn0  1  0.24999999  0.02202700  0.82888298  1
  Al  Al1  1  0.24999999  0.52202698  0.67111698  1
  Al  Al2  1  0.74999998  0.97797297  0.17111700  1
  Al  Al3  1  0.74999998  0.47797298  0.32888299  1
  Fe  Fe4  1  0.24999999  0.15474800  0.43703699  1
  Fe  Fe5  1  0.24999999  0.65474798  0.06296300  1
  Fe  Fe6  1  0.74999998  0.84525197  0.56296298  1
  Si  Si7  1  0.74999998  0.34525199  0.93703697  1
  Fe  Fe8  1  0.24999999  0.77998797  0.37597899  1
  Si  Si9  1  0.24999999  0.27998799  0.12402100  1
  Si  Si10  1  0.74999998  0.22001199  0.62402098  1
  Si  Si11  1  0.74999998  0.72001198  0.87597898  1
