# generated using pymatgen
data_LiMgCd2
_symmetry_space_group_name_H-M   'P 1'
_cell_length_a   4.10765219
_cell_length_b   4.71187115
_cell_length_c   6.04081249
_cell_angle_alpha   90.00000000
_cell_angle_beta   109.87636566
_cell_angle_gamma   90.00000000
_symmetry_Int_Tables_number   1
_chemical_formula_structural   LiMgCd2
_chemical_formula_sum   'Li1 Mg1 Cd2'
_cell_volume   109.95327867
_cell_formula_units_Z   1
loop_
 _symmetry_equiv_pos_site_id
 _symmetry_equiv_pos_as_xyz
  1  'x, y, z'
loop_
 _atom_site_type_symbol
 _atom_site_label
 _atom_site_symmetry_multiplicity
 _atom_site_fract_x
 _atom_site_fract_y
 _atom_site_fract_z
 _atom_site_occupancy
  Li  Li0  1  0.85875595  0.24999999  0.71751200  1
  Mg  Mg1  1  0.14124399  0.74999998  0.28248900  1
  Cd  Cd2  1  0.57498697  0.24999999  0.14997399  1
  Cd  Cd3  1  0.42501298  0.74999998  0.85002601  1
