# generated using pymatgen
data_Li4FeCoP2
_symmetry_space_group_name_H-M   'P 1'
_cell_length_a   3.68155098
_cell_length_b   3.68155098
_cell_length_c   12.82812405
_cell_angle_alpha   90.00000000
_cell_angle_beta   90.00000000
_cell_angle_gamma   90.00000000
_symmetry_Int_Tables_number   1
_chemical_formula_structural   Li4FeCoP2
_chemical_formula_sum   'Li4 Fe1 Co1 P2'
_cell_volume   173.87005367
_cell_formula_units_Z   1
loop_
 _symmetry_equiv_pos_site_id
 _symmetry_equiv_pos_as_xyz
  1  'x, y, z'
loop_
 _atom_site_type_symbol
 _atom_site_label
 _atom_site_symmetry_multiplicity
 _atom_site_fract_x
 _atom_site_fract_y
 _atom_site_fract_z
 _atom_site_occupancy
  Li  Li0  1  0.50000000  0.00000000  0.00300400  1
  Li  Li1  1  0.50000000  0.00000000  0.48637300  1
  Li  Li2  1  0.00000000  0.50000000  0.00300400  1
  Li  Li3  1  0.00000000  0.50000000  0.48637300  1
  P  P4  1  0.50000000  0.50000000  0.86161400  1
  P  P5  1  0.00000000  0.00000000  0.14413400  1
  Fe  Fe6  1  0.00000000  0.00000000  0.61539200  1
  Co  Co7  1  0.50000000  0.50000000  0.40010600  1
