# generated using pymatgen
data_LaYAlGaGe2
_symmetry_space_group_name_H-M   'P 1'
_cell_length_a   3.73719907
_cell_length_b   4.41768980
_cell_length_c   7.64390993
_cell_angle_alpha   90.00000000
_cell_angle_beta   90.00000000
_cell_angle_gamma   90.00000000
_symmetry_Int_Tables_number   1
_chemical_formula_structural   LaYAlGaGe2
_chemical_formula_sum   'La1 Y1 Al1 Ga1 Ge2'
_cell_volume   126.19931873
_cell_formula_units_Z   1
loop_
 _symmetry_equiv_pos_site_id
 _symmetry_equiv_pos_as_xyz
  1  'x, y, z'
loop_
 _atom_site_type_symbol
 _atom_site_label
 _atom_site_symmetry_multiplicity
 _atom_site_fract_x
 _atom_site_fract_y
 _atom_site_fract_z
 _atom_site_occupancy
  Y  Y0  1  0.00000000  0.50000002  0.00248600  1
  La  La1  1  0.00000000  0.00000000  0.49755200  1
  Al  Al2  1  0.49999999  0.00000000  0.83581001  1
  Ga  Ga3  1  0.49999999  0.00000000  0.17456600  1
  Ge  Ge4  1  0.49999999  0.50000002  0.65830001  1
  Ge  Ge5  1  0.49999999  0.50000002  0.33128600  1
