# generated using pymatgen
data_LiNi
_symmetry_space_group_name_H-M   'P 1'
_cell_length_a   3.77963996
_cell_length_b   5.97282362
_cell_length_c   5.98051310
_cell_angle_alpha   90.00000000
_cell_angle_beta   90.00000000
_cell_angle_gamma   108.44554138
_symmetry_Int_Tables_number   1
_chemical_formula_structural   LiNi
_chemical_formula_sum   'Li4 Ni4'
_cell_volume   128.07461252
_cell_formula_units_Z   4
loop_
 _symmetry_equiv_pos_site_id
 _symmetry_equiv_pos_as_xyz
  1  'x, y, z'
loop_
 _atom_site_type_symbol
 _atom_site_label
 _atom_site_symmetry_multiplicity
 _atom_site_fract_x
 _atom_site_fract_y
 _atom_site_fract_z
 _atom_site_occupancy
  Li  Li0  1  0.71261904  0.42523802  0.74999999  1
  Li  Li1  1  0.28738105  0.57476203  0.25000000  1
  Li  Li2  1  0.00330000  0.00660000  0.25000000  1
  Li  Li3  1  0.99670009  0.99340005  0.74999999  1
  Ni  Ni4  1  0.12219902  0.24439801  0.50674299  1
  Ni  Ni5  1  0.87780107  0.75560204  0.49325699  1
  Ni  Ni6  1  0.12219902  0.24439801  0.99325698  1
  Ni  Ni7  1  0.87780107  0.75560204  0.00674300  1
