# generated using pymatgen
data_DyScAlPd3
_symmetry_space_group_name_H-M   'P 1'
_cell_length_a   5.56212044
_cell_length_b   5.56212044
_cell_length_c   5.56212044
_cell_angle_alpha   60.00000000
_cell_angle_beta   60.00000000
_cell_angle_gamma   60.00000000
_symmetry_Int_Tables_number   1
_chemical_formula_structural   DyScAlPd3
_chemical_formula_sum   'Dy1 Sc1 Al1 Pd3'
_cell_volume   121.67634837
_cell_formula_units_Z   1
loop_
 _symmetry_equiv_pos_site_id
 _symmetry_equiv_pos_as_xyz
  1  'x, y, z'
loop_
 _atom_site_type_symbol
 _atom_site_label
 _atom_site_symmetry_multiplicity
 _atom_site_fract_x
 _atom_site_fract_y
 _atom_site_fract_z
 _atom_site_occupancy
  Sc  Sc0  1  0.00000000  0.00000000  0.00000000  1
  Dy  Dy1  1  0.74999999  0.74999999  0.74999999  1
  Al  Al2  1  0.87499998  0.37499999  0.37499999  1
  Pd  Pd3  1  0.37499999  0.37499999  0.87499998  1
  Pd  Pd4  1  0.37499999  0.37499999  0.37499999  1
  Pd  Pd5  1  0.37499999  0.87499998  0.37499999  1
