# generated using pymatgen
data_Y2HoIn3Sn2Au
_symmetry_space_group_name_H-M   'P 1'
_cell_length_a   4.05772495
_cell_length_b   7.66419983
_cell_length_c   7.66420031
_cell_angle_alpha   120.00000000
_cell_angle_beta   90.00000000
_cell_angle_gamma   90.00000000
_symmetry_Int_Tables_number   1
_chemical_formula_structural   Y2HoIn3Sn2Au
_chemical_formula_sum   'Y2 Ho1 In3 Sn2 Au1'
_cell_volume   206.41768523
_cell_formula_units_Z   1
loop_
 _symmetry_equiv_pos_site_id
 _symmetry_equiv_pos_as_xyz
  1  'x, y, z'
loop_
 _atom_site_type_symbol
 _atom_site_label
 _atom_site_symmetry_multiplicity
 _atom_site_fract_x
 _atom_site_fract_y
 _atom_site_fract_z
 _atom_site_occupancy
  Y  Y0  1  0.50000001  0.58767302  0.58767299  1
  Y  Y1  1  0.50000001  0.00000000  0.41232699  1
  Ho  Ho2  1  0.50000001  0.41232701  0.00000000  1
  In  In3  1  -0.00000000  0.24707101  0.24707099  1
  In  In4  1  0.00000000  0.00000000  0.75292898  1
  In  In5  1  -0.00000000  0.75292902  0.00000001  1
  Sn  Sn6  1  1.00000001  0.66666668  0.33333333  1
  Au  Au7  1  1.00000001  0.33333334  0.66666665  1
  Sn  Sn8  1  0.50000001  0.00000000  -0.00000000  1
