# generated using pymatgen
data_ErMnAl2Ga6FeSi5Ge3Rh
_symmetry_space_group_name_H-M   'P 1'
_cell_length_a   3.14289999
_cell_length_b   9.33016777
_cell_length_c   9.33016777
_cell_angle_alpha   90.00000000
_cell_angle_beta   90.00000000
_cell_angle_gamma   90.00000000
_symmetry_Int_Tables_number   1
_chemical_formula_structural   ErMnAl2Ga6FeSi5Ge3Rh
_chemical_formula_sum   'Er1 Mn1 Al2 Ga6 Fe1 Si5 Ge3 Rh1'
_cell_volume   273.59582618
_cell_formula_units_Z   1
loop_
 _symmetry_equiv_pos_site_id
 _symmetry_equiv_pos_as_xyz
  1  'x, y, z'
loop_
 _atom_site_type_symbol
 _atom_site_label
 _atom_site_symmetry_multiplicity
 _atom_site_fract_x
 _atom_site_fract_y
 _atom_site_fract_z
 _atom_site_occupancy
  Er  Er0  1  1.00000000  0.82441702  0.32441701  1
  Mn  Mn1  1  0.00000000  0.17558300  0.67558302  1
  Ga  Ga2  1  1.00000000  0.32441701  0.17558300  1
  Ga  Ga3  1  0.00000000  0.67558302  0.82441702  1
  Al  Al4  1  0.00000000  0.50000001  0.50000001  1
  Al  Al5  1  0.00000000  0.00000000  0.00000000  1
  Si  Si6  1  0.00000000  0.62245402  0.12245400  1
  Fe  Fe7  1  0.00000000  0.37754601  0.87754602  1
  Ga  Ga8  1  0.00000000  0.12245400  0.37754601  1
  Ga  Ga9  1  0.00000000  0.87754602  0.62245402  1
  Ga  Ga10  1  0.50000000  0.71664102  0.57124601  1
  Ga  Ga11  1  0.50000000  0.28335901  0.42875401  1
  Si  Si12  1  0.50000000  0.21664101  0.92875402  1
  Rh  Rh13  1  0.50000000  0.78335902  0.07124600  1
  Si  Si14  1  0.50000000  0.42875401  0.71664102  1
  Ge  Ge15  1  0.50000000  0.57124601  0.28335901  1
  Ge  Ge16  1  0.50000000  0.07124600  0.21664101  1
  Si  Si17  1  0.50000000  0.92875402  0.78335902  1
  Si  Si18  1  0.50000000  0.50000001  0.00000000  1
  Ge  Ge19  1  0.50000000  0.00000000  0.50000001  1
