# generated using pymatgen
data_LiCu2O9
_symmetry_space_group_name_H-M   'P 1'
_cell_length_a   6.08409929
_cell_length_b   6.08409929
_cell_length_c   6.08409929
_cell_angle_alpha   105.69544983
_cell_angle_beta   105.69544983
_cell_angle_gamma   117.31950378
_symmetry_Int_Tables_number   1
_chemical_formula_structural   LiCu2O9
_chemical_formula_sum   'Li1 Cu2 O9'
_cell_volume   170.89634741
_cell_formula_units_Z   1
loop_
 _symmetry_equiv_pos_site_id
 _symmetry_equiv_pos_as_xyz
  1  'x, y, z'
loop_
 _atom_site_type_symbol
 _atom_site_label
 _atom_site_symmetry_multiplicity
 _atom_site_fract_x
 _atom_site_fract_y
 _atom_site_fract_z
 _atom_site_occupancy
  Li  Li0  1  0.74999999  0.25000000  0.49999997  1
  Cu  Cu1  1  0.00000000  0.00000000  0.00000000  1
  Cu  Cu2  1  0.50000001  0.50000000  -0.00000002  1
  O  O3  1  0.25000003  0.75000000  0.49999998  1
  O  O4  1  0.08934902  0.40979800  0.32044899  1
  O  O5  1  0.15979801  0.33934900  0.82044898  1
  O  O6  1  0.51890000  0.33934900  0.17955098  1
  O  O7  1  0.08934903  0.76890000  0.67955098  1
  O  O8  1  0.59020203  0.91065100  0.67955097  1
  O  O9  1  0.66065102  0.84020200  0.17955098  1
  O  O10  1  0.66065101  0.48110000  0.82044897  1
  O  O11  1  0.23110004  0.91065100  0.32044898  1
