# generated using pymatgen
data_YErMg2FeCu2Si2Ge8P
_symmetry_space_group_name_H-M   'P 1'
_cell_length_a   5.50884771
_cell_length_b   5.50884771
_cell_length_c   11.05070114
_cell_angle_alpha   75.56667328
_cell_angle_beta   75.56667328
_cell_angle_gamma   60.00000381
_symmetry_Int_Tables_number   1
_chemical_formula_structural   YErMg2FeCu2Si2Ge8P
_chemical_formula_sum   'Y1 Er1 Mg2 Fe1 Cu2 Si2 Ge8 P1'
_cell_volume   278.14128730
_cell_formula_units_Z   1
loop_
 _symmetry_equiv_pos_site_id
 _symmetry_equiv_pos_as_xyz
  1  'x, y, z'
loop_
 _atom_site_type_symbol
 _atom_site_label
 _atom_site_symmetry_multiplicity
 _atom_site_fract_x
 _atom_site_fract_y
 _atom_site_fract_z
 _atom_site_occupancy
  Y  Y0  1  0.15215499  0.15215500  0.54353503  1
  Mg  Mg1  1  0.94872091  0.94872098  0.15383706  1
  Mg  Mg2  1  0.84784492  0.84784498  0.45646506  1
  Er  Er3  1  0.05127900  0.05127900  0.84616304  1
  Cu  Cu4  1  0.61756294  0.61756299  0.14731104  1
  Fe  Fe5  1  0.71663293  0.71663299  0.85010107  1
  Si  Si6  1  0.38243696  0.38243699  0.85268906  1
  Si  Si7  1  0.28336697  0.28336699  0.14989902  1
  Cu  Cu8  1  0.89931094  0.40643399  0.28782105  1
  Ge  Ge9  1  0.40643394  0.89931098  0.28782105  1
  Ge  Ge10  1  0.49999995  0.49999999  0.00000003  1
  Ge  Ge11  1  -0.00000002  0.49999999  0.00000001  1
  Ge  Ge12  1  0.49999998  0.00000000  0.00000001  1
  Ge  Ge13  1  0.49999995  0.49999999  0.50000005  1
  Ge  Ge14  1  0.10068897  0.59356599  0.71217905  1
  Ge  Ge15  1  0.59356595  0.59356599  0.71217906  1
  Ge  Ge16  1  0.59356597  0.10068900  0.71217905  1
  P  P17  1  0.40643396  0.40643399  0.28782103  1
