# generated using pymatgen
data_NaCu4WO12
_symmetry_space_group_name_H-M   'P 1'
_cell_length_a   5.68626118
_cell_length_b   6.52279854
_cell_length_c   7.35605860
_cell_angle_alpha   65.48243713
_cell_angle_beta   70.50012207
_cell_angle_gamma   75.77238464
_symmetry_Int_Tables_number   1
_chemical_formula_structural   NaCu4WO12
_chemical_formula_sum   'Na1 Cu4 W1 O12'
_cell_volume   232.16256176
_cell_formula_units_Z   1
loop_
 _symmetry_equiv_pos_site_id
 _symmetry_equiv_pos_as_xyz
  1  'x, y, z'
loop_
 _atom_site_type_symbol
 _atom_site_label
 _atom_site_symmetry_multiplicity
 _atom_site_fract_x
 _atom_site_fract_y
 _atom_site_fract_z
 _atom_site_occupancy
  Cu  Cu0  1  0.80733696  0.29886701  0.10977299  1
  Na  Na1  1  0.19266296  0.70113303  0.89022700  1
  Cu  Cu2  1  0.81546495  0.64251803  0.54670099  1
  Cu  Cu3  1  0.18453498  0.35748202  0.45329900  1
  Cu  Cu4  1  0.36656495  0.91246004  0.23668799  1
  W  W5  1  0.63343498  0.08754000  0.76331201  1
  O  O6  1  0.30338599  0.03948000  0.96266701  1
  O  O7  1  0.01455396  0.89026104  0.37400299  1
  O  O8  1  0.30116998  0.21708701  0.23948200  1
  O  O9  1  0.90056795  0.52025702  0.32558199  1
  O  O10  1  0.37649696  0.60822403  0.26057599  1
  O  O11  1  0.51525695  0.81140103  0.45916599  1
  O  O12  1  0.48474298  0.18859901  0.54083400  1
  O  O13  1  0.62350297  0.39177602  0.73942400  1
  O  O14  1  0.69661394  0.96052004  0.03733298  1
  O  O15  1  0.98544597  0.10973900  0.62599700  1
  O  O16  1  0.69882995  0.78291303  0.76051799  1
  O  O17  1  0.09943198  0.47974302  0.67441800  1
