# generated using pymatgen
data_BaNa6SrAgO7
_symmetry_space_group_name_H-M   'P 1'
_cell_length_a   7.08468103
_cell_length_b   7.21020317
_cell_length_c   8.51179504
_cell_angle_alpha   90.00000000
_cell_angle_beta   90.00000000
_cell_angle_gamma   90.00000000
_symmetry_Int_Tables_number   1
_chemical_formula_structural   BaNa6SrAgO7
_chemical_formula_sum   'Ba1 Na6 Sr1 Ag1 O7'
_cell_volume   434.79942639
_cell_formula_units_Z   1
loop_
 _symmetry_equiv_pos_site_id
 _symmetry_equiv_pos_as_xyz
  1  'x, y, z'
loop_
 _atom_site_type_symbol
 _atom_site_label
 _atom_site_symmetry_multiplicity
 _atom_site_fract_x
 _atom_site_fract_y
 _atom_site_fract_z
 _atom_site_occupancy
  Na  Na0  1  0.29611600  0.08136200  0.36027900  1
  Ba  Ba1  1  0.79611600  0.91863798  0.63972100  1
  Sr  Sr2  1  0.79611600  0.41863799  0.86027900  1
  Na  Na3  1  0.29611600  0.58136199  0.13972100  1
  Na  Na4  1  0.18461300  0.03201600  0.95179300  1
  Na  Na5  1  0.68461300  0.96798398  0.04820700  1
  Na  Na6  1  0.68461300  0.46798399  0.45179300  1
  Na  Na7  1  0.18461300  0.53201599  0.54820700  1
  Ag  Ag8  1  0.87564300  0.11301500  0.84079600  1
  O  O9  1  0.37564300  0.88698498  0.15920400  1
  O  O10  1  0.37564300  0.38698499  0.34079600  1
  O  O11  1  0.87564300  0.61301499  0.65920400  1
  O  O12  1  0.41009800  0.91388298  0.62225400  1
  O  O13  1  0.91009800  0.08611700  0.37774600  1
  O  O14  1  0.91009800  0.58611699  0.12225400  1
  O  O15  1  0.41009800  0.41388299  0.87774600  1
