# generated using pymatgen
data_ErZr3Ga3SnPd4Au5
_symmetry_space_group_name_H-M   'P 1'
_cell_length_a   7.50309849
_cell_length_b   7.50309849
_cell_length_c   7.50309849
_cell_angle_alpha   109.47122192
_cell_angle_beta   109.47122192
_cell_angle_gamma   109.47122192
_symmetry_Int_Tables_number   1
_chemical_formula_structural   ErZr3Ga3SnPd4Au5
_chemical_formula_sum   'Er1 Zr3 Ga3 Sn1 Pd4 Au5'
_cell_volume   325.16218259
_cell_formula_units_Z   1
loop_
 _symmetry_equiv_pos_site_id
 _symmetry_equiv_pos_as_xyz
  1  'x, y, z'
loop_
 _atom_site_type_symbol
 _atom_site_label
 _atom_site_symmetry_multiplicity
 _atom_site_fract_x
 _atom_site_fract_y
 _atom_site_fract_z
 _atom_site_occupancy
  Er  Er0  1  0.00000000  0.00000000  0.50000001  1
  Zr  Zr1  1  0.50000004  0.50000003  0.50000005  1
  Zr  Zr2  1  0.50000001  0.00000000  0.00000001  1
  Zr  Zr3  1  1.00000006  0.50000003  1.00000007  1
  Ga  Ga4  1  0.70391406  0.70391404  0.00000006  1
  Ga  Ga5  1  0.25000004  0.50000003  0.75000005  1
  Pd  Pd6  1  0.29608607  1.00000006  0.29608607  1
  Ga  Ga7  1  0.29608603  0.29608602  0.00000002  1
  Sn  Sn8  1  0.75000003  0.25000001  0.50000004  1
  Au  Au9  1  0.50000003  0.25000001  0.75000004  1
  Au  Au10  1  0.50000006  0.75000004  0.25000006  1
  Pd  Pd11  1  1.00000007  0.70391404  0.70391407  1
  Au  Au12  1  0.25000005  0.75000004  0.50000006  1
  Au  Au13  1  0.75000005  0.50000003  0.25000005  1
  Pd  Pd14  1  0.00000002  0.29608602  0.29608602  1
  Au  Au15  1  0.70391402  0.00000000  0.70391403  1
  Pd  Pd16  1  0.00000000  0.00000000  0.00000000  1
