# generated using pymatgen
data_LaYCu4As2P2Ir
_symmetry_space_group_name_H-M   'P 1'
_cell_length_a   4.05307293
_cell_length_b   7.63156986
_cell_length_c   7.63156939
_cell_angle_alpha   120.00000000
_cell_angle_beta   90.00000000
_cell_angle_gamma   90.00000000
_symmetry_Int_Tables_number   1
_chemical_formula_structural   LaYCu4As2P2Ir
_chemical_formula_sum   'La1 Y1 Cu4 As2 P2 Ir1'
_cell_volume   204.42913520
_cell_formula_units_Z   1
loop_
 _symmetry_equiv_pos_site_id
 _symmetry_equiv_pos_as_xyz
  1  'x, y, z'
loop_
 _atom_site_type_symbol
 _atom_site_label
 _atom_site_symmetry_multiplicity
 _atom_site_fract_x
 _atom_site_fract_y
 _atom_site_fract_z
 _atom_site_occupancy
  Y  Y0  1  1.00000002  0.33333333  0.66666667  1
  La  La1  1  -0.00000000  0.66666667  0.33333332  1
  Cu  Cu2  1  0.50000001  0.71405800  -0.00000003  1
  Cu  Cu3  1  1.00000002  0.80906000  0.80905999  1
  Cu  Cu4  1  0.50000001  0.28594200  0.28594200  1
  Cu  Cu5  1  0.00000000  0.00000000  0.19094000  1
  As  As6  1  1.00000002  0.19094000  1.00000002  1
  As  As7  1  0.50000001  0.00000000  0.71405802  1
  Ir  Ir8  1  0.50000001  0.61297300  0.61297299  1
  P  P9  1  0.50000001  0.38702700  -0.00000001  1
  P  P10  1  0.50000001  0.00000000  0.38702701  1
