# generated using pymatgen
data_Na2Li3Cu2O11
_symmetry_space_group_name_H-M   'P 1'
_cell_length_a   5.22003603
_cell_length_b   5.22003603
_cell_length_c   9.70410824
_cell_angle_alpha   90.00000000
_cell_angle_beta   90.00000000
_cell_angle_gamma   120.00000000
_symmetry_Int_Tables_number   1
_chemical_formula_structural   Na2Li3Cu2O11
_chemical_formula_sum   'Na2 Li3 Cu2 O11'
_cell_volume   228.99883074
_cell_formula_units_Z   1
loop_
 _symmetry_equiv_pos_site_id
 _symmetry_equiv_pos_as_xyz
  1  'x, y, z'
loop_
 _atom_site_type_symbol
 _atom_site_label
 _atom_site_symmetry_multiplicity
 _atom_site_fract_x
 _atom_site_fract_y
 _atom_site_fract_z
 _atom_site_occupancy
  Na  Na0  1  0.66666667  0.33333335  0.24999999  1
  Li  Li1  1  0.33333335  0.66666670  0.74999998  1
  Na  Na2  1  0.00000000  0.00000000  0.00000000  1
  Li  Li3  1  0.00000000  0.00000000  0.49999999  1
  Cu  Cu4  1  0.33333335  0.66666670  0.24999999  1
  Li  Li5  1  0.66666667  0.33333335  0.74999998  1
  O  O6  1  0.01408601  0.36055402  0.13861100  1
  Cu  Cu7  1  0.98591401  0.63944603  0.86138898  1
  O  O8  1  0.63944601  0.65353203  0.13861100  1
  O  O9  1  0.63944602  0.98591404  0.36138899  1
  O  O10  1  0.36055401  0.34646801  0.86138898  1
  O  O11  1  0.36055400  0.01408600  0.63861098  1
  O  O12  1  0.34646802  0.98591404  0.13861100  1
  O  O13  1  0.34646801  0.36055402  0.36138899  1
  O  O14  1  0.65353200  0.01408600  0.86138898  1
  O  O15  1  0.65353201  0.63944603  0.63861098  1
  O  O16  1  0.01408602  0.65353203  0.36138899  1
  O  O17  1  0.98591400  0.34646801  0.63861098  1
