# generated using pymatgen
data_Mn2FeB2Mo4Rh
_symmetry_space_group_name_H-M   'P 1'
_cell_length_a   3.14376402
_cell_length_b   6.06520891
_cell_length_c   6.06520891
_cell_angle_alpha   90.00000000
_cell_angle_beta   90.00000000
_cell_angle_gamma   90.00000000
_symmetry_Int_Tables_number   1
_chemical_formula_structural   Mn2FeB2Mo4Rh
_chemical_formula_sum   'Mn2 Fe1 B2 Mo4 Rh1'
_cell_volume   115.64888978
_cell_formula_units_Z   1
loop_
 _symmetry_equiv_pos_site_id
 _symmetry_equiv_pos_as_xyz
  1  'x, y, z'
loop_
 _atom_site_type_symbol
 _atom_site_label
 _atom_site_symmetry_multiplicity
 _atom_site_fract_x
 _atom_site_fract_y
 _atom_site_fract_z
 _atom_site_occupancy
  Mn  Mn0  1  0.00000000  0.11203300  0.61203301  1
  Mn  Mn1  1  0.00000000  0.88796701  0.38796701  1
  Fe  Fe2  1  0.00000000  0.61203301  0.88796701  1
  B  B3  1  0.00000000  0.38796701  0.11203300  1
  Mo  Mo4  1  -0.00000000  0.50000001  0.50000001  1
  Mo  Mo5  1  0.00000000  0.00000000  0.00000000  1
  Mo  Mo6  1  0.50000000  0.67174301  0.17174300  1
  B  B7  1  0.50000000  0.32825700  0.82825701  1
  Mo  Mo8  1  0.50000000  0.17174300  0.32825700  1
  Rh  Rh9  1  0.50000000  0.82825701  0.67174301  1
