# generated using pymatgen
data_Er2ScAlCo2(Si2Ni)2
_symmetry_space_group_name_H-M   'P 1'
_cell_length_a   3.77406311
_cell_length_b   6.29770994
_cell_length_c   7.21972990
_cell_angle_alpha   90.00000000
_cell_angle_beta   90.00000000
_cell_angle_gamma   90.00000000
_symmetry_Int_Tables_number   1
_chemical_formula_structural   Er2ScAlCo2(Si2Ni)2
_chemical_formula_sum   'Er2 Sc1 Al1 Co2 Si4 Ni2'
_cell_volume   171.59821373
_cell_formula_units_Z   1
loop_
 _symmetry_equiv_pos_site_id
 _symmetry_equiv_pos_as_xyz
  1  'x, y, z'
loop_
 _atom_site_type_symbol
 _atom_site_label
 _atom_site_symmetry_multiplicity
 _atom_site_fract_x
 _atom_site_fract_y
 _atom_site_fract_z
 _atom_site_occupancy
  Er  Er0  1  0.24999999  0.51701900  0.32411600  1
  Er  Er1  1  0.24999999  0.01701900  0.17588400  1
  Sc  Sc2  1  0.74999998  0.98298101  0.82411601  1
  Al  Al3  1  0.74999998  0.48298100  0.67588401  1
  Co  Co4  1  0.74999998  0.83872601  0.42883701  1
  Co  Co5  1  0.24999999  0.16127400  0.57116301  1
  Ni  Ni6  1  0.74999998  0.33872600  0.07116300  1
  Ni  Ni7  1  0.24999999  0.66127401  0.92883701  1
  Si  Si8  1  0.74999998  0.71739501  0.11589100  1
  Si  Si9  1  0.24999999  0.78260501  0.61589101  1
  Si  Si10  1  0.24999999  0.28260500  0.88410901  1
  Si  Si11  1  0.74999998  0.21739500  0.38410901  1
