# generated using pymatgen
data_YNb3TlS5
_symmetry_space_group_name_H-M   'P 1'
_cell_length_a   4.24370003
_cell_length_b   7.39118958
_cell_length_c   9.46208000
_cell_angle_alpha   69.60985565
_cell_angle_beta   77.04135132
_cell_angle_gamma   73.31687927
_symmetry_Int_Tables_number   1
_chemical_formula_structural   YNb3TlS5
_chemical_formula_sum   'Y1 Nb3 Tl1 S5'
_cell_volume   263.91869715
_cell_formula_units_Z   1
loop_
 _symmetry_equiv_pos_site_id
 _symmetry_equiv_pos_as_xyz
  1  'x, y, z'
loop_
 _atom_site_type_symbol
 _atom_site_label
 _atom_site_symmetry_multiplicity
 _atom_site_fract_x
 _atom_site_fract_y
 _atom_site_fract_z
 _atom_site_occupancy
  Y  Y0  1  0.17449897  0.35152899  0.29947300  1
  Tl  Tl1  1  0.82550095  0.64847099  0.70052698  1
  Nb  Nb2  1  0.00000000  0.00000000  0.00000000  1
  Nb  Nb3  1  0.55288399  0.18538200  0.70884997  1
  Nb  Nb4  1  0.44711594  0.81461799  0.29115000  1
  S  S5  1  0.14763200  0.01311700  0.69161898  1
  S  S6  1  0.85236793  0.98688298  0.30838100  1
  S  S7  1  0.38469298  0.29201399  0.93859997  1
  S  S8  1  0.61530695  0.70798599  0.06140000  1
  S  S9  1  0.49999996  0.49999999  0.49999999  1
