# generated using pymatgen
data_KNa6EuO10
_symmetry_space_group_name_H-M   'P 1'
_cell_length_a   7.07394218
_cell_length_b   7.12085295
_cell_length_c   7.52813482
_cell_angle_alpha   90.00000000
_cell_angle_beta   90.00000000
_cell_angle_gamma   119.78231812
_symmetry_Int_Tables_number   1
_chemical_formula_structural   KNa6EuO10
_chemical_formula_sum   'K1 Na6 Eu1 O10'
_cell_volume   329.12433770
_cell_formula_units_Z   1
loop_
 _symmetry_equiv_pos_site_id
 _symmetry_equiv_pos_as_xyz
  1  'x, y, z'
loop_
 _atom_site_type_symbol
 _atom_site_label
 _atom_site_symmetry_multiplicity
 _atom_site_fract_x
 _atom_site_fract_y
 _atom_site_fract_z
 _atom_site_occupancy
  Eu  Eu0  1  0.55463699  0.10927400  0.75000002  1
  K  K1  1  0.44536303  0.89072600  0.25000001  1
  Na  Na2  1  0.15509601  0.31019200  0.00212400  1
  Na  Na3  1  0.84490401  0.68980800  0.99787602  1
  Na  Na4  1  0.84490401  0.68980800  0.50212401  1
  Na  Na5  1  0.15509601  0.31019200  0.49787601  1
  Na  Na6  1  0.89321500  0.40341400  0.75000002  1
  Na  Na7  1  0.10678503  0.59658600  0.25000001  1
  O  O8  1  0.51019901  0.40341400  0.75000002  1
  O  O9  1  0.48980102  0.59658600  0.25000001  1
  O  O10  1  0.39952603  0.79905200  0.95752502  1
  O  O11  1  0.60047399  0.20094800  0.04247500  1
  O  O12  1  0.60047399  0.20094800  0.45752501  1
  O  O13  1  0.39952603  0.79905200  0.54247501  1
  O  O14  1  0.78186303  0.98288200  0.75000002  1
  O  O15  1  0.21813700  0.01711800  0.25000001  1
  O  O16  1  0.20101905  0.98288200  0.75000002  1
  O  O17  1  0.79898098  0.01711800  0.25000001  1
