# generated using pymatgen
data_Na2SrCuO6
_symmetry_space_group_name_H-M   'P 1'
_cell_length_a   5.77861214
_cell_length_b   5.79459190
_cell_length_c   8.19038105
_cell_angle_alpha   90.00000000
_cell_angle_beta   89.79443359
_cell_angle_gamma   90.00000000
_symmetry_Int_Tables_number   1
_chemical_formula_structural   Na2SrCuO6
_chemical_formula_sum   'Na4 Sr2 Cu2 O12'
_cell_volume   274.25067986
_cell_formula_units_Z   2
loop_
 _symmetry_equiv_pos_site_id
 _symmetry_equiv_pos_as_xyz
  1  'x, y, z'
loop_
 _atom_site_type_symbol
 _atom_site_label
 _atom_site_symmetry_multiplicity
 _atom_site_fract_x
 _atom_site_fract_y
 _atom_site_fract_z
 _atom_site_occupancy
  Na  Na0  1  0.49529799  0.52637201  0.24973897  1
  Sr  Sr1  1  0.99529798  0.97362802  0.74973893  1
  Sr  Sr2  1  0.00470200  0.02637200  0.25026099  1
  Na  Na3  1  0.50470199  0.47362801  0.75026095  1
  Na  Na4  1  0.49999999  0.00000000  0.49999996  1
  Na  Na5  1  0.00000000  0.50000001  0.99999996  1
  Cu  Cu6  1  0.00000000  0.50000001  0.49999998  1
  Cu  Cu7  1  0.49999999  0.00000000  -0.00000002  1
  O  O8  1  0.72964598  0.70782201  0.53086995  1
  O  O9  1  0.93955398  0.48740801  0.26104495  1
  O  O10  1  0.20629700  0.77097201  0.46671597  1
  O  O11  1  0.22964599  0.79217801  0.03086999  1
  O  O12  1  0.70629698  0.72902801  0.96671593  1
  O  O13  1  0.06044600  0.51259201  0.73895497  1
  O  O14  1  0.79370298  0.22902800  0.53328395  1
  O  O15  1  0.29370299  0.27097200  0.03328399  1
  O  O16  1  0.27035399  0.29217800  0.46912997  1
  O  O17  1  0.56044599  0.98740802  0.23895497  1
  O  O18  1  0.43955399  0.01259200  0.76104495  1
  O  O19  1  0.77035398  0.20782200  0.96912993  1
