# generated using pymatgen
data_LiCaO2
_symmetry_space_group_name_H-M   'P 1'
_cell_length_a   3.54026389
_cell_length_b   3.54026341
_cell_length_c   6.89818287
_cell_angle_alpha   90.00000000
_cell_angle_beta   90.00000000
_cell_angle_gamma   120.00000763
_symmetry_Int_Tables_number   1
_chemical_formula_structural   LiCaO2
_chemical_formula_sum   'Li1 Ca1 O2'
_cell_volume   74.87494461
_cell_formula_units_Z   1
loop_
 _symmetry_equiv_pos_site_id
 _symmetry_equiv_pos_as_xyz
  1  'x, y, z'
loop_
 _atom_site_type_symbol
 _atom_site_label
 _atom_site_symmetry_multiplicity
 _atom_site_fract_x
 _atom_site_fract_y
 _atom_site_fract_z
 _atom_site_occupancy
  Li  Li0  1  0.00000000  0.00000000  0.99171302  1
  Ca  Ca1  1  0.66666671  0.33333335  0.45678401  1
  O  O2  1  0.66666671  0.33333335  0.81130102  1
  O  O3  1  0.33333338  0.66666671  0.19520100  1
