# generated using pymatgen
data_YErLu2In4Sn3Au5
_symmetry_space_group_name_H-M   'P 1'
_cell_length_a   6.20049191
_cell_length_b   8.36904430
_cell_length_c   8.36904335
_cell_angle_alpha   120.00000000
_cell_angle_beta   90.00000000
_cell_angle_gamma   90.00000000
_symmetry_Int_Tables_number   1
_chemical_formula_structural   YErLu2In4Sn3Au5
_chemical_formula_sum   'Y1 Er1 Lu2 In4 Sn3 Au5'
_cell_volume   376.10444045
_cell_formula_units_Z   1
loop_
 _symmetry_equiv_pos_site_id
 _symmetry_equiv_pos_as_xyz
  1  'x, y, z'
loop_
 _atom_site_type_symbol
 _atom_site_label
 _atom_site_symmetry_multiplicity
 _atom_site_fract_x
 _atom_site_fract_y
 _atom_site_fract_z
 _atom_site_occupancy
  Er  Er0  1  1.00000002  0.33333331  0.66666665  1
  Y  Y1  1  -0.00000000  0.66666663  0.33333330  1
  Lu  Lu2  1  0.74295801  0.99999994  0.75414595  1
  Lu  Lu3  1  0.74295801  0.75414595  0.99999997  1
  In  In4  1  0.74295801  0.24585399  0.24585399  1
  In  In5  1  0.25704200  0.99999994  0.24585395  1
  Sn  Sn6  1  0.25704200  0.24585399  -0.00000001  1
  In  In7  1  0.25704200  0.75414595  0.75414597  1
  Sn  Sn8  1  0.50000001  0.66666663  0.33333330  1
  In  In9  1  0.50000001  0.33333331  0.66666665  1
  Au  Au10  1  0.72408001  0.99999994  0.39815595  1
  Au  Au11  1  0.72408001  0.39815598  0.99999999  1
  Sn  Sn12  1  0.72408001  0.60184396  0.60184397  1
  Au  Au13  1  0.27592000  0.99999994  0.60184395  1
  Au  Au14  1  0.27592000  0.60184396  -0.00000003  1
  Au  Au15  1  0.27592000  0.39815598  0.39815598  1
