# generated using pymatgen
data_La7PrYInSn5Au
_symmetry_space_group_name_H-M   'P 1'
_cell_length_a   8.24806595
_cell_length_b   9.43310642
_cell_length_c   8.24806595
_cell_angle_alpha   115.92454529
_cell_angle_beta   90.00000000
_cell_angle_gamma   115.92454529
_symmetry_Int_Tables_number   1
_chemical_formula_structural   La7PrYInSn5Au
_chemical_formula_sum   'La7 Pr1 Y1 In1 Sn5 Au1'
_cell_volume   504.38253026
_cell_formula_units_Z   1
loop_
 _symmetry_equiv_pos_site_id
 _symmetry_equiv_pos_as_xyz
  1  'x, y, z'
loop_
 _atom_site_type_symbol
 _atom_site_label
 _atom_site_symmetry_multiplicity
 _atom_site_fract_x
 _atom_site_fract_y
 _atom_site_fract_z
 _atom_site_occupancy
  Y  Y0  1  0.50000000  0.00000000  0.50000000  1
  Pr  Pr1  1  0.00000000  0.00000000  0.00000000  1
  La  La2  1  0.68796894  0.70480193  0.51683293  1
  La  La3  1  0.18796893  0.70480193  0.68796894  1
  La  La4  1  0.51683293  0.70480193  0.01683293  1
  La  La5  1  0.81203098  0.29519797  0.31203097  1
  La  La6  1  0.48316697  0.29519797  0.98316698  1
  La  La7  1  0.98316698  0.29519797  0.81203098  1
  La  La8  1  0.31203097  0.29519797  0.48316697  1
  In  In9  1  0.01683293  0.70480193  0.18796893  1
  Sn  Sn10  1  0.24999995  0.49999995  0.24999995  1
  Sn  Sn11  1  0.74999996  0.49999995  0.74999996  1
  Sn  Sn12  1  0.63464291  0.99999890  0.86535591  1
  Sn  Sn13  1  0.13464300  0.00000000  0.63464300  1
  Sn  Sn14  1  0.86535691  0.99999990  0.36535690  1
  Au  Au15  1  0.36535700  0.00000100  0.13464400  1
