# generated using pymatgen
data_DyErAl3GaSi3Ge
_symmetry_space_group_name_H-M   'P 1'
_cell_length_a   4.42720461
_cell_length_b   4.43811083
_cell_length_c   10.11557579
_cell_angle_alpha   90.00000000
_cell_angle_beta   90.01525879
_cell_angle_gamma   90.00000000
_symmetry_Int_Tables_number   1
_chemical_formula_structural   DyErAl3GaSi3Ge
_chemical_formula_sum   'Dy1 Er1 Al3 Ga1 Si3 Ge1'
_cell_volume   198.75512231
_cell_formula_units_Z   1
loop_
 _symmetry_equiv_pos_site_id
 _symmetry_equiv_pos_as_xyz
  1  'x, y, z'
loop_
 _atom_site_type_symbol
 _atom_site_label
 _atom_site_symmetry_multiplicity
 _atom_site_fract_x
 _atom_site_fract_y
 _atom_site_fract_z
 _atom_site_occupancy
  Er  Er0  1  0.75077410  0.75262137  0.25287378  1
  Dy  Dy1  1  0.24922586  0.25262135  0.74712624  1
  Al  Al2  1  0.75667018  0.76198564  0.86934161  1
  Al  Al3  1  0.24332978  0.26198562  0.13065841  1
  Ga  Ga4  1  0.25176740  0.74405371  0.49940210  1
  Al  Al5  1  0.74823256  0.24405369  0.50059792  1
  Si  Si6  1  0.75137261  0.74403387  0.62330429  1
  Si  Si7  1  0.24862735  0.24403385  0.37669574  1
  Ge  Ge8  1  0.25790031  0.76330556  0.00108203  1
  Si  Si9  1  0.74209965  0.26330554  0.99891799  1
