# generated using pymatgen
data_YErAl3GaSi3
_symmetry_space_group_name_H-M   'P 1'
_cell_length_a   4.12345505
_cell_length_b   4.18611288
_cell_length_c   11.39693737
_cell_angle_alpha   90.00000000
_cell_angle_beta   100.42230225
_cell_angle_gamma   90.00000000
_symmetry_Int_Tables_number   1
_chemical_formula_structural   YErAl3GaSi3
_chemical_formula_sum   'Y1 Er1 Al3 Ga1 Si3'
_cell_volume   193.47961937
_cell_formula_units_Z   1
loop_
 _symmetry_equiv_pos_site_id
 _symmetry_equiv_pos_as_xyz
  1  'x, y, z'
loop_
 _atom_site_type_symbol
 _atom_site_label
 _atom_site_symmetry_multiplicity
 _atom_site_fract_x
 _atom_site_fract_y
 _atom_site_fract_z
 _atom_site_occupancy
  Y  Y0  1  0.77875100  0.50000001  0.55750202  1
  Er  Er1  1  0.11590800  0.50000001  0.23181600  1
  Al  Al2  1  0.49492400  0.50000001  0.98984902  1
  Al  Al3  1  0.38324400  0.50000001  0.76648802  1
  Al  Al4  1  0.99349400  0.00000000  0.98698803  1
  Si  Si5  1  0.88160000  0.00000000  0.76320002  1
  Ga  Ga6  1  0.66683900  0.00000000  0.33367802  1
  Si  Si7  1  0.23538200  0.00000000  0.47076301  1
  Si  Si8  1  0.55685800  0.00000000  0.11371701  1
