# generated using pymatgen
data_NaEu(PO5)2
_symmetry_space_group_name_H-M   'P 1'
_cell_length_a   5.11301613
_cell_length_b   5.11301613
_cell_length_c   6.22565937
_cell_angle_alpha   114.24507904
_cell_angle_beta   114.24507904
_cell_angle_gamma   90.00000000
_symmetry_Int_Tables_number   1
_chemical_formula_structural   NaEu(PO5)2
_chemical_formula_sum   'Na1 Eu1 P2 O10'
_cell_volume   132.49946333
_cell_formula_units_Z   1
loop_
 _symmetry_equiv_pos_site_id
 _symmetry_equiv_pos_as_xyz
  1  'x, y, z'
loop_
 _atom_site_type_symbol
 _atom_site_label
 _atom_site_symmetry_multiplicity
 _atom_site_fract_x
 _atom_site_fract_y
 _atom_site_fract_z
 _atom_site_occupancy
  Eu  Eu0  1  0.75000001  0.25000000  0.50000006  1
  Na  Na1  1  0.00000000  0.00000000  0.00000000  1
  P  P2  1  0.89615002  0.55342300  0.10684607  1
  P  P3  1  0.21069602  0.55342300  0.10684604  1
  O  O4  1  0.53930403  0.69657700  0.39315407  1
  O  O5  1  0.85385003  0.69657700  0.39315408  1
  O  O6  1  0.44657703  0.78930400  0.89315409  1
  O  O7  1  0.44657700  0.10385000  0.89315405  1
  O  O8  1  0.30342300  0.14615000  0.60684604  1
  O  O9  1  0.30342302  0.46069600  0.60684606  1
  O  O10  1  0.99041702  0.49041700  0.98083410  1
  O  O11  1  0.75958303  0.75958300  0.51916609  1
  O  O12  1  0.50958300  0.00958300  0.01916602  1
  O  O13  1  0.24041701  0.24041700  0.48083404  1
