# generated using pymatgen
data_Nb(TlSe)2
_symmetry_space_group_name_H-M   'P 1'
_cell_length_a   4.47418308
_cell_length_b   6.44871664
_cell_length_c   7.76818895
_cell_angle_alpha   114.47702789
_cell_angle_beta   106.73712158
_cell_angle_gamma   90.00000000
_symmetry_Int_Tables_number   1
_chemical_formula_structural   Nb(TlSe)2
_chemical_formula_sum   'Nb1 Tl2 Se2'
_cell_volume   193.50901791
_cell_formula_units_Z   1
loop_
 _symmetry_equiv_pos_site_id
 _symmetry_equiv_pos_as_xyz
  1  'x, y, z'
loop_
 _atom_site_type_symbol
 _atom_site_label
 _atom_site_symmetry_multiplicity
 _atom_site_fract_x
 _atom_site_fract_y
 _atom_site_fract_z
 _atom_site_occupancy
  Nb  Nb0  1  0.50529701  0.74535101  0.01059403  1
  Tl  Tl1  1  0.82787299  0.06789000  0.65574699  1
  Tl  Tl2  1  0.01415500  0.03758800  0.02830900  1
  Se  Se3  1  0.66666667  0.63983601  0.33333336  1
  Se  Se4  1  0.31902200  0.34233501  0.63804400  1
