# generated using pymatgen
data_Li2Mn(CuO4)3
_symmetry_space_group_name_H-M   'P 1'
_cell_length_a   3.58512044
_cell_length_b   5.13280678
_cell_length_c   13.57397175
_cell_angle_alpha   81.94687653
_cell_angle_beta   82.42092133
_cell_angle_gamma   69.56989288
_symmetry_Int_Tables_number   1
_chemical_formula_structural   Li2Mn(CuO4)3
_chemical_formula_sum   'Li2 Mn1 Cu3 O12'
_cell_volume   230.83551294
_cell_formula_units_Z   1
loop_
 _symmetry_equiv_pos_site_id
 _symmetry_equiv_pos_as_xyz
  1  'x, y, z'
loop_
 _atom_site_type_symbol
 _atom_site_label
 _atom_site_symmetry_multiplicity
 _atom_site_fract_x
 _atom_site_fract_y
 _atom_site_fract_z
 _atom_site_occupancy
  Li  Li0  1  0.21240591  0.89029102  0.65971898  1
  Li  Li1  1  0.76260998  0.10946900  0.34023300  1
  Mn  Mn2  1  0.21184896  0.39041001  0.16073200  1
  Cu  Cu3  1  0.76285693  0.60983701  0.83932699  1
  Cu  Cu4  1  0.98750694  0.49989701  0.49996200  1
  Cu  Cu5  1  0.98735499  0.00014500  0.00003501  1
  O  O6  1  0.26236698  0.15339800  0.29675500  1
  O  O7  1  0.26330493  0.65261501  0.79561898  1
  O  O8  1  0.71135896  0.34770001  0.20445300  1
  O  O9  1  0.71263791  0.84635502  0.70319899  1
  O  O10  1  0.91642791  0.76399902  0.37798700  1
  O  O11  1  0.91581597  0.26513401  0.87808399  1
  O  O12  1  0.05901892  0.73511402  0.12197199  1
  O  O13  1  0.05876098  0.23569901  0.62191099  1
  O  O14  1  0.62178497  0.28848101  0.44312000  1
  O  O15  1  0.62114491  0.79126802  0.94168598  1
  O  O16  1  0.35356098  0.20903600  0.05835000  1
  O  O17  1  0.35322792  0.71115302  0.55685899  1
