# generated using pymatgen
data_ErZrIn5Sn3GeAu5
_symmetry_space_group_name_H-M   'P 1'
_cell_length_a   5.58295584
_cell_length_b   8.24550819
_cell_length_c   8.24550819
_cell_angle_alpha   83.41870117
_cell_angle_beta   70.21173096
_cell_angle_gamma   70.21173096
_symmetry_Int_Tables_number   1
_chemical_formula_structural   ErZrIn5Sn3GeAu5
_chemical_formula_sum   'Er1 Zr1 In5 Sn3 Ge1 Au5'
_cell_volume   336.07192733
_cell_formula_units_Z   1
loop_
 _symmetry_equiv_pos_site_id
 _symmetry_equiv_pos_as_xyz
  1  'x, y, z'
loop_
 _atom_site_type_symbol
 _atom_site_label
 _atom_site_symmetry_multiplicity
 _atom_site_fract_x
 _atom_site_fract_y
 _atom_site_fract_z
 _atom_site_occupancy
  Er  Er0  1  0.19921903  0.87047200  0.73109101  1
  Zr  Zr1  1  0.80078102  0.12952800  0.26890901  1
  In  In2  1  0.06969103  0.73109100  0.12952800  1
  In  In3  1  0.69921804  0.73109100  0.87047201  1
  In  In4  1  0.93030903  0.26890900  0.87047202  1
  Sn  Sn5  1  0.30078202  0.26890900  0.12952800  1
  In  In6  1  0.56969002  0.12952800  0.73109101  1
  In  In7  1  0.43031004  0.87047200  0.26890901  1
  Sn  Sn8  1  0.25000002  0.50000000  0.50000001  1
  Sn  Sn9  1  0.75000003  0.50000000  0.50000001  1
  Au  Au10  1  0.75000002  0.00000000  1.00000002  1
  Au  Au11  1  0.25000001  0.00000000  1.00000001  1
  Ge  Ge12  1  0.66428603  0.50000000  0.17142901  1
  Au  Au13  1  0.33571402  0.50000000  0.82857101  1
  Au  Au14  1  0.16428501  0.17142900  0.50000000  1
  Au  Au15  1  0.83571505  0.82857100  0.50000001  1
