# generated using pymatgen
data_KBaNa3(CuO5)2
_symmetry_space_group_name_H-M   'P 1'
_cell_length_a   3.91953778
_cell_length_b   3.91953802
_cell_length_c   16.67171097
_cell_angle_alpha   96.75076294
_cell_angle_beta   96.75075531
_cell_angle_gamma   90.00000763
_symmetry_Int_Tables_number   1
_chemical_formula_structural   KBaNa3(CuO5)2
_chemical_formula_sum   'K1 Ba1 Na3 Cu2 O10'
_cell_volume   252.55983483
_cell_formula_units_Z   1
loop_
 _symmetry_equiv_pos_site_id
 _symmetry_equiv_pos_as_xyz
  1  'x, y, z'
loop_
 _atom_site_type_symbol
 _atom_site_label
 _atom_site_symmetry_multiplicity
 _atom_site_fract_x
 _atom_site_fract_y
 _atom_site_fract_z
 _atom_site_occupancy
  Na  Na0  1  0.67802802  0.67802899  0.35605601  1
  Ba  Ba1  1  0.32197201  0.32197299  0.64394400  1
  Na  Na2  1  0.55708401  0.55708299  0.11416501  1
  K  K3  1  0.44291601  0.44291699  0.88583400  1
  Na  Na4  1  0.00000000  0.00000000  0.00000000  1
  Cu  Cu5  1  0.88035302  0.88035398  0.76070701  1
  Cu  Cu6  1  0.11964700  0.11964800  0.23929300  1
  O  O7  1  0.21450101  0.21450200  0.42900500  1
  O  O8  1  0.78549702  0.78549698  0.57099501  1
  O  O9  1  0.62882099  0.12882000  0.25764100  1
  O  O10  1  0.87118000  0.37118099  0.74235900  1
  O  O11  1  0.50000104  0.99999898  0.00000001  1
  O  O12  1  0.00000002  0.50000099  0.00000001  1
  O  O13  1  0.12882103  0.62882099  0.25764101  1
  O  O14  1  0.05988100  0.05988100  0.11976400  1
  O  O15  1  0.37117903  0.87117998  0.74235901  1
  O  O16  1  0.94011702  0.94011898  0.88023601  1
