# generated using pymatgen
data_DyY2Al2GaSi3
_symmetry_space_group_name_H-M   'P 1'
_cell_length_a   4.15608978
_cell_length_b   5.67432070
_cell_length_c   7.97633314
_cell_angle_alpha   106.35005188
_cell_angle_beta   90.00000000
_cell_angle_gamma   111.48262787
_symmetry_Int_Tables_number   1
_chemical_formula_structural   DyY2Al2GaSi3
_chemical_formula_sum   'Y2 Dy1 Al2 Ga1 Si3'
_cell_volume   166.83596316
_cell_formula_units_Z   1
loop_
 _symmetry_equiv_pos_site_id
 _symmetry_equiv_pos_as_xyz
  1  'x, y, z'
loop_
 _atom_site_type_symbol
 _atom_site_label
 _atom_site_symmetry_multiplicity
 _atom_site_fract_x
 _atom_site_fract_y
 _atom_site_fract_z
 _atom_site_occupancy
  Y  Y0  1  0.62363901  0.24727800  0.69230298  1
  Dy  Dy1  1  0.37636095  0.75272199  0.30769696  1
  Y  Y2  1  0.00000000  0.00000000  0.00000000  1
  Al  Al3  1  0.69000700  0.38001399  0.36998098  1
  Al  Al4  1  0.30999296  0.61998599  0.63001896  1
  Si  Si5  1  0.90228097  0.80456198  0.59948195  1
  Ga  Ga6  1  0.09771899  0.19543800  0.40051799  1
  Si  Si7  1  0.29024496  0.58048999  0.91968296  1
  Si  Si8  1  0.70975500  0.41950999  0.08031698  1
