# generated using pymatgen
data_MnAl4Si3
_symmetry_space_group_name_H-M   'P 1'
_cell_length_a   3.73222089
_cell_length_b   5.27001715
_cell_length_c   7.05825472
_cell_angle_alpha   89.73323059
_cell_angle_beta   90.00000000
_cell_angle_gamma   90.00000000
_symmetry_Int_Tables_number   1
_chemical_formula_structural   MnAl4Si3
_chemical_formula_sum   'Mn1 Al4 Si3'
_cell_volume   138.82637614
_cell_formula_units_Z   1
loop_
 _symmetry_equiv_pos_site_id
 _symmetry_equiv_pos_as_xyz
  1  'x, y, z'
loop_
 _atom_site_type_symbol
 _atom_site_label
 _atom_site_symmetry_multiplicity
 _atom_site_fract_x
 _atom_site_fract_y
 _atom_site_fract_z
 _atom_site_occupancy
  Mn  Mn0  1  0.00000000  0.87842998  0.82139996  1
  Al  Al1  1  0.50000001  0.37425999  0.68104297  1
  Al  Al2  1  0.50000001  0.12374700  0.17556599  1
  Al  Al3  1  0.00000000  0.62503698  0.32280298  1
  Al  Al4  1  0.00000000  0.14011700  0.45824098  1
  Si  Si5  1  0.00000000  0.35967699  0.95787096  1
  Si  Si6  1  0.50000001  0.85916598  0.54143297  1
  Si  Si7  1  0.50000001  0.63956598  0.04164399  1
