# generated using pymatgen
data_PrEuYAlBC3
_symmetry_space_group_name_H-M   'P 1'
_cell_length_a   3.61671805
_cell_length_b   3.61671734
_cell_length_c   13.78966236
_cell_angle_alpha   90.00000000
_cell_angle_beta   90.00000000
_cell_angle_gamma   120.00000763
_symmetry_Int_Tables_number   1
_chemical_formula_structural   PrEuYAlBC3
_chemical_formula_sum   'Pr1 Eu1 Y1 Al1 B1 C3'
_cell_volume   156.21166205
_cell_formula_units_Z   1
loop_
 _symmetry_equiv_pos_site_id
 _symmetry_equiv_pos_as_xyz
  1  'x, y, z'
loop_
 _atom_site_type_symbol
 _atom_site_label
 _atom_site_symmetry_multiplicity
 _atom_site_fract_x
 _atom_site_fract_y
 _atom_site_fract_z
 _atom_site_occupancy
  Eu  Eu0  1  0.66666667  0.33333335  0.24999999  1
  Pr  Pr1  1  0.33333336  0.66666670  0.74999998  1
  Al  Al2  1  0.00000000  0.00000000  0.00000000  1
  Y  Y3  1  0.00000000  0.00000000  0.49999999  1
  B  B4  1  0.66666667  0.33333335  0.58332798  1
  C  C5  1  0.66666667  0.33333335  0.91667198  1
  C  C6  1  0.33333336  0.66666670  0.41667199  1
  C  C7  1  0.33333336  0.66666670  0.08332800  1
