# generated using pymatgen
data_Mn2Al2GaFe2Cu2SiGe8
_symmetry_space_group_name_H-M   'P 1'
_cell_length_a   4.95482683
_cell_length_b   4.95482731
_cell_length_c   12.54969215
_cell_angle_alpha   78.61455536
_cell_angle_beta   78.61455536
_cell_angle_gamma   59.99999619
_symmetry_Int_Tables_number   1
_chemical_formula_structural   Mn2Al2GaFe2Cu2SiGe8
_chemical_formula_sum   'Mn2 Al2 Ga1 Fe2 Cu2 Si1 Ge8'
_cell_volume   259.79692722
_cell_formula_units_Z   1
loop_
 _symmetry_equiv_pos_site_id
 _symmetry_equiv_pos_as_xyz
  1  'x, y, z'
loop_
 _atom_site_type_symbol
 _atom_site_label
 _atom_site_symmetry_multiplicity
 _atom_site_fract_x
 _atom_site_fract_y
 _atom_site_fract_z
 _atom_site_occupancy
  Mn  Mn0  1  0.05071000  0.05071000  0.84786902  1
  Al  Al1  1  0.94929005  0.94928997  0.15213102  1
  Mn  Mn2  1  0.14737101  0.14737099  0.55788601  1
  Al  Al3  1  0.85262904  0.85262897  0.44211402  1
  Ga  Ga4  1  0.50000003  0.49999998  0.50000002  1
  Fe  Fe5  1  0.27832701  0.27832699  0.16501801  1
  Cu  Cu6  1  0.72167304  0.72167297  0.83498203  1
  Cu  Cu7  1  0.38799802  0.38799799  0.83600602  1
  Fe  Fe8  1  0.61200203  0.61200198  0.16399401  1
  Ge  Ge9  1  0.50000001  0.00000000  0.00000001  1
  Ge  Ge10  1  0.00000001  0.49999998  0.00000000  1
  Ge  Ge11  1  0.50000003  0.49999998  0.00000001  1
  Ge  Ge12  1  0.60902003  0.60901998  0.67218602  1
  Ge  Ge13  1  0.60902002  0.10977300  0.67218602  1
  Ge  Ge14  1  0.10977302  0.60901998  0.67218602  1
  Si  Si15  1  0.39098002  0.39097999  0.32781401  1
  Ge  Ge16  1  0.39098003  0.89022697  0.32781401  1
  Ge  Ge17  1  0.89022703  0.39097999  0.32781402  1
