# generated using pymatgen
data_La4ErInSn5Au3
_symmetry_space_group_name_H-M   'P 1'
_cell_length_a   7.80484629
_cell_length_b   7.80484629
_cell_length_c   7.80484629
_cell_angle_alpha   109.47122192
_cell_angle_beta   109.47122192
_cell_angle_gamma   109.47122192
_symmetry_Int_Tables_number   1
_chemical_formula_structural   La4ErInSn5Au3
_chemical_formula_sum   'La4 Er1 In1 Sn5 Au3'
_cell_volume   365.99162810
_cell_formula_units_Z   1
loop_
 _symmetry_equiv_pos_site_id
 _symmetry_equiv_pos_as_xyz
  1  'x, y, z'
loop_
 _atom_site_type_symbol
 _atom_site_label
 _atom_site_symmetry_multiplicity
 _atom_site_fract_x
 _atom_site_fract_y
 _atom_site_fract_z
 _atom_site_occupancy
  Er  Er0  1  0.25000002  0.37500001  0.12500002  1
  La  La1  1  0.37500003  0.62500001  0.75000003  1
  La  La2  1  0.12500005  0.87500001  0.25000005  1
  La  La3  1  0.87500003  0.75000001  0.62500005  1
  La  La4  1  0.62500001  0.25000000  0.87500001  1
  In  In5  1  0.75000000  0.12500000  0.37500002  1
  Sn  Sn6  1  0.35007906  1.00000002  1.00000004  1
  Sn  Sn7  1  0.64992103  0.64992101  0.14992105  1
  Sn  Sn8  1  0.50000005  0.85007901  0.50000005  1
  Sn  Sn9  1  1.00000002  0.50000001  0.35007904  1
  Au  Au10  1  0.50000001  0.35007901  0.50000002  1
  Au  Au11  1  0.00000003  0.50000001  0.85007901  1
  Au  Au12  1  0.85007905  1.00000002  1.00000005  1
  Sn  Sn13  1  0.14992101  0.14992100  0.64992100  1
