# generated using pymatgen
data_Li4CuO5
_symmetry_space_group_name_H-M   'P 1'
_cell_length_a   4.17372179
_cell_length_b   5.11554527
_cell_length_c   5.84589529
_cell_angle_alpha   105.76315308
_cell_angle_beta   90.00000000
_cell_angle_gamma   114.07580566
_symmetry_Int_Tables_number   1
_chemical_formula_structural   Li4CuO5
_chemical_formula_sum   'Li4 Cu1 O5'
_cell_volume   108.79543566
_cell_formula_units_Z   1
loop_
 _symmetry_equiv_pos_site_id
 _symmetry_equiv_pos_as_xyz
  1  'x, y, z'
loop_
 _atom_site_type_symbol
 _atom_site_label
 _atom_site_symmetry_multiplicity
 _atom_site_fract_x
 _atom_site_fract_y
 _atom_site_fract_z
 _atom_site_occupancy
  Li  Li0  1  0.64953102  0.29906199  0.32552001  1
  Li  Li1  1  0.35046900  0.70093799  0.67448002  1
  Li  Li2  1  0.66258402  0.32516799  0.82763399  1
  Li  Li3  1  0.33741600  0.67483199  0.17236603  1
  Cu  Cu4  1  0.00000000  0.00000000  0.49999998  1
  O  O5  1  0.50000003  0.00000000  0.00000000  1
  O  O6  1  0.82819902  0.65639799  0.16862603  1
  O  O7  1  0.17180100  0.34360199  0.83137399  1
  O  O8  1  0.82898102  0.65796199  0.65657501  1
  O  O9  1  0.17101900  0.34203799  0.34342501  1
