# generated using pymatgen
data_LaIn2GaPd3Au
_symmetry_space_group_name_H-M   'P 1'
_cell_length_a   4.51924992
_cell_length_b   5.65237904
_cell_length_c   7.20359993
_cell_angle_alpha   90.00000000
_cell_angle_beta   90.00000000
_cell_angle_gamma   90.00000000
_symmetry_Int_Tables_number   1
_chemical_formula_structural   LaIn2GaPd3Au
_chemical_formula_sum   'La1 In2 Ga1 Pd3 Au1'
_cell_volume   184.01245554
_cell_formula_units_Z   1
loop_
 _symmetry_equiv_pos_site_id
 _symmetry_equiv_pos_as_xyz
  1  'x, y, z'
loop_
 _atom_site_type_symbol
 _atom_site_label
 _atom_site_symmetry_multiplicity
 _atom_site_fract_x
 _atom_site_fract_y
 _atom_site_fract_z
 _atom_site_occupancy
  Ga  Ga0  1  0.25000000  0.14156400  0.18232900  1
  La  La1  1  0.75000001  0.85843599  0.81767101  1
  In  In2  1  0.75000001  0.64156400  0.31767100  1
  In  In3  1  0.25000000  0.35843600  0.68232901  1
  Pd  Pd4  1  0.25000000  0.65569200  0.04398300  1
  Pd  Pd5  1  0.75000001  0.34430800  0.95601701  1
  Pd  Pd6  1  0.75000001  0.15569200  0.45601700  1
  Au  Au7  1  0.25000000  0.84430799  0.54398301  1
