# generated using pymatgen
data_LiTiFeCoNiRu
_symmetry_space_group_name_H-M   'P 1'
_cell_length_a   4.87362862
_cell_length_b   4.87362862
_cell_length_c   4.87362862
_cell_angle_alpha   60.00000000
_cell_angle_beta   60.00000000
_cell_angle_gamma   60.00000000
_symmetry_Int_Tables_number   1
_chemical_formula_structural   LiTiFeCoNiRu
_chemical_formula_sum   'Li1 Ti1 Fe1 Co1 Ni1 Ru1'
_cell_volume   81.85445048
_cell_formula_units_Z   1
loop_
 _symmetry_equiv_pos_site_id
 _symmetry_equiv_pos_as_xyz
  1  'x, y, z'
loop_
 _atom_site_type_symbol
 _atom_site_label
 _atom_site_symmetry_multiplicity
 _atom_site_fract_x
 _atom_site_fract_y
 _atom_site_fract_z
 _atom_site_occupancy
  Ti  Ti0  1  0.75000003  0.75000003  0.75000003  1
  Li  Li1  1  0.87502404  0.37499202  0.37499202  1
  Fe  Fe2  1  0.37499202  0.87502404  0.37499202  1
  Co  Co3  1  0.37499202  0.37499202  0.37499202  1
  Ni  Ni4  1  0.37499202  0.37499202  0.87502404  1
  Ru  Ru5  1  0.00000000  0.00000000  0.00000000  1
