# generated using pymatgen
data_CsEu3Y2Si2Ni2SCl
_symmetry_space_group_name_H-M   'P 1'
_cell_length_a   3.47998595
_cell_length_b   3.47998667
_cell_length_c   26.39680481
_cell_angle_alpha   90.00000000
_cell_angle_beta   90.00000000
_cell_angle_gamma   119.99999237
_symmetry_Int_Tables_number   1
_chemical_formula_structural   CsEu3Y2Si2Ni2SCl
_chemical_formula_sum   'Cs1 Eu3 Y2 Si2 Ni2 S1 Cl1'
_cell_volume   276.84526314
_cell_formula_units_Z   1
loop_
 _symmetry_equiv_pos_site_id
 _symmetry_equiv_pos_as_xyz
  1  'x, y, z'
loop_
 _atom_site_type_symbol
 _atom_site_label
 _atom_site_symmetry_multiplicity
 _atom_site_fract_x
 _atom_site_fract_y
 _atom_site_fract_z
 _atom_site_occupancy
  Eu  Eu0  1  0.00000000  0.00000000  0.49999998  1
  Y  Y1  1  0.33333331  0.66666665  -0.00000000  1
  Eu  Eu2  1  0.33333331  0.66666665  0.75006998  1
  Eu  Eu3  1  0.33333331  0.66666665  0.24992999  1
  Y  Y4  1  0.00000000  0.00000000  0.68620598  1
  Cs  Cs5  1  0.00000000  0.00000000  0.93620297  1
  Si  Si6  1  0.00000000  0.00000000  0.31379399  1
  Ni  Ni7  1  0.66666666  0.33333332  0.81384498  1
  Ni  Ni8  1  0.66666666  0.33333332  0.56365798  1
  Si  Si9  1  0.66666666  0.33333332  0.43634199  1
  S  S10  1  0.00000000  0.00000000  0.06379700  1
  Cl  Cl11  1  0.66666666  0.33333332  0.18615499  1
