# generated using pymatgen
data_YErAlSi7Ni
_symmetry_space_group_name_H-M   'P 1'
_cell_length_a   3.84504199
_cell_length_b   3.93759799
_cell_length_c   12.07271194
_cell_angle_alpha   99.38562775
_cell_angle_beta   99.16308594
_cell_angle_gamma   90.00000000
_symmetry_Int_Tables_number   1
_chemical_formula_structural   YErAlSi7Ni
_chemical_formula_sum   'Y1 Er1 Al1 Si7 Ni1'
_cell_volume   177.97216894
_cell_formula_units_Z   1
loop_
 _symmetry_equiv_pos_site_id
 _symmetry_equiv_pos_as_xyz
  1  'x, y, z'
loop_
 _atom_site_type_symbol
 _atom_site_label
 _atom_site_symmetry_multiplicity
 _atom_site_fract_x
 _atom_site_fract_y
 _atom_site_fract_z
 _atom_site_occupancy
  Y  Y0  1  0.00000000  0.00000000  0.00000000  1
  Er  Er1  1  0.14630801  0.64630801  0.29261601  1
  Al  Al2  1  0.85369201  0.35369200  0.70738402  1
  Ni  Ni3  1  0.54990801  0.54990801  0.09981601  1
  Si  Si4  1  0.45009201  0.45009200  0.90018402  1
  Si  Si5  1  0.30340401  0.80340401  0.60680802  1
  Si  Si6  1  0.69659600  0.19659600  0.39319201  1
  Si  Si7  1  0.25024800  0.25024800  0.50049601  1
  Si  Si8  1  0.59874700  0.09874700  0.19749401  1
  Si  Si9  1  0.40125301  0.90125301  0.80250603  1
  Si  Si10  1  0.74975201  0.74975201  0.49950402  1
