# generated using pymatgen
data_HfTiCu3Ru
_symmetry_space_group_name_H-M   'P 1'
_cell_length_a   4.34348822
_cell_length_b   4.34348822
_cell_length_c   6.63566971
_cell_angle_alpha   70.89602661
_cell_angle_beta   70.89602661
_cell_angle_gamma   59.99999619
_symmetry_Int_Tables_number   1
_chemical_formula_structural   HfTiCu3Ru
_chemical_formula_sum   'Hf1 Ti1 Cu3 Ru1'
_cell_volume   100.37576664
_cell_formula_units_Z   1
loop_
 _symmetry_equiv_pos_site_id
 _symmetry_equiv_pos_as_xyz
  1  'x, y, z'
loop_
 _atom_site_type_symbol
 _atom_site_label
 _atom_site_symmetry_multiplicity
 _atom_site_fract_x
 _atom_site_fract_y
 _atom_site_fract_z
 _atom_site_occupancy
  Ti  Ti0  1  0.64426301  0.64426301  0.06721100  1
  Hf  Hf1  1  0.35573700  0.35573700  0.93278899  1
  Cu  Cu2  1  0.20487000  0.20487000  0.38539000  1
  Cu  Cu3  1  0.79513001  0.79513001  0.61461000  1
  Ru  Ru4  1  0.93776201  0.93776201  0.18671401  1
  Cu  Cu5  1  0.06223800  0.06223800  0.81328599  1
