# generated using pymatgen
data_Hf2TiMnNb3Pd7
_symmetry_space_group_name_H-M   'P 1'
_cell_length_a   3.80435610
_cell_length_b   5.39864016
_cell_length_c   13.76994038
_cell_angle_alpha   101.30489349
_cell_angle_beta   97.94022369
_cell_angle_gamma   90.00000000
_symmetry_Int_Tables_number   1
_chemical_formula_structural   Hf2TiMnNb3Pd7
_chemical_formula_sum   'Hf2 Ti1 Mn1 Nb3 Pd7'
_cell_volume   274.55913451
_cell_formula_units_Z   1
loop_
 _symmetry_equiv_pos_site_id
 _symmetry_equiv_pos_as_xyz
  1  'x, y, z'
loop_
 _atom_site_type_symbol
 _atom_site_label
 _atom_site_symmetry_multiplicity
 _atom_site_fract_x
 _atom_site_fract_y
 _atom_site_fract_z
 _atom_site_occupancy
  Mn  Mn0  1  0.64480498  0.14480500  0.28961001  1
  Ti  Ti1  1  0.35519499  0.85519498  0.71039002  1
  Nb  Nb2  1  0.49999999  0.00000000  0.00000000  1
  Hf  Hf3  1  0.21507000  0.71506998  0.43014001  1
  Hf  Hf4  1  0.78492998  0.28492999  0.56986002  1
  Nb  Nb5  1  0.07179400  0.57179398  0.14358801  1
  Pd  Pd6  1  0.92820598  0.42820599  0.85641203  1
  Nb  Nb7  1  0.35958099  0.35958099  0.71916202  1
  Pd  Pd8  1  0.64041898  0.64041898  0.28083801  1
  Pd  Pd9  1  0.49999999  0.49999999  0.00000000  1
  Pd  Pd10  1  0.77762098  0.77762098  0.55524202  1
  Pd  Pd11  1  0.22237899  0.22237899  0.44475801  1
  Pd  Pd12  1  0.92632098  0.92632097  0.85264203  1
  Pd  Pd13  1  0.07367900  0.07367900  0.14735800  1
