# generated using pymatgen
data_La2YIn6Sn4Te
_symmetry_space_group_name_H-M   'P 1'
_cell_length_a   5.84375811
_cell_length_b   7.92801428
_cell_length_c   9.22616386
_cell_angle_alpha   83.29725647
_cell_angle_beta   71.53683472
_cell_angle_gamma   68.37371063
_symmetry_Int_Tables_number   1
_chemical_formula_structural   La2YIn6Sn4Te
_chemical_formula_sum   'La2 Y1 In6 Sn4 Te1'
_cell_volume   376.90103591
_cell_formula_units_Z   1
loop_
 _symmetry_equiv_pos_site_id
 _symmetry_equiv_pos_as_xyz
  1  'x, y, z'
loop_
 _atom_site_type_symbol
 _atom_site_label
 _atom_site_symmetry_multiplicity
 _atom_site_fract_x
 _atom_site_fract_y
 _atom_site_fract_z
 _atom_site_occupancy
  Y  Y0  1  0.75230905  0.49999998  0.49999998  1
  La  La1  1  0.00230900  0.00000000  -0.00000000  1
  La  La2  1  0.05818405  0.49551998  0.83311600  1
  In  In3  1  0.38681905  0.50448097  0.16688498  1
  In  In4  1  0.30370500  0.00448000  0.33311500  1
  In  In5  1  0.64130110  0.99551895  0.66688397  1
  In  In6  1  0.46982707  0.66640197  0.83568098  1
  In  In7  1  0.97191003  0.33359798  0.16431897  1
  Sn  Sn8  1  0.88622909  0.83359796  0.33568096  1
  Sn  Sn9  1  0.05550802  0.16640199  0.66431901  1
  Sn  Sn10  1  0.35009603  0.32173698  0.49101999  1
  In  In11  1  0.16285307  0.67826297  0.50897999  1
  Sn  Sn12  1  0.42183302  0.17826299  0.99102001  1
  Te  Te13  1  0.59111609  0.82173696  0.00897996  1
