# generated using pymatgen
data_BaLa(HgPb)2
_symmetry_space_group_name_H-M   'P 1'
_cell_length_a   5.32663822
_cell_length_b   6.66290236
_cell_length_c   6.66290236
_cell_angle_alpha   78.97396851
_cell_angle_beta   66.43910217
_cell_angle_gamma   66.43910217
_symmetry_Int_Tables_number   1
_chemical_formula_structural   BaLa(HgPb)2
_chemical_formula_sum   'Ba1 La1 Hg2 Pb2'
_cell_volume   198.54946361
_cell_formula_units_Z   1
loop_
 _symmetry_equiv_pos_site_id
 _symmetry_equiv_pos_as_xyz
  1  'x, y, z'
loop_
 _atom_site_type_symbol
 _atom_site_label
 _atom_site_symmetry_multiplicity
 _atom_site_fract_x
 _atom_site_fract_y
 _atom_site_fract_z
 _atom_site_occupancy
  Ba  Ba0  1  0.45281398  0.29718600  0.79718599  1
  La  La1  1  0.54718598  0.70281400  0.20281400  1
  Hg  Hg2  1  0.16462399  0.89666799  0.77408400  1
  Hg  Hg3  1  0.83537597  0.10333200  0.22591600  1
  Pb  Pb4  1  0.16462399  0.27408400  0.39666800  1
  Pb  Pb5  1  0.83537596  0.72591600  0.60333200  1
