# generated using pymatgen
data_ErMgAl2Ga3
_symmetry_space_group_name_H-M   'P 1'
_cell_length_a   5.55617380
_cell_length_b   5.90329266
_cell_length_c   5.90329266
_cell_angle_alpha   77.20497131
_cell_angle_beta   61.92677689
_cell_angle_gamma   61.92677689
_symmetry_Int_Tables_number   1
_chemical_formula_structural   ErMgAl2Ga3
_chemical_formula_sum   'Er1 Mg1 Al2 Ga3'
_cell_volume   150.74508927
_cell_formula_units_Z   1
loop_
 _symmetry_equiv_pos_site_id
 _symmetry_equiv_pos_as_xyz
  1  'x, y, z'
loop_
 _atom_site_type_symbol
 _atom_site_label
 _atom_site_symmetry_multiplicity
 _atom_site_fract_x
 _atom_site_fract_y
 _atom_site_fract_z
 _atom_site_occupancy
  Er  Er0  1  0.00000000  0.00000000  0.00000000  1
  Al  Al1  1  0.75000000  0.50000002  0.50000004  1
  Mg  Mg2  1  0.69379503  0.00000000  0.61241001  1
  Ga  Ga3  1  0.30620501  0.00000000  0.38759001  1
  Ga  Ga4  1  0.30620599  0.38758902  0.00000002  1
  Ga  Ga5  1  0.69379399  0.61241103  0.00000003  1
  Al  Al6  1  0.24999998  0.50000002  0.50000005  1
