# generated using pymatgen
data_BaNa3LiCuO8
_symmetry_space_group_name_H-M   'P 1'
_cell_length_a   3.92694306
_cell_length_b   3.92694306
_cell_length_c   12.68084431
_cell_angle_alpha   90.00000000
_cell_angle_beta   90.00000000
_cell_angle_gamma   90.00000000
_symmetry_Int_Tables_number   1
_chemical_formula_structural   BaNa3LiCuO8
_chemical_formula_sum   'Ba1 Na3 Li1 Cu1 O8'
_cell_volume   195.54980151
_cell_formula_units_Z   1
loop_
 _symmetry_equiv_pos_site_id
 _symmetry_equiv_pos_as_xyz
  1  'x, y, z'
loop_
 _atom_site_type_symbol
 _atom_site_label
 _atom_site_symmetry_multiplicity
 _atom_site_fract_x
 _atom_site_fract_y
 _atom_site_fract_z
 _atom_site_occupancy
  Na  Na0  1  0.49999999  0.49999999  0.13770800  1
  Ba  Ba1  1  0.00000000  0.00000000  0.65207798  1
  Na  Na2  1  0.00000000  0.00000000  0.34792199  1
  Na  Na3  1  0.49999999  0.49999999  0.86229198  1
  Li  Li4  1  0.00000000  0.00000000  0.00000000  1
  Cu  Cu5  1  0.49999999  0.49999999  0.49999999  1
  O  O6  1  0.49999999  0.00000000  0.49999999  1
  O  O7  1  0.00000000  0.49999999  0.00000000  1
  O  O8  1  0.49999999  0.00000000  0.00000000  1
  O  O9  1  0.00000000  0.49999999  0.49999999  1
  O  O10  1  0.49999999  0.49999999  0.33888599  1
  O  O11  1  0.00000000  0.00000000  0.84190298  1
  O  O12  1  0.00000000  0.00000000  0.15809700  1
  O  O13  1  0.49999999  0.49999999  0.66111398  1
