# generated using pymatgen
data_Mn2AlFeSiNi3
_symmetry_space_group_name_H-M   'P 1'
_cell_length_a   3.54276109
_cell_length_b   3.54276109
_cell_length_c   7.09128809
_cell_angle_alpha   90.00000000
_cell_angle_beta   90.00000000
_cell_angle_gamma   90.00000000
_symmetry_Int_Tables_number   1
_chemical_formula_structural   Mn2AlFeSiNi3
_chemical_formula_sum   'Mn2 Al1 Fe1 Si1 Ni3'
_cell_volume   89.00386392
_cell_formula_units_Z   1
loop_
 _symmetry_equiv_pos_site_id
 _symmetry_equiv_pos_as_xyz
  1  'x, y, z'
loop_
 _atom_site_type_symbol
 _atom_site_label
 _atom_site_symmetry_multiplicity
 _atom_site_fract_x
 _atom_site_fract_y
 _atom_site_fract_z
 _atom_site_occupancy
  Mn  Mn0  1  0.00000000  0.00000000  0.00000000  1
  Al  Al1  1  0.00000000  0.00000000  0.49999999  1
  Mn  Mn2  1  0.49999999  0.49999999  0.00000000  1
  Fe  Fe3  1  0.49999999  0.49999999  0.49999999  1
  Ni  Ni4  1  0.49999999  0.00000000  0.25060000  1
  Ni  Ni5  1  0.49999999  0.00000000  0.74939999  1
  Ni  Ni6  1  -0.00000000  0.49999999  0.25060000  1
  Si  Si7  1  -0.00000000  0.49999999  0.74939999  1
