# generated using pymatgen
data_Li3CoNiHO6
_symmetry_space_group_name_H-M   'P 1'
_cell_length_a   5.20416117
_cell_length_b   5.85244942
_cell_length_c   6.82114077
_cell_angle_alpha   109.06023407
_cell_angle_beta   107.93427277
_cell_angle_gamma   91.28790283
_symmetry_Int_Tables_number   1
_chemical_formula_structural   Li3CoNiHO6
_chemical_formula_sum   'Li3 Co1 Ni1 H1 O6'
_cell_volume   185.06427249
_cell_formula_units_Z   1
loop_
 _symmetry_equiv_pos_site_id
 _symmetry_equiv_pos_as_xyz
  1  'x, y, z'
loop_
 _atom_site_type_symbol
 _atom_site_label
 _atom_site_symmetry_multiplicity
 _atom_site_fract_x
 _atom_site_fract_y
 _atom_site_fract_z
 _atom_site_occupancy
  Li  Li0  1  0.36287302  0.64322201  0.22588802  1
  Li  Li1  1  0.63712700  0.35677801  0.77411200  1
  Li  Li2  1  0.25801000  0.10095700  0.04740800  1
  Co  Co3  1  0.74199002  0.89904302  0.95259202  1
  H  H4  1  0.94858098  0.17847900  0.32195601  1
  Ni  Ni5  1  0.05141903  0.82152102  0.67804402  1
  O  O6  1  0.23789300  0.10736400  0.89675799  1
  O  O7  1  0.76210702  0.89263602  0.10324204  1
  O  O8  1  0.84881499  0.39854901  0.21672202  1
  O  O9  1  0.15118502  0.60145101  0.78327801  1
  O  O10  1  0.27294900  0.15261100  0.31404000  1
  O  O11  1  0.72705102  0.84738902  0.68596002  1
