# generated using pymatgen
data_Tl2Hg
_symmetry_space_group_name_H-M   'P 1'
_cell_length_a   4.18198586
_cell_length_b   4.18198586
_cell_length_c   8.11500454
_cell_angle_alpha   104.93185425
_cell_angle_beta   104.93185425
_cell_angle_gamma   90.00000000
_symmetry_Int_Tables_number   1
_chemical_formula_structural   Tl2Hg
_chemical_formula_sum   'Tl2 Hg1'
_cell_volume   132.16504427
_cell_formula_units_Z   1
loop_
 _symmetry_equiv_pos_site_id
 _symmetry_equiv_pos_as_xyz
  1  'x, y, z'
loop_
 _atom_site_type_symbol
 _atom_site_label
 _atom_site_symmetry_multiplicity
 _atom_site_fract_x
 _atom_site_fract_y
 _atom_site_fract_z
 _atom_site_occupancy
  Tl  Tl0  1  0.62914205  0.62914203  0.25828403  1
  Tl  Tl1  1  0.37085803  0.37085802  0.74171601  1
  Hg  Hg2  1  0.00000000  0.00000000  0.00000000  1
