# generated using pymatgen
data_Cu3NiSeS2
_symmetry_space_group_name_H-M   'P 1'
_cell_length_a   3.47609806
_cell_length_b   6.32022190
_cell_length_c   6.69013500
_cell_angle_alpha   117.61790466
_cell_angle_beta   105.05776978
_cell_angle_gamma   90.00000000
_symmetry_Int_Tables_number   1
_chemical_formula_structural   Cu3NiSeS2
_chemical_formula_sum   'Cu3 Ni1 Se1 S2'
_cell_volume   124.50959065
_cell_formula_units_Z   1
loop_
 _symmetry_equiv_pos_site_id
 _symmetry_equiv_pos_as_xyz
  1  'x, y, z'
loop_
 _atom_site_type_symbol
 _atom_site_label
 _atom_site_symmetry_multiplicity
 _atom_site_fract_x
 _atom_site_fract_y
 _atom_site_fract_z
 _atom_site_occupancy
  Cu  Cu0  1  0.00000000  0.00000000  0.00000000  1
  Cu  Cu1  1  0.74993501  0.69612101  0.49987003  1
  Ni  Ni2  1  0.25006501  0.30387900  0.50013001  1
  Cu  Cu3  1  0.63892002  0.98061001  0.27784004  1
  Se  Se4  1  0.36108000  0.01939000  0.72216000  1
  S  S5  1  0.88844801  0.54363501  0.77689602  1
  S  S6  1  0.11155201  0.45636500  0.22310402  1
