# generated using pymatgen
data_Pr2YGaCoNi4Rh3
_symmetry_space_group_name_H-M   'P 1'
_cell_length_a   5.01694202
_cell_length_b   5.01694202
_cell_length_c   13.41598606
_cell_angle_alpha   100.77637482
_cell_angle_beta   100.77637482
_cell_angle_gamma   90.00000000
_symmetry_Int_Tables_number   1
_chemical_formula_structural   Pr2YGaCoNi4Rh3
_chemical_formula_sum   'Pr2 Y1 Ga1 Co1 Ni4 Rh3'
_cell_volume   325.65733020
_cell_formula_units_Z   1
loop_
 _symmetry_equiv_pos_site_id
 _symmetry_equiv_pos_as_xyz
  1  'x, y, z'
loop_
 _atom_site_type_symbol
 _atom_site_label
 _atom_site_symmetry_multiplicity
 _atom_site_fract_x
 _atom_site_fract_y
 _atom_site_fract_z
 _atom_site_occupancy
  Y  Y0  1  0.31645100  0.31645100  0.63290199  1
  Pr  Pr1  1  0.68354899  0.68354900  0.36709799  1
  Pr  Pr2  1  0.50000000  0.50000000  -0.00000000  1
  Co  Co3  1  0.09814200  0.09814200  0.19628400  1
  Ni  Ni4  1  0.90185799  0.90185799  0.80371599  1
  Ni  Ni5  1  0.59577400  0.09577400  0.19154800  1
  Ni  Ni6  1  0.40422600  0.90422599  0.80845199  1
  Ni  Ni7  1  0.09577400  0.59577400  0.19154800  1
  Rh  Rh8  1  0.90422599  0.40422600  0.80845199  1
  Rh  Rh9  1  0.19420800  0.19420800  0.38841600  1
  Rh  Rh10  1  0.80579199  0.80579199  0.61158399  1
  Ga  Ga11  1  0.00000000  0.00000000  0.00000000  1
