# generated using pymatgen
data_CaYAl2GaSi3Ge4
_symmetry_space_group_name_H-M   'P 1'
_cell_length_a   4.18250704
_cell_length_b   6.53711987
_cell_length_c   7.99346685
_cell_angle_alpha   90.00000000
_cell_angle_beta   105.16623688
_cell_angle_gamma   90.00000000
_symmetry_Int_Tables_number   1
_chemical_formula_structural   CaYAl2GaSi3Ge4
_chemical_formula_sum   'Ca1 Y1 Al2 Ga1 Si3 Ge4'
_cell_volume   210.94172575
_cell_formula_units_Z   1
loop_
 _symmetry_equiv_pos_site_id
 _symmetry_equiv_pos_as_xyz
  1  'x, y, z'
loop_
 _atom_site_type_symbol
 _atom_site_label
 _atom_site_symmetry_multiplicity
 _atom_site_fract_x
 _atom_site_fract_y
 _atom_site_fract_z
 _atom_site_occupancy
  Y  Y0  1  0.88254001  0.75000002  0.76507902  1
  Ca  Ca1  1  0.11746000  0.25000001  0.23492100  1
  Al  Al2  1  0.50000000  0.50000001  0.00000002  1
  Al  Al3  1  0.50000000  0.00000000  0.00000002  1
  Si  Si4  1  0.07260300  0.75000002  0.14520700  1
  Ga  Ga5  1  0.92739701  0.25000001  0.85479301  1
  Ge  Ge6  1  0.68619501  0.55215101  0.37239002  1
  Si  Si7  1  0.31380500  0.44784901  0.62761000  1
  Ge  Ge8  1  0.68619501  0.94784902  0.37239002  1
  Si  Si9  1  0.31380500  0.05215100  0.62761000  1
  Ge  Ge10  1  0.22400800  0.75000002  0.44801600  1
  Ge  Ge11  1  0.77599201  0.25000001  0.55198402  1
