# generated using pymatgen
data_DyErGa2
_symmetry_space_group_name_H-M   'P 1'
_cell_length_a   4.64448404
_cell_length_b   5.86377621
_cell_length_c   7.23175907
_cell_angle_alpha   90.00000000
_cell_angle_beta   90.00000000
_cell_angle_gamma   90.00000000
_symmetry_Int_Tables_number   1
_chemical_formula_structural   DyErGa2
_chemical_formula_sum   'Dy2 Er2 Ga4'
_cell_volume   196.95128156
_cell_formula_units_Z   2
loop_
 _symmetry_equiv_pos_site_id
 _symmetry_equiv_pos_as_xyz
  1  'x, y, z'
loop_
 _atom_site_type_symbol
 _atom_site_label
 _atom_site_symmetry_multiplicity
 _atom_site_fract_x
 _atom_site_fract_y
 _atom_site_fract_z
 _atom_site_occupancy
  Er  Er0  1  0.25000000  0.36119499  0.68004899  1
  Dy  Dy1  1  0.25000000  0.13880500  0.18004900  1
  Er  Er2  1  0.74999999  0.63880498  0.31995100  1
  Dy  Dy3  1  0.74999999  0.86119497  0.81995099  1
  Ga  Ga4  1  0.25000000  0.85187797  0.54498699  1
  Ga  Ga5  1  0.25000000  0.64812198  0.04498700  1
  Ga  Ga6  1  0.74999999  0.14812199  0.45501300  1
  Ga  Ga7  1  0.74999999  0.35187799  0.95501299  1
