# generated using pymatgen
data_NbVTcB
_symmetry_space_group_name_H-M   'P 1'
_cell_length_a   2.64157128
_cell_length_b   2.64157128
_cell_length_c   8.47142506
_cell_angle_alpha   90.00000000
_cell_angle_beta   90.00000000
_cell_angle_gamma   108.49642181
_symmetry_Int_Tables_number   1
_chemical_formula_structural   NbVTcB
_chemical_formula_sum   'Nb1 V1 Tc1 B1'
_cell_volume   56.05918769
_cell_formula_units_Z   1
loop_
 _symmetry_equiv_pos_site_id
 _symmetry_equiv_pos_as_xyz
  1  'x, y, z'
loop_
 _atom_site_type_symbol
 _atom_site_label
 _atom_site_symmetry_multiplicity
 _atom_site_fract_x
 _atom_site_fract_y
 _atom_site_fract_z
 _atom_site_occupancy
  V  V0  1  0.00000000  0.00000000  0.00000000  1
  Nb  Nb1  1  0.49999997  0.49999998  0.74221299  1
  Tc  Tc2  1  0.00000000  0.00000000  0.49999999  1
  B  B3  1  0.49999997  0.49999998  0.25778700  1
