# generated using pymatgen
data_Na2Li4CoO8
_symmetry_space_group_name_H-M   'P 1'
_cell_length_a   5.56927013
_cell_length_b   5.88992739
_cell_length_c   7.76804590
_cell_angle_alpha   110.49498749
_cell_angle_beta   96.15114594
_cell_angle_gamma   105.98282623
_symmetry_Int_Tables_number   1
_chemical_formula_structural   Na2Li4CoO8
_chemical_formula_sum   'Na2 Li4 Co1 O8'
_cell_volume   223.51728874
_cell_formula_units_Z   1
loop_
 _symmetry_equiv_pos_site_id
 _symmetry_equiv_pos_as_xyz
  1  'x, y, z'
loop_
 _atom_site_type_symbol
 _atom_site_label
 _atom_site_symmetry_multiplicity
 _atom_site_fract_x
 _atom_site_fract_y
 _atom_site_fract_z
 _atom_site_occupancy
  Li  Li0  1  0.00000000  0.00000000  0.00000000  1
  Na  Na1  1  0.48424502  0.26795099  0.76298201  1
  Na  Na2  1  0.51575502  0.73204896  0.23701798  1
  Co  Co3  1  0.00000001  0.49999997  0.49999999  1
  Li  Li4  1  0.24858302  0.82208796  0.11363398  1
  Li  Li5  1  0.19056102  0.94480395  0.71779698  1
  Li  Li6  1  0.75919503  0.48370598  0.65852300  1
  O  O7  1  0.75141702  0.17791199  0.88636601  1
  O  O8  1  0.34694901  0.33922798  0.02393699  1
  O  O9  1  0.80943902  0.05519600  0.28220300  1
  O  O10  1  0.77799103  0.60006197  0.34968499  1
  O  O11  1  0.22200901  0.39993798  0.65031500  1
  O  O12  1  0.24080501  0.51629397  0.34147699  1
  O  O13  1  0.50000001  0.00000000  0.50000001  1
  O  O14  1  0.65305103  0.66077197  0.97606300  1
