# generated using pymatgen
data_LaEuSnBi2Au
_symmetry_space_group_name_H-M   'P 1'
_cell_length_a   5.89280415
_cell_length_b   6.12452507
_cell_length_c   6.12452507
_cell_angle_alpha   76.61811066
_cell_angle_beta   61.24387360
_cell_angle_gamma   61.24387360
_symmetry_Int_Tables_number   1
_chemical_formula_structural   LaEuSnBi2Au
_chemical_formula_sum   'La1 Eu1 Sn1 Bi2 Au1'
_cell_volume   169.88084093
_cell_formula_units_Z   1
loop_
 _symmetry_equiv_pos_site_id
 _symmetry_equiv_pos_as_xyz
  1  'x, y, z'
loop_
 _atom_site_type_symbol
 _atom_site_label
 _atom_site_symmetry_multiplicity
 _atom_site_fract_x
 _atom_site_fract_y
 _atom_site_fract_z
 _atom_site_occupancy
  La  La0  1  0.84588799  0.80822403  0.49999999  1
  Eu  Eu1  1  0.15411200  0.19177601  0.50000001  1
  Bi  Bi2  1  0.65411199  0.50000002  0.19177599  1
  Bi  Bi3  1  0.34588800  0.50000002  0.80822401  1
  Sn  Sn4  1  0.25000001  1.00000004  -0.00000003  1
  Au  Au5  1  0.75000000  1.00000004  -0.00000003  1
