# generated using pymatgen
data_YErZrGa7(GePd2)2
_symmetry_space_group_name_H-M   'P 1'
_cell_length_a   5.70852184
_cell_length_b   8.11322403
_cell_length_c   8.11322403
_cell_angle_alpha   120.00000000
_cell_angle_beta   90.00000000
_cell_angle_gamma   90.00000000
_symmetry_Int_Tables_number   1
_chemical_formula_structural   YErZrGa7(GePd2)2
_chemical_formula_sum   'Y1 Er1 Zr1 Ga7 Ge2 Pd4'
_cell_volume   325.41774808
_cell_formula_units_Z   1
loop_
 _symmetry_equiv_pos_site_id
 _symmetry_equiv_pos_as_xyz
  1  'x, y, z'
loop_
 _atom_site_type_symbol
 _atom_site_label
 _atom_site_symmetry_multiplicity
 _atom_site_fract_x
 _atom_site_fract_y
 _atom_site_fract_z
 _atom_site_occupancy
  Er  Er0  1  0.25000001  0.00000000  0.76233399  1
  Y  Y1  1  0.75000002  0.99999999  0.23766599  1
  Ga  Ga2  1  0.75000002  0.23766600  0.99999998  1
  Ga  Ga3  1  0.25000001  0.23766600  0.23766600  1
  Ga  Ga4  1  0.25000001  0.76233399  0.99999998  1
  Ga  Ga5  1  0.75000002  0.76233399  0.76233398  1
  Ga  Ga6  1  0.50000001  0.66666666  0.33333332  1
  Zr  Zr7  1  1.00000003  0.33333333  0.66666666  1
  Ga  Ga8  1  0.50000001  0.33333333  0.66666666  1
  Ga  Ga9  1  -0.00000000  0.66666666  0.33333332  1
  Pd  Pd10  1  0.25000001  0.60307800  0.60307799  1
  Ge  Ge11  1  0.75000002  0.60307800  0.99999998  1
  Pd  Pd12  1  0.75000002  0.00000000  0.60307799  1
  Pd  Pd13  1  0.25000001  0.99999999  0.39692199  1
  Pd  Pd14  1  0.25000001  0.39692200  0.99999998  1
  Ge  Ge15  1  0.75000002  0.39692200  0.39692199  1
