# generated using pymatgen
data_YIn6Pd2Au5
_symmetry_space_group_name_H-M   'P 1'
_cell_length_a   7.24550819
_cell_length_b   7.24550819
_cell_length_c   7.24550819
_cell_angle_alpha   109.80487823
_cell_angle_beta   109.30464935
_cell_angle_gamma   109.30464935
_symmetry_Int_Tables_number   1
_chemical_formula_structural   YIn6Pd2Au5
_chemical_formula_sum   'Y1 In6 Pd2 Au5'
_cell_volume   292.80171570
_cell_formula_units_Z   1
loop_
 _symmetry_equiv_pos_site_id
 _symmetry_equiv_pos_as_xyz
  1  'x, y, z'
loop_
 _atom_site_type_symbol
 _atom_site_label
 _atom_site_symmetry_multiplicity
 _atom_site_fract_x
 _atom_site_fract_y
 _atom_site_fract_z
 _atom_site_occupancy
  Y  Y0  1  0.49999998  0.25000000  0.74999998  1
  In  In1  1  0.00000000  0.00000000  0.00000000  1
  In  In2  1  0.87582695  0.75082699  0.37499999  1
  In  In3  1  0.12417298  0.49917299  0.87500000  1
  In  In4  1  0.37582697  0.62499999  0.50082700  1
  In  In5  1  0.62417298  0.12500000  0.24917298  1
  In  In6  1  0.25221596  0.87193099  0.26881501  1
  Pd  Pd7  1  0.24778396  0.86971599  0.76660001  1
  Pd  Pd8  1  0.75221597  0.51881499  0.62193098  1
  Au  Au9  1  0.39688398  0.38028500  0.12806800  1
  Au  Au10  1  0.74778398  0.01660000  0.61971597  1
  Au  Au11  1  0.10311599  0.23340100  0.48118400  1
  Au  Au12  1  0.60311596  0.73118399  0.98340099  1
  Au  Au13  1  0.89688397  0.37806800  0.13028498  1
