# generated using pymatgen
data_Er3AlGa3Ge5
_symmetry_space_group_name_H-M   'P 1'
_cell_length_a   5.55546904
_cell_length_b   5.55546904
_cell_length_c   9.40798950
_cell_angle_alpha   72.82730865
_cell_angle_beta   72.82730865
_cell_angle_gamma   59.99998856
_symmetry_Int_Tables_number   1
_chemical_formula_structural   Er3AlGa3Ge5
_chemical_formula_sum   'Er3 Al1 Ga3 Ge5'
_cell_volume   236.39481973
_cell_formula_units_Z   1
loop_
 _symmetry_equiv_pos_site_id
 _symmetry_equiv_pos_as_xyz
  1  'x, y, z'
loop_
 _atom_site_type_symbol
 _atom_site_label
 _atom_site_symmetry_multiplicity
 _atom_site_fract_x
 _atom_site_fract_y
 _atom_site_fract_z
 _atom_site_occupancy
  Er  Er0  1  0.12285300  0.12285300  0.63144103  1
  Er  Er1  1  0.61212099  0.61212099  0.16363704  1
  Er  Er2  1  0.99930999  0.99930999  0.00207006  1
  Al  Al3  1  0.51769199  0.51769199  0.44692405  1
  Ga  Ga4  1  0.05818700  0.56108099  0.81965105  1
  Ge  Ge5  1  0.56608299  0.06306900  0.30777903  1
  Ga  Ga6  1  0.56108099  0.05818700  0.81965105  1
  Ge  Ge7  1  0.06306900  0.56608299  0.30777903  1
  Ge  Ge8  1  0.81335399  0.81335399  0.55993807  1
  Ga  Ga9  1  0.31209900  0.31209900  0.06370302  1
  Ge  Ge10  1  0.56108099  0.56108099  0.81965106  1
  Ge  Ge11  1  0.06306900  0.06306900  0.30777901  1
