# generated using pymatgen
data_Li3AlNi4
_symmetry_space_group_name_H-M   'P 1'
_cell_length_a   2.89511108
_cell_length_b   2.89511108
_cell_length_c   11.93432522
_cell_angle_alpha   90.00000000
_cell_angle_beta   90.00000000
_cell_angle_gamma   90.00000000
_symmetry_Int_Tables_number   1
_chemical_formula_structural   Li3AlNi4
_chemical_formula_sum   'Li3 Al1 Ni4'
_cell_volume   100.02955403
_cell_formula_units_Z   1
loop_
 _symmetry_equiv_pos_site_id
 _symmetry_equiv_pos_as_xyz
  1  'x, y, z'
loop_
 _atom_site_type_symbol
 _atom_site_label
 _atom_site_symmetry_multiplicity
 _atom_site_fract_x
 _atom_site_fract_y
 _atom_site_fract_z
 _atom_site_occupancy
  Li  Li0  1  0.00000000  0.00000000  0.33226799  1
  Li  Li1  1  0.00000000  0.00000000  0.66773199  1
  Li  Li2  1  0.49999999  0.49999999  0.84064498  1
  Al  Al3  1  0.49999999  0.49999999  0.15935500  1
  Ni  Ni4  1  0.49999999  0.49999999  0.31944399  1
  Ni  Ni5  1  0.49999999  0.49999999  0.68055599  1
  Ni  Ni6  1  0.00000000  0.00000000  0.00000000  1
  Ni  Ni7  1  0.49999999  0.49999999  0.49999999  1
