# generated using pymatgen
data_NaH7ClO9
_symmetry_space_group_name_H-M   'P 1'
_cell_length_a   5.56320667
_cell_length_b   5.56320667
_cell_length_c   7.62874413
_cell_angle_alpha   98.76490784
_cell_angle_beta   109.26110077
_cell_angle_gamma   109.79720306
_symmetry_Int_Tables_number   1
_chemical_formula_structural   NaH7ClO9
_chemical_formula_sum   'Na1 H7 Cl1 O9'
_cell_volume   200.22984230
_cell_formula_units_Z   1
loop_
 _symmetry_equiv_pos_site_id
 _symmetry_equiv_pos_as_xyz
  1  'x, y, z'
loop_
 _atom_site_type_symbol
 _atom_site_label
 _atom_site_symmetry_multiplicity
 _atom_site_fract_x
 _atom_site_fract_y
 _atom_site_fract_z
 _atom_site_occupancy
  Na  Na0  1  0.00012097  0.49986599  0.49998699  1
  H  H1  1  0.99273197  0.49644999  0.99778398  1
  H  H2  1  0.50133400  0.00505200  0.99778398  1
  H  H3  1  0.51503295  0.70291598  0.21794900  1
  H  H4  1  0.48871098  0.29657599  0.78528698  1
  H  H5  1  0.49154296  0.52064799  0.01219100  1
  H  H6  1  0.20616499  0.07875500  0.28491999  1
  H  H7  1  0.79390894  0.92070098  0.71460999  1
  O  O8  1  0.44956199  0.16302200  0.22630400  1
  O  O9  1  0.06328195  0.77674198  0.22630400  1
  O  O10  1  0.55078894  0.83628498  0.77340398  1
  O  O11  1  0.93711899  0.22261500  0.77340398  1
  O  O12  1  0.31335599  0.18310400  0.49645999  1
  O  O13  1  0.68649494  0.81646598  0.50296099  1
  Cl  Cl14  1  0.41915396  0.65556699  0.07472100  1
  O  O15  1  0.58391198  0.34429599  0.92820798  1
  O  O16  1  0.00273799  0.18393000  0.18666800  1
  O  O17  1  0.99738594  0.81576998  0.81315598  1
