# generated using pymatgen
data_LaInGa2SnGe
_symmetry_space_group_name_H-M   'P 1'
_cell_length_a   4.08558702
_cell_length_b   4.08558702
_cell_length_c   8.38669014
_cell_angle_alpha   90.00000000
_cell_angle_beta   90.00000000
_cell_angle_gamma   90.00000000
_symmetry_Int_Tables_number   1
_chemical_formula_structural   LaInGa2SnGe
_chemical_formula_sum   'La1 In1 Ga2 Sn1 Ge1'
_cell_volume   139.99081075
_cell_formula_units_Z   1
loop_
 _symmetry_equiv_pos_site_id
 _symmetry_equiv_pos_as_xyz
  1  'x, y, z'
loop_
 _atom_site_type_symbol
 _atom_site_label
 _atom_site_symmetry_multiplicity
 _atom_site_fract_x
 _atom_site_fract_y
 _atom_site_fract_z
 _atom_site_occupancy
  In  In0  1  0.00000000  0.50000000  0.27405100  1
  La  La1  1  0.50000000  0.00000000  0.72594899  1
  Ga  Ga2  1  0.50000000  0.00000000  0.36945699  1
  Ga  Ga3  1  0.00000000  0.50000000  0.63054299  1
  Sn  Sn4  1  0.50000000  0.50000000  0.00000000  1
  Ge  Ge5  1  0.00000000  0.00000000  0.00000000  1
