# generated using pymatgen
data_Ba4LiHgBi(Te3Se)2
_symmetry_space_group_name_H-M   'P 1'
_cell_length_a   4.26904345
_cell_length_b   4.26904345
_cell_length_c   25.70301819
_cell_angle_alpha   89.25181580
_cell_angle_beta   89.25181580
_cell_angle_gamma   60.27804184
_symmetry_Int_Tables_number   1
_chemical_formula_structural   Ba4LiHgBi(Te3Se)2
_chemical_formula_sum   'Ba4 Li1 Hg1 Bi1 Te6 Se2'
_cell_volume   406.75824476
_cell_formula_units_Z   1
loop_
 _symmetry_equiv_pos_site_id
 _symmetry_equiv_pos_as_xyz
  1  'x, y, z'
loop_
 _atom_site_type_symbol
 _atom_site_label
 _atom_site_symmetry_multiplicity
 _atom_site_fract_x
 _atom_site_fract_y
 _atom_site_fract_z
 _atom_site_occupancy
  Ba  Ba0  1  0.00000000  0.00000000  0.20000000  1
  Ba  Ba1  1  0.68673700  0.68673701  0.94225698  1
  Bi  Bi2  1  0.68583000  0.68583001  0.74208398  1
  Ba  Ba3  1  0.68627900  0.68627901  0.54229898  1
  Ba  Ba4  1  0.68742300  0.68742301  0.34165498  1
  Li  Li5  1  0.68528400  0.68528401  0.14090898  1
  Te  Te6  1  0.31372100  0.31372100  0.85770099  1
  Te  Te7  1  0.31417000  0.31417000  0.65791599  1
  Te  Te8  1  0.31326300  0.31326300  0.45774299  1
  Hg  Hg9  1  0.31471600  0.31471600  0.25909099  1
  Te  Te10  1  0.31257700  0.31257700  0.05834499  1
  Te  Te11  1  0.99995600  0.99995601  0.99989697  1
  Se  Se12  1  0.99986300  0.99986301  0.80008497  1
  Se  Se13  1  0.00013700  0.00013700  0.59991500  1
  Te  Te14  1  0.00004400  0.00004400  0.40010300  1
