# generated using pymatgen
data_Ba2NaAgO8
_symmetry_space_group_name_H-M   'P 1'
_cell_length_a   5.47073412
_cell_length_b   5.47073364
_cell_length_c   7.55231380
_cell_angle_alpha   90.00000000
_cell_angle_beta   90.00000000
_cell_angle_gamma   120.00000000
_symmetry_Int_Tables_number   1
_chemical_formula_structural   Ba2NaAgO8
_chemical_formula_sum   'Ba2 Na1 Ag1 O8'
_cell_volume   195.75003009
_cell_formula_units_Z   1
loop_
 _symmetry_equiv_pos_site_id
 _symmetry_equiv_pos_as_xyz
  1  'x, y, z'
loop_
 _atom_site_type_symbol
 _atom_site_label
 _atom_site_symmetry_multiplicity
 _atom_site_fract_x
 _atom_site_fract_y
 _atom_site_fract_z
 _atom_site_occupancy
  Na  Na0  1  0.49999999  0.00000000  0.16666700  1
  Ba  Ba1  1  0.49999996  0.49999997  0.50000001  1
  Ba  Ba2  1  -0.00000003  0.49999997  0.83333302  1
  Ag  Ag3  1  0.49999999  0.00000000  0.66666668  1
  O  O4  1  0.49999996  0.49999997  -0.00000000  1
  O  O5  1  -0.00000003  0.49999997  0.33333334  1
  O  O6  1  0.85234193  0.70468395  0.16666700  1
  O  O7  1  0.85234197  0.14765799  0.50000001  1
  O  O8  1  0.29531598  0.14765799  0.83333302  1
  O  O9  1  0.14765798  0.29531598  0.16666700  1
  O  O10  1  0.14765794  0.85234194  0.50000001  1
  O  O11  1  0.70468393  0.85234194  0.83333302  1
