# generated using pymatgen
data_Li7CuO10
_symmetry_space_group_name_H-M   'P 1'
_cell_length_a   4.68356991
_cell_length_b   4.79540348
_cell_length_c   9.72797680
_cell_angle_alpha   91.28687286
_cell_angle_beta   90.00014496
_cell_angle_gamma   89.99997711
_symmetry_Int_Tables_number   1
_chemical_formula_structural   Li7CuO10
_chemical_formula_sum   'Li7 Cu1 O10'
_cell_volume   218.43143363
_cell_formula_units_Z   1
loop_
 _symmetry_equiv_pos_site_id
 _symmetry_equiv_pos_as_xyz
  1  'x, y, z'
loop_
 _atom_site_type_symbol
 _atom_site_label
 _atom_site_symmetry_multiplicity
 _atom_site_fract_x
 _atom_site_fract_y
 _atom_site_fract_z
 _atom_site_occupancy
  Li  Li0  1  0.97724606  0.96528995  0.99183498  1
  Li  Li1  1  0.99995706  0.99997795  0.66666665  1
  Li  Li2  1  0.02279200  0.03477500  0.34151499  1
  Li  Li3  1  0.49999103  0.49998698  0.16667300  1
  Li  Li4  1  0.47715303  0.53471297  0.84149099  1
  Li  Li5  1  0.52279103  0.46529998  0.49183499  1
  Cu  Cu6  1  0.82854102  0.19340799  0.50001100  1
  Li  Li7  1  0.32854802  0.30658699  0.33333333  1
  O  O8  1  0.67146304  0.69340697  0.00000900  1
  O  O9  1  0.17146603  0.80658496  0.83332198  1
  O  O10  1  0.77139702  0.21796999  0.82976999  1
  O  O11  1  0.80581302  0.18518399  0.15444300  1
  O  O12  1  0.27140402  0.28202299  0.00356200  1
  O  O13  1  0.30580602  0.31480498  0.67888499  1
  O  O14  1  0.69419704  0.68518097  0.65444199  1
  O  O15  1  0.72861804  0.71797497  0.32977099  1
  O  O16  1  0.22861003  0.78202096  0.50356099  1
  O  O17  1  0.19420603  0.81480996  0.17888699  1
