# generated using pymatgen
data_BaLaInCu(PdAu)2
_symmetry_space_group_name_H-M   'P 1'
_cell_length_a   5.04217196
_cell_length_b   6.35733223
_cell_length_c   6.35733271
_cell_angle_alpha   60.00000381
_cell_angle_beta   90.00000000
_cell_angle_gamma   90.00000000
_symmetry_Int_Tables_number   1
_chemical_formula_structural   BaLaInCu(PdAu)2
_chemical_formula_sum   'Ba1 La1 In1 Cu1 Pd2 Au2'
_cell_volume   176.48107859
_cell_formula_units_Z   1
loop_
 _symmetry_equiv_pos_site_id
 _symmetry_equiv_pos_as_xyz
  1  'x, y, z'
loop_
 _atom_site_type_symbol
 _atom_site_label
 _atom_site_symmetry_multiplicity
 _atom_site_fract_x
 _atom_site_fract_y
 _atom_site_fract_z
 _atom_site_occupancy
  Ba  Ba0  1  0.25000000  0.66666665  0.66666667  1
  La  La1  1  0.75000001  0.33333332  0.33333334  1
  In  In2  1  0.25000000  0.16701900  0.16701900  1
  Cu  Cu3  1  0.75000001  0.83298098  0.83298101  1
  Pd  Pd4  1  0.75000001  0.83298098  0.33403800  1
  Au  Au5  1  0.25000000  0.66596198  0.16701900  1
  Au  Au6  1  0.25000000  0.16701900  0.66596201  1
  Pd  Pd7  1  0.75000001  0.33403799  0.83298102  1
