# generated using pymatgen
data_Na5Li(CuO6)2
_symmetry_space_group_name_H-M   'P 1'
_cell_length_a   6.29334450
_cell_length_b   6.29334450
_cell_length_c   6.45306921
_cell_angle_alpha   90.00000000
_cell_angle_beta   90.00000000
_cell_angle_gamma   109.27506256
_symmetry_Int_Tables_number   1
_chemical_formula_structural   Na5Li(CuO6)2
_chemical_formula_sum   'Na5 Li1 Cu2 O12'
_cell_volume   241.25476167
_cell_formula_units_Z   1
loop_
 _symmetry_equiv_pos_site_id
 _symmetry_equiv_pos_as_xyz
  1  'x, y, z'
loop_
 _atom_site_type_symbol
 _atom_site_label
 _atom_site_symmetry_multiplicity
 _atom_site_fract_x
 _atom_site_fract_y
 _atom_site_fract_z
 _atom_site_occupancy
  Na  Na0  1  0.49717502  0.50282501  0.74999998  1
  Li  Li1  1  0.00021802  0.99978202  0.24999999  1
  Na  Na2  1  0.99978201  0.00021800  0.74999998  1
  Na  Na3  1  0.50282502  0.49717501  0.24999999  1
  Na  Na4  1  0.50000001  0.00000000  -0.00000000  1
  Na  Na5  1  0.50000001  0.00000000  0.49999998  1
  Cu  Cu6  1  0.00000001  0.50000001  -0.00000000  1
  Cu  Cu7  1  0.00000001  0.50000001  0.49999998  1
  O  O8  1  0.68525603  0.94818602  0.24999999  1
  O  O9  1  0.94818603  0.68525601  0.74999998  1
  O  O10  1  0.68308303  0.93524402  0.74999998  1
  O  O11  1  0.93524403  0.68308301  0.24999999  1
  O  O12  1  0.36022302  0.63977701  0.49371098  1
  O  O13  1  0.36022302  0.63977701  0.00628900  1
  O  O14  1  0.63977702  0.36022301  0.99371097  1
  O  O15  1  0.63977702  0.36022301  0.50628898  1
  O  O16  1  0.31691701  0.06475600  0.24999999  1
  O  O17  1  0.06475601  0.31691701  0.74999998  1
  O  O18  1  0.31474401  0.05181400  0.74999998  1
  O  O19  1  0.05181401  0.31474401  0.24999999  1
