# generated using pymatgen
data_DyErLu2In2(SnPd)2
_symmetry_space_group_name_H-M   'P 1'
_cell_length_a   3.84958506
_cell_length_b   7.91257000
_cell_length_c   7.91257000
_cell_angle_alpha   90.00000000
_cell_angle_beta   90.00000000
_cell_angle_gamma   90.00000000
_symmetry_Int_Tables_number   1
_chemical_formula_structural   DyErLu2In2(SnPd)2
_chemical_formula_sum   'Dy1 Er1 Lu2 In2 Sn2 Pd2'
_cell_volume   241.01776229
_cell_formula_units_Z   1
loop_
 _symmetry_equiv_pos_site_id
 _symmetry_equiv_pos_as_xyz
  1  'x, y, z'
loop_
 _atom_site_type_symbol
 _atom_site_label
 _atom_site_symmetry_multiplicity
 _atom_site_fract_x
 _atom_site_fract_y
 _atom_site_fract_z
 _atom_site_occupancy
  Er  Er0  1  0.49999999  0.67094000  0.17094000  1
  Dy  Dy1  1  0.49999999  0.32906000  0.82906000  1
  Lu  Lu2  1  0.49999999  0.17094000  0.32906000  1
  Lu  Lu3  1  0.49999999  0.82906000  0.67094000  1
  In  In4  1  0.00000000  0.00000000  0.00000000  1
  In  In5  1  0.00000000  0.50000000  0.50000000  1
  Sn  Sn6  1  -0.00000000  0.12912800  0.62912800  1
  Pd  Pd7  1  0.99999999  0.87087200  0.37087200  1
  Sn  Sn8  1  0.99999999  0.62912800  0.87087200  1
  Pd  Pd9  1  0.00000000  0.37087200  0.12912800  1
