# generated using pymatgen
data_LiMg2AlGa5Cu
_symmetry_space_group_name_H-M   'P 1'
_cell_length_a   6.98228359
_cell_length_b   6.98228359
_cell_length_c   7.31679487
_cell_angle_alpha   61.50117111
_cell_angle_beta   61.50117111
_cell_angle_gamma   60.00000381
_symmetry_Int_Tables_number   1
_chemical_formula_structural   LiMg2AlGa5Cu
_chemical_formula_sum   'Li1 Mg2 Al1 Ga5 Cu1'
_cell_volume   257.80486858
_cell_formula_units_Z   1
loop_
 _symmetry_equiv_pos_site_id
 _symmetry_equiv_pos_as_xyz
  1  'x, y, z'
loop_
 _atom_site_type_symbol
 _atom_site_label
 _atom_site_symmetry_multiplicity
 _atom_site_fract_x
 _atom_site_fract_y
 _atom_site_fract_z
 _atom_site_occupancy
  Li  Li0  1  0.85229594  0.85229599  0.44311205  1
  Mg  Mg1  1  0.64770396  0.64770399  0.05688803  1
  Al  Al2  1  0.35229598  0.35229600  0.94311205  1
  Mg  Mg3  1  0.14770399  0.14770400  0.55688802  1
  Ga  Ga4  1  0.54383297  0.25000000  0.25000002  1
  Ga  Ga5  1  0.95616695  0.54383299  0.25000004  1
  Cu  Cu6  1  0.24999995  0.95616699  0.25000004  1
  Ga  Ga7  1  0.74999998  0.04383300  0.75000004  1
  Ga  Ga8  1  0.04383298  0.45616699  0.75000004  1
  Ga  Ga9  1  0.45616696  0.74999999  0.75000005  1
