# generated using pymatgen
data_KYTlCuSiTeSe6
_symmetry_space_group_name_H-M   'P 1'
_cell_length_a   5.57812977
_cell_length_b   7.09832430
_cell_length_c   7.09832430
_cell_angle_alpha   103.29349518
_cell_angle_beta   90.00000000
_cell_angle_gamma   90.00000000
_symmetry_Int_Tables_number   1
_chemical_formula_structural   KYTlCuSiTeSe6
_chemical_formula_sum   'K1 Y1 Tl1 Cu1 Si1 Te1 Se6'
_cell_volume   273.52977719
_cell_formula_units_Z   1
loop_
 _symmetry_equiv_pos_site_id
 _symmetry_equiv_pos_as_xyz
  1  'x, y, z'
loop_
 _atom_site_type_symbol
 _atom_site_label
 _atom_site_symmetry_multiplicity
 _atom_site_fract_x
 _atom_site_fract_y
 _atom_site_fract_z
 _atom_site_occupancy
  Y  Y0  1  -0.00000000  0.83249499  0.83249495  1
  K  K1  1  0.50000002  0.17555600  0.17555599  1
  Cu  Cu2  1  0.74988703  0.70090599  0.29043996  1
  Tl  Tl3  1  0.25011301  0.70090599  0.29043996  1
  Si  Si4  1  0.74988703  0.29044000  0.70090599  1
  Te  Te5  1  0.25011301  0.29044000  0.70090599  1
  Se  Se6  1  0.50000002  0.57704699  0.57704697  1
  Se  Se7  1  -0.00000000  0.02405800  0.42018900  1
  Se  Se8  1  0.50000002  0.58237899  0.96370497  1
  Se  Se9  1  0.50000002  0.96370499  0.58237895  1
  Se  Se10  1  1.00000004  0.42018900  0.02405798  1
  Se  Se11  1  -0.00000000  0.44187800  0.44187798  1
