# generated using pymatgen
data_Zr2ScAlPd4
_symmetry_space_group_name_H-M   'P 1'
_cell_length_a   5.49275780
_cell_length_b   5.49275780
_cell_length_c   6.90924740
_cell_angle_alpha   113.42156219
_cell_angle_beta   113.42156219
_cell_angle_gamma   90.00000000
_symmetry_Int_Tables_number   1
_chemical_formula_structural   Zr2ScAlPd4
_chemical_formula_sum   'Zr2 Sc1 Al1 Pd4'
_cell_volume   172.40074404
_cell_formula_units_Z   1
loop_
 _symmetry_equiv_pos_site_id
 _symmetry_equiv_pos_as_xyz
  1  'x, y, z'
loop_
 _atom_site_type_symbol
 _atom_site_label
 _atom_site_symmetry_multiplicity
 _atom_site_fract_x
 _atom_site_fract_y
 _atom_site_fract_z
 _atom_site_occupancy
  Al  Al0  1  0.50000004  0.50000003  0.00000003  1
  Zr  Zr1  1  0.25000003  0.75000004  0.50000003  1
  Zr  Zr2  1  0.00000000  0.00000000  0.00000000  1
  Sc  Sc3  1  0.75000004  0.25000001  0.50000002  1
  Pd  Pd4  1  0.75780506  0.75780504  0.51561004  1
  Pd  Pd5  1  0.24219502  0.24219501  0.48439001  1
  Pd  Pd6  1  0.99219506  0.49219503  0.98439004  1
  Pd  Pd7  1  0.50780502  0.00780500  0.01561001  1
