# generated using pymatgen
data_K3Tl(BiSe4)2
_symmetry_space_group_name_H-M   'P 1'
_cell_length_a   7.53945351
_cell_length_b   7.53945351
_cell_length_c   9.66508865
_cell_angle_alpha   90.00000000
_cell_angle_beta   90.00000000
_cell_angle_gamma   89.98392487
_symmetry_Int_Tables_number   1
_chemical_formula_structural   K3Tl(BiSe4)2
_chemical_formula_sum   'K3 Tl1 Bi2 Se8'
_cell_volume   549.39608418
_cell_formula_units_Z   1
loop_
 _symmetry_equiv_pos_site_id
 _symmetry_equiv_pos_as_xyz
  1  'x, y, z'
loop_
 _atom_site_type_symbol
 _atom_site_label
 _atom_site_symmetry_multiplicity
 _atom_site_fract_x
 _atom_site_fract_y
 _atom_site_fract_z
 _atom_site_occupancy
  Tl  Tl0  1  0.00003299  0.49991599  0.25000001  1
  K  K1  1  0.50008398  0.99996698  0.75000003  1
  K  K2  1  0.99996698  0.50008399  0.75000003  1
  K  K3  1  0.49991600  0.00003300  0.25000001  1
  Bi  Bi4  1  0.00000000  0.00000000  0.50000002  1
  Bi  Bi5  1  0.00000000  0.00000000  0.00000000  1
  Se  Se6  1  0.21865899  0.21865900  0.49999902  1
  Se  Se7  1  0.21865899  0.21865900  0.00000100  1
  Se  Se8  1  0.21871999  0.78127998  0.00000000  1
  Se  Se9  1  0.78127999  0.21872000  0.50000002  1
  Se  Se10  1  0.78127999  0.21872000  1.00000004  1
  Se  Se11  1  0.78134098  0.78134098  0.50000102  1
  Se  Se12  1  0.78134098  0.78134098  0.99999904  1
  Se  Se13  1  0.21871999  0.78127998  0.50000002  1
