# generated using pymatgen
data_Li2MnFeCuNi5
_symmetry_space_group_name_H-M   'P 1'
_cell_length_a   2.50181890
_cell_length_b   2.50181890
_cell_length_c   18.17679977
_cell_angle_alpha   90.00000000
_cell_angle_beta   90.00000000
_cell_angle_gamma   90.00000000
_symmetry_Int_Tables_number   1
_chemical_formula_structural   Li2MnFeCuNi5
_chemical_formula_sum   'Li2 Mn1 Fe1 Cu1 Ni5'
_cell_volume   113.77036721
_cell_formula_units_Z   1
loop_
 _symmetry_equiv_pos_site_id
 _symmetry_equiv_pos_as_xyz
  1  'x, y, z'
loop_
 _atom_site_type_symbol
 _atom_site_label
 _atom_site_symmetry_multiplicity
 _atom_site_fract_x
 _atom_site_fract_y
 _atom_site_fract_z
 _atom_site_occupancy
  Mn  Mn0  1  0.00000000  0.00000000  0.89560396  1
  Li  Li1  1  0.00000000  0.00000000  0.10439600  1
  Li  Li2  1  0.00000000  0.00000000  0.30129199  1
  Fe  Fe3  1  0.00000000  0.00000000  0.49999998  1
  Ni  Ni4  1  0.00000000  0.00000000  0.69870797  1
  Ni  Ni5  1  0.50000002  0.50000002  0.00000000  1
  Ni  Ni6  1  0.50000002  0.50000002  0.20288599  1
  Cu  Cu7  1  0.50000002  0.50000002  0.40017398  1
  Ni  Ni8  1  0.50000002  0.50000002  0.59982597  1
  Ni  Ni9  1  0.50000002  0.50000002  0.79711397  1
