# generated using pymatgen
data_CeY3In3Sn3Au2
_symmetry_space_group_name_H-M   'P 1'
_cell_length_a   4.59273195
_cell_length_b   4.59273243
_cell_length_c   16.41239357
_cell_angle_alpha   90.00000000
_cell_angle_beta   90.00000000
_cell_angle_gamma   120.00000000
_symmetry_Int_Tables_number   1
_chemical_formula_structural   CeY3In3Sn3Au2
_chemical_formula_sum   'Ce1 Y3 In3 Sn3 Au2'
_cell_volume   299.80909133
_cell_formula_units_Z   1
loop_
 _symmetry_equiv_pos_site_id
 _symmetry_equiv_pos_as_xyz
  1  'x, y, z'
loop_
 _atom_site_type_symbol
 _atom_site_label
 _atom_site_symmetry_multiplicity
 _atom_site_fract_x
 _atom_site_fract_y
 _atom_site_fract_z
 _atom_site_occupancy
  Y  Y0  1  0.00000000  0.00000000  0.50000001  1
  Ce  Ce1  1  0.00000000  0.00000000  0.00000000  1
  Y  Y2  1  0.00000000  0.00000000  0.75000002  1
  Y  Y3  1  0.00000000  0.00000000  0.25000001  1
  In  In4  1  0.66666669  0.33333334  0.65639702  1
  In  In5  1  0.33333337  0.66666667  0.34360301  1
  In  In6  1  0.33333337  0.66666667  0.15639700  1
  Sn  Sn7  1  0.66666669  0.33333334  0.84360302  1
  Sn  Sn8  1  0.66666669  0.33333334  0.11503500  1
  Sn  Sn9  1  0.33333337  0.66666667  0.88496502  1
  Au  Au10  1  0.33333337  0.66666667  0.61503502  1
  Au  Au11  1  0.66666669  0.33333334  0.38496501  1
