# generated using pymatgen
data_Sc2SiNiRh2
_symmetry_space_group_name_H-M   'P 1'
_cell_length_a   5.36902380
_cell_length_b   5.36902380
_cell_length_c   5.36902380
_cell_angle_alpha   60.00000000
_cell_angle_beta   60.00000000
_cell_angle_gamma   60.00000000
_symmetry_Int_Tables_number   1
_chemical_formula_structural   Sc2SiNiRh2
_chemical_formula_sum   'Sc2 Si1 Ni1 Rh2'
_cell_volume   109.43871613
_cell_formula_units_Z   1
loop_
 _symmetry_equiv_pos_site_id
 _symmetry_equiv_pos_as_xyz
  1  'x, y, z'
loop_
 _atom_site_type_symbol
 _atom_site_label
 _atom_site_symmetry_multiplicity
 _atom_site_fract_x
 _atom_site_fract_y
 _atom_site_fract_z
 _atom_site_occupancy
  Sc  Sc0  1  0.74999997  0.74999997  0.74999997  1
  Sc  Sc1  1  0.00000000  0.00000000  0.00000000  1
  Si  Si2  1  0.87499997  0.37499999  0.37499999  1
  Rh  Rh3  1  0.37499999  0.37499999  0.87499997  1
  Ni  Ni4  1  0.37499999  0.37499999  0.37499999  1
  Rh  Rh5  1  0.37499999  0.87499997  0.37499999  1
