# generated using pymatgen
data_Y2MgAlInAu
_symmetry_space_group_name_H-M   'P 1'
_cell_length_a   3.16457009
_cell_length_b   3.16457009
_cell_length_c   15.02943039
_cell_angle_alpha   90.00000000
_cell_angle_beta   90.00000000
_cell_angle_gamma   120.00000000
_symmetry_Int_Tables_number   1
_chemical_formula_structural   Y2MgAlInAu
_chemical_formula_sum   'Y2 Mg1 Al1 In1 Au1'
_cell_volume   130.34746574
_cell_formula_units_Z   1
loop_
 _symmetry_equiv_pos_site_id
 _symmetry_equiv_pos_as_xyz
  1  'x, y, z'
loop_
 _atom_site_type_symbol
 _atom_site_label
 _atom_site_symmetry_multiplicity
 _atom_site_fract_x
 _atom_site_fract_y
 _atom_site_fract_z
 _atom_site_occupancy
  Y  Y0  1  0.00000000  0.00000000  0.33375699  1
  Y  Y1  1  0.33333332  0.66666664  0.49999999  1
  Mg  Mg2  1  0.00000000  0.00000000  0.66624298  1
  Al  Al3  1  0.00000000  0.00000000  0.00000000  1
  Au  Au4  1  0.33333332  0.66666664  0.16872600  1
  In  In5  1  0.33333332  0.66666664  0.83127398  1
