# generated using pymatgen
data_PrYIn3Sn6Ge
_symmetry_space_group_name_H-M   'P 1'
_cell_length_a   4.62762213
_cell_length_b   4.62762213
_cell_length_c   14.79778004
_cell_angle_alpha   98.99579620
_cell_angle_beta   98.99579620
_cell_angle_gamma   90.00000000
_symmetry_Int_Tables_number   1
_chemical_formula_structural   PrYIn3Sn6Ge
_chemical_formula_sum   'Pr1 Y1 In3 Sn6 Ge1'
_cell_volume   309.04794420
_cell_formula_units_Z   1
loop_
 _symmetry_equiv_pos_site_id
 _symmetry_equiv_pos_as_xyz
  1  'x, y, z'
loop_
 _atom_site_type_symbol
 _atom_site_label
 _atom_site_symmetry_multiplicity
 _atom_site_fract_x
 _atom_site_fract_y
 _atom_site_fract_z
 _atom_site_occupancy
  Y  Y0  1  0.82672297  0.32672299  0.65344601  1
  Pr  Pr1  1  0.92327696  0.92327697  0.84655401  1
  In  In2  1  0.67327698  0.17327699  0.34655400  1
  In  In3  1  0.07672300  0.07672300  0.15344600  1
  In  In4  1  0.00078699  0.50078698  0.00157399  1
  Sn  Sn5  1  0.74921297  0.74921298  0.49842600  1
  Sn  Sn6  1  0.49921297  0.99921297  0.99842601  1
  Ge  Ge7  1  0.25078699  0.25078699  0.50157401  1
  Sn  Sn8  1  0.16286499  0.66286498  0.32573000  1
  Sn  Sn9  1  0.58713497  0.58713498  0.17426999  1
  Sn  Sn10  1  0.33713498  0.83713497  0.67427001  1
  Sn  Sn11  1  0.41286498  0.41286499  0.82573002  1
