# generated using pymatgen
data_DyY2ErIn2SnGePd2
_symmetry_space_group_name_H-M   'P 1'
_cell_length_a   4.36093616
_cell_length_b   7.38501787
_cell_length_c   7.38501787
_cell_angle_alpha   90.00000000
_cell_angle_beta   90.00000000
_cell_angle_gamma   90.00000000
_symmetry_Int_Tables_number   1
_chemical_formula_structural   DyY2ErIn2SnGePd2
_chemical_formula_sum   'Dy1 Y2 Er1 In2 Sn1 Ge1 Pd2'
_cell_volume   237.83886892
_cell_formula_units_Z   1
loop_
 _symmetry_equiv_pos_site_id
 _symmetry_equiv_pos_as_xyz
  1  'x, y, z'
loop_
 _atom_site_type_symbol
 _atom_site_label
 _atom_site_symmetry_multiplicity
 _atom_site_fract_x
 _atom_site_fract_y
 _atom_site_fract_z
 _atom_site_occupancy
  Er  Er0  1  0.49999998  0.67809901  0.17809900  1
  Dy  Dy1  1  0.49999998  0.32190101  0.82190101  1
  Y  Y2  1  0.49999998  0.17809900  0.32190101  1
  Y  Y3  1  0.49999998  0.82190101  0.67809901  1
  In  In4  1  0.00000000  0.50000001  0.50000001  1
  In  In5  1  0.00000000  0.00000000  0.00000000  1
  Pd  Pd6  1  0.99999996  0.87795602  0.37795601  1
  Ge  Ge7  1  0.00000000  0.12204400  0.62204401  1
  Pd  Pd8  1  0.00000000  0.37795601  0.12204400  1
  Sn  Sn9  1  0.00000000  0.62204401  0.87795602  1
