# generated using pymatgen
data_LiMgCu4
_symmetry_space_group_name_H-M   'P 1'
_cell_length_a   4.21980715
_cell_length_b   5.15724707
_cell_length_c   5.15923882
_cell_angle_alpha   119.97480011
_cell_angle_beta   90.00000000
_cell_angle_gamma   90.00000000
_symmetry_Int_Tables_number   1
_chemical_formula_structural   LiMgCu4
_chemical_formula_sum   'Li1 Mg1 Cu4'
_cell_volume   97.26061889
_cell_formula_units_Z   1
loop_
 _symmetry_equiv_pos_site_id
 _symmetry_equiv_pos_as_xyz
  1  'x, y, z'
loop_
 _atom_site_type_symbol
 _atom_site_label
 _atom_site_symmetry_multiplicity
 _atom_site_fract_x
 _atom_site_fract_y
 _atom_site_fract_z
 _atom_site_occupancy
  Li  Li0  1  -0.00000000  0.99996899  0.99995511  1
  Mg  Mg1  1  0.99999996  0.66657600  0.33309406  1
  Cu  Cu2  1  0.49999998  0.50403000  0.00806103  1
  Cu  Cu3  1  0.49999998  0.50397500  0.49597606  1
  Cu  Cu4  1  0.49999998  0.99196199  0.49596509  1
  Cu  Cu5  1  -0.00000000  0.33338800  0.66694905  1
