# generated using pymatgen
data_Na3LiCu3O12F
_symmetry_space_group_name_H-M   'P 1'
_cell_length_a   3.87545276
_cell_length_b   3.89716864
_cell_length_c   15.37347412
_cell_angle_alpha   89.95853424
_cell_angle_beta   90.04075623
_cell_angle_gamma   89.56967163
_symmetry_Int_Tables_number   1
_chemical_formula_structural   Na3LiCu3O12F
_chemical_formula_sum   'Na3 Li1 Cu3 O12 F1'
_cell_volume   232.18341377
_cell_formula_units_Z   1
loop_
 _symmetry_equiv_pos_site_id
 _symmetry_equiv_pos_as_xyz
  1  'x, y, z'
loop_
 _atom_site_type_symbol
 _atom_site_label
 _atom_site_symmetry_multiplicity
 _atom_site_fract_x
 _atom_site_fract_y
 _atom_site_fract_z
 _atom_site_occupancy
  Na  Na0  1  0.50064200  0.49956000  0.12225400  1
  Na  Na1  1  0.49962000  0.50020200  0.37732700  1
  Li  Li2  1  0.49996900  0.50042600  0.62272800  1
  Na  Na3  1  0.49988900  0.49984300  0.87744500  1
  Cu  Cu4  1  0.99948098  0.00034900  0.49950999  1
  Cu  Cu5  1  0.00011800  0.00016700  0.74970000  1
  O  O6  1  0.99991200  0.99972799  0.99929999  1
  Cu  Cu7  1  0.00132902  0.99927099  0.24967000  1
  O  O8  1  0.00109502  0.99926099  0.12063400  1
  O  O9  1  0.99883898  0.00142600  0.37954999  1
  O  O10  1  0.00027600  0.00081400  0.62083200  1
  O  O11  1  0.99911500  0.99838999  0.87963099  1
  O  O12  1  0.99993599  0.49919100  0.00017299  1
  O  O13  1  0.99999799  0.50016600  0.24984099  1
  O  O14  1  0.99996399  0.50071300  0.50079599  1
  O  O15  1  0.00016001  0.50010500  0.74994200  1
  F  F16  1  0.50005999  0.00005300  0.00065200  1
  O  O17  1  0.49994299  0.00002900  0.24953000  1
  O  O18  1  0.49966401  0.99997699  0.50051900  1
  O  O19  1  0.49999199  0.00032700  0.74996400  1
