# generated using pymatgen
data_Hf3Ga4Pd5Pt
_symmetry_space_group_name_H-M   'P 1'
_cell_length_a   5.37878180
_cell_length_b   5.37878323
_cell_length_c   8.81290817
_cell_angle_alpha   90.00000000
_cell_angle_beta   90.00000000
_cell_angle_gamma   119.99999237
_symmetry_Int_Tables_number   1
_chemical_formula_structural   Hf3Ga4Pd5Pt
_chemical_formula_sum   'Hf3 Ga4 Pd5 Pt1'
_cell_volume   220.80956298
_cell_formula_units_Z   1
loop_
 _symmetry_equiv_pos_site_id
 _symmetry_equiv_pos_as_xyz
  1  'x, y, z'
loop_
 _atom_site_type_symbol
 _atom_site_label
 _atom_site_symmetry_multiplicity
 _atom_site_fract_x
 _atom_site_fract_y
 _atom_site_fract_z
 _atom_site_occupancy
  Hf  Hf0  1  0.00000000  0.00000000  0.00000000  1
  Hf  Hf1  1  0.50000002  0.00000000  0.23266000  1
  Hf  Hf2  1  0.50000002  0.00000000  0.76733998  1
  Ga  Ga3  1  -0.00000002  0.49999997  0.23266000  1
  Ga  Ga4  1  -0.00000002  0.49999997  0.76733998  1
  Ga  Ga5  1  0.50000000  0.49999997  0.23266000  1
  Ga  Ga6  1  0.50000000  0.49999997  0.76733998  1
  Pt  Pt7  1  0.33333333  0.66666663  0.49999999  1
  Pd  Pd8  1  0.66666668  0.33333331  0.49999999  1
  Pd  Pd9  1  0.00000000  0.00000000  0.33514599  1
  Pd  Pd10  1  0.00000000  0.00000000  0.66485399  1
  Pd  Pd11  1  0.33333333  0.66666663  0.99999998  1
  Pd  Pd12  1  0.66666668  0.33333331  0.99999998  1
