# generated using pymatgen
data_LiMg3Cu
_symmetry_space_group_name_H-M   'P 1'
_cell_length_a   4.22566986
_cell_length_b   4.22566986
_cell_length_c   6.35175514
_cell_angle_alpha   109.42897034
_cell_angle_beta   109.42897034
_cell_angle_gamma   90.00000000
_symmetry_Int_Tables_number   1
_chemical_formula_structural   LiMg3Cu
_chemical_formula_sum   'Li1 Mg3 Cu1'
_cell_volume   100.08547469
_cell_formula_units_Z   1
loop_
 _symmetry_equiv_pos_site_id
 _symmetry_equiv_pos_as_xyz
  1  'x, y, z'
loop_
 _atom_site_type_symbol
 _atom_site_label
 _atom_site_symmetry_multiplicity
 _atom_site_fract_x
 _atom_site_fract_y
 _atom_site_fract_z
 _atom_site_occupancy
  Li  Li0  1  0.00000000  0.00000000  0.00000000  1
  Mg  Mg1  1  0.75000005  0.25000001  0.50000005  1
  Mg  Mg2  1  0.25000004  0.75000004  0.50000005  1
  Mg  Mg3  1  0.61177405  0.61177403  0.22354805  1
  Cu  Cu4  1  0.38822603  0.38822602  0.77645205  1
