# generated using pymatgen
data_Na3Tl2Cu3AgO5
_symmetry_space_group_name_H-M   'P 1'
_cell_length_a   7.03851080
_cell_length_b   7.15194416
_cell_length_c   7.08311176
_cell_angle_alpha   90.00000000
_cell_angle_beta   62.49341583
_cell_angle_gamma   90.00000000
_symmetry_Int_Tables_number   1
_chemical_formula_structural   Na3Tl2Cu3AgO5
_chemical_formula_sum   'Na3 Tl2 Cu3 Ag1 O5'
_cell_volume   316.25101723
_cell_formula_units_Z   1
loop_
 _symmetry_equiv_pos_site_id
 _symmetry_equiv_pos_as_xyz
  1  'x, y, z'
loop_
 _atom_site_type_symbol
 _atom_site_label
 _atom_site_symmetry_multiplicity
 _atom_site_fract_x
 _atom_site_fract_y
 _atom_site_fract_z
 _atom_site_occupancy
  Na  Na0  1  0.17521001  0.64705999  0.07362900  1
  Na  Na1  1  0.17521001  0.85293998  0.57362900  1
  Na  Na2  1  0.82479002  0.14706000  0.42637100  1
  Tl  Tl3  1  0.82479002  0.35293999  0.92637100  1
  Cu  Cu4  1  0.32959201  0.37632699  0.43039000  1
  Tl  Tl5  1  0.67040802  0.87632698  0.06961000  1
  Cu  Cu6  1  0.32959201  0.12367300  0.93039000  1
  Cu  Cu7  1  0.67040802  0.62367299  0.56961000  1
  O  O8  1  -0.00000000  0.49999999  0.50000000  1
  O  O9  1  0.00000000  0.00000000  0.00000000  1
  O  O10  1  0.40127101  0.10294800  0.22806800  1
  Ag  Ag11  1  0.59872902  0.60294799  0.27193200  1
  O  O12  1  0.40127101  0.39705199  0.72806800  1
  O  O13  1  0.59872902  0.89705198  0.77193200  1
