# generated using pymatgen
data_KNaSCl3
_symmetry_space_group_name_H-M   'P 1'
_cell_length_a   4.48553181
_cell_length_b   4.48553228
_cell_length_c   9.79678726
_cell_angle_alpha   90.00000000
_cell_angle_beta   90.00000000
_cell_angle_gamma   120.00000000
_symmetry_Int_Tables_number   1
_chemical_formula_structural   KNaSCl3
_chemical_formula_sum   'K1 Na1 S1 Cl3'
_cell_volume   170.70342562
_cell_formula_units_Z   1
loop_
 _symmetry_equiv_pos_site_id
 _symmetry_equiv_pos_as_xyz
  1  'x, y, z'
loop_
 _atom_site_type_symbol
 _atom_site_label
 _atom_site_symmetry_multiplicity
 _atom_site_fract_x
 _atom_site_fract_y
 _atom_site_fract_z
 _atom_site_occupancy
  Na  Na0  1  0.00000000  0.00000000  0.49999999  1
  K  K1  1  0.00000000  0.00000000  0.00000000  1
  Cl  Cl2  1  0.33333338  0.66666668  0.74999998  1
  Cl  Cl3  1  0.66666671  0.33333334  0.24999999  1
  S  S4  1  0.66666671  0.33333334  0.74999998  1
  Cl  Cl5  1  0.33333338  0.66666668  0.24999999  1
