# generated using pymatgen
data_NaLiMnFe2CoCu3P8O
_symmetry_space_group_name_H-M   'P 1'
_cell_length_a   4.01006317
_cell_length_b   7.62374687
_cell_length_c   7.62374687
_cell_angle_alpha   90.00000000
_cell_angle_beta   90.00000000
_cell_angle_gamma   90.00000000
_symmetry_Int_Tables_number   1
_chemical_formula_structural   NaLiMnFe2CoCu3P8O
_chemical_formula_sum   'Na1 Li1 Mn1 Fe2 Co1 Cu3 P8 O1'
_cell_volume   233.07095225
_cell_formula_units_Z   1
loop_
 _symmetry_equiv_pos_site_id
 _symmetry_equiv_pos_as_xyz
  1  'x, y, z'
loop_
 _atom_site_type_symbol
 _atom_site_label
 _atom_site_symmetry_multiplicity
 _atom_site_fract_x
 _atom_site_fract_y
 _atom_site_fract_z
 _atom_site_occupancy
  Li  Li0  1  0.24563499  0.00000000  0.50000001  1
  Na  Na1  1  0.74563497  0.50000001  -0.00000000  1
  Mn  Mn2  1  0.36403598  0.78397701  0.16064800  1
  Fe  Fe3  1  0.36403598  0.21602300  0.83935201  1
  Cu  Cu4  1  0.86403596  0.83935201  0.78397701  1
  Cu  Cu5  1  0.86403596  0.16064800  0.21602300  1
  Fe  Fe6  1  0.64079097  0.72164801  0.33791701  1
  Cu  Cu7  1  0.64079097  0.27835200  0.66208301  1
  P  P8  1  0.14079099  0.66208301  0.72164801  1
  Co  Co9  1  0.14079099  0.33791701  0.27835200  1
  P  P10  1  0.13738299  0.39013401  0.65840801  1
  O  O11  1  0.13738299  0.60986601  0.34159201  1
  P  P12  1  0.63738297  0.34159201  0.39013401  1
  P  P13  1  0.63738297  0.65840801  0.60986601  1
  P  P14  1  0.85997296  0.10964300  0.85427701  1
  P  P15  1  0.85997296  0.89035701  0.14572300  1
  P  P16  1  0.35997298  0.14572300  0.10964300  1
  P  P17  1  0.35997298  0.85427701  0.89035701  1
