# generated using pymatgen
data_Cu2AsPSe2S
_symmetry_space_group_name_H-M   'P 1'
_cell_length_a   3.43935204
_cell_length_b   5.91427612
_cell_length_c   6.64981508
_cell_angle_alpha   115.65727234
_cell_angle_beta   104.98731232
_cell_angle_gamma   90.00000000
_symmetry_Int_Tables_number   1
_chemical_formula_structural   Cu2AsPSe2S
_chemical_formula_sum   'Cu2 As1 P1 Se2 S1'
_cell_volume   116.80301080
_cell_formula_units_Z   1
loop_
 _symmetry_equiv_pos_site_id
 _symmetry_equiv_pos_as_xyz
  1  'x, y, z'
loop_
 _atom_site_type_symbol
 _atom_site_label
 _atom_site_symmetry_multiplicity
 _atom_site_fract_x
 _atom_site_fract_y
 _atom_site_fract_z
 _atom_site_occupancy
  Cu  Cu0  1  0.75550002  0.78639800  0.51099998  1
  Cu  Cu1  1  0.24381801  0.22294700  0.48763599  1
  As  As2  1  0.50218101  0.50394900  0.00436200  1
  P  P3  1  0.61932703  0.95469000  0.23865398  1
  S  S4  1  0.38171500  0.04984400  0.76342999  1
  Se  Se5  1  0.13677501  0.46915300  0.27354998  1
  Se  Se6  1  0.86068402  0.51301800  0.72136799  1
