# generated using pymatgen
data_NaLiTiCu3NiP2O
_symmetry_space_group_name_H-M   'P 1'
_cell_length_a   6.13020134
_cell_length_b   6.13020134
_cell_length_c   6.15293789
_cell_angle_alpha   90.30300140
_cell_angle_beta   119.58647919
_cell_angle_gamma   119.94207001
_symmetry_Int_Tables_number   1
_chemical_formula_structural   NaLiTiCu3NiP2O
_chemical_formula_sum   'Na1 Li1 Ti1 Cu3 Ni1 P2 O1'
_cell_volume   164.22808358
_cell_formula_units_Z   1
loop_
 _symmetry_equiv_pos_site_id
 _symmetry_equiv_pos_as_xyz
  1  'x, y, z'
loop_
 _atom_site_type_symbol
 _atom_site_label
 _atom_site_symmetry_multiplicity
 _atom_site_fract_x
 _atom_site_fract_y
 _atom_site_fract_z
 _atom_site_occupancy
  Li  Li0  1  0.49603100  0.24871500  0.74474603  1
  Na  Na1  1  0.50396898  0.75128499  0.25525404  1
  Ti  Ti2  1  0.00000000  0.00000000  0.00000000  1
  Ni  Ni3  1  -0.00000002  0.49999999  0.50000003  1
  Cu  Cu4  1  0.54116799  0.30058900  0.30437602  1
  Cu  Cu5  1  0.45883198  0.69941099  0.69562405  1
  P  P6  1  0.99621300  0.23679200  0.69562403  1
  Cu  Cu7  1  0.00378698  0.76320799  0.30437604  1
  O  O8  1  0.93983200  0.27144000  0.21127202  1
  P  P9  1  0.06016798  0.72855999  0.78872805  1
