# generated using pymatgen
data_LiMg
_symmetry_space_group_name_H-M   'P 1'
_cell_length_a   5.27244616
_cell_length_b   5.27244616
_cell_length_c   5.85294390
_cell_angle_alpha   63.23001480
_cell_angle_beta   63.23001480
_cell_angle_gamma   60.00000000
_symmetry_Int_Tables_number   1
_chemical_formula_structural   LiMg
_chemical_formula_sum   'Li3 Mg3'
_cell_volume   120.34950295
_cell_formula_units_Z   3
loop_
 _symmetry_equiv_pos_site_id
 _symmetry_equiv_pos_as_xyz
  1  'x, y, z'
loop_
 _atom_site_type_symbol
 _atom_site_label
 _atom_site_symmetry_multiplicity
 _atom_site_fract_x
 _atom_site_fract_y
 _atom_site_fract_z
 _atom_site_occupancy
  Li  Li0  1  0.83258697  0.16741299  0.49999998  1
  Li  Li1  1  0.16741299  0.49999998  0.49999999  1
  Li  Li2  1  0.49999997  0.83258697  0.49999998  1
  Mg  Mg3  1  0.33325299  0.33325299  0.00024099  1
  Mg  Mg4  1  0.66674697  0.66674698  0.99975897  1
  Mg  Mg5  1  0.00000000  0.00000000  0.00000000  1
