# generated using pymatgen
data_K3RbBrCl5
_symmetry_space_group_name_H-M   'P 1'
_cell_length_a   7.97057819
_cell_length_b   7.97057819
_cell_length_c   7.97057819
_cell_angle_alpha   60.00000000
_cell_angle_beta   60.00000000
_cell_angle_gamma   60.00000000
_symmetry_Int_Tables_number   1
_chemical_formula_structural   K3RbBrCl5
_chemical_formula_sum   'K3 Rb1 Br1 Cl5'
_cell_volume   358.05890752
_cell_formula_units_Z   1
loop_
 _symmetry_equiv_pos_site_id
 _symmetry_equiv_pos_as_xyz
  1  'x, y, z'
loop_
 _atom_site_type_symbol
 _atom_site_label
 _atom_site_symmetry_multiplicity
 _atom_site_fract_x
 _atom_site_fract_y
 _atom_site_fract_z
 _atom_site_occupancy
  K  K0  1  0.75830401  0.24169600  0.75830401  1
  Rb  Rb1  1  0.24169600  0.75830401  0.75830401  1
  K  K2  1  0.75830401  0.24169600  0.24169600  1
  K  K3  1  0.75830401  0.75830401  0.24169600  1
  Cl  Cl4  1  0.24169600  0.24169600  0.75830401  1
  Br  Br5  1  0.24169600  0.75830401  0.24169600  1
  Cl  Cl6  1  0.75000001  0.75000001  0.75000001  1
  Cl  Cl7  1  0.25000000  0.25000000  0.25000000  1
  Cl  Cl8  1  0.00000000  0.00000000  0.00000000  1
  Cl  Cl9  1  0.50000001  0.50000001  0.50000001  1
