# generated using pymatgen
data_TiAlCrCoNiRh
_symmetry_space_group_name_H-M   'P 1'
_cell_length_a   4.85374498
_cell_length_b   4.85374498
_cell_length_c   4.85374498
_cell_angle_alpha   60.00000000
_cell_angle_beta   60.00000000
_cell_angle_gamma   60.00000000
_symmetry_Int_Tables_number   1
_chemical_formula_structural   TiAlCrCoNiRh
_chemical_formula_sum   'Ti1 Al1 Cr1 Co1 Ni1 Rh1'
_cell_volume   80.85667278
_cell_formula_units_Z   1
loop_
 _symmetry_equiv_pos_site_id
 _symmetry_equiv_pos_as_xyz
  1  'x, y, z'
loop_
 _atom_site_type_symbol
 _atom_site_label
 _atom_site_symmetry_multiplicity
 _atom_site_fract_x
 _atom_site_fract_y
 _atom_site_fract_z
 _atom_site_occupancy
  Ti  Ti0  1  0.50000000  0.50000000  0.50000000  1
  Al  Al1  1  0.25000000  0.25000000  0.25000000  1
  Co  Co2  1  0.87500000  0.87500000  0.37500000  1
  Cr  Cr3  1  0.37500000  0.87500000  0.87500000  1
  Rh  Rh4  1  0.87500000  0.37500000  0.87500000  1
  Ni  Ni5  1  0.87500000  0.87500000  0.87500000  1
