# generated using pymatgen
data_HfZrGa2Sn2Pd7
_symmetry_space_group_name_H-M   'P 1'
_cell_length_a   6.57187176
_cell_length_b   6.57187176
_cell_length_c   6.57187176
_cell_angle_alpha   109.47122192
_cell_angle_beta   109.47122192
_cell_angle_gamma   109.47122192
_symmetry_Int_Tables_number   1
_chemical_formula_structural   HfZrGa2Sn2Pd7
_chemical_formula_sum   'Hf1 Zr1 Ga2 Sn2 Pd7'
_cell_volume   218.49692472
_cell_formula_units_Z   1
loop_
 _symmetry_equiv_pos_site_id
 _symmetry_equiv_pos_as_xyz
  1  'x, y, z'
loop_
 _atom_site_type_symbol
 _atom_site_label
 _atom_site_symmetry_multiplicity
 _atom_site_fract_x
 _atom_site_fract_y
 _atom_site_fract_z
 _atom_site_occupancy
  Ga  Ga0  1  0.81358507  0.69146704  0.50505207  1
  Hf  Hf1  1  0.87788204  0.18641501  0.69146704  1
  Zr  Zr2  1  0.30853302  0.12211801  0.81358503  1
  Ga  Ga3  1  0.49494803  0.18641501  0.30853303  1
  Pd  Pd4  1  0.69146707  0.87788205  0.18641507  1
  Pd  Pd5  1  0.12211805  0.81358505  0.30853305  1
  Pd  Pd6  1  0.30853304  0.49494803  0.18641504  1
  Pd  Pd7  1  0.69146705  0.50505203  0.81358506  1
  Sn  Sn8  1  0.50505207  0.81358505  0.69146707  1
  Pd  Pd9  1  0.18641505  0.69146704  0.87788206  1
  Pd  Pd10  1  0.81358504  0.30853302  0.12211804  1
  Sn  Sn11  1  0.18641502  0.30853302  0.49494803  1
  Pd  Pd12  1  0.00000000  0.00000000  0.00000000  1
