# generated using pymatgen
data_Li4NiO6
_symmetry_space_group_name_H-M   'P 1'
_cell_length_a   5.09547377
_cell_length_b   5.51410627
_cell_length_c   5.51410580
_cell_angle_alpha   101.14455414
_cell_angle_beta   101.47366333
_cell_angle_gamma   101.47366333
_symmetry_Int_Tables_number   1
_chemical_formula_structural   Li4NiO6
_chemical_formula_sum   'Li4 Ni1 O6'
_cell_volume   144.35999885
_cell_formula_units_Z   1
loop_
 _symmetry_equiv_pos_site_id
 _symmetry_equiv_pos_as_xyz
  1  'x, y, z'
loop_
 _atom_site_type_symbol
 _atom_site_label
 _atom_site_symmetry_multiplicity
 _atom_site_fract_x
 _atom_site_fract_y
 _atom_site_fract_z
 _atom_site_occupancy
  Li  Li0  1  0.90335200  0.22334300  0.22334404  1
  Li  Li1  1  0.09664798  0.77665600  0.77665601  1
  Li  Li2  1  0.49999999  0.31608000  0.68391901  1
  Li  Li3  1  0.49999999  0.68392100  0.31608004  1
  O  O4  1  0.22497099  0.41906600  0.41906601  1
  Ni  Ni5  1  0.77502699  0.58093400  0.58093304  1
  O  O6  1  0.29046498  0.95255500  0.61915103  1
  O  O7  1  0.70953499  0.38084900  0.04744604  1
  O  O8  1  0.00000000  0.00000000  0.00000000  1
  O  O9  1  0.70953500  0.04744700  0.38084902  1
  O  O10  1  0.29046499  0.61915000  0.95255401  1
