# generated using pymatgen
data_KBaCu3As2
_symmetry_space_group_name_H-M   'P 1'
_cell_length_a   5.08189011
_cell_length_b   5.08189011
_cell_length_c   9.30368519
_cell_angle_alpha   105.84951782
_cell_angle_beta   105.84951782
_cell_angle_gamma   90.00000000
_symmetry_Int_Tables_number   1
_chemical_formula_structural   KBaCu3As2
_chemical_formula_sum   'K1 Ba1 Cu3 As2'
_cell_volume   221.62787307
_cell_formula_units_Z   1
loop_
 _symmetry_equiv_pos_site_id
 _symmetry_equiv_pos_as_xyz
  1  'x, y, z'
loop_
 _atom_site_type_symbol
 _atom_site_label
 _atom_site_symmetry_multiplicity
 _atom_site_fract_x
 _atom_site_fract_y
 _atom_site_fract_z
 _atom_site_occupancy
  Ba  Ba0  1  0.63554202  0.63554200  0.27108403  1
  K  K1  1  0.36445801  0.36445800  0.72891599  1
  Cu  Cu2  1  0.00000000  0.00000000  0.00000000  1
  Cu  Cu3  1  0.84686303  0.84686300  0.69372603  1
  Cu  Cu4  1  0.15313701  0.15313700  0.30627400  1
  As  As5  1  0.50000000  0.00000000  0.00000002  1
  As  As6  1  0.00000002  0.50000000  0.00000002  1
