# generated using pymatgen
data_HfTa2AlC3N
_symmetry_space_group_name_H-M   'P 1'
_cell_length_a   2.94013000
_cell_length_b   2.94012976
_cell_length_c   12.21434307
_cell_angle_alpha   90.00000000
_cell_angle_beta   90.00000000
_cell_angle_gamma   120.00000000
_symmetry_Int_Tables_number   1
_chemical_formula_structural   HfTa2AlC3N
_chemical_formula_sum   'Hf1 Ta2 Al1 C3 N1'
_cell_volume   91.43948601
_cell_formula_units_Z   1
loop_
 _symmetry_equiv_pos_site_id
 _symmetry_equiv_pos_as_xyz
  1  'x, y, z'
loop_
 _atom_site_type_symbol
 _atom_site_label
 _atom_site_symmetry_multiplicity
 _atom_site_fract_x
 _atom_site_fract_y
 _atom_site_fract_z
 _atom_site_occupancy
  Al  Al0  1  0.33333330  0.66666665  0.41995500  1
  Ta  Ta1  1  0.66666665  0.33333333  0.58004500  1
  Hf  Hf2  1  0.66666665  0.33333333  0.91995499  1
  Ta  Ta3  1  0.33333330  0.66666665  0.08004500  1
  C  C4  1  0.33333330  0.66666665  0.75000000  1
  C  C5  1  0.66666665  0.33333333  0.25000000  1
  N  N6  1  0.00000000  0.00000000  0.50000000  1
  C  C7  1  0.00000000  0.00000000  0.00000000  1
