# generated using pymatgen
data_NaEuVO4
_symmetry_space_group_name_H-M   'P 1'
_cell_length_a   3.91824389
_cell_length_b   3.91824389
_cell_length_c   6.69629908
_cell_angle_alpha   107.01175690
_cell_angle_beta   107.01175690
_cell_angle_gamma   90.00000000
_symmetry_Int_Tables_number   1
_chemical_formula_structural   NaEuVO4
_chemical_formula_sum   'Na1 Eu1 V1 O4'
_cell_volume   93.59329607
_cell_formula_units_Z   1
loop_
 _symmetry_equiv_pos_site_id
 _symmetry_equiv_pos_as_xyz
  1  'x, y, z'
loop_
 _atom_site_type_symbol
 _atom_site_label
 _atom_site_symmetry_multiplicity
 _atom_site_fract_x
 _atom_site_fract_y
 _atom_site_fract_z
 _atom_site_occupancy
  Eu  Eu0  1  0.64785606  0.64785603  0.29571206  1
  Na  Na1  1  0.35214403  0.35214402  0.70428805  1
  V  V2  1  0.00000000  0.00000000  0.00000000  1
  O  O3  1  0.75000005  0.25000001  0.50000005  1
  O  O4  1  0.25000004  0.75000004  0.50000006  1
  O  O5  1  0.50000007  1.00000005  1.00000009  1
  O  O6  1  0.00000002  0.50000003  0.00000002  1
