# generated using pymatgen
data_TiFeRuRh
_symmetry_space_group_name_H-M   'P 1'
_cell_length_a   3.63740206
_cell_length_b   3.63740206
_cell_length_c   4.71714926
_cell_angle_alpha   112.67794800
_cell_angle_beta   112.67794800
_cell_angle_gamma   90.00000000
_symmetry_Int_Tables_number   1
_chemical_formula_structural   TiFeRuRh
_chemical_formula_sum   'Ti1 Fe1 Ru1 Rh1'
_cell_volume   52.31756227
_cell_formula_units_Z   1
loop_
 _symmetry_equiv_pos_site_id
 _symmetry_equiv_pos_as_xyz
  1  'x, y, z'
loop_
 _atom_site_type_symbol
 _atom_site_label
 _atom_site_symmetry_multiplicity
 _atom_site_fract_x
 _atom_site_fract_y
 _atom_site_fract_z
 _atom_site_occupancy
  Ti  Ti0  1  0.75000002  0.25000001  0.50000004  1
  Fe  Fe1  1  0.25000005  0.75000002  0.50000005  1
  Ru  Ru2  1  0.50000004  0.50000001  0.00000007  1
  Rh  Rh3  1  0.00000000  0.00000000  0.00000000  1
