# generated using pymatgen
data_LiYMnFe3SiNiP9
_symmetry_space_group_name_H-M   'P 1'
_cell_length_a   5.59631395
_cell_length_b   5.59631491
_cell_length_c   8.56918240
_cell_angle_alpha   90.00000000
_cell_angle_beta   90.00000000
_cell_angle_gamma   119.99999237
_symmetry_Int_Tables_number   1
_chemical_formula_structural   LiYMnFe3SiNiP9
_chemical_formula_sum   'Li1 Y1 Mn1 Fe3 Si1 Ni1 P9'
_cell_volume   232.42041211
_cell_formula_units_Z   1
loop_
 _symmetry_equiv_pos_site_id
 _symmetry_equiv_pos_as_xyz
  1  'x, y, z'
loop_
 _atom_site_type_symbol
 _atom_site_label
 _atom_site_symmetry_multiplicity
 _atom_site_fract_x
 _atom_site_fract_y
 _atom_site_fract_z
 _atom_site_occupancy
  Y  Y0  1  0.00000000  0.00000000  0.29351599  1
  Li  Li1  1  0.00000000  0.00000000  0.70648397  1
  Mn  Mn2  1  0.33333330  0.66666663  -0.00000000  1
  Fe  Fe3  1  0.66666665  0.33333332  -0.00000000  1
  Fe  Fe4  1  0.33333330  0.66666663  0.33287398  1
  Fe  Fe5  1  0.66666665  0.33333332  0.33287398  1
  P  P6  1  0.66666665  0.33333332  0.66712597  1
  Ni  Ni7  1  0.33333330  0.66666663  0.66712597  1
  Si  Si8  1  0.50000000  0.00000000  0.16454599  1
  P  P9  1  0.49999997  0.49999997  0.16454599  1
  P  P10  1  -0.00000003  0.49999997  0.16454599  1
  P  P11  1  0.50000000  0.00000000  0.83545396  1
  P  P12  1  0.49999997  0.49999997  0.83545396  1
  P  P13  1  -0.00000003  0.49999997  0.83545396  1
  P  P14  1  0.50000000  0.00000000  0.49999998  1
  P  P15  1  0.49999997  0.49999997  0.49999998  1
  P  P16  1  -0.00000003  0.49999997  0.49999998  1
