# generated using pymatgen
data_K2CaEuCuNiS4
_symmetry_space_group_name_H-M   'P 1'
_cell_length_a   3.98601389
_cell_length_b   3.98601365
_cell_length_c   17.58021164
_cell_angle_alpha   90.00000000
_cell_angle_beta   90.00000000
_cell_angle_gamma   120.00000000
_symmetry_Int_Tables_number   1
_chemical_formula_structural   K2CaEuCuNiS4
_chemical_formula_sum   'K2 Ca1 Eu1 Cu1 Ni1 S4'
_cell_volume   241.89802363
_cell_formula_units_Z   1
loop_
 _symmetry_equiv_pos_site_id
 _symmetry_equiv_pos_as_xyz
  1  'x, y, z'
loop_
 _atom_site_type_symbol
 _atom_site_label
 _atom_site_symmetry_multiplicity
 _atom_site_fract_x
 _atom_site_fract_y
 _atom_site_fract_z
 _atom_site_occupancy
  Eu  Eu0  1  0.00000000  0.00000000  0.89525397  1
  K  K1  1  0.00000000  0.00000000  0.10474600  1
  Ca  Ca2  1  0.00000000  0.00000000  0.39525399  1
  K  K3  1  0.00000000  0.00000000  0.60474598  1
  Ni  Ni4  1  0.66666667  0.33333333  0.49979998  1
  Cu  Cu5  1  0.33333331  0.66666665  0.50019998  1
  S  S6  1  0.33333331  0.66666665  0.99979996  1
  S  S7  1  0.66666667  0.33333333  0.00020000  1
  S  S8  1  0.66666667  0.33333333  0.74999997  1
  S  S9  1  0.33333331  0.66666665  0.24999999  1
