# generated using pymatgen
data_HfTiGePd3
_symmetry_space_group_name_H-M   'P 1'
_cell_length_a   4.43578005
_cell_length_b   5.44512177
_cell_length_c   5.44512224
_cell_angle_alpha   60.00000000
_cell_angle_beta   90.00000000
_cell_angle_gamma   90.00000000
_symmetry_Int_Tables_number   1
_chemical_formula_structural   HfTiGePd3
_chemical_formula_sum   'Hf1 Ti1 Ge1 Pd3'
_cell_volume   113.89793884
_cell_formula_units_Z   1
loop_
 _symmetry_equiv_pos_site_id
 _symmetry_equiv_pos_as_xyz
  1  'x, y, z'
loop_
 _atom_site_type_symbol
 _atom_site_label
 _atom_site_symmetry_multiplicity
 _atom_site_fract_x
 _atom_site_fract_y
 _atom_site_fract_z
 _atom_site_occupancy
  Ti  Ti0  1  0.00000000  0.00000000  0.00000000  1
  Hf  Hf1  1  0.99999999  0.33333335  0.33333332  1
  Pd  Pd2  1  0.99999999  0.66666670  0.66666664  1
  Ge  Ge3  1  0.49999999  0.00000000  0.49999998  1
  Pd  Pd4  1  0.49999999  0.50000002  0.99999996  1
  Pd  Pd5  1  0.49999999  0.50000002  0.49999998  1
