# generated using pymatgen
data_La2InSnAu2
_symmetry_space_group_name_H-M   'P 1'
_cell_length_a   4.65012693
_cell_length_b   7.40549183
_cell_length_c   8.08439541
_cell_angle_alpha   90.00000000
_cell_angle_beta   90.00000000
_cell_angle_gamma   90.00000000
_symmetry_Int_Tables_number   1
_chemical_formula_structural   La2InSnAu2
_chemical_formula_sum   'La4 In2 Sn2 Au4'
_cell_volume   278.39809666
_cell_formula_units_Z   2
loop_
 _symmetry_equiv_pos_site_id
 _symmetry_equiv_pos_as_xyz
  1  'x, y, z'
loop_
 _atom_site_type_symbol
 _atom_site_label
 _atom_site_symmetry_multiplicity
 _atom_site_fract_x
 _atom_site_fract_y
 _atom_site_fract_z
 _atom_site_occupancy
  La  La0  1  0.75000001  0.48785901  0.80219196  1
  La  La1  1  0.25000000  0.01214100  0.30219198  1
  La  La2  1  0.75000001  0.98785902  0.69780796  1
  La  La3  1  0.25000000  0.51214101  0.19780799  1
  In  In4  1  0.25000000  0.67693902  0.58475997  1
  In  In5  1  0.25000000  0.17693900  0.91523995  1
  Sn  Sn6  1  0.75000001  0.32306101  0.41523998  1
  Au  Au7  1  0.75000001  0.82306102  0.08476000  1
  Au  Au8  1  0.25000000  0.78137602  0.91172895  1
  Au  Au9  1  0.25000000  0.28137601  0.58827097  1
  Sn  Sn10  1  0.75000001  0.71862402  0.41172898  1
  Au  Au11  1  0.75000001  0.21862401  0.08827100  1
