# generated using pymatgen
data_MnAlFeCoNi8
_symmetry_space_group_name_H-M   'P 1'
_cell_length_a   3.60612893
_cell_length_b   3.60612893
_cell_length_c   10.64952087
_cell_angle_alpha   90.00000000
_cell_angle_beta   90.00000000
_cell_angle_gamma   90.00000000
_symmetry_Int_Tables_number   1
_chemical_formula_structural   MnAlFeCoNi8
_chemical_formula_sum   'Mn1 Al1 Fe1 Co1 Ni8'
_cell_volume   138.48813585
_cell_formula_units_Z   1
loop_
 _symmetry_equiv_pos_site_id
 _symmetry_equiv_pos_as_xyz
  1  'x, y, z'
loop_
 _atom_site_type_symbol
 _atom_site_label
 _atom_site_symmetry_multiplicity
 _atom_site_fract_x
 _atom_site_fract_y
 _atom_site_fract_z
 _atom_site_occupancy
  Mn  Mn0  1  0.00000000  0.00000000  0.00000000  1
  Al  Al1  1  0.00000000  0.00000000  0.34033800  1
  Co  Co2  1  0.00000000  0.00000000  0.65966201  1
  Ni  Ni3  1  0.50000001  0.50000001  0.00000000  1
  Ni  Ni4  1  0.50000001  0.50000001  0.33561600  1
  Ni  Ni5  1  0.50000001  0.50000001  0.66438401  1
  Ni  Ni6  1  0.50000001  0.00000000  0.17191000  1
  Fe  Fe7  1  0.50000001  0.00000000  0.50000001  1
  Ni  Ni8  1  0.50000001  0.00000000  0.82809001  1
  Ni  Ni9  1  0.00000000  0.50000001  0.17191000  1
  Ni  Ni10  1  0.00000000  0.50000001  0.50000001  1
  Ni  Ni11  1  0.00000000  0.50000001  0.82809001  1
