# generated using pymatgen
data_Li2CoWO8
_symmetry_space_group_name_H-M   'P 1'
_cell_length_a   5.02236795
_cell_length_b   5.09856987
_cell_length_c   8.26389980
_cell_angle_alpha   90.00000000
_cell_angle_beta   90.00000000
_cell_angle_gamma   118.37245941
_symmetry_Int_Tables_number   1
_chemical_formula_structural   Li2CoWO8
_chemical_formula_sum   'Li2 Co1 W1 O8'
_cell_volume   186.19325997
_cell_formula_units_Z   1
loop_
 _symmetry_equiv_pos_site_id
 _symmetry_equiv_pos_as_xyz
  1  'x, y, z'
loop_
 _atom_site_type_symbol
 _atom_site_label
 _atom_site_symmetry_multiplicity
 _atom_site_fract_x
 _atom_site_fract_y
 _atom_site_fract_z
 _atom_site_occupancy
  Li  Li0  1  0.41360604  0.64731402  0.06192500  1
  Li  Li1  1  0.25823504  0.69406903  0.43654801  1
  W  W2  1  0.58639402  0.35268601  0.56192501  1
  Co  Co3  1  0.74176502  0.30593101  0.93654802  1
  O  O4  1  0.55875503  0.42259602  0.05326600  1
  O  O5  1  0.34625304  0.68447703  0.24925801  1
  O  O6  1  0.89595403  0.48469902  0.45646101  1
  O  O7  1  0.34341300  0.03256800  0.48744201  1
  O  O8  1  0.44124504  0.57740402  0.55326601  1
  O  O9  1  0.65374702  0.31552301  0.74925802  1
  O  O10  1  0.10404603  0.51530102  0.95646102  1
  O  O11  1  0.65658706  0.96743204  0.98744202  1
