# generated using pymatgen
data_HfMnNbGa2Pd10Pt
_symmetry_space_group_name_H-M   'P 1'
_cell_length_a   4.93352604
_cell_length_b   4.94285297
_cell_length_c   9.80322647
_cell_angle_alpha   90.00000000
_cell_angle_beta   90.00000000
_cell_angle_gamma   90.00000000
_symmetry_Int_Tables_number   1
_chemical_formula_structural   HfMnNbGa2Pd10Pt
_chemical_formula_sum   'Hf1 Mn1 Nb1 Ga2 Pd10 Pt1'
_cell_volume   239.05847951
_cell_formula_units_Z   1
loop_
 _symmetry_equiv_pos_site_id
 _symmetry_equiv_pos_as_xyz
  1  'x, y, z'
loop_
 _atom_site_type_symbol
 _atom_site_label
 _atom_site_symmetry_multiplicity
 _atom_site_fract_x
 _atom_site_fract_y
 _atom_site_fract_z
 _atom_site_occupancy
  Mn  Mn0  1  0.50000000  0.50000000  0.49999998  1
  Hf  Hf1  1  0.50000000  0.00000000  0.61555097  1
  Nb  Nb2  1  0.50000000  0.00000000  0.12554399  1
  Ga  Ga3  1  0.74444299  0.50000000  0.25874199  1
  Ga  Ga4  1  0.74444299  0.50000000  0.74125796  1
  Pd  Pd5  1  0.00000000  0.73014700  0.49999998  1
  Pd  Pd6  1  0.00000000  0.75046800  0.00000000  1
  Pd  Pd7  1  0.50000000  0.00000000  0.38444898  1
  Pd  Pd8  1  0.50000000  0.00000000  0.87445596  1
  Pd  Pd9  1  0.25555700  0.50000000  0.25874199  1
  Pd  Pd10  1  0.25555700  0.50000000  0.74125796  1
  Pd  Pd11  1  0.00000000  0.26985300  0.49999998  1
  Pd  Pd12  1  0.00000000  0.24953200  0.00000000  1
  Pd  Pd13  1  0.50000000  0.50000000  0.00000000  1
  Pd  Pd14  1  0.00000000  0.00000000  0.25073899  1
  Pt  Pt15  1  0.00000000  0.00000000  0.74926096  1
