# generated using pymatgen
data_NaLiCu2
_symmetry_space_group_name_H-M   'P 1'
_cell_length_a   4.50544214
_cell_length_b   4.50544167
_cell_length_c   7.31668377
_cell_angle_alpha   90.00000000
_cell_angle_beta   90.00000000
_cell_angle_gamma   120.00000000
_symmetry_Int_Tables_number   1
_chemical_formula_structural   NaLiCu2
_chemical_formula_sum   'Na1 Li1 Cu2'
_cell_volume   128.62331686
_cell_formula_units_Z   1
loop_
 _symmetry_equiv_pos_site_id
 _symmetry_equiv_pos_as_xyz
  1  'x, y, z'
loop_
 _atom_site_type_symbol
 _atom_site_label
 _atom_site_symmetry_multiplicity
 _atom_site_fract_x
 _atom_site_fract_y
 _atom_site_fract_z
 _atom_site_occupancy
  Li  Li0  1  0.33333330  0.66666668  0.01335300  1
  Na  Na1  1  0.00000000  0.00000000  0.61490602  1
  Cu  Cu2  1  0.00000000  0.00000000  0.23312901  1
  Cu  Cu3  1  0.66666664  0.33333334  0.76861202  1
