# generated using pymatgen
data_NaLi7O8
_symmetry_space_group_name_H-M   'P 1'
_cell_length_a   2.88293099
_cell_length_b   5.38257980
_cell_length_c   9.89850998
_cell_angle_alpha   94.96467590
_cell_angle_beta   90.00000000
_cell_angle_gamma   90.00000000
_symmetry_Int_Tables_number   1
_chemical_formula_structural   NaLi7O8
_chemical_formula_sum   'Na1 Li7 O8'
_cell_volume   153.02490484
_cell_formula_units_Z   1
loop_
 _symmetry_equiv_pos_site_id
 _symmetry_equiv_pos_as_xyz
  1  'x, y, z'
loop_
 _atom_site_type_symbol
 _atom_site_label
 _atom_site_symmetry_multiplicity
 _atom_site_fract_x
 _atom_site_fract_y
 _atom_site_fract_z
 _atom_site_occupancy
  Li  Li0  1  0.50000000  0.50000002  0.99999997  1
  Li  Li1  1  -0.00000000  0.24684501  0.75109398  1
  Li  Li2  1  0.50000000  0.00000000  0.49999999  1
  Li  Li3  1  -0.00000000  0.75315502  0.24890597  1
  Li  Li4  1  0.50000000  0.76508802  0.75367697  1
  Na  Na5  1  -0.00000000  0.50000002  0.49999998  1
  Li  Li6  1  0.50000000  0.23491201  0.24632299  1
  Li  Li7  1  0.00000000  0.00000000  0.00000000  1
  O  O8  1  0.50000000  0.87017603  0.11352097  1
  O  O9  1  -0.00000000  0.65886002  0.87122097  1
  O  O10  1  0.50000000  0.38614201  0.61446098  1
  O  O11  1  -0.00000000  0.12550400  0.36193999  1
  O  O12  1  0.50000000  0.12982400  0.88647898  1
  O  O13  1  -0.00000000  0.87449603  0.63805996  1
  O  O14  1  0.50000000  0.61385802  0.38553897  1
  O  O15  1  -0.00000000  0.34114001  0.12877899  1
