# generated using pymatgen
data_K3SCl5
_symmetry_space_group_name_H-M   'P 1'
_cell_length_a   6.55712605
_cell_length_b   7.14331007
_cell_length_c   7.14331007
_cell_angle_alpha   60.00000000
_cell_angle_beta   90.00000000
_cell_angle_gamma   90.00000000
_symmetry_Int_Tables_number   1
_chemical_formula_structural   K3SCl5
_chemical_formula_sum   'K3 S1 Cl5'
_cell_volume   289.76315900
_cell_formula_units_Z   1
loop_
 _symmetry_equiv_pos_site_id
 _symmetry_equiv_pos_as_xyz
  1  'x, y, z'
loop_
 _atom_site_type_symbol
 _atom_site_label
 _atom_site_symmetry_multiplicity
 _atom_site_fract_x
 _atom_site_fract_y
 _atom_site_fract_z
 _atom_site_occupancy
  K  K0  1  0.15886200  0.33333333  0.33333333  1
  K  K1  1  0.84113799  0.66666666  0.66666666  1
  K  K2  1  0.66749400  0.63590100  0.18205000  1
  Cl  Cl3  1  0.66749400  0.18204900  0.18205000  1
  Cl  Cl4  1  0.66749400  0.18204900  0.63590200  1
  Cl  Cl5  1  0.33250600  0.36409900  0.81795000  1
  Cl  Cl6  1  0.33250600  0.81795099  0.36409799  1
  Cl  Cl7  1  0.33250600  0.81795099  0.81794999  1
  S  S8  1  0.00000000  0.00000000  0.00000000  1
