# generated using pymatgen
data_YIn3SnPdAu4
_symmetry_space_group_name_H-M   'P 1'
_cell_length_a   4.90731621
_cell_length_b   4.90731621
_cell_length_c   10.79398727
_cell_angle_alpha   90.00000000
_cell_angle_beta   90.00000000
_cell_angle_gamma   90.00000000
_symmetry_Int_Tables_number   1
_chemical_formula_structural   YIn3SnPdAu4
_chemical_formula_sum   'Y1 In3 Sn1 Pd1 Au4'
_cell_volume   259.93812856
_cell_formula_units_Z   1
loop_
 _symmetry_equiv_pos_site_id
 _symmetry_equiv_pos_as_xyz
  1  'x, y, z'
loop_
 _atom_site_type_symbol
 _atom_site_label
 _atom_site_symmetry_multiplicity
 _atom_site_fract_x
 _atom_site_fract_y
 _atom_site_fract_z
 _atom_site_occupancy
  Y  Y0  1  0.00000000  0.49999998  0.23915299  1
  In  In1  1  0.49999998  0.00000000  0.76084698  1
  In  In2  1  0.00000000  0.00000000  0.49999999  1
  In  In3  1  0.49999998  0.49999998  0.49999999  1
  Sn  Sn4  1  0.00000000  0.49999998  0.87789998  1
  Pd  Pd5  1  0.49999998  0.00000000  0.12210000  1
  Au  Au6  1  0.00000000  0.00000000  0.00000000  1
  Au  Au7  1  0.49999998  0.49999998  0.00000000  1
  Au  Au8  1  0.00000000  0.49999998  0.62726398  1
  Au  Au9  1  0.49999998  0.00000000  0.37273599  1
