# generated using pymatgen
data_LiFeNi2Ge
_symmetry_space_group_name_H-M   'P 1'
_cell_length_a   3.97658610
_cell_length_b   3.97658610
_cell_length_c   5.56987000
_cell_angle_alpha   110.91441345
_cell_angle_beta   110.91441345
_cell_angle_gamma   90.00000000
_symmetry_Int_Tables_number   1
_chemical_formula_structural   LiFeNi2Ge
_chemical_formula_sum   'Li1 Fe1 Ni2 Ge1'
_cell_volume   76.02999124
_cell_formula_units_Z   1
loop_
 _symmetry_equiv_pos_site_id
 _symmetry_equiv_pos_as_xyz
  1  'x, y, z'
loop_
 _atom_site_type_symbol
 _atom_site_label
 _atom_site_symmetry_multiplicity
 _atom_site_fract_x
 _atom_site_fract_y
 _atom_site_fract_z
 _atom_site_occupancy
  Li  Li0  1  0.00000000  0.00000000  0.00000000  1
  Ni  Ni1  1  0.25000003  0.75000000  0.50000006  1
  Ni  Ni2  1  0.75000000  0.25000000  0.50000005  1
  Fe  Fe3  1  0.36489901  0.36489900  0.72979805  1
  Ge  Ge4  1  0.63510102  0.63510100  0.27020206  1
