# generated using pymatgen
data_LiCuO2
_symmetry_space_group_name_H-M   'P 1'
_cell_length_a   5.22373724
_cell_length_b   5.82883501
_cell_length_c   5.89567137
_cell_angle_alpha   60.50344467
_cell_angle_beta   89.79432678
_cell_angle_gamma   89.72199249
_symmetry_Int_Tables_number   1
_chemical_formula_structural   LiCuO2
_chemical_formula_sum   'Li3 Cu3 O6'
_cell_volume   156.24364959
_cell_formula_units_Z   3
loop_
 _symmetry_equiv_pos_site_id
 _symmetry_equiv_pos_as_xyz
  1  'x, y, z'
loop_
 _atom_site_type_symbol
 _atom_site_label
 _atom_site_symmetry_multiplicity
 _atom_site_fract_x
 _atom_site_fract_y
 _atom_site_fract_z
 _atom_site_occupancy
  Li  Li0  1  0.99753605  0.67426603  0.99958999  1
  Li  Li1  1  0.49733803  0.32512001  0.00027598  1
  Cu  Cu2  1  0.51934501  0.00407900  0.66093501  1
  Li  Li3  1  0.01384901  0.32900901  0.66539601  1
  Cu  Cu4  1  0.52051104  0.66498903  0.33959699  1
  Cu  Cu5  1  0.01383304  0.99473804  0.33428899  1
  O  O6  1  0.46358304  0.73938903  0.99974401  1
  O  O7  1  0.95852003  0.28855201  0.00030797  1
  O  O8  1  0.39174605  0.93703404  0.40313599  1
  O  O9  1  0.87693105  0.65992603  0.38317498  1
  O  O10  1  0.39245102  0.34027301  0.59601500  1
  O  O11  1  0.87615402  0.04262500  0.61754000  1
