# generated using pymatgen
data_MnFe15
_symmetry_space_group_name_H-M   'P 1'
_cell_length_a   3.97139549
_cell_length_b   3.97139549
_cell_length_c   13.18295097
_cell_angle_alpha   81.33678436
_cell_angle_beta   81.33678436
_cell_angle_gamma   60.00001144
_symmetry_Int_Tables_number   1
_chemical_formula_structural   MnFe15
_chemical_formula_sum   'Mn1 Fe15'
_cell_volume   177.32063078
_cell_formula_units_Z   1
loop_
 _symmetry_equiv_pos_site_id
 _symmetry_equiv_pos_as_xyz
  1  'x, y, z'
loop_
 _atom_site_type_symbol
 _atom_site_label
 _atom_site_symmetry_multiplicity
 _atom_site_fract_x
 _atom_site_fract_y
 _atom_site_fract_z
 _atom_site_occupancy
  Mn  Mn0  1  0.62534402  0.62534398  0.12396799  1
  Fe  Fe1  1  0.37465601  0.37465599  0.87603200  1
  Fe  Fe2  1  0.87525202  0.87525197  0.37424399  1
  Fe  Fe3  1  0.12474800  0.12474800  0.62575600  1
  Fe  Fe4  1  0.93755902  0.93755897  0.18732299  1
  Fe  Fe5  1  0.68738602  0.68738598  0.93784199  1
  Fe  Fe6  1  0.18878001  0.18877999  0.43366000  1
  Fe  Fe7  1  0.43589101  0.43589098  0.69232699  1
  Fe  Fe8  1  0.56410902  0.56410898  0.30767299  1
  Fe  Fe9  1  0.31261401  0.31261399  0.06215800  1
  Fe  Fe10  1  0.81122002  0.81121997  0.56633999  1
  Fe  Fe11  1  0.06244100  0.06244100  0.81267700  1
  Fe  Fe12  1  0.74970502  0.74970497  0.75088499  1
  Fe  Fe13  1  0.00000000  0.00000000  0.00000000  1
  Fe  Fe14  1  0.25029501  0.25029499  0.24911500  1
  Fe  Fe15  1  0.50000001  0.49999998  0.49999999  1
