# generated using pymatgen
data_K2NaBPH2CO12
_symmetry_space_group_name_H-M   'P 1'
_cell_length_a   5.49743795
_cell_length_b   6.86125803
_cell_length_c   9.04421997
_cell_angle_alpha   105.89146423
_cell_angle_beta   90.00000000
_cell_angle_gamma   90.00000000
_symmetry_Int_Tables_number   1
_chemical_formula_structural   K2NaBPH2CO12
_chemical_formula_sum   'K2 Na1 B1 P1 H2 C1 O12'
_cell_volume   328.10428390
_cell_formula_units_Z   1
loop_
 _symmetry_equiv_pos_site_id
 _symmetry_equiv_pos_as_xyz
  1  'x, y, z'
loop_
 _atom_site_type_symbol
 _atom_site_label
 _atom_site_symmetry_multiplicity
 _atom_site_fract_x
 _atom_site_fract_y
 _atom_site_fract_z
 _atom_site_occupancy
  Na  Na0  1  0.75140801  0.23092400  0.69821500  1
  K  K1  1  0.25140800  0.76907599  0.80178498  1
  H  H2  1  0.74859201  0.23092400  0.19821499  1
  K  K3  1  0.24859200  0.76907599  0.30178498  1
  H  H4  1  0.74405901  0.75410999  0.50297098  1
  B  B5  1  0.24405900  0.24589000  0.99702901  1
  P  P6  1  0.75594101  0.75410999  0.00297097  1
  C  C7  1  0.25594100  0.24589000  0.49702900  1
  O  O8  1  0.97283801  0.81722199  0.56647198  1
  O  O9  1  0.53292100  0.83885599  0.58052598  1
  O  O10  1  0.27405900  0.37566699  0.64614200  1
  O  O11  1  0.77405901  0.62433299  0.85385799  1
  O  O12  1  0.03292100  0.16114400  0.91947401  1
  O  O13  1  0.47283800  0.18277800  0.93352801  1
  O  O14  1  0.52716200  0.81722199  0.06647197  1
  O  O15  1  0.96707901  0.83885599  0.08052597  1
  O  O16  1  0.22594100  0.37566699  0.14614199  1
  O  O17  1  0.72594101  0.62433299  0.35385798  1
  O  O18  1  0.46707900  0.16114400  0.41947400  1
  O  O19  1  0.02716200  0.18277800  0.43352800  1
