# generated using pymatgen
data_BaNa5YCu2AgO8
_symmetry_space_group_name_H-M   'P 1'
_cell_length_a   5.86114216
_cell_length_b   7.13660145
_cell_length_c   8.34013081
_cell_angle_alpha   106.85655975
_cell_angle_beta   90.00000000
_cell_angle_gamma   114.24501801
_symmetry_Int_Tables_number   1
_chemical_formula_structural   BaNa5YCu2AgO8
_chemical_formula_sum   'Ba1 Na5 Y1 Cu2 Ag1 O8'
_cell_volume   301.57182174
_cell_formula_units_Z   1
loop_
 _symmetry_equiv_pos_site_id
 _symmetry_equiv_pos_as_xyz
  1  'x, y, z'
loop_
 _atom_site_type_symbol
 _atom_site_label
 _atom_site_symmetry_multiplicity
 _atom_site_fract_x
 _atom_site_fract_y
 _atom_site_fract_z
 _atom_site_occupancy
  Y  Y0  1  0.41519998  0.33476699  0.08678201  1
  Ba  Ba1  1  0.41287998  0.32973399  0.57795101  1
  Na  Na2  1  0.08043299  0.66523299  0.41321802  1
  Na  Na3  1  0.08314599  0.67026599  0.92204902  1
  Na  Na4  1  0.91685397  0.32973399  0.07795101  1
  Na  Na5  1  0.74570598  0.00000000  0.75000000  1
  Ag  Ag6  1  0.91956697  0.33476699  0.58678201  1
  Na  Na7  1  0.58711997  0.67026599  0.42204902  1
  O  O8  1  0.25429399  0.00000000  0.25000000  1
  Cu  Cu9  1  0.58479997  0.66523299  0.91321802  1
  Cu  Cu10  1  0.76689798  0.00000000  0.25000000  1
  O  O11  1  0.23310199  0.00000000  0.75000000  1
  O  O12  1  0.86135697  0.68244699  0.67345502  1
  O  O13  1  0.13864299  0.31755299  0.32654501  1
  O  O14  1  0.82108997  0.68244699  0.17345502  1
  O  O15  1  0.49999999  0.00000000  0.00000000  1
  O  O16  1  0.17890999  0.31755299  0.82654501  1
  O  O17  1  0.49999999  0.00000000  0.50000000  1
