# generated using pymatgen
data_DyYGa6
_symmetry_space_group_name_H-M   'P 1'
_cell_length_a   4.94154692
_cell_length_b   6.17964220
_cell_length_c   6.17964268
_cell_angle_alpha   60.00000381
_cell_angle_beta   90.00000000
_cell_angle_gamma   90.00000000
_symmetry_Int_Tables_number   1
_chemical_formula_structural   DyYGa6
_chemical_formula_sum   'Y1 Dy1 Ga6'
_cell_volume   163.42566678
_cell_formula_units_Z   1
loop_
 _symmetry_equiv_pos_site_id
 _symmetry_equiv_pos_as_xyz
  1  'x, y, z'
loop_
 _atom_site_type_symbol
 _atom_site_label
 _atom_site_symmetry_multiplicity
 _atom_site_fract_x
 _atom_site_fract_y
 _atom_site_fract_z
 _atom_site_occupancy
  Y  Y0  1  0.75000001  0.66666665  0.66666668  1
  Dy  Dy1  1  0.25000000  0.33333333  0.33333334  1
  Ga  Ga2  1  0.25000000  0.83004498  0.33991000  1
  Ga  Ga3  1  0.25000000  0.83004498  0.83004601  1
  Ga  Ga4  1  0.25000000  0.33990899  0.83004602  1
  Ga  Ga5  1  0.75000001  0.16995500  0.66009002  1
  Ga  Ga6  1  0.75000001  0.16995500  0.16995400  1
  Ga  Ga7  1  0.75000001  0.66009099  0.16995399  1
