# generated using pymatgen
data_LiYCuNi3P4
_symmetry_space_group_name_H-M   'P 1'
_cell_length_a   3.79720402
_cell_length_b   5.85338879
_cell_length_c   7.07003880
_cell_angle_alpha   90.00000000
_cell_angle_beta   90.00000000
_cell_angle_gamma   108.92677307
_symmetry_Int_Tables_number   1
_chemical_formula_structural   LiYCuNi3P4
_chemical_formula_sum   'Li1 Y1 Cu1 Ni3 P4'
_cell_volume   148.64622617
_cell_formula_units_Z   1
loop_
 _symmetry_equiv_pos_site_id
 _symmetry_equiv_pos_as_xyz
  1  'x, y, z'
loop_
 _atom_site_type_symbol
 _atom_site_label
 _atom_site_symmetry_multiplicity
 _atom_site_fract_x
 _atom_site_fract_y
 _atom_site_fract_z
 _atom_site_occupancy
  Y  Y0  1  0.45562303  0.91124602  0.75000002  1
  Li  Li1  1  0.54437700  0.08875400  0.25000001  1
  Cu  Cu2  1  0.73195801  0.46391601  0.75000002  1
  Ni  Ni3  1  0.26804202  0.53608401  0.25000001  1
  Ni  Ni4  1  0.16528201  0.33056401  0.94689803  1
  Ni  Ni5  1  0.83471802  0.66943602  0.05310200  1
  P  P6  1  0.83471802  0.66943602  0.44689801  1
  P  P7  1  0.16528201  0.33056401  0.55310202  1
  P  P8  1  0.00000000  0.00000000  0.00000000  1
  P  P9  1  0.00000000  0.00000000  0.50000001  1
