# generated using pymatgen
data_Na2CuO6
_symmetry_space_group_name_H-M   'P 1'
_cell_length_a   4.97804880
_cell_length_b   6.59234190
_cell_length_c   8.69573879
_cell_angle_alpha   84.86997986
_cell_angle_beta   89.19319153
_cell_angle_gamma   89.32749939
_symmetry_Int_Tables_number   1
_chemical_formula_structural   Na2CuO6
_chemical_formula_sum   'Na4 Cu2 O12'
_cell_volume   284.18106466
_cell_formula_units_Z   2
loop_
 _symmetry_equiv_pos_site_id
 _symmetry_equiv_pos_as_xyz
  1  'x, y, z'
loop_
 _atom_site_type_symbol
 _atom_site_label
 _atom_site_symmetry_multiplicity
 _atom_site_fract_x
 _atom_site_fract_y
 _atom_site_fract_z
 _atom_site_occupancy
  Na  Na0  1  0.50000002  0.00000000  0.50000000  1
  Na  Na1  1  0.50000003  0.50000001  0.50000000  1
  Na  Na2  1  0.52014804  0.80452202  0.15615902  1
  Na  Na3  1  0.01048001  0.28252901  0.23897200  1
  Cu  Cu4  1  0.98952006  0.71747102  0.76102801  1
  Cu  Cu5  1  0.47985202  0.19547801  0.84384099  1
  O  O6  1  0.74438205  0.62363702  0.07084802  1
  O  O7  1  0.71025803  0.04024000  0.10168801  1
  O  O8  1  0.22540202  0.48776901  0.30650000  1
  O  O9  1  0.21762201  0.06541100  0.30568300  1
  O  O10  1  0.64256505  0.76722002  0.36190701  1
  O  O11  1  0.75777204  0.26890401  0.39802401  1
  O  O12  1  0.24222803  0.73109602  0.60197600  1
  O  O13  1  0.35743502  0.23278001  0.63809299  1
  O  O14  1  0.78237805  0.93458903  0.69431701  1
  O  O15  1  0.77459804  0.51223101  0.69350000  1
  O  O16  1  0.28974204  0.95976003  0.89831199  1
  O  O17  1  0.25561802  0.37636301  0.92915198  1
