# generated using pymatgen
data_YEr3In5GaSn2(PdAu)2
_symmetry_space_group_name_H-M   'P 1'
_cell_length_a   6.34758759
_cell_length_b   8.42959404
_cell_length_c   8.42959404
_cell_angle_alpha   60.01420593
_cell_angle_beta   89.26324463
_cell_angle_gamma   90.73675537
_symmetry_Int_Tables_number   1
_chemical_formula_structural   YEr3In5GaSn2(PdAu)2
_chemical_formula_sum   'Y1 Er3 In5 Ga1 Sn2 Pd2 Au2'
_cell_volume   390.54511176
_cell_formula_units_Z   1
loop_
 _symmetry_equiv_pos_site_id
 _symmetry_equiv_pos_as_xyz
  1  'x, y, z'
loop_
 _atom_site_type_symbol
 _atom_site_label
 _atom_site_symmetry_multiplicity
 _atom_site_fract_x
 _atom_site_fract_y
 _atom_site_fract_z
 _atom_site_occupancy
  Y  Y0  1  0.26256401  0.25676900  0.49980399  1
  In  In1  1  0.73743602  0.74323100  0.50019599  1
  Er  Er2  1  0.73743601  0.49980400  0.25676899  1
  Er  Er3  1  0.26256402  0.50019600  0.74323099  1
  In  In4  1  0.22804803  0.73350100  0.26649899  1
  Er  Er5  1  0.77195200  0.26649900  0.73350099  1
  In  In6  1  0.50000003  0.85140000  0.85139999  1
  Ga  Ga7  1  0.50000000  0.14860000  0.14859999  1
  In  In8  1  0.00000003  0.81828100  0.81828100  1
  In  In9  1  0.00000001  0.18171900  0.18171900  1
  Au  Au10  1  0.28427103  0.90249300  0.50006599  1
  Au  Au11  1  0.71572899  0.09750700  0.49993399  1
  Sn  Sn12  1  0.71572901  0.50006600  0.90249299  1
  Pd  Pd13  1  0.28427102  0.49993400  0.09750699  1
  Pd  Pd14  1  0.19431600  0.09674500  0.90325500  1
  Sn  Sn15  1  0.80568402  0.90325500  0.09674498  1
