# generated using pymatgen
data_Li2CuNiP4O
_symmetry_space_group_name_H-M   'P 1'
_cell_length_a   4.11532402
_cell_length_b   4.11532402
_cell_length_c   8.99130726
_cell_angle_alpha   103.22938538
_cell_angle_beta   103.22938538
_cell_angle_gamma   90.00000000
_symmetry_Int_Tables_number   1
_chemical_formula_structural   Li2CuNiP4O
_chemical_formula_sum   'Li2 Cu1 Ni1 P4 O1'
_cell_volume   144.08021145
_cell_formula_units_Z   1
loop_
 _symmetry_equiv_pos_site_id
 _symmetry_equiv_pos_as_xyz
  1  'x, y, z'
loop_
 _atom_site_type_symbol
 _atom_site_label
 _atom_site_symmetry_multiplicity
 _atom_site_fract_x
 _atom_site_fract_y
 _atom_site_fract_z
 _atom_site_occupancy
  Li  Li0  1  0.15373200  0.15373200  0.30746402  1
  Li  Li1  1  0.84626801  0.84626800  0.69253605  1
  Ni  Ni2  1  0.50000001  0.50000000  0.00000001  1
  Cu  Cu3  1  0.62014801  0.62014800  0.24029603  1
  P  P4  1  0.25000001  0.75000000  0.50000003  1
  P  P5  1  0.50000000  0.00000000  0.00000001  1
  P  P6  1  0.00000001  0.50000000  0.00000001  1
  P  P7  1  0.75000000  0.25000000  0.50000003  1
  O  O8  1  0.37985200  0.37985200  0.75970404  1
