# generated using pymatgen
data_ErIn5Sn2PdAu
_symmetry_space_group_name_H-M   'P 1'
_cell_length_a   3.80747700
_cell_length_b   7.91699219
_cell_length_c   7.91699219
_cell_angle_alpha   90.00000000
_cell_angle_beta   90.00000000
_cell_angle_gamma   90.00000000
_symmetry_Int_Tables_number   1
_chemical_formula_structural   ErIn5Sn2PdAu
_chemical_formula_sum   'Er1 In5 Sn2 Pd1 Au1'
_cell_volume   238.64795709
_cell_formula_units_Z   1
loop_
 _symmetry_equiv_pos_site_id
 _symmetry_equiv_pos_as_xyz
  1  'x, y, z'
loop_
 _atom_site_type_symbol
 _atom_site_label
 _atom_site_symmetry_multiplicity
 _atom_site_fract_x
 _atom_site_fract_y
 _atom_site_fract_z
 _atom_site_occupancy
  Er  Er0  1  0.50000000  0.67795498  0.17795500  1
  In  In1  1  0.50000000  0.32204499  0.82204498  1
  In  In2  1  0.50000000  0.17795500  0.32204499  1
  In  In3  1  0.50000000  0.82204498  0.67795498  1
  In  In4  1  0.00000000  0.00000000  0.00000000  1
  In  In5  1  0.00000000  0.49999999  0.49999999  1
  Sn  Sn6  1  0.00000000  0.11644700  0.61644699  1
  Pd  Pd7  1  0.00000000  0.88355298  0.38355299  1
  Sn  Sn8  1  0.00000000  0.61644699  0.88355298  1
  Au  Au9  1  0.00000000  0.38355299  0.11644700  1
