# generated using pymatgen
data_Y2ErSi4
_symmetry_space_group_name_H-M   'P 1'
_cell_length_a   3.90847802
_cell_length_b   4.14415598
_cell_length_c   9.16856575
_cell_angle_alpha   103.06157684
_cell_angle_beta   102.30675507
_cell_angle_gamma   90.00000000
_symmetry_Int_Tables_number   1
_chemical_formula_structural   Y2ErSi4
_chemical_formula_sum   'Y2 Er1 Si4'
_cell_volume   141.15873733
_cell_formula_units_Z   1
loop_
 _symmetry_equiv_pos_site_id
 _symmetry_equiv_pos_as_xyz
  1  'x, y, z'
loop_
 _atom_site_type_symbol
 _atom_site_label
 _atom_site_symmetry_multiplicity
 _atom_site_fract_x
 _atom_site_fract_y
 _atom_site_fract_z
 _atom_site_occupancy
  Er  Er0  1  0.68190500  0.18190500  0.36381001  1
  Y  Y1  1  0.31559301  0.81559301  0.63118602  1
  Y  Y2  1  0.00078200  0.00078200  0.00156400  1
  Si  Si3  1  0.85584601  0.35584601  0.71169201  1
  Si  Si4  1  0.13827401  0.63827401  0.27654801  1
  Si  Si5  1  0.44049401  0.44049401  0.88098801  1
  Si  Si6  1  0.56710501  0.56710501  0.13421002  1
