# generated using pymatgen
data_Er2Hf6Sn3SbRu2RhAu3
_symmetry_space_group_name_H-M   'P 1'
_cell_length_a   5.85355520
_cell_length_b   8.58385372
_cell_length_c   8.58385468
_cell_angle_alpha   120.00000000
_cell_angle_beta   90.00000000
_cell_angle_gamma   90.00000000
_symmetry_Int_Tables_number   1
_chemical_formula_structural   Er2Hf6Sn3SbRu2RhAu3
_chemical_formula_sum   'Er2 Hf6 Sn3 Sb1 Ru2 Rh1 Au3'
_cell_volume   373.52099226
_cell_formula_units_Z   1
loop_
 _symmetry_equiv_pos_site_id
 _symmetry_equiv_pos_as_xyz
  1  'x, y, z'
loop_
 _atom_site_type_symbol
 _atom_site_label
 _atom_site_symmetry_multiplicity
 _atom_site_fract_x
 _atom_site_fract_y
 _atom_site_fract_z
 _atom_site_occupancy
  Er  Er0  1  0.74999997  0.74681503  0.00000002  1
  Er  Er1  1  0.24999999  0.25318501  0.99999996  1
  Hf  Hf2  1  0.74999997  0.25318501  0.25318500  1
  Hf  Hf3  1  0.24999999  0.74681503  0.74681499  1
  Hf  Hf4  1  0.74999997  0.00000000  0.74681497  1
  Hf  Hf5  1  0.24999999  0.00000000  0.25318499  1
  Hf  Hf6  1  -0.00000000  0.33333335  0.66666665  1
  Hf  Hf7  1  -0.00000000  0.66666670  0.33333334  1
  Sn  Sn8  1  0.49999998  0.66666670  0.33333334  1
  Sn  Sn9  1  0.49999998  0.33333335  0.66666665  1
  Ru  Ru10  1  0.00000000  0.00000000  0.00000000  1
  Ru  Ru11  1  0.49999998  0.00000000  -0.00000000  1
  Au  Au12  1  0.74999997  0.39317402  0.99999997  1
  Au  Au13  1  0.24999999  0.60682603  0.99999997  1
  Rh  Rh14  1  0.74999997  0.60682603  0.60682599  1
  Sn  Sn15  1  0.24999999  0.39317402  0.39317399  1
  Au  Au16  1  0.74999997  0.00000000  0.39317398  1
  Sb  Sb17  1  0.24999999  0.00000000  0.60682597  1
