# generated using pymatgen
data_NaLiO2
_symmetry_space_group_name_H-M   'P 1'
_cell_length_a   5.67180634
_cell_length_b   5.69904137
_cell_length_c   5.69904137
_cell_angle_alpha   60.58999252
_cell_angle_beta   79.64694977
_cell_angle_gamma   100.35305023
_symmetry_Int_Tables_number   1
_chemical_formula_structural   NaLiO2
_chemical_formula_sum   'Na3 Li3 O6'
_cell_volume   149.94597111
_cell_formula_units_Z   3
loop_
 _symmetry_equiv_pos_site_id
 _symmetry_equiv_pos_as_xyz
  1  'x, y, z'
loop_
 _atom_site_type_symbol
 _atom_site_label
 _atom_site_symmetry_multiplicity
 _atom_site_fract_x
 _atom_site_fract_y
 _atom_site_fract_z
 _atom_site_occupancy
  Li  Li0  1  0.49999993  0.82908596  0.82908604  1
  Na  Na1  1  -0.00000002  0.33353699  0.33353701  1
  Na  Na2  1  -0.00000004  0.66646297  0.66646302  1
  Na  Na3  1  0.49999995  0.49999998  0.50000003  1
  Li  Li4  1  0.49999997  0.17091399  0.17091402  1
  Li  Li5  1  0.00000000  0.00000000  0.00000000  1
  O  O6  1  0.20226294  0.79693697  0.20306303  1
  O  O7  1  0.21396497  0.34628199  0.93019101  1
  O  O8  1  0.78603491  0.93019096  0.34628206  1
  O  O9  1  0.78603493  0.65371797  0.06980905  1
  O  O10  1  0.21396499  0.06980900  0.65371800  1
  O  O11  1  0.79773696  0.20306299  0.79693702  1
