# generated using pymatgen
data_CsK2(HS2)3
_symmetry_space_group_name_H-M   'P 1'
_cell_length_a   5.35787010
_cell_length_b   5.35787058
_cell_length_c   9.19891357
_cell_angle_alpha   90.00000000
_cell_angle_beta   90.00000000
_cell_angle_gamma   120.00000000
_symmetry_Int_Tables_number   1
_chemical_formula_structural   CsK2(HS2)3
_chemical_formula_sum   'Cs1 K2 H3 S6'
_cell_volume   228.69231425
_cell_formula_units_Z   1
loop_
 _symmetry_equiv_pos_site_id
 _symmetry_equiv_pos_as_xyz
  1  'x, y, z'
loop_
 _atom_site_type_symbol
 _atom_site_label
 _atom_site_symmetry_multiplicity
 _atom_site_fract_x
 _atom_site_fract_y
 _atom_site_fract_z
 _atom_site_occupancy
  K  K0  1  0.00000000  0.00000000  0.00000000  1
  K  K1  1  0.66666667  0.33333333  0.71513303  1
  H  H2  1  0.33333336  0.66666666  0.28486701  1
  H  H3  1  0.33333336  0.66666666  0.71513303  1
  H  H4  1  0.66666667  0.33333333  0.28486701  1
  Cs  Cs5  1  0.00000000  0.00000000  0.50000002  1
  S  S6  1  0.50000002  0.50000000  0.82421904  1
  S  S7  1  0.50000002  0.50000000  0.17578101  1
  S  S8  1  0.00000003  0.50000000  0.82421904  1
  S  S9  1  0.00000003  0.50000000  0.17578101  1
  S  S10  1  0.49999999  0.00000000  0.82421904  1
  S  S11  1  0.49999999  0.00000000  0.17578101  1
