# generated using pymatgen
data_BaEuY3In2Si3Sn2Au
_symmetry_space_group_name_H-M   'P 1'
_cell_length_a   4.39710283
_cell_length_b   4.41175985
_cell_length_c   16.88898468
_cell_angle_alpha   90.00000000
_cell_angle_beta   90.00000000
_cell_angle_gamma   90.00000000
_symmetry_Int_Tables_number   1
_chemical_formula_structural   BaEuY3In2Si3Sn2Au
_chemical_formula_sum   'Ba1 Eu1 Y3 In2 Si3 Sn2 Au1'
_cell_volume   327.62876779
_cell_formula_units_Z   1
loop_
 _symmetry_equiv_pos_site_id
 _symmetry_equiv_pos_as_xyz
  1  'x, y, z'
loop_
 _atom_site_type_symbol
 _atom_site_label
 _atom_site_symmetry_multiplicity
 _atom_site_fract_x
 _atom_site_fract_y
 _atom_site_fract_z
 _atom_site_occupancy
  Ba  Ba0  1  0.25000001  0.00000000  0.09217500  1
  Y  Y1  1  0.25000001  0.50000002  0.60178201  1
  Y  Y2  1  0.75000003  0.50000002  0.39484301  1
  Eu  Eu3  1  0.75000003  0.00000000  0.89817302  1
  Y  Y4  1  0.25000001  0.00000000  0.30775701  1
  In  In5  1  0.25000001  0.00000000  0.45465601  1
  In  In6  1  0.25000001  0.50000002  0.93234902  1
  Si  Si7  1  0.75000003  0.50000002  0.05511200  1
  Sn  Sn8  1  0.75000003  0.00000000  0.57448601  1
  Si  Si9  1  0.25000001  0.50000002  0.23260700  1
  Sn  Sn10  1  0.25000001  0.00000000  0.74612001  1
  Si  Si11  1  0.75000003  0.00000000  0.23238500  1
  Au  Au12  1  0.75000003  0.50000002  0.75355701  1
