# generated using pymatgen
data_Er2Al4Fe3Si11
_symmetry_space_group_name_H-M   'P 1'
_cell_length_a   3.08165789
_cell_length_b   9.34747601
_cell_length_c   9.34747601
_cell_angle_alpha   90.00000000
_cell_angle_beta   90.00000000
_cell_angle_gamma   90.00000000
_symmetry_Int_Tables_number   1
_chemical_formula_structural   Er2Al4Fe3Si11
_chemical_formula_sum   'Er2 Al4 Fe3 Si11'
_cell_volume   269.26080598
_cell_formula_units_Z   1
loop_
 _symmetry_equiv_pos_site_id
 _symmetry_equiv_pos_as_xyz
  1  'x, y, z'
loop_
 _atom_site_type_symbol
 _atom_site_label
 _atom_site_symmetry_multiplicity
 _atom_site_fract_x
 _atom_site_fract_y
 _atom_site_fract_z
 _atom_site_occupancy
  Er  Er0  1  1.00000004  0.82514600  0.32514600  1
  Er  Er1  1  1.00000004  0.32514600  0.17485400  1
  Al  Al2  1  0.00000000  0.67485400  0.82514600  1
  Al  Al3  1  1.00000004  0.17485400  0.67485400  1
  Al  Al4  1  0.00000000  0.00000000  0.00000000  1
  Fe  Fe5  1  1.00000004  0.50000000  0.50000000  1
  Si  Si6  1  0.00000000  0.62465900  0.12465900  1
  Al  Al7  1  0.00000000  0.12465900  0.37534100  1
  Si  Si8  1  1.00000004  0.87534100  0.62465900  1
  Fe  Fe9  1  0.00000000  0.37534100  0.87534100  1
  Si  Si10  1  0.50000002  0.07096800  0.21657000  1
  Fe  Fe11  1  0.50000002  0.21657000  0.92903200  1
  Si  Si12  1  0.50000002  0.78343000  0.07096800  1
  Si  Si13  1  0.50000002  0.92903200  0.78343000  1
  Si  Si14  1  0.50000002  0.42903200  0.71657000  1
  Si  Si15  1  0.50000002  0.57096800  0.28343000  1
  Si  Si16  1  0.50000002  0.71657000  0.57096800  1
  Si  Si17  1  0.50000002  0.28343000  0.42903200  1
  Si  Si18  1  0.50000002  0.50000000  0.00000000  1
  Si  Si19  1  0.50000002  0.00000000  0.50000000  1
