# generated using pymatgen
data_ErHf3(ZrPd4)2
_symmetry_space_group_name_H-M   'P 1'
_cell_length_a   7.19321394
_cell_length_b   7.19321394
_cell_length_c   7.19321394
_cell_angle_alpha   109.47122192
_cell_angle_beta   109.47122192
_cell_angle_gamma   109.47122192
_symmetry_Int_Tables_number   1
_chemical_formula_structural   ErHf3(ZrPd4)2
_chemical_formula_sum   'Er1 Hf3 Zr2 Pd8'
_cell_volume   286.51477342
_cell_formula_units_Z   1
loop_
 _symmetry_equiv_pos_site_id
 _symmetry_equiv_pos_as_xyz
  1  'x, y, z'
loop_
 _atom_site_type_symbol
 _atom_site_label
 _atom_site_symmetry_multiplicity
 _atom_site_fract_x
 _atom_site_fract_y
 _atom_site_fract_z
 _atom_site_occupancy
  Er  Er0  1  0.12500002  0.25000001  0.37500002  1
  Hf  Hf1  1  0.75000004  0.62500002  0.87500005  1
  Hf  Hf2  1  0.37500005  0.75000003  0.12500005  1
  Zr  Zr3  1  0.87500001  0.12500000  0.75000003  1
  Zr  Zr4  1  0.62500003  0.37500001  0.25000004  1
  Hf  Hf5  1  0.25000006  0.87500003  0.62500005  1
  Pd  Pd6  1  0.35733203  0.35733201  0.85733203  1
  Pd  Pd7  1  0.50000001  0.14266801  0.50000002  1
  Pd  Pd8  1  0.00000003  0.50000002  0.64266803  1
  Pd  Pd9  1  0.50000004  0.64266802  0.50000005  1
  Pd  Pd10  1  0.14266800  0.00000000  1.00000000  1
  Pd  Pd11  1  0.64266807  1.00000004  1.00000007  1
  Pd  Pd12  1  1.00000004  0.50000002  0.14266805  1
  Pd  Pd13  1  0.85733206  0.85733203  0.35733207  1
