# generated using pymatgen
data_KBaNaSr2Li4YCu
_symmetry_space_group_name_H-M   'P 1'
_cell_length_a   7.08421755
_cell_length_b   7.08421755
_cell_length_c   7.08421755
_cell_angle_alpha   109.47122192
_cell_angle_beta   109.47122192
_cell_angle_gamma   109.47122192
_symmetry_Int_Tables_number   1
_chemical_formula_structural   KBaNaSr2Li4YCu
_chemical_formula_sum   'K1 Ba1 Na1 Sr2 Li4 Y1 Cu1'
_cell_volume   273.68674014
_cell_formula_units_Z   1
loop_
 _symmetry_equiv_pos_site_id
 _symmetry_equiv_pos_as_xyz
  1  'x, y, z'
loop_
 _atom_site_type_symbol
 _atom_site_label
 _atom_site_symmetry_multiplicity
 _atom_site_fract_x
 _atom_site_fract_y
 _atom_site_fract_z
 _atom_site_occupancy
  Y  Y0  1  0.00000003  0.50000003  0.50000004  1
  Ba  Ba1  1  0.50000008  1.00000006  0.50000008  1
  K  K2  1  0.50000005  0.50000003  0.00000004  1
  Sr  Sr3  1  0.00000000  0.00000000  0.38605101  1
  Li  Li4  1  0.61394906  0.61394904  0.61394906  1
  Li  Li5  1  0.00000002  0.38605102  0.00000002  1
  Cu  Cu6  1  0.38605108  0.99999906  0.99999909  1
  Sr  Sr7  1  0.00000005  0.75081505  0.00000004  1
  Li  Li8  1  0.24918502  0.24918502  0.24918503  1
  Li  Li9  1  0.75081509  1.00000006  1.00000010  1
  Na  Na10  1  0.00000000  0.00000000  0.75081502  1
