# generated using pymatgen
data_LaErLuInSn2Au3
_symmetry_space_group_name_H-M   'P 1'
_cell_length_a   3.65937710
_cell_length_b   7.77179384
_cell_length_c   7.77179384
_cell_angle_alpha   120.00000000
_cell_angle_beta   90.00000000
_cell_angle_gamma   90.00000000
_symmetry_Int_Tables_number   1
_chemical_formula_structural   LaErLuInSn2Au3
_chemical_formula_sum   'La1 Er1 Lu1 In1 Sn2 Au3'
_cell_volume   191.41692756
_cell_formula_units_Z   1
loop_
 _symmetry_equiv_pos_site_id
 _symmetry_equiv_pos_as_xyz
  1  'x, y, z'
loop_
 _atom_site_type_symbol
 _atom_site_label
 _atom_site_symmetry_multiplicity
 _atom_site_fract_x
 _atom_site_fract_y
 _atom_site_fract_z
 _atom_site_occupancy
  Er  Er0  1  0.49999999  0.76254301  -0.00000000  1
  Lu  Lu1  1  0.49999999  0.23745700  0.23745700  1
  La  La2  1  0.49999999  0.00000000  0.76254301  1
  In  In3  1  -0.00000000  0.40570101  -0.00000000  1
  Sn  Sn4  1  -0.00000000  0.59429901  0.59429901  1
  Sn  Sn5  1  0.00000000  0.00000000  0.40570101  1
  Au  Au6  1  0.00000000  0.00000000  0.00000000  1
  Au  Au7  1  0.49999999  0.33333334  0.66666668  1
  Au  Au8  1  0.49999999  0.66666668  0.33333334  1
