# generated using pymatgen
data_LiInCuAu
_symmetry_space_group_name_H-M   'P 1'
_cell_length_a   4.01886177
_cell_length_b   4.01886177
_cell_length_c   5.09027529
_cell_angle_alpha   113.25093079
_cell_angle_beta   113.25093079
_cell_angle_gamma   90.00000000
_symmetry_Int_Tables_number   1
_chemical_formula_structural   LiInCuAu
_chemical_formula_sum   'Li1 In1 Cu1 Au1'
_cell_volume   68.20968983
_cell_formula_units_Z   1
loop_
 _symmetry_equiv_pos_site_id
 _symmetry_equiv_pos_as_xyz
  1  'x, y, z'
loop_
 _atom_site_type_symbol
 _atom_site_label
 _atom_site_symmetry_multiplicity
 _atom_site_fract_x
 _atom_site_fract_y
 _atom_site_fract_z
 _atom_site_occupancy
  Li  Li0  1  0.00000000  0.00000000  0.00000000  1
  In  In1  1  0.75000002  0.25000001  0.49999994  1
  Au  Au2  1  0.24999998  0.75000002  0.49999993  1
  Cu  Cu3  1  0.50000000  0.50000001  0.99999992  1
