# generated using pymatgen
data_Er4Al5(FeNi)2
_symmetry_space_group_name_H-M   'P 1'
_cell_length_a   5.06387901
_cell_length_b   6.86132574
_cell_length_c   6.86132526
_cell_angle_alpha   82.17355347
_cell_angle_beta   68.34505463
_cell_angle_gamma   68.34504700
_symmetry_Int_Tables_number   1
_chemical_formula_structural   Er4Al5(FeNi)2
_chemical_formula_sum   'Er4 Al5 Fe2 Ni2'
_cell_volume   205.93312390
_cell_formula_units_Z   1
loop_
 _symmetry_equiv_pos_site_id
 _symmetry_equiv_pos_as_xyz
  1  'x, y, z'
loop_
 _atom_site_type_symbol
 _atom_site_label
 _atom_site_symmetry_multiplicity
 _atom_site_fract_x
 _atom_site_fract_y
 _atom_site_fract_z
 _atom_site_occupancy
  Er  Er0  1  0.00000000  0.00000000  0.00000000  1
  Er  Er1  1  0.34136901  0.65863098  0.65863100  1
  Er  Er2  1  0.65863100  0.34136899  0.34136901  1
  Er  Er3  1  0.00000002  0.65863098  0.34136900  1
  Al  Al4  1  0.00000001  0.34136899  0.65863099  1
  Al  Al5  1  0.27339300  0.22660699  0.22660700  1
  Al  Al6  1  0.72660701  0.77339297  0.77339300  1
  Al  Al7  1  0.50000000  0.22660699  0.77339300  1
  Al  Al8  1  0.50000001  0.77339297  0.22660701  1
  Fe  Fe9  1  0.50000000  0.00000000  0.50000000  1
  Ni  Ni10  1  0.00000000  0.00000000  0.49999999  1
  Ni  Ni11  1  0.50000001  0.49999998  1.00000000  1
  Fe  Fe12  1  0.00000001  0.49999998  0.00000000  1
