# generated using pymatgen
data_Zn2Cu3Ge3As2P9O
_symmetry_space_group_name_H-M   'P 1'
_cell_length_a   6.78718138
_cell_length_b   6.78718138
_cell_length_c   6.78718090
_cell_angle_alpha   91.22866821
_cell_angle_beta   91.22866821
_cell_angle_gamma   91.22866058
_symmetry_Int_Tables_number   1
_chemical_formula_structural   Zn2Cu3Ge3As2P9O
_chemical_formula_sum   'Zn2 Cu3 Ge3 As2 P9 O1'
_cell_volume   312.43833664
_cell_formula_units_Z   1
loop_
 _symmetry_equiv_pos_site_id
 _symmetry_equiv_pos_as_xyz
  1  'x, y, z'
loop_
 _atom_site_type_symbol
 _atom_site_label
 _atom_site_symmetry_multiplicity
 _atom_site_fract_x
 _atom_site_fract_y
 _atom_site_fract_z
 _atom_site_occupancy
  Cu  Cu0  1  0.55580599  0.06021600  0.25041604  1
  Zn  Zn1  1  0.06021601  0.25041599  0.55580601  1
  Zn  Zn2  1  0.74958401  0.44419399  0.93978406  1
  Cu  Cu3  1  0.93978402  0.74958398  0.44419410  1
  Cu  Cu4  1  0.44419404  0.93978398  0.74958408  1
  Ge  Ge5  1  0.25041602  0.55580599  0.06021605  1
  Ge  Ge6  1  0.00000000  0.00000000  0.00000000  1
  Ge  Ge7  1  0.50000001  0.49999999  0.50000006  1
  P  P8  1  0.93639102  0.70641799  0.07369711  1
  P  P9  1  0.07369705  0.93639098  0.70641805  1
  P  P10  1  0.70641799  0.07369700  0.93639103  1
  P  P11  1  0.06360901  0.29358199  0.92630301  1
  P  P12  1  0.92630298  0.06360900  0.29358206  1
  P  P13  1  0.29358204  0.92630298  0.06360908  1
  P  P14  1  0.58685203  0.79409398  0.45844208  1
  P  P15  1  0.45844202  0.58685199  0.79409405  1
  As  As16  1  0.20590602  0.54155799  0.41314804  1
  As  As17  1  0.54155801  0.41314799  0.20590606  1
  P  P18  1  0.41314800  0.20590600  0.54155803  1
  O  O19  1  0.79409401  0.45844199  0.58685207  1
