# generated using pymatgen
data_YScNbCuSb2AsS5
_symmetry_space_group_name_H-M   'P 1'
_cell_length_a   3.84398890
_cell_length_b   3.86697006
_cell_length_c   17.11700058
_cell_angle_alpha   90.00000000
_cell_angle_beta   90.00000000
_cell_angle_gamma   90.00000000
_symmetry_Int_Tables_number   1
_chemical_formula_structural   YScNbCuSb2AsS5
_chemical_formula_sum   'Y1 Sc1 Nb1 Cu1 Sb2 As1 S5'
_cell_volume   254.43719528
_cell_formula_units_Z   1
loop_
 _symmetry_equiv_pos_site_id
 _symmetry_equiv_pos_as_xyz
  1  'x, y, z'
loop_
 _atom_site_type_symbol
 _atom_site_label
 _atom_site_symmetry_multiplicity
 _atom_site_fract_x
 _atom_site_fract_y
 _atom_site_fract_z
 _atom_site_occupancy
  Y  Y0  1  0.25000001  0.77151699  0.14561800  1
  Sc  Sc1  1  0.25000001  0.72848299  0.64561802  1
  Nb  Nb2  1  0.75000002  0.22848300  0.85438202  1
  Cu  Cu3  1  0.75000002  0.27151700  0.35438201  1
  Sb  Sb4  1  0.75000002  0.78167999  0.49825401  1
  Sb  Sb5  1  0.75000002  0.71831999  0.99825402  1
  As  As6  1  0.25000001  0.21832000  0.50174601  1
  S  S7  1  0.25000001  0.28168000  0.00174600  1
  S  S8  1  0.25000001  0.76995799  0.31333301  1
  S  S9  1  0.25000001  0.73004199  0.81333302  1
  S  S10  1  0.75000002  0.23004200  0.68666702  1
  S  S11  1  0.75000002  0.26995800  0.18666700  1
