# generated using pymatgen
data_ErHf6ZrSn3SbAu6
_symmetry_space_group_name_H-M   'P 1'
_cell_length_a   5.82935476
_cell_length_b   8.66146564
_cell_length_c   8.66146660
_cell_angle_alpha   120.00000000
_cell_angle_beta   90.00000000
_cell_angle_gamma   90.00000000
_symmetry_Int_Tables_number   1
_chemical_formula_structural   ErHf6ZrSn3SbAu6
_chemical_formula_sum   'Er1 Hf6 Zr1 Sn3 Sb1 Au6'
_cell_volume   378.73369085
_cell_formula_units_Z   1
loop_
 _symmetry_equiv_pos_site_id
 _symmetry_equiv_pos_as_xyz
  1  'x, y, z'
loop_
 _atom_site_type_symbol
 _atom_site_label
 _atom_site_symmetry_multiplicity
 _atom_site_fract_x
 _atom_site_fract_y
 _atom_site_fract_z
 _atom_site_occupancy
  Er  Er0  1  0.25000001  0.26771301  0.99999998  1
  Hf  Hf1  1  0.25000001  0.73228704  0.73228700  1
  Hf  Hf2  1  0.25000001  0.00000000  0.26771299  1
  Zr  Zr3  1  0.75000003  0.73228704  0.99999999  1
  Hf  Hf4  1  0.75000003  0.26771301  0.26771300  1
  Hf  Hf5  1  0.75000003  0.00000000  0.73228698  1
  Hf  Hf6  1  1.00000004  0.33333335  0.66666666  1
  Hf  Hf7  1  1.00000004  0.66666670  0.33333334  1
  Sn  Sn8  1  0.50000002  0.66666670  0.33333334  1
  Sn  Sn9  1  0.50000002  0.33333335  0.66666666  1
  Au  Au10  1  0.00000000  0.00000000  0.00000000  1
  Au  Au11  1  0.50000002  0.00000000  -0.00000000  1
  Au  Au12  1  0.25000001  0.61125803  0.99999999  1
  Au  Au13  1  0.25000001  0.38874202  0.38874200  1
  Au  Au14  1  0.25000001  0.00000000  0.61125798  1
  Au  Au15  1  0.75000003  0.38874202  0.99999998  1
  Sn  Sn16  1  0.75000003  0.61125803  0.61125800  1
  Sb  Sb17  1  0.75000003  0.00000000  0.38874199  1
