# generated using pymatgen
data_Li7Ni2O9
_symmetry_space_group_name_H-M   'P 1'
_cell_length_a   5.23239517
_cell_length_b   5.38900185
_cell_length_c   6.14309883
_cell_angle_alpha   88.55391693
_cell_angle_beta   89.85540009
_cell_angle_gamma   89.65985107
_symmetry_Int_Tables_number   1
_chemical_formula_structural   Li7Ni2O9
_chemical_formula_sum   'Li7 Ni2 O9'
_cell_volume   173.16062916
_cell_formula_units_Z   1
loop_
 _symmetry_equiv_pos_site_id
 _symmetry_equiv_pos_as_xyz
  1  'x, y, z'
loop_
 _atom_site_type_symbol
 _atom_site_label
 _atom_site_symmetry_multiplicity
 _atom_site_fract_x
 _atom_site_fract_y
 _atom_site_fract_z
 _atom_site_occupancy
  Li  Li0  1  0.83084698  0.19878700  0.99040303  1
  Li  Li1  1  0.80037098  0.17588300  0.53572803  1
  Li  Li2  1  0.81693500  0.65580002  0.76117701  1
  Li  Li3  1  0.38719302  0.84651902  0.55426098  1
  Li  Li4  1  0.40660500  0.29497201  0.22909301  1
  Li  Li5  1  0.19264002  0.80245902  0.97243796  1
  Ni  Ni6  1  0.08369802  0.52667501  0.42488898  1
  Li  Li7  1  0.06228703  0.99847802  0.27677295  1
  Ni  Ni8  1  0.67068100  0.68693602  0.24633500  1
  O  O9  1  0.32246800  0.31977901  0.75318600  1
  O  O10  1  0.80998000  0.83282702  0.04204600  1
  O  O11  1  0.76682800  0.82845302  0.46887300  1
  O  O12  1  0.76636999  0.39179701  0.26475302  1
  O  O13  1  0.63447599  0.33621301  0.76128101  1
  O  O14  1  0.35257101  0.69243202  0.24853298  1
  O  O15  1  0.19711802  0.60126401  0.72563598  1
  O  O16  1  0.22840000  0.18103300  0.52228600  1
  O  O17  1  0.21633100  0.17259400  0.97481000  1
