# generated using pymatgen
data_BaTl3Cu4S9O
_symmetry_space_group_name_H-M   'P 1'
_cell_length_a   6.24976778
_cell_length_b   6.30864525
_cell_length_c   14.04341984
_cell_angle_alpha   83.67202759
_cell_angle_beta   77.14315033
_cell_angle_gamma   60.30825043
_symmetry_Int_Tables_number   1
_chemical_formula_structural   BaTl3Cu4S9O
_chemical_formula_sum   'Ba1 Tl3 Cu4 S9 O1'
_cell_volume   468.93983353
_cell_formula_units_Z   1
loop_
 _symmetry_equiv_pos_site_id
 _symmetry_equiv_pos_as_xyz
  1  'x, y, z'
loop_
 _atom_site_type_symbol
 _atom_site_label
 _atom_site_symmetry_multiplicity
 _atom_site_fract_x
 _atom_site_fract_y
 _atom_site_fract_z
 _atom_site_occupancy
  Ba  Ba0  1  0.07831103  0.99999998  0.84337800  1
  Tl  Tl1  1  0.92168904  0.00000000  0.15662197  1
  Tl  Tl2  1  0.67168905  0.49999999  0.65662198  1
  Cu  Cu3  1  0.82831105  0.49999999  0.34337798  1
  Tl  Tl4  1  0.50000002  0.00000000  -0.00000001  1
  Cu  Cu5  1  0.25000002  0.49999999  0.50000000  1
  Cu  Cu6  1  0.74933804  0.00000000  0.50132397  1
  Cu  Cu7  1  0.25066201  0.00000000  0.49867599  1
  S  S8  1  0.00066201  0.49999999  0.99867600  1
  S  S9  1  0.49933804  0.49999999  0.00132399  1
  S  S10  1  0.61423405  0.66791299  0.11192099  1
  S  S11  1  0.71785405  0.66791299  0.88807798  1
  S  S12  1  0.27384602  0.33208599  0.11192100  1
  S  S13  1  0.39406903  0.33208599  0.88807798  1
  S  S14  1  0.13576603  0.83208698  0.38807900  1
  S  S15  1  0.03214602  0.83208698  0.61192200  1
  O  O16  1  0.47615403  0.16791400  0.38807899  1
  S  S17  1  0.35593102  0.16791400  0.61192199  1
