# generated using pymatgen
data_NaFeNi3P3C
_symmetry_space_group_name_H-M   'P 1'
_cell_length_a   3.86891007
_cell_length_b   3.86891007
_cell_length_c   7.58159208
_cell_angle_alpha   90.00000000
_cell_angle_beta   90.00000000
_cell_angle_gamma   90.00000000
_symmetry_Int_Tables_number   1
_chemical_formula_structural   NaFeNi3P3C
_chemical_formula_sum   'Na1 Fe1 Ni3 P3 C1'
_cell_volume   113.48479697
_cell_formula_units_Z   1
loop_
 _symmetry_equiv_pos_site_id
 _symmetry_equiv_pos_as_xyz
  1  'x, y, z'
loop_
 _atom_site_type_symbol
 _atom_site_label
 _atom_site_symmetry_multiplicity
 _atom_site_fract_x
 _atom_site_fract_y
 _atom_site_fract_z
 _atom_site_occupancy
  Na  Na0  1  0.49999999  0.49999999  0.00000000  1
  Fe  Fe1  1  0.49999999  0.49999999  0.49999999  1
  Ni  Ni2  1  0.00000000  0.00000000  0.73949099  1
  Ni  Ni3  1  0.00000000  0.00000000  0.26050900  1
  P  P4  1  0.00000000  0.00000000  0.00000000  1
  Ni  Ni5  1  -0.00000000  0.49999999  0.69242699  1
  P  P6  1  0.49999999  0.00000000  0.69242699  1
  P  P7  1  -0.00000000  0.49999999  0.30757300  1
  C  C8  1  0.49999999  0.00000000  0.30757300  1
