# generated using pymatgen
data_SrCa4Nb(BiO5)2
_symmetry_space_group_name_H-M   'P 1'
_cell_length_a   5.94865894
_cell_length_b   6.67009211
_cell_length_c   6.67009211
_cell_angle_alpha   90.00000000
_cell_angle_beta   90.00000000
_cell_angle_gamma   90.00000000
_symmetry_Int_Tables_number   1
_chemical_formula_structural   SrCa4Nb(BiO5)2
_chemical_formula_sum   'Sr1 Ca4 Nb1 Bi2 O10'
_cell_volume   264.65660198
_cell_formula_units_Z   1
loop_
 _symmetry_equiv_pos_site_id
 _symmetry_equiv_pos_as_xyz
  1  'x, y, z'
loop_
 _atom_site_type_symbol
 _atom_site_label
 _atom_site_symmetry_multiplicity
 _atom_site_fract_x
 _atom_site_fract_y
 _atom_site_fract_z
 _atom_site_occupancy
  Ca  Ca0  1  0.00000000  0.00000000  0.00000000  1
  Sr  Sr1  1  1.00000001  0.49999999  0.49999999  1
  Ca  Ca2  1  0.50000000  0.17464400  0.32535599  1
  Ca  Ca3  1  0.50000000  0.82535599  0.67464399  1
  Ca  Ca4  1  0.50000000  0.32535599  0.82535599  1
  Bi  Bi5  1  0.50000000  0.67464399  0.17464400  1
  Bi  Bi6  1  1.00000001  0.00000000  0.49999999  1
  Nb  Nb7  1  1.00000001  0.49999999  -0.00000000  1
  O  O8  1  0.25594700  0.85873499  0.35873499  1
  O  O9  1  0.25594700  0.35873499  0.14126500  1
  O  O10  1  0.74405301  0.35873499  0.14126500  1
  O  O11  1  0.74405301  0.64126499  0.85873499  1
  O  O12  1  0.74405301  0.85873499  0.35873499  1
  O  O13  1  0.25594700  0.14126500  0.64126499  1
  O  O14  1  0.50000000  0.49999999  0.49999999  1
  O  O15  1  0.74405301  0.14126500  0.64126499  1
  O  O16  1  0.50000000  0.00000000  -0.00000000  1
  O  O17  1  0.25594700  0.64126499  0.85873499  1
