# generated using pymatgen
data_NaCa3Ti4O12
_symmetry_space_group_name_H-M   'P 1'
_cell_length_a   5.42710400
_cell_length_b   5.48889112
_cell_length_c   8.62151146
_cell_angle_alpha   90.00000000
_cell_angle_beta   90.00000000
_cell_angle_gamma   90.00000000
_symmetry_Int_Tables_number   1
_chemical_formula_structural   NaCa3Ti4O12
_chemical_formula_sum   'Na1 Ca3 Ti4 O12'
_cell_volume   256.82433363
_cell_formula_units_Z   1
loop_
 _symmetry_equiv_pos_site_id
 _symmetry_equiv_pos_as_xyz
  1  'x, y, z'
loop_
 _atom_site_type_symbol
 _atom_site_label
 _atom_site_symmetry_multiplicity
 _atom_site_fract_x
 _atom_site_fract_y
 _atom_site_fract_z
 _atom_site_occupancy
  Ca  Ca0  1  0.75000000  0.00000000  0.18341899  1
  Ca  Ca1  1  0.25000000  0.00000000  0.81658096  1
  Na  Na2  1  0.25000000  0.49999999  0.68341896  1
  Ca  Ca3  1  0.75000000  0.49999999  0.31658098  1
  Ti  Ti4  1  0.25000000  0.00000000  0.40418498  1
  Ti  Ti5  1  0.75000000  0.00000000  0.59581497  1
  Ti  Ti6  1  0.25000000  0.49999999  0.09581499  1
  Ti  Ti7  1  0.75000000  0.49999999  0.90418495  1
  O  O8  1  0.56776400  0.18278600  0.42184898  1
  O  O9  1  0.06776400  0.18278600  0.57815097  1
  O  O10  1  0.61745000  0.24999999  0.74999996  1
  O  O11  1  0.11745000  0.24999999  0.24999999  1
  O  O12  1  0.56776400  0.31721399  0.07815100  1
  O  O13  1  0.06776400  0.31721399  0.92184895  1
  O  O14  1  0.93223600  0.68278598  0.07815100  1
  O  O15  1  0.43223600  0.68278598  0.92184895  1
  O  O16  1  0.88255000  0.74999998  0.74999996  1
  O  O17  1  0.38255000  0.74999998  0.24999999  1
  O  O18  1  0.93223600  0.81721398  0.42184898  1
  O  O19  1  0.43223600  0.81721398  0.57815097  1
