# generated using pymatgen
data_NaCa4TaTi2O10
_symmetry_space_group_name_H-M   'P 1'
_cell_length_a   4.07803583
_cell_length_b   6.00058413
_cell_length_c   11.81679535
_cell_angle_alpha   90.00000000
_cell_angle_beta   90.00000000
_cell_angle_gamma   90.00000000
_symmetry_Int_Tables_number   1
_chemical_formula_structural   NaCa4TaTi2O10
_chemical_formula_sum   'Na1 Ca4 Ta1 Ti2 O10'
_cell_volume   289.16403769
_cell_formula_units_Z   1
loop_
 _symmetry_equiv_pos_site_id
 _symmetry_equiv_pos_as_xyz
  1  'x, y, z'
loop_
 _atom_site_type_symbol
 _atom_site_label
 _atom_site_symmetry_multiplicity
 _atom_site_fract_x
 _atom_site_fract_y
 _atom_site_fract_z
 _atom_site_occupancy
  Ca  Ca0  1  0.50000002  0.22723400  0.87374097  1
  Na  Na1  1  0.50000002  0.27276599  0.37374099  1
  Ca  Ca2  1  0.50000002  0.72723398  0.62625898  1
  Ca  Ca3  1  0.50000002  0.77276598  0.12625900  1
  Ti  Ti4  1  -0.00000000  0.25784099  0.63328498  1
  Ca  Ca5  1  -0.00000000  0.24215899  0.13328500  1
  Ta  Ta6  1  -0.00000000  0.75784098  0.86671497  1
  Ti  Ti7  1  -0.00000000  0.74215898  0.36671499  1
  O  O8  1  0.00000000  0.00000000  0.00000000  1
  O  O9  1  -0.00000000  0.03538400  0.26251599  1
  O  O10  1  0.50000002  0.19460400  0.60159098  1
  O  O11  1  0.50000002  0.30539599  0.10159100  1
  O  O12  1  -0.00000000  0.46461599  0.76251598  1
  O  O13  1  -0.00000000  0.49999999  0.49999999  1
  O  O14  1  -0.00000000  0.53538399  0.23748399  1
  O  O15  1  0.50000002  0.69460399  0.89840897  1
  O  O16  1  0.50000002  0.80539598  0.39840899  1
  O  O17  1  -0.00000000  0.96461598  0.73748398  1
