# generated using pymatgen
data_CsKZnO2
_symmetry_space_group_name_H-M   'P 1'
_cell_length_a   4.54058790
_cell_length_b   4.54058790
_cell_length_c   7.99585629
_cell_angle_alpha   106.49513245
_cell_angle_beta   106.49513245
_cell_angle_gamma   90.00000000
_symmetry_Int_Tables_number   1
_chemical_formula_structural   CsKZnO2
_chemical_formula_sum   'Cs1 K1 Zn1 O2'
_cell_volume   150.97631183
_cell_formula_units_Z   1
loop_
 _symmetry_equiv_pos_site_id
 _symmetry_equiv_pos_as_xyz
  1  'x, y, z'
loop_
 _atom_site_type_symbol
 _atom_site_label
 _atom_site_symmetry_multiplicity
 _atom_site_fract_x
 _atom_site_fract_y
 _atom_site_fract_z
 _atom_site_occupancy
  K  K0  1  0.66391206  0.66391203  0.32782405  1
  Cs  Cs1  1  0.33608803  0.33608802  0.67217601  1
  Zn  Zn2  1  0.00000000  0.00000000  0.00000000  1
  O  O3  1  0.86316907  0.86316904  0.72633806  1
  O  O4  1  0.13683101  0.13683101  0.27366201  1
