# generated using pymatgen
data_NaSrCa(PbO4)2
_symmetry_space_group_name_H-M   'P 1'
_cell_length_a   5.55025005
_cell_length_b   5.55025005
_cell_length_c   7.40159845
_cell_angle_alpha   70.07456970
_cell_angle_beta   70.07456970
_cell_angle_gamma   71.92421722
_symmetry_Int_Tables_number   1
_chemical_formula_structural   NaSrCa(PbO4)2
_chemical_formula_sum   'Na1 Sr1 Ca1 Pb2 O8'
_cell_volume   196.60565745
_cell_formula_units_Z   1
loop_
 _symmetry_equiv_pos_site_id
 _symmetry_equiv_pos_as_xyz
  1  'x, y, z'
loop_
 _atom_site_type_symbol
 _atom_site_label
 _atom_site_symmetry_multiplicity
 _atom_site_fract_x
 _atom_site_fract_y
 _atom_site_fract_z
 _atom_site_occupancy
  Na  Na0  1  0.53840599  0.46159401  0.49999995  1
  Sr  Sr1  1  0.00429400  0.00242300  0.24488799  1
  Ca  Ca2  1  0.99757597  0.99570602  0.75511191  1
  Pb  Pb3  1  0.07219696  0.92780302  0.99999994  1
  Pb  Pb4  1  0.92840201  0.07159800  0.49999995  1
  O  O5  1  0.76601298  0.79551902  0.86464992  1
  O  O6  1  0.20448099  0.23398700  0.13534998  1
  O  O7  1  0.71255300  0.26447601  0.22200196  1
  O  O8  1  0.73552400  0.28744701  0.77799794  1
  O  O9  1  0.28634497  0.73538302  0.29271996  1
  O  O10  1  0.26461697  0.71365501  0.70727995  1
  O  O11  1  0.79257498  0.75915002  0.36643794  1
  O  O12  1  0.24084999  0.20742500  0.63356197  1
