# generated using pymatgen
data_NaCuTe2
_symmetry_space_group_name_H-M   'P 1'
_cell_length_a   4.44221783
_cell_length_b   4.44221735
_cell_length_c   7.26963520
_cell_angle_alpha   90.00000000
_cell_angle_beta   90.00000000
_cell_angle_gamma   120.00000763
_symmetry_Int_Tables_number   1
_chemical_formula_structural   NaCuTe2
_chemical_formula_sum   'Na1 Cu1 Te2'
_cell_volume   124.23468722
_cell_formula_units_Z   1
loop_
 _symmetry_equiv_pos_site_id
 _symmetry_equiv_pos_as_xyz
  1  'x, y, z'
loop_
 _atom_site_type_symbol
 _atom_site_label
 _atom_site_symmetry_multiplicity
 _atom_site_fract_x
 _atom_site_fract_y
 _atom_site_fract_z
 _atom_site_occupancy
  Na  Na0  1  0.33333339  0.66666671  0.52645799  1
  Cu  Cu1  1  0.00000000  0.00000000  0.97574497  1
  Te  Te2  1  0.00000000  0.00000000  0.36996199  1
  Te  Te3  1  0.33333339  0.66666671  0.87983498  1
