# generated using pymatgen
data_NaLiCaPrO6
_symmetry_space_group_name_H-M   'P 1'
_cell_length_a   5.70557165
_cell_length_b   5.70557165
_cell_length_c   6.01484060
_cell_angle_alpha   61.68678665
_cell_angle_beta   61.68678665
_cell_angle_gamma   60.00000000
_symmetry_Int_Tables_number   1
_chemical_formula_structural   NaLiCaPrO6
_chemical_formula_sum   'Na1 Li1 Ca1 Pr1 O6'
_cell_volume   141.88022752
_cell_formula_units_Z   1
loop_
 _symmetry_equiv_pos_site_id
 _symmetry_equiv_pos_as_xyz
  1  'x, y, z'
loop_
 _atom_site_type_symbol
 _atom_site_label
 _atom_site_symmetry_multiplicity
 _atom_site_fract_x
 _atom_site_fract_y
 _atom_site_fract_z
 _atom_site_occupancy
  Li  Li0  1  0.85136299  0.85136304  0.44591105  1
  Ca  Ca1  1  0.14863700  0.14863701  0.55408902  1
  Na  Na2  1  0.63694899  0.63694903  0.08915303  1
  Pr  Pr3  1  0.36305100  0.36305102  0.91084704  1
  O  O4  1  0.97710701  0.55337703  0.26326103  1
  O  O5  1  0.44662298  0.79374504  0.73673905  1
  O  O6  1  0.79374502  0.02289300  0.73673903  1
  O  O7  1  0.20625496  0.97710705  0.26326104  1
  O  O8  1  0.55337701  0.20625501  0.26326102  1
  O  O9  1  0.02289298  0.44662302  0.73673903  1
