# generated using pymatgen
data_Li5B2HO10
_symmetry_space_group_name_H-M   'P 1'
_cell_length_a   5.09262514
_cell_length_b   5.26167965
_cell_length_c   7.11300468
_cell_angle_alpha   106.74779510
_cell_angle_beta   109.21955872
_cell_angle_gamma   97.91435242
_symmetry_Int_Tables_number   1
_chemical_formula_structural   Li5B2HO10
_chemical_formula_sum   'Li5 B2 H1 O10'
_cell_volume   166.54380626
_cell_formula_units_Z   1
loop_
 _symmetry_equiv_pos_site_id
 _symmetry_equiv_pos_as_xyz
  1  'x, y, z'
loop_
 _atom_site_type_symbol
 _atom_site_label
 _atom_site_symmetry_multiplicity
 _atom_site_fract_x
 _atom_site_fract_y
 _atom_site_fract_z
 _atom_site_occupancy
  Li  Li0  1  0.74994995  0.39396599  0.31320400  1
  Li  Li1  1  0.25004996  0.60603399  0.68679601  1
  Li  Li2  1  0.00000000  0.00000000  0.00000000  1
  Li  Li3  1  0.00000000  0.00000000  0.49999999  1
  B  B4  1  0.32715995  0.64313899  0.26524701  1
  Li  Li5  1  0.67283996  0.35686099  0.73475299  1
  B  B6  1  0.33785198  0.07085000  0.84747299  1
  H  H7  1  0.66214792  0.92914998  0.15252702  1
  O  O8  1  0.69746894  0.66565999  0.84145800  1
  O  O9  1  0.30253097  0.33433999  0.15854200  1
  O  O10  1  0.35511397  0.24022700  0.57737300  1
  O  O11  1  0.64488593  0.75977299  0.42262701  1
  O  O12  1  0.87456695  0.32356999  0.61013499  1
  O  O13  1  0.12543296  0.67642999  0.38986501  1
  O  O14  1  0.26391994  0.79251698  0.10376502  1
  O  O15  1  0.73607996  0.20748300  0.89623499  1
  O  O16  1  0.13604394  0.95771298  0.77436002  1
  O  O17  1  0.86395597  0.04228700  0.22563999  1
