# generated using pymatgen
data_Li7CoO6
_symmetry_space_group_name_H-M   'P 1'
_cell_length_a   3.11577606
_cell_length_b   5.18555689
_cell_length_c   9.91613388
_cell_angle_alpha   90.00000000
_cell_angle_beta   90.00000000
_cell_angle_gamma   90.00000000
_symmetry_Int_Tables_number   1
_chemical_formula_structural   Li7CoO6
_chemical_formula_sum   'Li7 Co1 O6'
_cell_volume   160.21531247
_cell_formula_units_Z   1
loop_
 _symmetry_equiv_pos_site_id
 _symmetry_equiv_pos_as_xyz
  1  'x, y, z'
loop_
 _atom_site_type_symbol
 _atom_site_label
 _atom_site_symmetry_multiplicity
 _atom_site_fract_x
 _atom_site_fract_y
 _atom_site_fract_z
 _atom_site_occupancy
  Li  Li0  1  0.49999999  0.22084800  0.94145801  1
  Li  Li1  1  0.49999999  0.77915202  0.44145801  1
  Li  Li2  1  0.49999999  0.24398801  0.35075200  1
  Li  Li3  1  0.49999999  0.75601202  0.85075201  1
  Li  Li4  1  -0.00000000  0.26946701  0.63423301  1
  Li  Li5  1  -0.00000000  0.73053302  0.13423300  1
  Co  Co6  1  -0.00000000  0.04206800  0.45787801  1
  Li  Li7  1  -0.00000000  0.45023101  0.28355500  1
  O  O8  1  -0.00000000  0.95793202  0.95787801  1
  O  O9  1  -0.00000000  0.54976901  0.78355501  1
  O  O10  1  0.49999999  0.45564701  0.53175001  1
  O  O11  1  0.49999999  0.93185702  0.22937200  1
  O  O12  1  0.49999999  0.06814300  0.72937201  1
  O  O13  1  0.49999999  0.54435301  0.03175000  1
