# generated using pymatgen
data_CsTlMoO5
_symmetry_space_group_name_H-M   'P 1'
_cell_length_a   5.72337580
_cell_length_b   5.72337580
_cell_length_c   5.72337580
_cell_angle_alpha   60.00000000
_cell_angle_beta   60.00000000
_cell_angle_gamma   60.00000000
_symmetry_Int_Tables_number   1
_chemical_formula_structural   CsTlMoO5
_chemical_formula_sum   'Cs1 Tl1 Mo1 O5'
_cell_volume   132.56894195
_cell_formula_units_Z   1
loop_
 _symmetry_equiv_pos_site_id
 _symmetry_equiv_pos_as_xyz
  1  'x, y, z'
loop_
 _atom_site_type_symbol
 _atom_site_label
 _atom_site_symmetry_multiplicity
 _atom_site_fract_x
 _atom_site_fract_y
 _atom_site_fract_z
 _atom_site_occupancy
  Cs  Cs0  1  0.50000002  0.50000002  0.50000002  1
  Mo  Mo1  1  0.00000000  0.00000000  0.00000000  1
  O  O2  1  0.25216501  0.74783503  0.25216501  1
  Tl  Tl3  1  0.74783503  0.25216501  0.74783503  1
  O  O4  1  0.25216501  0.74783503  0.74783503  1
  O  O5  1  0.74783503  0.25216501  0.25216501  1
  O  O6  1  0.25216501  0.25216501  0.74783503  1
  O  O7  1  0.74783503  0.74783503  0.25216501  1
