# generated using pymatgen
data_ZnCu3SeS3
_symmetry_space_group_name_H-M   'P 1'
_cell_length_a   5.75021791
_cell_length_b   6.54106903
_cell_length_c   5.75021791
_cell_angle_alpha   63.92500305
_cell_angle_beta   90.00000000
_cell_angle_gamma   116.07499695
_symmetry_Int_Tables_number   1
_chemical_formula_structural   ZnCu3SeS3
_chemical_formula_sum   'Zn1 Cu3 Se1 S3'
_cell_volume   169.41769021
_cell_formula_units_Z   1
loop_
 _symmetry_equiv_pos_site_id
 _symmetry_equiv_pos_as_xyz
  1  'x, y, z'
loop_
 _atom_site_type_symbol
 _atom_site_label
 _atom_site_symmetry_multiplicity
 _atom_site_fract_x
 _atom_site_fract_y
 _atom_site_fract_z
 _atom_site_occupancy
  Cu  Cu0  1  0.24999998  0.49999998  0.25000003  1
  Zn  Zn1  1  0.50000001  0.00000000  0.50000001  1
  Cu  Cu2  1  0.74999999  0.49999998  0.75000003  1
  Cu  Cu3  1  0.00000000  0.00000000  0.00000000  1
  S  S4  1  0.87500000  0.24999999  0.08242101  1
  Se  Se5  1  0.66757898  0.74999998  0.87500005  1
  S  S6  1  0.08242097  0.74999998  0.37500004  1
  S  S7  1  0.37500000  0.24999999  0.66757902  1
