# generated using pymatgen
data_KTl2BiS4
_symmetry_space_group_name_H-M   'P 1'
_cell_length_a   4.37540817
_cell_length_b   7.60296583
_cell_length_c   7.60296535
_cell_angle_alpha   120.00000000
_cell_angle_beta   90.00000000
_cell_angle_gamma   90.00000000
_symmetry_Int_Tables_number   1
_chemical_formula_structural   KTl2BiS4
_chemical_formula_sum   'K1 Tl2 Bi1 S4'
_cell_volume   219.03587682
_cell_formula_units_Z   1
loop_
 _symmetry_equiv_pos_site_id
 _symmetry_equiv_pos_as_xyz
  1  'x, y, z'
loop_
 _atom_site_type_symbol
 _atom_site_label
 _atom_site_symmetry_multiplicity
 _atom_site_fract_x
 _atom_site_fract_y
 _atom_site_fract_z
 _atom_site_occupancy
  K  K0  1  0.24999999  0.33333333  0.66666665  1
  Tl  Tl1  1  0.74999997  0.66666666  0.33333330  1
  Bi  Bi2  1  0.24999999  0.39200100  0.08690398  1
  Tl  Tl3  1  0.74999997  0.08690500  0.69490400  1
  S  S4  1  0.74999997  0.60799900  0.91309597  1
  S  S5  1  0.24999999  0.91309500  0.30509595  1
  S  S6  1  0.24999999  0.69490300  0.60799797  1
  S  S7  1  0.74999997  0.30509700  0.39200199  1
