# generated using pymatgen
data_Li5CoO5
_symmetry_space_group_name_H-M   'P 1'
_cell_length_a   4.92034197
_cell_length_b   5.54529476
_cell_length_c   5.54529476
_cell_angle_alpha   76.91394043
_cell_angle_beta   81.37530518
_cell_angle_gamma   98.62469482
_symmetry_Int_Tables_number   1
_chemical_formula_structural   Li5CoO5
_chemical_formula_sum   'Li5 Co1 O5'
_cell_volume   143.02447650
_cell_formula_units_Z   1
loop_
 _symmetry_equiv_pos_site_id
 _symmetry_equiv_pos_as_xyz
  1  'x, y, z'
loop_
 _atom_site_type_symbol
 _atom_site_label
 _atom_site_symmetry_multiplicity
 _atom_site_fract_x
 _atom_site_fract_y
 _atom_site_fract_z
 _atom_site_occupancy
  Li  Li0  1  -0.00000001  0.24866700  0.24866698  1
  Li  Li1  1  -0.00000002  0.62949499  0.62949495  1
  Li  Li2  1  0.40888201  0.17970300  0.74612698  1
  Li  Li3  1  0.59111800  0.74612699  0.17970297  1
  Co  Co4  1  0.72094202  0.33441500  0.55618999  1
  Li  Li5  1  0.24900099  0.96536799  0.61376294  1
  O  O6  1  0.50000002  0.03640600  0.03640601  1
  O  O7  1  0.81350901  0.85898199  0.35524396  1
  O  O8  1  0.18649100  0.35524400  0.85898197  1
  O  O9  1  0.27905800  0.55618999  0.33441497  1
  O  O10  1  0.75099901  0.61376299  0.96536796  1
