# generated using pymatgen
data_NaSrLi2Ca2(PbO5)2
_symmetry_space_group_name_H-M   'P 1'
_cell_length_a   4.96983480
_cell_length_b   6.82811880
_cell_length_c   7.33268976
_cell_angle_alpha   90.00000000
_cell_angle_beta   90.00000000
_cell_angle_gamma   94.53239441
_symmetry_Int_Tables_number   1
_chemical_formula_structural   NaSrLi2Ca2(PbO5)2
_chemical_formula_sum   'Na1 Sr1 Li2 Ca2 Pb2 O10'
_cell_volume   248.05391474
_cell_formula_units_Z   1
loop_
 _symmetry_equiv_pos_site_id
 _symmetry_equiv_pos_as_xyz
  1  'x, y, z'
loop_
 _atom_site_type_symbol
 _atom_site_label
 _atom_site_symmetry_multiplicity
 _atom_site_fract_x
 _atom_site_fract_y
 _atom_site_fract_z
 _atom_site_occupancy
  Ca  Ca0  1  0.97194598  0.68521600  0.75000002  1
  Na  Na1  1  0.02805397  0.31478400  0.25000001  1
  Ca  Ca2  1  0.53562100  0.22057900  0.75000002  1
  Sr  Sr3  1  0.46437895  0.77942100  0.25000001  1
  Li  Li4  1  0.34766493  0.95254500  0.75000002  1
  Li  Li5  1  0.67433396  0.78244900  0.47270002  1
  Pb  Pb6  1  0.65233502  0.04745500  0.25000001  1
  Pb  Pb7  1  0.32566599  0.21755100  0.97270003  1
  O  O8  1  0.82707003  0.04628300  0.75000002  1
  O  O9  1  0.80775200  0.35928400  0.92322103  1
  O  O10  1  0.80775200  0.35928400  0.57677902  1
  O  O11  1  0.19224795  0.64071600  0.42322101  1
  O  O12  1  0.67433396  0.78244900  0.02730000  1
  O  O13  1  0.17292993  0.95371700  0.25000001  1
  O  O14  1  0.32566599  0.21755100  0.52730002  1
  O  O15  1  0.58104598  0.50508500  0.25000001  1
  O  O16  1  0.19224795  0.64071600  0.07677900  1
  O  O17  1  0.41895398  0.49491500  0.75000002  1
