# generated using pymatgen
data_KRb2TlO3
_symmetry_space_group_name_H-M   'P 1'
_cell_length_a   6.20587969
_cell_length_b   6.20587969
_cell_length_c   6.20587969
_cell_angle_alpha   104.29486847
_cell_angle_beta   104.29486847
_cell_angle_gamma   104.29486084
_symmetry_Int_Tables_number   1
_chemical_formula_structural   KRb2TlO3
_chemical_formula_sum   'Rb2 K1 Tl1 O3'
_cell_volume   212.02962343
_cell_formula_units_Z   1
loop_
 _symmetry_equiv_pos_site_id
 _symmetry_equiv_pos_as_xyz
  1  'x, y, z'
loop_
 _atom_site_type_symbol
 _atom_site_label
 _atom_site_symmetry_multiplicity
 _atom_site_fract_x
 _atom_site_fract_y
 _atom_site_fract_z
 _atom_site_occupancy
  Rb  Rb0  1  0.56512804  0.56512802  0.17189806  1
  K  K1  1  0.17189803  0.56512802  0.56512804  1
  Rb  Rb2  1  0.56512802  0.17189801  0.56512804  1
  Tl  Tl3  1  0.98849906  0.98849903  0.98849911  1
  O  O4  1  0.96452504  0.57979602  0.96452508  1
  O  O5  1  0.96452506  0.96452503  0.57979611  1
  O  O6  1  0.57979606  0.96452503  0.96452509  1
