# generated using pymatgen
data_NaLi2VPSO13
_symmetry_space_group_name_H-M   'P 1'
_cell_length_a   5.69296122
_cell_length_b   5.99225760
_cell_length_c   7.34929991
_cell_angle_alpha   108.46125793
_cell_angle_beta   99.08061218
_cell_angle_gamma   107.61369324
_symmetry_Int_Tables_number   1
_chemical_formula_structural   NaLi2VPSO13
_chemical_formula_sum   'Na1 Li2 V1 P1 S1 O13'
_cell_volume   217.55722419
_cell_formula_units_Z   1
loop_
 _symmetry_equiv_pos_site_id
 _symmetry_equiv_pos_as_xyz
  1  'x, y, z'
loop_
 _atom_site_type_symbol
 _atom_site_label
 _atom_site_symmetry_multiplicity
 _atom_site_fract_x
 _atom_site_fract_y
 _atom_site_fract_z
 _atom_site_occupancy
  Li  Li0  1  0.33882907  0.71106305  0.25087405  1
  Li  Li1  1  0.66117101  0.28893702  0.74912603  1
  V  V2  1  0.00000000  0.00000000  0.00000000  1
  Na  Na3  1  0.85718907  0.87325906  0.61352608  1
  O  O4  1  0.14281101  0.12674101  0.38647400  1
  O  O5  1  0.07837001  0.15024701  0.70256799  1
  P  P6  1  0.92163006  0.84975306  0.29743208  1
  O  O7  1  0.33264906  0.66225804  0.75959704  1
  O  O8  1  0.66735102  0.33774202  0.24040304  1
  S  S9  1  0.09530307  0.66374804  0.87204602  1
  O  O10  1  0.90469701  0.33625202  0.12795406  1
  O  O11  1  0.60752006  0.75655805  0.93979105  1
  O  O12  1  0.39248001  0.24344202  0.06020903  1
  O  O13  1  0.35159408  0.83285106  0.62071605  1
  O  O14  1  0.64840600  0.16714901  0.37928403  1
  O  O15  1  0.27646803  0.35665702  0.62351602  1
  O  O16  1  0.72353205  0.64334304  0.37648406  1
  O  O17  1  0.92932398  0.03869100  0.73017002  1
  O  O18  1  0.07067610  0.96130906  0.26983005  1
