# generated using pymatgen
data_Li2B2HO7
_symmetry_space_group_name_H-M   'P 1'
_cell_length_a   4.94296408
_cell_length_b   4.94296408
_cell_length_c   8.61226845
_cell_angle_alpha   73.32322693
_cell_angle_beta   73.32322693
_cell_angle_gamma   60.00000000
_symmetry_Int_Tables_number   1
_chemical_formula_structural   Li2B2HO7
_chemical_formula_sum   'Li2 B2 H1 O7'
_cell_volume   171.93563710
_cell_formula_units_Z   1
loop_
 _symmetry_equiv_pos_site_id
 _symmetry_equiv_pos_as_xyz
  1  'x, y, z'
loop_
 _atom_site_type_symbol
 _atom_site_label
 _atom_site_symmetry_multiplicity
 _atom_site_fract_x
 _atom_site_fract_y
 _atom_site_fract_z
 _atom_site_occupancy
  Li  Li0  1  0.00000000  0.00000000  0.00000000  1
  Li  Li1  1  0.43065495  0.43065499  0.70803506  1
  B  B2  1  0.56934493  0.56934498  0.29196505  1
  B  B3  1  0.26468297  0.26468299  0.20595103  1
  H  H4  1  0.73531691  0.73531698  0.79404908  1
  O  O5  1  0.03638396  0.67526198  0.80152505  1
  O  O6  1  0.48682897  0.03638400  0.80152504  1
  O  O7  1  0.67526193  0.48682898  0.80152507  1
  O  O8  1  0.49999994  0.49999998  0.50000006  1
  O  O9  1  0.32473792  0.96361597  0.19847506  1
  O  O10  1  0.51317095  0.32473799  0.19847504  1
  O  O11  1  0.96361591  0.51317098  0.19847506  1
