# generated using pymatgen
data_Li2OF
_symmetry_space_group_name_H-M   'P 1'
_cell_length_a   3.03048396
_cell_length_b   5.12213659
_cell_length_c   9.84728909
_cell_angle_alpha   86.16152191
_cell_angle_beta   84.87593842
_cell_angle_gamma   86.12335968
_symmetry_Int_Tables_number   1
_chemical_formula_structural   Li2OF
_chemical_formula_sum   'Li8 O4 F4'
_cell_volume   151.61028884
_cell_formula_units_Z   4
loop_
 _symmetry_equiv_pos_site_id
 _symmetry_equiv_pos_as_xyz
  1  'x, y, z'
loop_
 _atom_site_type_symbol
 _atom_site_label
 _atom_site_symmetry_multiplicity
 _atom_site_fract_x
 _atom_site_fract_y
 _atom_site_fract_z
 _atom_site_occupancy
  Li  Li0  1  0.12567898  0.37507102  0.75059904  1
  Li  Li1  1  0.87432098  0.62492903  0.24940103  1
  Li  Li2  1  0.62286296  0.87336804  0.75334606  1
  Li  Li3  1  0.37713700  0.12663201  0.24665401  1
  Li  Li4  1  0.75064700  0.24922801  0.49984003  1
  Li  Li5  1  0.49999998  0.50000002  0.00000002  1
  Li  Li6  1  0.24935296  0.75077203  0.50016004  1
  Li  Li7  1  0.00000000  0.00000000  0.00000000  1
  O  O8  1  0.56711300  0.18604701  0.88808204  1
  F  F9  1  0.33229798  0.44820502  0.38540003  1
  O  O10  1  0.08299297  0.68208503  0.88278305  1
  F  F11  1  0.83263696  0.94693904  0.38499905  1
  O  O12  1  0.66770198  0.55179502  0.61460004  1
  F  F13  1  0.43288696  0.81395303  0.11191803  1
  O  O14  1  0.16736300  0.05306100  0.61500102  1
  F  F15  1  0.91700699  0.31791501  0.11721702  1
