# generated using pymatgen
data_K2LiTlCu2(SeI)4
_symmetry_space_group_name_H-M   'P 1'
_cell_length_a   7.41874504
_cell_length_b   7.66314697
_cell_length_c   9.28128052
_cell_angle_alpha   90.00000000
_cell_angle_beta   71.46784210
_cell_angle_gamma   90.00000000
_symmetry_Int_Tables_number   1
_chemical_formula_structural   K2LiTlCu2(SeI)4
_chemical_formula_sum   'K2 Li1 Tl1 Cu2 Se4 I4'
_cell_volume   500.28841857
_cell_formula_units_Z   1
loop_
 _symmetry_equiv_pos_site_id
 _symmetry_equiv_pos_as_xyz
  1  'x, y, z'
loop_
 _atom_site_type_symbol
 _atom_site_label
 _atom_site_symmetry_multiplicity
 _atom_site_fract_x
 _atom_site_fract_y
 _atom_site_fract_z
 _atom_site_occupancy
  Tl  Tl0  1  0.77211100  0.24293800  0.42787600  1
  K  K1  1  0.22788900  0.74293800  0.57212402  1
  K  K2  1  0.71150600  0.24364000  0.95255302  1
  Li  Li3  1  0.28849400  0.74364000  0.04744700  1
  Cu  Cu4  1  0.28022900  0.25731700  0.79578503  1
  Cu  Cu5  1  0.71977100  0.75731700  0.20421499  1
  I  I6  1  0.10320500  0.27047200  0.06588400  1
  Se  Se7  1  0.89679500  0.77047200  0.93411602  1
  I  I8  1  0.07761900  0.26721500  0.63521602  1
  Se  Se9  1  0.92238100  0.76721500  0.36478400  1
  Se  Se10  1  0.48804400  0.00210700  0.73995202  1
  I  I11  1  0.51195600  0.50210700  0.26004800  1
  Se  Se12  1  0.50525000  0.50112000  0.73351002  1
  I  I13  1  0.49475000  0.00112000  0.26649000  1
