# generated using pymatgen
data_K2RbCaCuGe(PbO6)2
_symmetry_space_group_name_H-M   'P 1'
_cell_length_a   5.98907518
_cell_length_b   7.60458708
_cell_length_c   7.60458708
_cell_angle_alpha   87.01829529
_cell_angle_beta   79.17672729
_cell_angle_gamma   79.17672729
_symmetry_Int_Tables_number   1
_chemical_formula_structural   K2RbCaCuGe(PbO6)2
_chemical_formula_sum   'Rb1 K2 Ca1 Cu1 Ge1 Pb2 O12'
_cell_volume   334.08360693
_cell_formula_units_Z   1
loop_
 _symmetry_equiv_pos_site_id
 _symmetry_equiv_pos_as_xyz
  1  'x, y, z'
loop_
 _atom_site_type_symbol
 _atom_site_label
 _atom_site_symmetry_multiplicity
 _atom_site_fract_x
 _atom_site_fract_y
 _atom_site_fract_z
 _atom_site_occupancy
  Ca  Ca0  1  0.74999999  0.28473201  0.71526800  1
  Rb  Rb1  1  0.24999994  0.71526803  0.28473203  1
  K  K2  1  0.21750495  0.63279603  0.79622604  1
  K  K3  1  0.28249499  0.20377401  0.36720401  1
  Pb  Pb4  1  0.78249498  0.36720401  0.20377398  1
  Ge  Ge5  1  0.71750494  0.79622603  0.63279602  1
  Pb  Pb6  1  0.74999993  0.89608904  0.10391101  1
  Cu  Cu7  1  0.24999999  0.10391100  0.89608902  1
  O  O8  1  0.48335795  0.66951203  0.64897802  1
  O  O9  1  0.01664197  0.35102201  0.33048802  1
  O  O10  1  0.51664198  0.33048801  0.35102200  1
  O  O11  1  0.98335796  0.64897803  0.66951200  1
  O  O12  1  0.22704599  0.11137500  0.57221901  1
  O  O13  1  0.27295397  0.42778102  0.88862503  1
  O  O14  1  0.77295393  0.88862504  0.42778101  1
  O  O15  1  0.72704596  0.57221902  0.11137499  1
  O  O16  1  0.85599700  0.20674201  0.04440897  1
  O  O17  1  0.64400292  0.95559104  0.79325803  1
  O  O18  1  0.14400293  0.79325803  0.95559106  1
  O  O19  1  0.35599700  0.04440900  0.20674199  1
