# generated using pymatgen
data_Ca2Lu3CuS8
_symmetry_space_group_name_H-M   'P 1'
_cell_length_a   4.15341902
_cell_length_b   6.04554081
_cell_length_c   16.83551407
_cell_angle_alpha   90.00000000
_cell_angle_beta   90.00000000
_cell_angle_gamma   90.00000000
_symmetry_Int_Tables_number   1
_chemical_formula_structural   Ca2Lu3CuS8
_chemical_formula_sum   'Ca2 Lu3 Cu1 S8'
_cell_volume   422.73410442
_cell_formula_units_Z   1
loop_
 _symmetry_equiv_pos_site_id
 _symmetry_equiv_pos_as_xyz
  1  'x, y, z'
loop_
 _atom_site_type_symbol
 _atom_site_label
 _atom_site_symmetry_multiplicity
 _atom_site_fract_x
 _atom_site_fract_y
 _atom_site_fract_z
 _atom_site_occupancy
  Ca  Ca0  1  0.50000000  0.48969902  0.93307505  1
  Lu  Lu1  1  -0.00000000  0.98969903  0.06692500  1
  Ca  Ca2  1  -0.00000000  0.98314503  0.31579702  1
  Lu  Lu3  1  0.50000000  0.50757202  0.44408802  1
  Lu  Lu4  1  -0.00000000  0.00757200  0.55591203  1
  Cu  Cu5  1  0.50000000  0.48314502  0.68420304  1
  S  S6  1  -0.00000000  0.77040702  0.92936705  1
  S  S7  1  0.50000000  0.27040701  0.07063300  1
  S  S8  1  -0.00000000  0.73345602  0.19004201  1
  S  S9  1  0.50000000  0.26750001  0.30932502  1
  S  S10  1  -0.00000000  0.76750002  0.69067504  1
  S  S11  1  0.50000000  0.23345601  0.80995804  1
  S  S12  1  -0.00000000  0.74822102  0.43930502  1
  S  S13  1  0.50000000  0.24822101  0.56069503  1
