# generated using pymatgen
data_BaSr2Ca2(PbO4)3
_symmetry_space_group_name_H-M   'P 1'
_cell_length_a   6.06685019
_cell_length_b   6.11715841
_cell_length_c   8.62315559
_cell_angle_alpha   89.60762024
_cell_angle_beta   90.46520996
_cell_angle_gamma   89.94277191
_symmetry_Int_Tables_number   1
_chemical_formula_structural   BaSr2Ca2(PbO4)3
_chemical_formula_sum   'Ba1 Sr2 Ca2 Pb3 O12'
_cell_volume   320.00331634
_cell_formula_units_Z   1
loop_
 _symmetry_equiv_pos_site_id
 _symmetry_equiv_pos_as_xyz
  1  'x, y, z'
loop_
 _atom_site_type_symbol
 _atom_site_label
 _atom_site_symmetry_multiplicity
 _atom_site_fract_x
 _atom_site_fract_y
 _atom_site_fract_z
 _atom_site_occupancy
  Ca  Ca0  1  0.49426677  0.52654224  0.74969411  1
  Ba  Ba1  1  0.50573331  0.47345778  0.25030593  1
  Sr  Sr2  1  1.00000005  0.50000001  0.00000004  1
  Sr  Sr3  1  0.50000001  0.00000000  0.50000002  1
  Ca  Ca4  1  0.00892459  0.03670532  0.74725208  1
  Pb  Pb5  1  0.99107549  0.96329470  0.25274796  1
  Pb  Pb6  1  0.50000001  0.00000000  0.00000002  1
  Pb  Pb7  1  1.00000005  0.50000001  0.50000004  1
  O  O8  1  0.76318434  0.19378251  0.05282920  1
  O  O9  1  0.73413471  0.69667814  0.47193833  1
  O  O10  1  0.23681573  0.80621751  0.94717084  1
  O  O11  1  0.26586537  0.30332189  0.52806171  1
  O  O12  1  0.69695751  0.73787603  0.04126154  1
  O  O13  1  0.81520853  0.22848878  0.45135485  1
  O  O14  1  0.30304257  0.26212400  0.95873850  1
  O  O15  1  0.18479155  0.77151125  0.54864519  1
  O  O16  1  0.59659260  0.99516632  0.77241107  1
  O  O17  1  0.93716736  0.45387426  0.72871921  1
  O  O18  1  0.40340748  0.00483370  0.22758897  1
  O  O19  1  0.06283272  0.54612576  0.27128083  1
