# generated using pymatgen
data_KSc2TlInCuAgSbTeSe8S
_symmetry_space_group_name_H-M   'P 1'
_cell_length_a   7.87690401
_cell_length_b   7.87690496
_cell_length_c   10.34961700
_cell_angle_alpha   90.00000000
_cell_angle_beta   90.00000000
_cell_angle_gamma   120.00000000
_symmetry_Int_Tables_number   1
_chemical_formula_structural   KSc2TlInCuAgSbTeSe8S
_chemical_formula_sum   'K1 Sc2 Tl1 In1 Cu1 Ag1 Sb1 Te1 Se8 S1'
_cell_volume   556.11686929
_cell_formula_units_Z   1
loop_
 _symmetry_equiv_pos_site_id
 _symmetry_equiv_pos_as_xyz
  1  'x, y, z'
loop_
 _atom_site_type_symbol
 _atom_site_label
 _atom_site_symmetry_multiplicity
 _atom_site_fract_x
 _atom_site_fract_y
 _atom_site_fract_z
 _atom_site_occupancy
  K  K0  1  0.50032100  0.00064200  0.76151800  1
  Sc  Sc1  1  0.49967904  0.50032001  0.26151800  1
  Sc  Sc2  1  0.49967907  0.99935803  0.26151800  1
  Tl  Tl3  1  0.99935904  0.49968001  0.76151800  1
  Sb  Sb4  1  0.50032104  0.49968001  0.76151800  1
  In  In5  1  0.00064104  0.50032001  0.26151800  1
  Ag  Ag6  1  0.00000000  0.00000000  0.76668100  1
  Cu  Cu7  1  0.00000000  0.00000000  0.26668100  1
  Se  Se8  1  0.15100706  0.84899302  0.63954000  1
  S  S9  1  0.66666669  0.33333334  0.88885400  1
  Se  Se10  1  0.84899305  0.69798602  0.13954000  1
  Se  Se11  1  0.84899301  0.15100700  0.13954000  1
  Se  Se12  1  0.30201401  0.15100700  0.13954000  1
  Se  Se13  1  0.15100702  0.30201401  0.63954000  1
  Se  Se14  1  0.33333338  0.66666669  0.38885400  1
  Se  Se15  1  0.69798606  0.84899302  0.63954000  1
  Te  Te16  1  0.66666669  0.33333334  0.45719100  1
  Se  Se17  1  0.33333338  0.66666669  0.95719100  1
