# generated using pymatgen
data_KSrCa3Tl3(IBr)6
_symmetry_space_group_name_H-M   'P 1'
_cell_length_a   4.51932907
_cell_length_b   9.65116501
_cell_length_c   16.28049278
_cell_angle_alpha   90.00000000
_cell_angle_beta   90.00000000
_cell_angle_gamma   90.00000000
_symmetry_Int_Tables_number   1
_chemical_formula_structural   KSrCa3Tl3(IBr)6
_chemical_formula_sum   'K1 Sr1 Ca3 Tl3 I6 Br6'
_cell_volume   710.10284444
_cell_formula_units_Z   1
loop_
 _symmetry_equiv_pos_site_id
 _symmetry_equiv_pos_as_xyz
  1  'x, y, z'
loop_
 _atom_site_type_symbol
 _atom_site_label
 _atom_site_symmetry_multiplicity
 _atom_site_fract_x
 _atom_site_fract_y
 _atom_site_fract_z
 _atom_site_occupancy
  Ca  Ca0  1  0.74999999  0.58081100  0.17254000  1
  K  K1  1  0.25000000  0.41918900  0.82746001  1
  Tl  Tl2  1  0.74999999  0.08081100  0.32746000  1
  Sr  Sr3  1  0.25000000  0.91918900  0.67254001  1
  Tl  Tl4  1  0.25000000  0.66370800  0.43818701  1
  Ca  Ca5  1  0.74999999  0.33629200  0.56181301  1
  Tl  Tl6  1  0.25000000  0.16370800  0.06181300  1
  Ca  Ca7  1  0.74999999  0.83629200  0.93818701  1
  I  I8  1  0.74999999  0.84077900  0.50313001  1
  I  I9  1  0.25000000  0.15922100  0.49687001  1
  Br  Br10  1  0.74999999  0.34077900  0.99687001  1
  Br  Br11  1  0.25000000  0.65922100  0.00313000  1
  I  I12  1  0.25000000  0.52494400  0.61875001  1
  Br  Br13  1  0.74999999  0.47505600  0.38125001  1
  I  I14  1  0.25000000  0.02494400  0.88125001  1
  Br  Br15  1  0.74999999  0.97505600  0.11875000  1
  Br  Br16  1  0.25000000  0.79898400  0.28645500  1
  I  I17  1  0.74999999  0.20101600  0.71354501  1
  Br  Br18  1  0.25000000  0.29898400  0.21354500  1
  I  I19  1  0.74999999  0.70101600  0.78645501  1
