# generated using pymatgen
data_LiCa2LuO6
_symmetry_space_group_name_H-M   'P 1'
_cell_length_a   5.65127802
_cell_length_b   5.65127802
_cell_length_c   5.65127802
_cell_angle_alpha   61.69051361
_cell_angle_beta   61.69051361
_cell_angle_gamma   61.69051361
_symmetry_Int_Tables_number   1
_chemical_formula_structural   LiCa2LuO6
_chemical_formula_sum   'Li1 Ca2 Lu1 O6'
_cell_volume   132.45829710
_cell_formula_units_Z   1
loop_
 _symmetry_equiv_pos_site_id
 _symmetry_equiv_pos_as_xyz
  1  'x, y, z'
loop_
 _atom_site_type_symbol
 _atom_site_label
 _atom_site_symmetry_multiplicity
 _atom_site_fract_x
 _atom_site_fract_y
 _atom_site_fract_z
 _atom_site_occupancy
  Ca  Ca0  1  0.24945500  0.24945500  0.24945500  1
  Ca  Ca1  1  0.75054501  0.75054501  0.75054499  1
  Li  Li2  1  0.50000001  0.50000001  0.49999999  1
  Lu  Lu3  1  0.00000000  0.00000000  0.00000000  1
  O  O4  1  0.66078901  0.24434400  0.84594800  1
  O  O5  1  0.24434400  0.84594802  0.66078899  1
  O  O6  1  0.84594801  0.66078901  0.24434397  1
  O  O7  1  0.33921100  0.75565601  0.15405198  1
  O  O8  1  0.15405200  0.33921101  0.75565601  1
  O  O9  1  0.75565601  0.15405200  0.33921099  1
