# generated using pymatgen
data_Ca2PHSN2O
_symmetry_space_group_name_H-M   'P 1'
_cell_length_a   3.86181593
_cell_length_b   3.86181712
_cell_length_c   11.30219936
_cell_angle_alpha   90.00000000
_cell_angle_beta   90.00000000
_cell_angle_gamma   119.99999237
_symmetry_Int_Tables_number   1
_chemical_formula_structural   Ca2PHSN2O
_chemical_formula_sum   'Ca2 P1 H1 S1 N2 O1'
_cell_volume   145.97446831
_cell_formula_units_Z   1
loop_
 _symmetry_equiv_pos_site_id
 _symmetry_equiv_pos_as_xyz
  1  'x, y, z'
loop_
 _atom_site_type_symbol
 _atom_site_label
 _atom_site_symmetry_multiplicity
 _atom_site_fract_x
 _atom_site_fract_y
 _atom_site_fract_z
 _atom_site_occupancy
  Ca  Ca0  1  0.66666669  0.33333333  0.46503899  1
  Ca  Ca1  1  0.33333336  0.66666667  0.53496098  1
  O  O2  1  0.66666669  0.33333333  0.25333499  1
  P  P3  1  0.33333336  0.66666667  0.74666498  1
  S  S4  1  0.33333336  0.66666667  0.18525099  1
  N  N5  1  0.66666669  0.33333333  0.81474897  1
  N  N6  1  0.33333336  0.66666667  0.05272200  1
  H  H7  1  0.66666669  0.33333333  0.94727797  1
