# generated using pymatgen
data_KNa3Li2CaCu3SCl9
_symmetry_space_group_name_H-M   'P 1'
_cell_length_a   7.42195511
_cell_length_b   7.49466705
_cell_length_c   9.78126812
_cell_angle_alpha   90.00000000
_cell_angle_beta   90.00000000
_cell_angle_gamma   115.34023285
_symmetry_Int_Tables_number   1
_chemical_formula_structural   KNa3Li2CaCu3SCl9
_chemical_formula_sum   'K1 Na3 Li2 Ca1 Cu3 S1 Cl9'
_cell_volume   491.73331540
_cell_formula_units_Z   1
loop_
 _symmetry_equiv_pos_site_id
 _symmetry_equiv_pos_as_xyz
  1  'x, y, z'
loop_
 _atom_site_type_symbol
 _atom_site_label
 _atom_site_symmetry_multiplicity
 _atom_site_fract_x
 _atom_site_fract_y
 _atom_site_fract_z
 _atom_site_occupancy
  Ca  Ca0  1  0.41768700  0.22413300  0.60169599  1
  Na  Na1  1  0.58231299  0.27586700  0.10169600  1
  K  K2  1  0.58231300  0.77586700  0.39830400  1
  Li  Li3  1  0.41768700  0.72413300  0.89830399  1
  Na  Na4  1  0.06043400  0.12650800  0.28809800  1
  Li  Li5  1  0.93956599  0.37349200  0.78809799  1
  Na  Na6  1  0.93956599  0.87349201  0.71190199  1
  Cu  Cu7  1  0.06043400  0.62650800  0.21190200  1
  Cu  Cu8  1  0.06044100  0.23791400  0.98789399  1
  Cu  Cu9  1  0.93955899  0.26208600  0.48789399  1
  Cl  Cl10  1  0.93955899  0.76208600  0.01210600  1
  Cl  Cl11  1  0.06044101  0.73791400  0.51210599  1
  Cl  Cl12  1  0.20437200  0.03096000  0.88705699  1
  Cl  Cl13  1  0.79562799  0.46904000  0.38705700  1
  Cl  Cl14  1  0.79562800  0.96904001  0.11294300  1
  Cl  Cl15  1  0.20437200  0.53096000  0.61294299  1
  Cl  Cl16  1  0.73774399  0.05506700  0.67887699  1
  S  S17  1  0.26225600  0.44493300  0.17887700  1
  Cl  Cl18  1  0.26225600  0.94493301  0.32112300  1
  Cl  Cl19  1  0.73774399  0.55506700  0.82112299  1
