# generated using pymatgen
data_Li2Cu2SeS5
_symmetry_space_group_name_H-M   'P 1'
_cell_length_a   5.67030239
_cell_length_b   5.67030239
_cell_length_c   5.73464918
_cell_angle_alpha   119.00108337
_cell_angle_beta   119.00108337
_cell_angle_gamma   90.74234009
_symmetry_Int_Tables_number   1
_chemical_formula_structural   Li2Cu2SeS5
_chemical_formula_sum   'Li2 Cu2 Se1 S5'
_cell_volume   133.42308329
_cell_formula_units_Z   1
loop_
 _symmetry_equiv_pos_site_id
 _symmetry_equiv_pos_as_xyz
  1  'x, y, z'
loop_
 _atom_site_type_symbol
 _atom_site_label
 _atom_site_symmetry_multiplicity
 _atom_site_fract_x
 _atom_site_fract_y
 _atom_site_fract_z
 _atom_site_occupancy
  Li  Li0  1  0.75043403  0.75043401  0.49309409  1
  Li  Li1  1  0.24956601  0.24956600  0.50690602  1
  Cu  Cu2  1  0.49999999  0.00000000  0.00000002  1
  Cu  Cu3  1  1.00000002  0.50000000  1.00000007  1
  S  S4  1  0.23120004  0.76880001  0.50000006  1
  S  S5  1  0.67445103  0.67445100  0.96852107  1
  S  S6  1  0.76880000  0.23120000  0.50000005  1
  Se  Se7  1  0.32554901  0.32554900  0.03147904  1
  S  S8  1  0.81089400  0.18910600  1.00000003  1
  S  S9  1  0.18910604  0.81089401  1.00000005  1
