# generated using pymatgen
data_BaCaLaInAgS7
_symmetry_space_group_name_H-M   'P 1'
_cell_length_a   3.99459505
_cell_length_b   8.67747116
_cell_length_c   10.38560295
_cell_angle_alpha   90.00000000
_cell_angle_beta   90.00000000
_cell_angle_gamma   90.00000000
_symmetry_Int_Tables_number   1
_chemical_formula_structural   BaCaLaInAgS7
_chemical_formula_sum   'Ba1 Ca1 La1 In1 Ag1 S7'
_cell_volume   359.99598220
_cell_formula_units_Z   1
loop_
 _symmetry_equiv_pos_site_id
 _symmetry_equiv_pos_as_xyz
  1  'x, y, z'
loop_
 _atom_site_type_symbol
 _atom_site_label
 _atom_site_symmetry_multiplicity
 _atom_site_fract_x
 _atom_site_fract_y
 _atom_site_fract_z
 _atom_site_occupancy
  Ca  Ca0  1  0.25000000  0.10467200  0.86850800  1
  Ba  Ba1  1  0.74999999  0.89532798  0.13149200  1
  In  In2  1  0.74999999  0.39532799  0.36850800  1
  La  La3  1  0.25000000  0.60467199  0.63149200  1
  S  S4  1  0.74999999  0.16072200  0.03739600  1
  Ag  Ag5  1  0.74999999  0.66072199  0.46260400  1
  S  S6  1  0.25000000  0.33927799  0.53739600  1
  S  S7  1  0.25000000  0.83927798  0.96260400  1
  S  S8  1  0.74999999  0.97486598  0.69095900  1
  S  S9  1  0.74999999  0.47486599  0.80904100  1
  S  S10  1  0.25000000  0.52513399  0.19095900  1
  S  S11  1  0.25000000  0.02513400  0.30904100  1
