# generated using pymatgen
data_Li3Al(SiO6)2
_symmetry_space_group_name_H-M   'P 1'
_cell_length_a   5.41549730
_cell_length_b   6.67808867
_cell_length_c   6.67808867
_cell_angle_alpha   85.18921661
_cell_angle_beta   75.79382324
_cell_angle_gamma   75.79382324
_symmetry_Int_Tables_number   1
_chemical_formula_structural   Li3Al(SiO6)2
_chemical_formula_sum   'Li3 Al1 Si2 O12'
_cell_volume   226.89673152
_cell_formula_units_Z   1
loop_
 _symmetry_equiv_pos_site_id
 _symmetry_equiv_pos_as_xyz
  1  'x, y, z'
loop_
 _atom_site_type_symbol
 _atom_site_label
 _atom_site_symmetry_multiplicity
 _atom_site_fract_x
 _atom_site_fract_y
 _atom_site_fract_z
 _atom_site_occupancy
  Li  Li0  1  0.74290597  0.38396400  0.21830998  1
  Li  Li1  1  0.75709394  0.78169000  0.61603600  1
  Al  Al2  1  0.24290598  0.21831000  0.38396400  1
  Li  Li3  1  0.25709395  0.61603600  0.78169001  1
  Si  Si4  1  0.74999993  0.88938000  0.11062001  1
  Si  Si5  1  0.24999999  0.11062000  0.88937999  1
  O  O6  1  0.96706198  0.36357500  0.34859497  1
  O  O7  1  0.53293795  0.65140500  0.63642500  1
  O  O8  1  0.03293795  0.63642500  0.65140503  1
  O  O9  1  0.46706197  0.34859500  0.36357499  1
  O  O10  1  0.69782695  0.60537100  0.09911100  1
  O  O11  1  0.80217293  0.90088900  0.39462901  1
  O  O12  1  0.30217297  0.39462900  0.90088900  1
  O  O13  1  0.19782699  0.09911100  0.60537099  1
  O  O14  1  0.35503800  0.05134700  0.18751898  1
  O  O15  1  0.14496193  0.81248100  0.94865303  1
  O  O16  1  0.85503799  0.18751900  0.05134697  1
  O  O17  1  0.64496192  0.94865300  0.81248101  1
