# generated using pymatgen
data_Li4NbAlO8
_symmetry_space_group_name_H-M   'P 1'
_cell_length_a   5.77816010
_cell_length_b   6.30762672
_cell_length_c   5.77816010
_cell_angle_alpha   62.73996353
_cell_angle_beta   90.00000000
_cell_angle_gamma   117.26003265
_symmetry_Int_Tables_number   1
_chemical_formula_structural   Li4NbAlO8
_chemical_formula_sum   'Li4 Nb1 Al1 O8'
_cell_volume   160.44104111
_cell_formula_units_Z   1
loop_
 _symmetry_equiv_pos_site_id
 _symmetry_equiv_pos_as_xyz
  1  'x, y, z'
loop_
 _atom_site_type_symbol
 _atom_site_label
 _atom_site_symmetry_multiplicity
 _atom_site_fract_x
 _atom_site_fract_y
 _atom_site_fract_z
 _atom_site_occupancy
  Li  Li0  1  0.24999996  0.49999999  0.25000000  1
  Li  Li1  1  0.49999999  0.00000000  0.49999999  1
  Li  Li2  1  0.87499993  0.74999999  0.37500000  1
  Li  Li3  1  0.87499993  0.74999999  0.87500000  1
  Nb  Nb4  1  0.87499997  0.25000000  0.87499999  1
  Al  Al5  1  0.37499997  0.25000000  0.87499999  1
  O  O6  1  0.83576196  0.39585199  0.52741900  1
  O  O7  1  0.52741894  0.60414799  0.56009000  1
  O  O8  1  0.07672895  0.60414799  0.83576199  1
  O  O9  1  0.18990999  0.10414800  0.67327099  1
  O  O10  1  0.67327092  0.89585198  0.91423800  1
  O  O11  1  0.22258093  0.89585198  0.18991001  1
  O  O12  1  0.56008996  0.39585199  0.07672900  1
  O  O13  1  0.91423798  0.10414800  0.22258100  1
