# generated using pymatgen
data_KNaCuSCl3
_symmetry_space_group_name_H-M   'P 1'
_cell_length_a   4.26140690
_cell_length_b   7.10585880
_cell_length_c   7.10585880
_cell_angle_alpha   90.00000000
_cell_angle_beta   90.00000000
_cell_angle_gamma   90.00000000
_symmetry_Int_Tables_number   1
_chemical_formula_structural   KNaCuSCl3
_chemical_formula_sum   'K1 Na1 Cu1 S1 Cl3'
_cell_volume   215.17219577
_cell_formula_units_Z   1
loop_
 _symmetry_equiv_pos_site_id
 _symmetry_equiv_pos_as_xyz
  1  'x, y, z'
loop_
 _atom_site_type_symbol
 _atom_site_label
 _atom_site_symmetry_multiplicity
 _atom_site_fract_x
 _atom_site_fract_y
 _atom_site_fract_z
 _atom_site_occupancy
  K  K0  1  0.50000001  0.50000001  0.00000000  1
  Na  Na1  1  0.50000001  0.00000000  0.50000001  1
  Cu  Cu2  1  0.00000000  0.00000000  0.00000000  1
  Cl  Cl3  1  1.00000002  0.76830402  0.23169601  1
  S  S4  1  1.00000002  0.23169601  0.23169601  1
  Cl  Cl5  1  1.00000002  0.76830402  0.76830402  1
  Cl  Cl6  1  1.00000002  0.23169601  0.76830402  1
