# generated using pymatgen
data_NaCaLu2Cu2SeS5
_symmetry_space_group_name_H-M   'P 1'
_cell_length_a   6.65258408
_cell_length_b   6.70830202
_cell_length_c   6.78729773
_cell_angle_alpha   116.36748505
_cell_angle_beta   90.00000000
_cell_angle_gamma   90.00000000
_symmetry_Int_Tables_number   1
_chemical_formula_structural   NaCaLu2Cu2SeS5
_chemical_formula_sum   'Na1 Ca1 Lu2 Cu2 Se1 S5'
_cell_volume   271.38785696
_cell_formula_units_Z   1
loop_
 _symmetry_equiv_pos_site_id
 _symmetry_equiv_pos_as_xyz
  1  'x, y, z'
loop_
 _atom_site_type_symbol
 _atom_site_label
 _atom_site_symmetry_multiplicity
 _atom_site_fract_x
 _atom_site_fract_y
 _atom_site_fract_z
 _atom_site_occupancy
  Ca  Ca0  1  0.36145600  0.65529799  0.82464699  1
  Na  Na1  1  0.86145599  0.34470199  0.67535299  1
  Lu  Lu2  1  0.63854399  0.34470199  0.17535299  1
  Lu  Lu3  1  0.13854400  0.65529799  0.32464698  1
  S  S4  1  0.63677099  0.84928399  0.62688298  1
  Cu  Cu5  1  0.13677100  0.15071600  0.87311700  1
  S  S6  1  0.36322900  0.15071600  0.37311700  1
  Cu  Cu7  1  0.86322899  0.84928399  0.12688297  1
  Se  Se8  1  0.99947399  0.72849699  0.71270498  1
  S  S9  1  0.49947399  0.27150300  0.78729500  1
  S  S10  1  0.00052600  0.27150300  0.28729499  1
  S  S11  1  0.50052599  0.72849699  0.21270498  1
