# generated using pymatgen
data_KBaSrCaZnBi(PbO5)2
_symmetry_space_group_name_H-M   'P 1'
_cell_length_a   7.74602795
_cell_length_b   7.98180437
_cell_length_c   7.88113213
_cell_angle_alpha   119.58364105
_cell_angle_beta   90.00000000
_cell_angle_gamma   119.02756500
_symmetry_Int_Tables_number   1
_chemical_formula_structural   KBaSrCaZnBi(PbO5)2
_chemical_formula_sum   'K1 Ba1 Sr1 Ca1 Zn1 Bi1 Pb2 O10'
_cell_volume   351.65095686
_cell_formula_units_Z   1
loop_
 _symmetry_equiv_pos_site_id
 _symmetry_equiv_pos_as_xyz
  1  'x, y, z'
loop_
 _atom_site_type_symbol
 _atom_site_label
 _atom_site_symmetry_multiplicity
 _atom_site_fract_x
 _atom_site_fract_y
 _atom_site_fract_z
 _atom_site_occupancy
  K  K0  1  0.87670096  0.75340198  0.12670095  1
  Ba  Ba1  1  0.12329899  0.24659799  0.87329897  1
  Sr  Sr2  1  0.50000000  0.00000000  0.00000000  1
  Zn  Zn3  1  0.50000000  0.00000000  0.49999999  1
  Ca  Ca4  1  0.99999998  0.49999998  0.49999996  1
  Pb  Pb5  1  0.49999998  0.49999998  0.49999996  1
  Pb  Pb6  1  0.45031795  0.90063597  0.20031794  1
  Bi  Bi7  1  0.81286197  0.62572398  0.56286195  1
  O  O8  1  0.42638999  0.23370099  0.57935598  1
  O  O9  1  0.80731199  0.23370199  0.15434498  1
  O  O10  1  0.80731199  0.23370199  0.57935698  1
  O  O11  1  0.42638999  0.23370099  0.15434398  1
  O  O12  1  0.54968200  0.09936400  0.79968198  1
  O  O13  1  0.18713798  0.37427599  0.43713797  1
  O  O14  1  0.57360996  0.76629898  0.42064395  1
  O  O15  1  0.19268796  0.76629798  0.84565494  1
  O  O16  1  0.19268796  0.76629798  0.42064295  1
  O  O17  1  0.57360996  0.76629898  0.84565594  1
