# generated using pymatgen
data_Sr5Ca5InAsP3HSe2
_symmetry_space_group_name_H-M   'P 1'
_cell_length_a   4.34948015
_cell_length_b   9.38040829
_cell_length_c   12.00146484
_cell_angle_alpha   107.98476410
_cell_angle_beta   90.00000000
_cell_angle_gamma   103.40533447
_symmetry_Int_Tables_number   1
_chemical_formula_structural   Sr5Ca5InAsP3HSe2
_chemical_formula_sum   'Sr5 Ca5 In1 As1 P3 H1 Se2'
_cell_volume   451.68598119
_cell_formula_units_Z   1
loop_
 _symmetry_equiv_pos_site_id
 _symmetry_equiv_pos_as_xyz
  1  'x, y, z'
loop_
 _atom_site_type_symbol
 _atom_site_label
 _atom_site_symmetry_multiplicity
 _atom_site_fract_x
 _atom_site_fract_y
 _atom_site_fract_z
 _atom_site_occupancy
  Ca  Ca0  1  0.18911594  0.37823197  0.84324899  1
  Sr  Sr1  1  0.81088388  0.62176796  0.15675098  1
  Sr  Sr2  1  0.33208589  0.66417195  0.65923198  1
  Ca  Ca3  1  0.66791393  0.33582798  0.34076799  1
  Sr  Sr4  1  0.41076387  0.82152794  0.99146798  1
  Sr  Sr5  1  0.58923595  0.17847199  0.00853199  1
  In  In6  1  0.01084000  0.02168000  0.37514300  1
  Sr  Sr7  1  0.98915982  0.97831993  0.62485697  1
  Ca  Ca8  1  0.01799299  0.03598600  0.13227400  1
  Ca  Ca9  1  0.98200683  0.96401393  0.86772597  1
  As  As10  1  0.41166087  0.82332194  0.41244397  1
  Ca  Ca11  1  0.58833895  0.17667799  0.58755600  1
  Se  Se12  1  0.46614585  0.93229194  0.22523896  1
  P  P13  1  0.53385397  0.06770800  0.77476101  1
  P  P14  1  0.13813696  0.27627398  0.54008799  1
  Se  Se15  1  0.86186287  0.72372595  0.45991197  1
  P  P16  1  0.15174095  0.30348198  0.10705299  1
  H  H17  1  0.84825887  0.69651795  0.89294698  1
