# generated using pymatgen
data_CaTiO3
_symmetry_space_group_name_H-M   'P 1'
_cell_length_a   5.57451820
_cell_length_b   5.75188732
_cell_length_c   7.95891714
_cell_angle_alpha   90.00000000
_cell_angle_beta   90.00000000
_cell_angle_gamma   89.62921143
_symmetry_Int_Tables_number   1
_chemical_formula_structural   CaTiO3
_chemical_formula_sum   'Ca4 Ti4 O12'
_cell_volume   255.18938005
_cell_formula_units_Z   4
loop_
 _symmetry_equiv_pos_site_id
 _symmetry_equiv_pos_as_xyz
  1  'x, y, z'
loop_
 _atom_site_type_symbol
 _atom_site_label
 _atom_site_symmetry_multiplicity
 _atom_site_fract_x
 _atom_site_fract_y
 _atom_site_fract_z
 _atom_site_occupancy
  Ca  Ca0  1  0.99019896  0.04381500  0.74999999  1
  Ca  Ca1  1  0.50958698  0.56209201  0.74999999  1
  Ca  Ca2  1  0.49041298  0.43790801  0.25000000  1
  Ca  Ca3  1  0.00980100  0.95618502  0.25000000  1
  Ti  Ti4  1  0.00000000  0.50000001  -0.00000000  1
  Ti  Ti5  1  0.00000000  0.50000001  0.49999999  1
  Ti  Ti6  1  0.49999998  0.00000000  0.00000000  1
  Ti  Ti7  1  0.49999999  1.00000002  0.49999999  1
  O  O8  1  0.18682999  0.21418500  0.44763999  1
  O  O9  1  0.71034598  0.31172301  0.54969599  1
  O  O10  1  0.81316997  0.78581502  0.55235999  1
  O  O11  1  0.28965399  0.68827701  0.04969600  1
  O  O12  1  0.90694797  0.53313501  0.25000000  1
  O  O13  1  0.28965399  0.68827701  0.45030399  1
  O  O14  1  0.71034598  0.31172301  0.95030398  1
  O  O15  1  0.18682999  0.21418500  0.05236000  1
  O  O16  1  0.38203599  0.95165902  0.74999999  1
  O  O17  1  0.81316997  0.78581502  0.94763998  1
  O  O18  1  0.61796398  0.04834100  0.25000000  1
  O  O19  1  0.09305200  0.46686501  0.74999999  1
