# generated using pymatgen
data_Na3CaS4
_symmetry_space_group_name_H-M   'P 1'
_cell_length_a   5.73950386
_cell_length_b   5.73950386
_cell_length_c   7.14858627
_cell_angle_alpha   113.66843414
_cell_angle_beta   113.66843414
_cell_angle_gamma   90.00000000
_symmetry_Int_Tables_number   1
_chemical_formula_structural   Na3CaS4
_chemical_formula_sum   'Na3 Ca1 S4'
_cell_volume   193.85782101
_cell_formula_units_Z   1
loop_
 _symmetry_equiv_pos_site_id
 _symmetry_equiv_pos_as_xyz
  1  'x, y, z'
loop_
 _atom_site_type_symbol
 _atom_site_label
 _atom_site_symmetry_multiplicity
 _atom_site_fract_x
 _atom_site_fract_y
 _atom_site_fract_z
 _atom_site_occupancy
  Ca  Ca0  1  0.24999996  0.74999999  0.49999992  1
  Na  Na1  1  0.49999997  0.49999999  -0.00000006  1
  Na  Na2  1  0.00000000  0.00000000  0.00000000  1
  Na  Na3  1  0.74999999  0.25000000  0.49999993  1
  S  S4  1  0.75341496  0.75341499  0.50682990  1
  S  S5  1  0.99658497  0.49658499  0.99316989  1
  S  S6  1  0.50341500  0.00341500  0.00682998  1
  S  S7  1  0.24658499  0.24658500  0.49316996  1
