# generated using pymatgen
data_LiAlCuTe(AsP)2
_symmetry_space_group_name_H-M   'P 1'
_cell_length_a   6.87927341
_cell_length_b   6.87927341
_cell_length_c   7.83967638
_cell_angle_alpha   99.11029816
_cell_angle_beta   99.11029816
_cell_angle_gamma   119.77133942
_symmetry_Int_Tables_number   1
_chemical_formula_structural   LiAlCuTe(AsP)2
_chemical_formula_sum   'Li1 Al1 Cu1 Te1 As2 P2'
_cell_volume   305.58343147
_cell_formula_units_Z   1
loop_
 _symmetry_equiv_pos_site_id
 _symmetry_equiv_pos_as_xyz
  1  'x, y, z'
loop_
 _atom_site_type_symbol
 _atom_site_label
 _atom_site_symmetry_multiplicity
 _atom_site_fract_x
 _atom_site_fract_y
 _atom_site_fract_z
 _atom_site_occupancy
  Cu  Cu0  1  0.54637901  0.54637900  0.65907097  1
  Li  Li1  1  0.45362101  0.45362100  0.34092898  1
  Te  Te2  1  0.26500100  0.26500100  0.73953697  1
  Al  Al3  1  0.73499901  0.73499900  0.26046297  1
  As  As4  1  0.88273401  0.57741500  0.76585096  1
  As  As5  1  0.57741502  0.88273400  0.76585096  1
  P  P6  1  0.11726601  0.42258500  0.23414899  1
  P  P7  1  0.42258500  0.11726600  0.23414899  1
