# generated using pymatgen
data_Na3LaAgS8
_symmetry_space_group_name_H-M   'P 1'
_cell_length_a   6.89475727
_cell_length_b   6.89475727
_cell_length_c   7.51671791
_cell_angle_alpha   99.02275085
_cell_angle_beta   99.02275085
_cell_angle_gamma   119.64125061
_symmetry_Int_Tables_number   1
_chemical_formula_structural   Na3LaAgS8
_chemical_formula_sum   'Na3 La1 Ag1 S8'
_cell_volume   295.06803020
_cell_formula_units_Z   1
loop_
 _symmetry_equiv_pos_site_id
 _symmetry_equiv_pos_as_xyz
  1  'x, y, z'
loop_
 _atom_site_type_symbol
 _atom_site_label
 _atom_site_symmetry_multiplicity
 _atom_site_fract_x
 _atom_site_fract_y
 _atom_site_fract_z
 _atom_site_occupancy
  Na  Na0  1  0.49999999  0.49999999  0.50000001  1
  La  La1  1  0.17526099  0.82473899  0.50000001  1
  Na  Na2  1  0.82473899  0.17526100  0.50000001  1
  Na  Na3  1  0.66534999  0.33465000  1.00000001  1
  Ag  Ag4  1  0.33464999  0.66534999  1.00000001  1
  S  S5  1  0.22226800  0.22226800  0.75802500  1
  S  S6  1  0.77773199  0.77773199  0.24197503  1
  S  S7  1  0.92117299  0.61540799  0.76024702  1
  S  S8  1  0.38459199  0.07882700  0.23975301  1
  S  S9  1  0.07882700  0.38459199  0.23975301  1
  S  S10  1  0.61540799  0.92117299  0.76024702  1
  S  S11  1  0.94758098  0.94758099  0.83652403  1
  S  S12  1  0.05241900  0.05241900  0.16347600  1
