# generated using pymatgen
data_K2RbTlCuAgCl6
_symmetry_space_group_name_H-M   'P 1'
_cell_length_a   6.56379890
_cell_length_b   6.56379890
_cell_length_c   6.56379890
_cell_angle_alpha   90.00000000
_cell_angle_beta   90.00000000
_cell_angle_gamma   90.00000000
_symmetry_Int_Tables_number   1
_chemical_formula_structural   K2RbTlCuAgCl6
_chemical_formula_sum   'K2 Rb1 Tl1 Cu1 Ag1 Cl6'
_cell_volume   282.79114167
_cell_formula_units_Z   1
loop_
 _symmetry_equiv_pos_site_id
 _symmetry_equiv_pos_as_xyz
  1  'x, y, z'
loop_
 _atom_site_type_symbol
 _atom_site_label
 _atom_site_symmetry_multiplicity
 _atom_site_fract_x
 _atom_site_fract_y
 _atom_site_fract_z
 _atom_site_occupancy
  K  K0  1  0.62500001  0.37500001  0.87500001  1
  K  K1  1  0.37500001  0.87500001  0.62500001  1
  Rb  Rb2  1  0.87500001  0.62500001  0.37500001  1
  Tl  Tl3  1  0.12500000  0.12500000  0.12500000  1
  Ag  Ag4  1  0.82790701  0.82790701  0.82790701  1
  Cu  Cu5  1  0.57790701  0.92209301  0.07790700  1
  Cl  Cl6  1  0.92209301  0.07790700  0.57790701  1
  Cl  Cl7  1  0.07790700  0.57790701  0.92209301  1
  Cl  Cl8  1  0.42209301  0.42209301  0.42209301  1
  Cl  Cl9  1  0.17209300  0.32790700  0.67209301  1
  Cl  Cl10  1  0.67209301  0.17209300  0.32790700  1
  Cl  Cl11  1  0.32790700  0.67209301  0.17209300  1
