# generated using pymatgen
data_K2RbBaSrCa3IBr11
_symmetry_space_group_name_H-M   'P 1'
_cell_length_a   8.37036610
_cell_length_b   8.42533493
_cell_length_c   12.01129532
_cell_angle_alpha   90.00000000
_cell_angle_beta   90.00000000
_cell_angle_gamma   90.00000000
_symmetry_Int_Tables_number   1
_chemical_formula_structural   K2RbBaSrCa3IBr11
_chemical_formula_sum   'K2 Rb1 Ba1 Sr1 Ca3 I1 Br11'
_cell_volume   847.07423555
_cell_formula_units_Z   1
loop_
 _symmetry_equiv_pos_site_id
 _symmetry_equiv_pos_as_xyz
  1  'x, y, z'
loop_
 _atom_site_type_symbol
 _atom_site_label
 _atom_site_symmetry_multiplicity
 _atom_site_fract_x
 _atom_site_fract_y
 _atom_site_fract_z
 _atom_site_occupancy
  Ba  Ba0  1  0.50831299  0.46818500  0.24999999  1
  K  K1  1  0.00831300  0.03181500  0.74999998  1
  Rb  Rb2  1  0.99168699  0.96818501  0.24999999  1
  K  K3  1  0.49168699  0.53181500  0.74999998  1
  Ca  Ca4  1  0.49999999  0.00000000  0.49999999  1
  Sr  Sr5  1  -0.00000000  0.50000000  0.00000000  1
  Ca  Ca6  1  -0.00000000  0.50000000  0.49999999  1
  Ca  Ca7  1  0.49999999  0.00000000  0.00000000  1
  I  I8  1  0.54824499  0.99370801  0.74999998  1
  Br  Br9  1  0.04824500  0.50629200  0.24999999  1
  Br  Br10  1  0.79480799  0.20538600  0.02568800  1
  Br  Br11  1  0.20519200  0.79461401  0.97431197  1
  Br  Br12  1  0.29480800  0.29461400  0.97431197  1
  Br  Br13  1  0.70519199  0.70538601  0.02568800  1
  Br  Br14  1  0.29480800  0.29461400  0.52568799  1
  Br  Br15  1  0.70519199  0.70538601  0.47431199  1
  Br  Br16  1  0.20519200  0.79461401  0.52568799  1
  Br  Br17  1  0.79480799  0.20538600  0.47431199  1
  Br  Br18  1  0.95175499  0.49370800  0.74999998  1
  Br  Br19  1  0.45175499  0.00629200  0.24999999  1
