# generated using pymatgen
data_KBaNaYbCl6
_symmetry_space_group_name_H-M   'P 1'
_cell_length_a   4.38299608
_cell_length_b   7.59186506
_cell_length_c   10.46048832
_cell_angle_alpha   96.70679474
_cell_angle_beta   102.09320068
_cell_angle_gamma   90.00000000
_symmetry_Int_Tables_number   1
_chemical_formula_structural   KBaNaYbCl6
_chemical_formula_sum   'K1 Ba1 Na1 Yb1 Cl6'
_cell_volume   337.91314741
_cell_formula_units_Z   1
loop_
 _symmetry_equiv_pos_site_id
 _symmetry_equiv_pos_as_xyz
  1  'x, y, z'
loop_
 _atom_site_type_symbol
 _atom_site_label
 _atom_site_symmetry_multiplicity
 _atom_site_fract_x
 _atom_site_fract_y
 _atom_site_fract_z
 _atom_site_occupancy
  Yb  Yb0  1  0.59785599  0.20012100  0.19571200  1
  K  K1  1  0.09964199  0.69840301  0.19928396  1
  Ba  Ba2  1  0.90153699  0.30048000  0.80307398  1
  Na  Na3  1  0.40007599  0.80024701  0.80015194  1
  Cl  Cl4  1  0.49890899  0.50252501  0.99781795  1
  Cl  Cl5  1  0.99795098  0.99663201  0.99590194  1
  Cl  Cl6  1  0.18492099  0.40211500  0.36984197  1
  Cl  Cl7  1  0.68387299  0.88646501  0.36774596  1
  Cl  Cl8  1  0.31722100  0.10687200  0.63444198  1
  Cl  Cl9  1  0.81801599  0.60614001  0.63603197  1
