# generated using pymatgen
data_Li5OF4
_symmetry_space_group_name_H-M   'P 1'
_cell_length_a   3.21436691
_cell_length_b   4.93147421
_cell_length_c   8.97430325
_cell_angle_alpha   90.00000000
_cell_angle_beta   90.00000000
_cell_angle_gamma   90.00000000
_symmetry_Int_Tables_number   1
_chemical_formula_structural   Li5OF4
_chemical_formula_sum   'Li5 O1 F4'
_cell_volume   142.25677392
_cell_formula_units_Z   1
loop_
 _symmetry_equiv_pos_site_id
 _symmetry_equiv_pos_as_xyz
  1  'x, y, z'
loop_
 _atom_site_type_symbol
 _atom_site_label
 _atom_site_symmetry_multiplicity
 _atom_site_fract_x
 _atom_site_fract_y
 _atom_site_fract_z
 _atom_site_occupancy
  Li  Li0  1  -0.00000000  0.49999998  0.00000000  1
  Li  Li1  1  -0.00000000  0.49999998  0.49999999  1
  Li  Li2  1  0.50000001  0.10584900  0.24999999  1
  Li  Li3  1  0.50000001  0.89415096  0.74999998  1
  Li  Li4  1  -0.00000000  0.07675300  0.74999998  1
  F  F5  1  0.50000001  0.31732099  0.40776999  1
  O  O6  1  0.50000001  0.31732099  0.09223000  1
  F  F7  1  0.50000001  0.68267897  0.59222998  1
  F  F8  1  0.50000001  0.68267897  0.90776998  1
  F  F9  1  -0.00000000  0.92324696  0.24999999  1
