# generated using pymatgen
data_Li4ZnCu2AgS6
_symmetry_space_group_name_H-M   'P 1'
_cell_length_a   6.65040588
_cell_length_b   6.65040588
_cell_length_c   7.36659384
_cell_angle_alpha   63.16713715
_cell_angle_beta   63.16713715
_cell_angle_gamma   60.00000000
_symmetry_Int_Tables_number   1
_chemical_formula_structural   Li4ZnCu2AgS6
_chemical_formula_sum   'Li4 Zn1 Cu2 Ag1 S6'
_cell_volume   240.80072796
_cell_formula_units_Z   1
loop_
 _symmetry_equiv_pos_site_id
 _symmetry_equiv_pos_as_xyz
  1  'x, y, z'
loop_
 _atom_site_type_symbol
 _atom_site_label
 _atom_site_symmetry_multiplicity
 _atom_site_fract_x
 _atom_site_fract_y
 _atom_site_fract_z
 _atom_site_occupancy
  Li  Li0  1  0.83342298  0.83342301  0.49973105  1
  Li  Li1  1  0.16657700  0.16657700  0.50026900  1
  Zn  Zn2  1  0.95961899  0.28748200  0.12939504  1
  Ag  Ag3  1  0.28748198  0.62350401  0.12939503  1
  Li  Li4  1  0.62350398  0.95961901  0.12939505  1
  Li  Li5  1  0.37649600  0.04038100  0.87060500  1
  Cu  Cu6  1  0.71251799  0.37649600  0.87060502  1
  Cu  Cu7  1  0.04038098  0.71251801  0.87060502  1
  S  S8  1  0.75136300  0.08354200  0.74643302  1
  S  S9  1  0.41866198  0.75136301  0.74643303  1
  S  S10  1  0.08354199  0.41866200  0.74643301  1
  S  S11  1  0.91645798  0.58133801  0.25356705  1
  S  S12  1  0.58133799  0.24863700  0.25356702  1
  S  S13  1  0.24863698  0.91645801  0.25356704  1
