# generated using pymatgen
data_KBaTlCu4PbS10
_symmetry_space_group_name_H-M   'P 1'
_cell_length_a   5.63214779
_cell_length_b   5.63214779
_cell_length_c   13.38336086
_cell_angle_alpha   90.00000000
_cell_angle_beta   90.00000000
_cell_angle_gamma   90.00000000
_symmetry_Int_Tables_number   1
_chemical_formula_structural   KBaTlCu4PbS10
_chemical_formula_sum   'K1 Ba1 Tl1 Cu4 Pb1 S10'
_cell_volume   424.53477726
_cell_formula_units_Z   1
loop_
 _symmetry_equiv_pos_site_id
 _symmetry_equiv_pos_as_xyz
  1  'x, y, z'
loop_
 _atom_site_type_symbol
 _atom_site_label
 _atom_site_symmetry_multiplicity
 _atom_site_fract_x
 _atom_site_fract_y
 _atom_site_fract_z
 _atom_site_occupancy
  K  K0  1  0.75973503  0.75973503  0.00000000  1
  Ba  Ba1  1  0.24026501  0.75973503  0.50000001  1
  Pb  Pb2  1  0.75973503  0.24026501  0.50000001  1
  Tl  Tl3  1  0.24026501  0.24026501  0.00000000  1
  Cu  Cu4  1  0.50000002  0.50000002  0.75000001  1
  Cu  Cu5  1  0.50000002  0.50000002  0.25000000  1
  Cu  Cu6  1  -0.00000000  0.50000002  0.75000001  1
  Cu  Cu7  1  0.50000002  0.00000000  0.75000001  1
  S  S8  1  -0.00000000  0.50000002  0.25000000  1
  S  S9  1  0.50000002  0.00000000  0.25000000  1
  S  S10  1  0.73800503  0.73800503  0.65452301  1
  S  S11  1  0.26199501  0.26199501  0.65452301  1
  S  S12  1  0.73800503  0.73800503  0.34547700  1
  S  S13  1  0.73800503  0.26199501  0.15452300  1
  S  S14  1  0.26199501  0.73800503  0.84547701  1
  S  S15  1  0.26199501  0.26199501  0.34547700  1
  S  S16  1  0.26199501  0.73800503  0.15452300  1
  S  S17  1  0.73800503  0.26199501  0.84547701  1
