# generated using pymatgen
data_CaNdIn4(SeS3)2
_symmetry_space_group_name_H-M   'P 1'
_cell_length_a   7.98592329
_cell_length_b   7.98592329
_cell_length_c   7.98592329
_cell_angle_alpha   109.47122192
_cell_angle_beta   109.47122192
_cell_angle_gamma   109.47122192
_symmetry_Int_Tables_number   1
_chemical_formula_structural   CaNdIn4(SeS3)2
_chemical_formula_sum   'Ca1 Nd1 In4 Se2 S6'
_cell_volume   392.06086264
_cell_formula_units_Z   1
loop_
 _symmetry_equiv_pos_site_id
 _symmetry_equiv_pos_as_xyz
  1  'x, y, z'
loop_
 _atom_site_type_symbol
 _atom_site_label
 _atom_site_symmetry_multiplicity
 _atom_site_fract_x
 _atom_site_fract_y
 _atom_site_fract_z
 _atom_site_occupancy
  Ca  Ca0  1  0.80267402  0.05267400  0.75000003  1
  Nd  Nd1  1  0.44732606  0.75000004  0.19732605  1
  In  In2  1  0.75000006  0.69732603  0.94732606  1
  In  In3  1  0.05267402  0.25000001  0.30267402  1
  In  In4  1  0.25000006  0.80267404  0.55267406  1
  In  In5  1  0.69732604  0.44732602  0.25000004  1
  S  S6  1  0.50000001  0.02414800  0.50000002  1
  S  S7  1  0.02414806  1.00000005  1.00000007  1
  Se  Se8  1  1.00000005  0.50000002  0.52414806  1
  Se  Se9  1  0.47585204  0.47585202  0.97585205  1
  S  S10  1  0.50000004  0.51094802  0.50000004  1
  S  S11  1  0.51094807  1.00000005  1.00000008  1
  S  S12  1  0.98905208  0.98905205  0.48905208  1
  S  S13  1  1.00000005  0.50000002  0.01094805  1
