# generated using pymatgen
data_KRbTlAgCl7O
_symmetry_space_group_name_H-M   'P 1'
_cell_length_a   6.21488190
_cell_length_b   6.98609781
_cell_length_c   8.37418175
_cell_angle_alpha   114.65296936
_cell_angle_beta   111.78186798
_cell_angle_gamma   90.00000000
_symmetry_Int_Tables_number   1
_chemical_formula_structural   KRbTlAgCl7O
_chemical_formula_sum   'K1 Rb1 Tl1 Ag1 Cl7 O1'
_cell_volume   301.64992943
_cell_formula_units_Z   1
loop_
 _symmetry_equiv_pos_site_id
 _symmetry_equiv_pos_as_xyz
  1  'x, y, z'
loop_
 _atom_site_type_symbol
 _atom_site_label
 _atom_site_symmetry_multiplicity
 _atom_site_fract_x
 _atom_site_fract_y
 _atom_site_fract_z
 _atom_site_occupancy
  K  K0  1  0.40650401  0.08278200  0.81300800  1
  Rb  Rb1  1  0.59349599  0.91721801  0.18699197  1
  Tl  Tl2  1  0.09349600  0.26977400  0.18699199  1
  Ag  Ag3  1  0.90650400  0.73022600  0.81300798  1
  Cl  Cl4  1  0.24999999  1.00000001  -0.00000004  1
  O  O5  1  0.74999999  1.00000001  0.99999997  1
  Cl  Cl6  1  0.24999999  0.50000000  -0.00000002  1
  Cl  Cl7  1  0.75000000  0.50000000  -0.00000002  1
  Cl  Cl8  1  0.19829300  0.01191600  0.39658600  1
  Cl  Cl9  1  0.80170700  0.98808401  0.60341397  1
  Cl  Cl10  1  0.30170699  0.61533000  0.60341398  1
  Cl  Cl11  1  0.69829301  0.38467000  0.39658599  1
