# generated using pymatgen
data_Na3LiAsO9
_symmetry_space_group_name_H-M   'P 1'
_cell_length_a   6.48922729
_cell_length_b   6.48922729
_cell_length_c   6.48922729
_cell_angle_alpha   109.47122192
_cell_angle_beta   109.47122192
_cell_angle_gamma   109.47122192
_symmetry_Int_Tables_number   1
_chemical_formula_structural   Na3LiAsO9
_chemical_formula_sum   'Na3 Li1 As1 O9'
_cell_volume   210.35703813
_cell_formula_units_Z   1
loop_
 _symmetry_equiv_pos_site_id
 _symmetry_equiv_pos_as_xyz
  1  'x, y, z'
loop_
 _atom_site_type_symbol
 _atom_site_label
 _atom_site_symmetry_multiplicity
 _atom_site_fract_x
 _atom_site_fract_y
 _atom_site_fract_z
 _atom_site_occupancy
  Li  Li0  1  0.00000000  0.00000000  0.49999998  1
  Na  Na1  1  0.50000002  0.50000000  0.50000002  1
  Na  Na2  1  0.49999999  0.00000000  0.00000001  1
  Na  Na3  1  0.00000003  0.50000000  0.00000003  1
  As  As4  1  0.00000000  0.00000000  0.00000000  1
  O  O5  1  0.00000003  0.50000000  0.50000001  1
  O  O6  1  0.49999999  0.00000000  0.50000000  1
  O  O7  1  0.50000002  0.50000000  0.00000004  1
  O  O8  1  0.31977999  0.00000000  0.31978000  1
  O  O9  1  0.00000002  0.31978000  0.31978001  1
  O  O10  1  0.68022005  1.00000001  0.68022005  1
  O  O11  1  0.68022003  0.68022000  1.00000002  1
  O  O12  1  0.31978001  0.31978000  0.99999999  1
  O  O13  1  0.00000004  0.68022000  0.68022002  1
