# generated using pymatgen
data_BeB5H3N
_symmetry_space_group_name_H-M   'P 1'
_cell_length_a   4.50547791
_cell_length_b   4.50547791
_cell_length_c   5.31443596
_cell_angle_alpha   64.91954041
_cell_angle_beta   64.91954041
_cell_angle_gamma   60.00000381
_symmetry_Int_Tables_number   1
_chemical_formula_structural   BeB5H3N
_chemical_formula_sum   'Be1 B5 H3 N1'
_cell_volume   81.46986577
_cell_formula_units_Z   1
loop_
 _symmetry_equiv_pos_site_id
 _symmetry_equiv_pos_as_xyz
  1  'x, y, z'
loop_
 _atom_site_type_symbol
 _atom_site_label
 _atom_site_symmetry_multiplicity
 _atom_site_fract_x
 _atom_site_fract_y
 _atom_site_fract_z
 _atom_site_occupancy
  Be  Be0  1  0.50000003  0.49999999  0.49999993  1
  B  B1  1  0.00000000  0.00000000  0.00000000  1
  B  B2  1  0.75000004  0.74999998  0.74999990  1
  B  B3  1  0.25000001  0.24999999  0.24999997  1
  B  B4  1  0.75000000  0.05790400  0.74999995  1
  H  H5  1  0.44209604  0.74999998  0.74999992  1
  H  H6  1  0.94209603  0.55790399  0.24999990  1
  B  B7  1  0.25000005  0.94209598  0.24999992  1
  H  H8  1  0.55790401  0.24999999  0.24999995  1
  N  N9  1  0.05790402  0.44209599  0.74999996  1
