# generated using pymatgen
data_RbAlSiPO8
_symmetry_space_group_name_H-M   'P 1'
_cell_length_a   4.94203997
_cell_length_b   4.94203997
_cell_length_c   8.42441273
_cell_angle_alpha   90.00000000
_cell_angle_beta   90.00000000
_cell_angle_gamma   120.00000000
_symmetry_Int_Tables_number   1
_chemical_formula_structural   RbAlSiPO8
_chemical_formula_sum   'Rb1 Al1 Si1 P1 O8'
_cell_volume   178.18977267
_cell_formula_units_Z   1
loop_
 _symmetry_equiv_pos_site_id
 _symmetry_equiv_pos_as_xyz
  1  'x, y, z'
loop_
 _atom_site_type_symbol
 _atom_site_label
 _atom_site_symmetry_multiplicity
 _atom_site_fract_x
 _atom_site_fract_y
 _atom_site_fract_z
 _atom_site_occupancy
  Rb  Rb0  1  0.00000000  0.00000000  0.50000002  1
  Al  Al1  1  0.00000000  0.00000000  0.00000000  1
  Si  Si2  1  0.33333332  0.66666664  0.19851801  1
  P  P3  1  0.66666666  0.33333332  0.80148203  1
  O  O4  1  0.12123599  0.34462599  0.13931400  1
  O  O5  1  0.65537499  0.77661097  0.13931400  1
  O  O6  1  0.34462500  0.12123500  0.86068603  1
  O  O7  1  0.22338998  0.87876497  0.13931400  1
  O  O8  1  0.77660999  0.65537398  0.86068603  1
  O  O9  1  0.87876400  0.22338899  0.86068603  1
  O  O10  1  0.33333332  0.66666664  0.37161301  1
  O  O11  1  0.66666666  0.33333332  0.62838702  1
