# generated using pymatgen
data_LiCaAl2PO9
_symmetry_space_group_name_H-M   'P 1'
_cell_length_a   6.00234222
_cell_length_b   6.45798588
_cell_length_c   7.07717800
_cell_angle_alpha   78.63423157
_cell_angle_beta   64.90861511
_cell_angle_gamma   62.30773926
_symmetry_Int_Tables_number   1
_chemical_formula_structural   LiCaAl2PO9
_chemical_formula_sum   'Li1 Ca1 Al2 P1 O9'
_cell_volume   219.98708328
_cell_formula_units_Z   1
loop_
 _symmetry_equiv_pos_site_id
 _symmetry_equiv_pos_as_xyz
  1  'x, y, z'
loop_
 _atom_site_type_symbol
 _atom_site_label
 _atom_site_symmetry_multiplicity
 _atom_site_fract_x
 _atom_site_fract_y
 _atom_site_fract_z
 _atom_site_occupancy
  Li  Li0  1  0.19839197  0.60321600  0.00000004  1
  Al  Al1  1  0.80160796  0.39678400  0.00000001  1
  Ca  Ca2  1  0.55160795  0.89678401  0.50000005  1
  Al  Al3  1  0.94839197  0.10321600  0.49999999  1
  O  O4  1  0.49999999  0.00000000  -0.00000001  1
  P  P5  1  0.24999997  0.50000000  0.50000003  1
  O  O6  1  0.67145495  0.82280100  0.15042105  1
  O  O7  1  0.64467598  0.17720000  0.84958000  1
  O  O8  1  0.50574296  0.82280100  0.84958005  1
  O  O9  1  0.17812299  0.17720000  0.15042101  1
  O  O10  1  0.07854497  0.67719900  0.34957905  1
  O  O11  1  0.10532398  0.32280000  0.65042002  1
  O  O12  1  0.57187697  0.32280000  0.34957901  1
  O  O13  1  0.24425697  0.67719900  0.65042005  1
