# generated using pymatgen
data_K4Ba3Pb2O9
_symmetry_space_group_name_H-M   'P 1'
_cell_length_a   6.81611967
_cell_length_b   6.91072798
_cell_length_c   9.68902111
_cell_angle_alpha   72.37854004
_cell_angle_beta   80.35183716
_cell_angle_gamma   66.14121246
_symmetry_Int_Tables_number   1
_chemical_formula_structural   K4Ba3Pb2O9
_chemical_formula_sum   'K4 Ba3 Pb2 O9'
_cell_volume   397.27459010
_cell_formula_units_Z   1
loop_
 _symmetry_equiv_pos_site_id
 _symmetry_equiv_pos_as_xyz
  1  'x, y, z'
loop_
 _atom_site_type_symbol
 _atom_site_label
 _atom_site_symmetry_multiplicity
 _atom_site_fract_x
 _atom_site_fract_y
 _atom_site_fract_z
 _atom_site_occupancy
  Ba  Ba0  1  0.77875195  0.57565000  0.15282102  1
  Ba  Ba1  1  0.22124797  0.42435000  0.84717896  1
  K  K2  1  0.73822297  0.22557600  0.96423499  1
  Ba  Ba3  1  0.26177695  0.77442400  0.03576500  1
  K  K4  1  0.71564495  0.50319900  0.56292800  1
  K  K5  1  0.28435497  0.49680100  0.43707199  1
  K  K6  1  0.21680594  0.96830300  0.61961997  1
  Pb  Pb7  1  0.78319398  0.03169700  0.38038002  1
  Pb  Pb8  1  0.73477993  0.83993800  0.75519799  1
  O  O9  1  0.26521998  0.16006200  0.24480200  1
  O  O10  1  0.95617994  0.69139800  0.62242400  1
  O  O11  1  0.04381998  0.30860200  0.37757598  1
  O  O12  1  0.90862693  0.81357800  0.91081599  1
  O  O13  1  0.09137299  0.18642200  0.08918400  1
  O  O14  1  0.54838595  0.67063000  0.81700398  1
  O  O15  1  0.45161397  0.32937000  0.18299601  1
  O  O16  1  0.43068794  0.86004600  0.35959999  1
  O  O17  1  0.56931198  0.13995400  0.64039999  1
