# generated using pymatgen
data_CsNaInPbO4
_symmetry_space_group_name_H-M   'P 1'
_cell_length_a   6.03461742
_cell_length_b   6.03461742
_cell_length_c   6.03461742
_cell_angle_alpha   60.00000000
_cell_angle_beta   60.00000000
_cell_angle_gamma   60.00000000
_symmetry_Int_Tables_number   1
_chemical_formula_structural   CsNaInPbO4
_chemical_formula_sum   'Cs1 Na1 In1 Pb1 O4'
_cell_volume   155.39399403
_cell_formula_units_Z   1
loop_
 _symmetry_equiv_pos_site_id
 _symmetry_equiv_pos_as_xyz
  1  'x, y, z'
loop_
 _atom_site_type_symbol
 _atom_site_label
 _atom_site_symmetry_multiplicity
 _atom_site_fract_x
 _atom_site_fract_y
 _atom_site_fract_z
 _atom_site_occupancy
  Cs  Cs0  1  0.00000000  0.00000000  0.00000000  1
  In  In1  1  0.50000001  0.50000001  0.50000001  1
  Pb  Pb2  1  0.73418402  0.73418402  0.26581601  1
  Na  Na3  1  0.73418402  0.26581601  0.26581601  1
  O  O4  1  0.26581601  0.26581601  0.73418402  1
  O  O5  1  0.73418402  0.26581601  0.73418402  1
  O  O6  1  0.26581601  0.73418402  0.26581601  1
  O  O7  1  0.26581601  0.73418402  0.73418402  1
