# generated using pymatgen
data_Li3B(HO2)4
_symmetry_space_group_name_H-M   'P 1'
_cell_length_a   2.88689995
_cell_length_b   4.91473389
_cell_length_c   8.50643063
_cell_angle_alpha   90.00000000
_cell_angle_beta   90.00000000
_cell_angle_gamma   90.00000000
_symmetry_Int_Tables_number   1
_chemical_formula_structural   Li3B(HO2)4
_chemical_formula_sum   'Li3 B1 H4 O8'
_cell_volume   120.69217246
_cell_formula_units_Z   1
loop_
 _symmetry_equiv_pos_site_id
 _symmetry_equiv_pos_as_xyz
  1  'x, y, z'
loop_
 _atom_site_type_symbol
 _atom_site_label
 _atom_site_symmetry_multiplicity
 _atom_site_fract_x
 _atom_site_fract_y
 _atom_site_fract_z
 _atom_site_occupancy
  Li  Li0  1  0.25000000  0.39613601  0.64942303  1
  Li  Li1  1  0.25000000  0.10386400  0.14942301  1
  B  B2  1  0.75000001  0.60386401  0.35057702  1
  Li  Li3  1  0.75000001  0.89613602  0.85057704  1
  H  H4  1  0.75000001  0.37060101  0.93115004  1
  H  H5  1  0.75000001  0.12939900  0.43115002  1
  H  H6  1  0.25000000  0.62939901  0.06885000  1
  H  H7  1  0.25000000  0.87060102  0.56885003  1
  O  O8  1  0.75000001  0.20832100  0.00243100  1
  O  O9  1  0.75000001  0.29167901  0.50243102  1
  O  O10  1  0.25000000  0.79167902  0.99756904  1
  O  O11  1  0.25000000  0.70832102  0.49756902  1
  O  O12  1  0.75000001  0.95015402  0.26019501  1
  O  O13  1  0.75000001  0.54984601  0.76019503  1
  O  O14  1  0.25000000  0.04984600  0.73980503  1
  O  O15  1  0.25000000  0.45015401  0.23980501  1
