# generated using pymatgen
data_Li4H3S5NCl
_symmetry_space_group_name_H-M   'P 1'
_cell_length_a   6.57442331
_cell_length_b   6.57442331
_cell_length_c   6.57442331
_cell_angle_alpha   109.47122192
_cell_angle_beta   109.47122192
_cell_angle_gamma   109.47122192
_symmetry_Int_Tables_number   1
_chemical_formula_structural   Li4H3S5NCl
_chemical_formula_sum   'Li4 H3 S5 N1 Cl1'
_cell_volume   218.75152047
_cell_formula_units_Z   1
loop_
 _symmetry_equiv_pos_site_id
 _symmetry_equiv_pos_as_xyz
  1  'x, y, z'
loop_
 _atom_site_type_symbol
 _atom_site_label
 _atom_site_symmetry_multiplicity
 _atom_site_fract_x
 _atom_site_fract_y
 _atom_site_fract_z
 _atom_site_occupancy
  Li  Li0  1  0.00000000  0.00000000  0.00000000  1
  Li  Li1  1  1.00000005  1.00000002  0.50000007  1
  Li  Li2  1  0.50000003  0.50000001  0.50000003  1
  Li  Li3  1  0.49999999  0.00000000  0.00000001  1
  H  H4  1  0.00000003  0.50000001  0.00000003  1
  N  N5  1  0.50000003  0.50000001  0.00000004  1
  H  H6  1  0.49999999  0.00000000  0.50000000  1
  H  H7  1  0.00000003  0.50000001  0.50000002  1
  Cl  Cl8  1  0.32245500  0.00000000  0.32245500  1
  S  S9  1  0.67754499  0.00000000  0.67754500  1
  S  S10  1  0.32245502  0.32245501  0.00000003  1
  S  S11  1  0.67754504  0.67754501  0.00000005  1
  S  S12  1  1.00000003  0.67754501  0.67754505  1
  S  S13  1  0.00000002  0.32245501  0.32245501  1
