# generated using pymatgen
data_CsK2BaTlAg2PbS10
_symmetry_space_group_name_H-M   'P 1'
_cell_length_a   4.21224594
_cell_length_b   9.55251503
_cell_length_c   12.96383572
_cell_angle_alpha   90.00000000
_cell_angle_beta   90.00000000
_cell_angle_gamma   102.73712921
_symmetry_Int_Tables_number   1
_chemical_formula_structural   CsK2BaTlAg2PbS10
_chemical_formula_sum   'Cs1 K2 Ba1 Tl1 Ag2 Pb1 S10'
_cell_volume   508.79648415
_cell_formula_units_Z   1
loop_
 _symmetry_equiv_pos_site_id
 _symmetry_equiv_pos_as_xyz
  1  'x, y, z'
loop_
 _atom_site_type_symbol
 _atom_site_label
 _atom_site_symmetry_multiplicity
 _atom_site_fract_x
 _atom_site_fract_y
 _atom_site_fract_z
 _atom_site_occupancy
  K  K0  1  0.87046492  0.74092996  0.81032502  1
  K  K1  1  0.11275897  0.22551799  0.68443201  1
  Ba  Ba2  1  0.12953497  0.25906999  0.31032501  1
  Cs  Cs3  1  0.88724091  0.77448196  0.18443200  1
  Tl  Tl4  1  0.55618099  0.11236199  0.94429802  1
  Ag  Ag5  1  0.44381889  0.88763795  0.44429801  1
  Ag  Ag6  1  0.78306994  0.56613997  0.52190301  1
  Pb  Pb7  1  0.21692995  0.43385998  0.02190300  1
  S  S8  1  0.35710091  0.71420196  0.00031800  1
  S  S9  1  0.68410596  0.36821198  0.86933902  1
  S  S10  1  0.49603288  0.99206594  0.77638602  1
  S  S11  1  0.28396393  0.56792797  0.66519501  1
  S  S12  1  0.95466489  0.90932995  0.55177401  1
  S  S13  1  0.64289897  0.28579798  0.50031901  1
  S  S14  1  0.31589392  0.63178796  0.36933901  1
  S  S15  1  0.50396701  0.00793400  0.27638601  1
  S  S16  1  0.71603595  0.43207198  0.16519500  1
  S  S17  1  0.04533499  0.09066999  0.05177400  1
