# generated using pymatgen
data_Li7Co3O10
_symmetry_space_group_name_H-M   'P 1'
_cell_length_a   5.10365391
_cell_length_b   5.14438248
_cell_length_c   7.65123129
_cell_angle_alpha   83.53741455
_cell_angle_beta   70.51752472
_cell_angle_gamma   70.27683258
_symmetry_Int_Tables_number   1
_chemical_formula_structural   Li7Co3O10
_chemical_formula_sum   'Li7 Co3 O10'
_cell_volume   178.27202014
_cell_formula_units_Z   1
loop_
 _symmetry_equiv_pos_site_id
 _symmetry_equiv_pos_as_xyz
  1  'x, y, z'
loop_
 _atom_site_type_symbol
 _atom_site_label
 _atom_site_symmetry_multiplicity
 _atom_site_fract_x
 _atom_site_fract_y
 _atom_site_fract_z
 _atom_site_occupancy
  Li  Li0  1  0.19928498  0.50000000  0.60143002  1
  Li  Li1  1  0.80071500  0.50000000  0.39857000  1
  Li  Li2  1  0.40217298  0.50000000  0.19565401  1
  Li  Li3  1  -0.00000003  0.50000000  0.00000003  1
  Li  Li4  1  0.59782699  0.50000000  0.80434600  1
  Li  Li5  1  0.50000002  0.00000000  0.99999998  1
  Li  Li6  1  0.09872794  1.00000000  0.80254405  1
  Co  Co7  1  0.90127203  0.00000000  0.19745597  1
  Co  Co8  1  0.69354196  1.00000000  0.61291603  1
  Co  Co9  1  0.30645795  1.00000000  0.38708404  1
  O  O10  1  0.95767902  0.22727100  0.61096898  1
  O  O11  1  0.56864801  0.22727100  0.38903099  1
  O  O12  1  0.13313099  0.22591500  0.21077701  1
  O  O13  1  0.78155501  0.22677600  -0.00000001  1
  O  O14  1  0.34390800  0.22591500  0.78922300  1
  O  O15  1  0.43135197  0.77272900  0.61096902  1
  O  O16  1  0.04232095  0.77272900  0.38903104  1
  O  O17  1  0.65609197  0.77408500  0.21077702  1
  O  O18  1  0.21844496  0.77322400  0.00000003  1
  O  O19  1  0.86686898  0.77408500  0.78922301  1
