# generated using pymatgen
data_Li4CrCuNiN2O7
_symmetry_space_group_name_H-M   'P 1'
_cell_length_a   4.99974585
_cell_length_b   4.99974585
_cell_length_c   8.77617741
_cell_angle_alpha   90.00000000
_cell_angle_beta   90.00000000
_cell_angle_gamma   90.00000000
_symmetry_Int_Tables_number   1
_chemical_formula_structural   Li4CrCuNiN2O7
_chemical_formula_sum   'Li4 Cr1 Cu1 Ni1 N2 O7'
_cell_volume   219.38213070
_cell_formula_units_Z   1
loop_
 _symmetry_equiv_pos_site_id
 _symmetry_equiv_pos_as_xyz
  1  'x, y, z'
loop_
 _atom_site_type_symbol
 _atom_site_label
 _atom_site_symmetry_multiplicity
 _atom_site_fract_x
 _atom_site_fract_y
 _atom_site_fract_z
 _atom_site_occupancy
  Li  Li0  1  0.00000000  0.00000000  0.82634596  1
  Li  Li1  1  0.50000002  0.50000002  0.67365397  1
  Li  Li2  1  0.50000002  0.50000002  0.32634598  1
  Li  Li3  1  0.00000000  0.00000000  0.17365399  1
  Ni  Ni4  1  0.82679103  0.82679103  0.00000000  1
  Cr  Cr5  1  0.69932602  0.30067401  0.81377696  1
  Cu  Cu6  1  0.30067401  0.69932602  0.81377696  1
  O  O7  1  0.19932601  0.19932601  0.68622297  1
  O  O8  1  0.80067402  0.80067402  0.68622297  1
  N  N9  1  0.67320902  0.32679101  0.49999998  1
  N  N10  1  0.32679101  0.67320902  0.49999998  1
  O  O11  1  0.19932601  0.19932601  0.31377699  1
  O  O12  1  0.80067402  0.80067402  0.31377699  1
  O  O13  1  0.69932602  0.30067401  0.18622299  1
  O  O14  1  0.30067401  0.69932602  0.18622299  1
  O  O15  1  0.17320901  0.17320901  -0.00000000  1
