# generated using pymatgen
data_Na2CaO3
_symmetry_space_group_name_H-M   'P 1'
_cell_length_a   3.96226859
_cell_length_b   3.96226859
_cell_length_c   7.29713583
_cell_angle_alpha   91.49399567
_cell_angle_beta   91.49399567
_cell_angle_gamma   118.65448761
_symmetry_Int_Tables_number   1
_chemical_formula_structural   Na2CaO3
_chemical_formula_sum   'Na2 Ca1 O3'
_cell_volume   100.39982737
_cell_formula_units_Z   1
loop_
 _symmetry_equiv_pos_site_id
 _symmetry_equiv_pos_as_xyz
  1  'x, y, z'
loop_
 _atom_site_type_symbol
 _atom_site_label
 _atom_site_symmetry_multiplicity
 _atom_site_fract_x
 _atom_site_fract_y
 _atom_site_fract_z
 _atom_site_occupancy
  Ca  Ca0  1  1.00000001  0.50000000  0.49999997  1
  Na  Na1  1  0.49999999  0.00000000  0.99999996  1
  Na  Na2  1  0.98569798  0.01430200  0.24999998  1
  O  O3  1  0.01430207  0.98569801  0.74999997  1
  O  O4  1  0.63362801  0.36637200  0.24999998  1
  O  O5  1  0.36637203  0.63362800  0.74999997  1
