# generated using pymatgen
data_BaLi2Ca3LaI9
_symmetry_space_group_name_H-M   'P 1'
_cell_length_a   9.35217667
_cell_length_b   9.35217667
_cell_length_c   9.35526276
_cell_angle_alpha   119.98908997
_cell_angle_beta   119.98908234
_cell_angle_gamma   90.00000000
_symmetry_Int_Tables_number   1
_chemical_formula_structural   BaLi2Ca3LaI9
_chemical_formula_sum   'Ba1 Li2 Ca3 La1 I9'
_cell_volume   578.77480625
_cell_formula_units_Z   1
loop_
 _symmetry_equiv_pos_site_id
 _symmetry_equiv_pos_as_xyz
  1  'x, y, z'
loop_
 _atom_site_type_symbol
 _atom_site_label
 _atom_site_symmetry_multiplicity
 _atom_site_fract_x
 _atom_site_fract_y
 _atom_site_fract_z
 _atom_site_occupancy
  La  La0  1  0.37499994  0.62499998  0.24999989  1
  Ba  Ba1  1  0.87499994  0.62499998  0.24999986  1
  Li  Li2  1  0.37499994  0.62499998  0.74999989  1
  Li  Li3  1  0.37499999  0.12500000  0.74999996  1
  Ca  Ca4  1  0.87499999  0.12500000  0.24999992  1
  Ca  Ca5  1  0.37499999  0.12500000  0.24999996  1
  Ca  Ca6  1  0.87499999  0.12500000  0.74999992  1
  I  I7  1  0.87499994  0.62499998  0.74999986  1
  I  I8  1  0.12303096  0.36950299  0.24690294  1
  I  I9  1  0.12387191  0.87739998  0.24690288  1
  I  I10  1  0.62739996  0.37303099  0.74690291  1
  I  I11  1  0.62696891  0.88049698  0.25309684  1
  I  I12  1  0.11950296  0.37387199  0.74690294  1
  I  I13  1  0.62612796  0.37259999  0.25309691  1
  I  I14  1  0.12259991  0.87696898  0.75309688  1
  I  I15  1  0.63049691  0.87612798  0.75309684  1
