# generated using pymatgen
data_NaLiCaAlB3C2O9
_symmetry_space_group_name_H-M   'P 1'
_cell_length_a   3.33979511
_cell_length_b   8.39745235
_cell_length_c   8.39745331
_cell_angle_alpha   119.99999237
_cell_angle_beta   90.00000000
_cell_angle_gamma   90.00000000
_symmetry_Int_Tables_number   1
_chemical_formula_structural   NaLiCaAlB3C2O9
_chemical_formula_sum   'Na1 Li1 Ca1 Al1 B3 C2 O9'
_cell_volume   203.96029718
_cell_formula_units_Z   1
loop_
 _symmetry_equiv_pos_site_id
 _symmetry_equiv_pos_as_xyz
  1  'x, y, z'
loop_
 _atom_site_type_symbol
 _atom_site_label
 _atom_site_symmetry_multiplicity
 _atom_site_fract_x
 _atom_site_fract_y
 _atom_site_fract_z
 _atom_site_occupancy
  Li  Li0  1  0.49999998  0.67929995  0.97142793  1
  Na  Na1  1  0.49999998  0.29212798  0.32069997  1
  Ca  Ca2  1  0.49999998  0.02857200  0.70787198  1
  Al  Al3  1  0.99999997  0.65782995  0.62475394  1
  B  B4  1  0.99999997  0.37524597  0.03307597  1
  B  B5  1  0.00000000  0.96692393  0.34216992  1
  C  C6  1  0.00000000  0.00000000  0.00000000  1
  B  B7  1  0.99999997  0.33333331  0.66666662  1
  C  C8  1  0.49999998  0.66666662  0.33333328  1
  O  O9  1  0.99999997  0.51182696  0.74731394  1
  O  O10  1  0.99999997  0.23548698  0.48817297  1
  O  O11  1  0.00000000  0.25268598  0.76451296  1
  O  O12  1  0.99999997  0.17878699  0.08864199  1
  O  O13  1  0.99999997  0.90985493  0.82121291  1
  O  O14  1  0.49999998  0.53724496  0.16085796  1
  O  O15  1  0.49999998  0.83914194  0.37638693  1
  O  O16  1  0.49999998  0.62361295  0.46275494  1
  O  O17  1  0.99999997  0.91135793  0.09014494  1
