# generated using pymatgen
data_Ca6Al4As5Os4N
_symmetry_space_group_name_H-M   'P 1'
_cell_length_a   6.28692198
_cell_length_b   6.30357122
_cell_length_c   8.88500977
_cell_angle_alpha   90.00000000
_cell_angle_beta   90.00000000
_cell_angle_gamma   90.00000000
_symmetry_Int_Tables_number   1
_chemical_formula_structural   Ca6Al4As5Os4N
_chemical_formula_sum   'Ca6 Al4 As5 Os4 N1'
_cell_volume   352.11347428
_cell_formula_units_Z   1
loop_
 _symmetry_equiv_pos_site_id
 _symmetry_equiv_pos_as_xyz
  1  'x, y, z'
loop_
 _atom_site_type_symbol
 _atom_site_label
 _atom_site_symmetry_multiplicity
 _atom_site_fract_x
 _atom_site_fract_y
 _atom_site_fract_z
 _atom_site_occupancy
  Ca  Ca0  1  0.49392100  0.97659797  0.25000001  1
  Ca  Ca1  1  0.00607900  0.47659798  0.25000001  1
  Al  Al2  1  0.50607900  0.02340200  0.75000002  1
  Al  Al3  1  0.99392100  0.52340198  0.75000002  1
  Al  Al4  1  0.50000000  0.49999998  0.00000000  1
  Ca  Ca5  1  0.00000000  0.00000000  0.50000001  1
  Al  Al6  1  0.50000000  0.49999998  0.50000001  1
  Ca  Ca7  1  0.00000000  0.00000000  0.00000000  1
  Ca  Ca8  1  0.57567700  0.51791598  0.25000001  1
  N  N9  1  0.92432300  0.01791600  0.25000001  1
  As  As10  1  0.42432300  0.48208398  0.75000002  1
  Os  Os11  1  0.07567700  0.98208397  0.75000002  1
  Ca  Ca12  1  0.22226100  0.72138797  0.04067300  1
  Os  Os13  1  0.27773900  0.22138799  0.45932701  1
  As  As14  1  0.77773900  0.27861199  0.54067301  1
  As  As15  1  0.72226100  0.77861197  0.95932703  1
  As  As16  1  0.77773900  0.27861199  0.95932703  1
  As  As17  1  0.72226100  0.77861197  0.54067301  1
  Os  Os18  1  0.22226100  0.72138797  0.45932701  1
  Os  Os19  1  0.27773900  0.22138799  0.04067300  1
