# generated using pymatgen
data_Li2P
_symmetry_space_group_name_H-M   'P 1'
_cell_length_a   3.67593074
_cell_length_b   3.67593074
_cell_length_c   6.90807915
_cell_angle_alpha   74.57004547
_cell_angle_beta   74.57004547
_cell_angle_gamma   59.99998474
_symmetry_Int_Tables_number   1
_chemical_formula_structural   Li2P
_chemical_formula_sum   'Li2 P1'
_cell_volume   76.92979251
_cell_formula_units_Z   1
loop_
 _symmetry_equiv_pos_site_id
 _symmetry_equiv_pos_as_xyz
  1  'x, y, z'
loop_
 _atom_site_type_symbol
 _atom_site_label
 _atom_site_symmetry_multiplicity
 _atom_site_fract_x
 _atom_site_fract_y
 _atom_site_fract_z
 _atom_site_occupancy
  Li  Li0  1  0.00000000  0.00000000  0.00000000  1
  Li  Li1  1  0.26370399  0.26370401  0.20888800  1
  P  P2  1  0.73629598  0.73629602  0.79111202  1
