# generated using pymatgen
data_Li4VO9
_symmetry_space_group_name_H-M   'P 1'
_cell_length_a   5.47731495
_cell_length_b   5.66208172
_cell_length_c   7.38182926
_cell_angle_alpha   104.77394104
_cell_angle_beta   99.48962402
_cell_angle_gamma   110.17100525
_symmetry_Int_Tables_number   1
_chemical_formula_structural   Li4VO9
_chemical_formula_sum   'Li4 V1 O9'
_cell_volume   199.56480117
_cell_formula_units_Z   1
loop_
 _symmetry_equiv_pos_site_id
 _symmetry_equiv_pos_as_xyz
  1  'x, y, z'
loop_
 _atom_site_type_symbol
 _atom_site_label
 _atom_site_symmetry_multiplicity
 _atom_site_fract_x
 _atom_site_fract_y
 _atom_site_fract_z
 _atom_site_occupancy
  Li  Li0  1  0.32648102  0.69865500  0.76819397  1
  Li  Li1  1  0.67351901  0.30134500  0.23180597  1
  Li  Li2  1  0.00000000  0.00000000  0.50000000  1
  Li  Li3  1  0.00000000  0.00000000  0.00000000  1
  O  O4  1  0.27086501  0.33889500  0.62149398  1
  V  V5  1  0.76528801  0.15573400  0.42128498  1
  O  O6  1  0.23471203  0.84426600  0.57871496  1
  O  O7  1  0.97585801  0.31630900  0.11879796  1
  O  O8  1  0.11359903  0.97811300  0.26229196  1
  O  O9  1  0.72913502  0.66110500  0.37850596  1
  O  O10  1  0.36844201  0.19224500  0.02601398  1
  O  O11  1  0.63155803  0.80775500  0.97398596  1
  O  O12  1  0.88640100  0.02188700  0.73770798  1
  O  O13  1  0.02414202  0.68369100  0.88120198  1
