# generated using pymatgen
data_Ba3CaTl3AgPbS9
_symmetry_space_group_name_H-M   'P 1'
_cell_length_a   4.33345699
_cell_length_b   6.94813490
_cell_length_c   16.38222122
_cell_angle_alpha   90.00000000
_cell_angle_beta   90.00000000
_cell_angle_gamma   90.00000000
_symmetry_Int_Tables_number   1
_chemical_formula_structural   Ba3CaTl3AgPbS9
_chemical_formula_sum   'Ba3 Ca1 Tl3 Ag1 Pb1 S9'
_cell_volume   493.25956867
_cell_formula_units_Z   1
loop_
 _symmetry_equiv_pos_site_id
 _symmetry_equiv_pos_as_xyz
  1  'x, y, z'
loop_
 _atom_site_type_symbol
 _atom_site_label
 _atom_site_symmetry_multiplicity
 _atom_site_fract_x
 _atom_site_fract_y
 _atom_site_fract_z
 _atom_site_occupancy
  Ca  Ca0  1  0.50000000  0.50000001  0.50000002  1
  Ba  Ba1  1  -0.00000000  0.29210200  0.80149404  1
  Ba  Ba2  1  0.50000000  0.20789800  0.30149401  1
  Ba  Ba3  1  0.50000000  0.79210201  0.69850603  1
  Tl  Tl4  1  -0.00000000  0.70789801  0.19850601  1
  Tl  Tl5  1  0.00000000  0.00000000  0.00000000  1
  Ag  Ag6  1  0.50000000  0.36745101  0.08520500  1
  Tl  Tl7  1  -0.00000000  0.13254900  0.58520503  1
  Pb  Pb8  1  -0.00000000  0.86745101  0.41479502  1
  S  S9  1  0.50000000  0.63254901  0.91479504  1
  S  S10  1  0.50000000  0.74754501  0.33378802  1
  S  S11  1  0.50000000  0.26016000  0.93184004  1
  S  S12  1  -0.00000000  0.23984000  0.43184002  1
  S  S13  1  -0.00000000  0.76016001  0.56816003  1
  S  S14  1  0.50000000  0.73984001  0.06816000  1
  S  S15  1  -0.00000000  0.75245501  0.83378804  1
  S  S16  1  0.50000000  0.25245500  0.66621203  1
  S  S17  1  -0.00000000  0.24754500  0.16621201  1
