# generated using pymatgen
data_KCaTl2F8
_symmetry_space_group_name_H-M   'P 1'
_cell_length_a   6.93287802
_cell_length_b   6.93287802
_cell_length_c   6.93287802
_cell_angle_alpha   60.00000000
_cell_angle_beta   60.00000000
_cell_angle_gamma   60.00000000
_symmetry_Int_Tables_number   1
_chemical_formula_structural   KCaTl2F8
_chemical_formula_sum   'K1 Ca1 Tl2 F8'
_cell_volume   235.62733917
_cell_formula_units_Z   1
loop_
 _symmetry_equiv_pos_site_id
 _symmetry_equiv_pos_as_xyz
  1  'x, y, z'
loop_
 _atom_site_type_symbol
 _atom_site_label
 _atom_site_symmetry_multiplicity
 _atom_site_fract_x
 _atom_site_fract_y
 _atom_site_fract_z
 _atom_site_occupancy
  Ca  Ca0  1  0.05286500  0.64904499  0.64904499  1
  K  K1  1  0.64904499  0.05286500  0.64904499  1
  Tl  Tl2  1  0.64904499  0.64904499  0.64904499  1
  Tl  Tl3  1  0.64904499  0.64904499  0.05286500  1
  F  F4  1  0.34823400  0.88392199  0.88392199  1
  F  F5  1  0.88392299  0.34823300  0.88392199  1
  F  F6  1  0.88392299  0.88392199  0.88392199  1
  F  F7  1  0.88392299  0.88392199  0.34823300  1
  F  F8  1  0.85392199  0.38202600  0.38202600  1
  F  F9  1  0.38202500  0.85392299  0.38202600  1
  F  F10  1  0.38202500  0.38202600  0.38202600  1
  F  F11  1  0.38202500  0.38202600  0.85392299  1
