# generated using pymatgen
data_CaHfTi2Cr2(WO6)2
_symmetry_space_group_name_H-M   'P 1'
_cell_length_a   6.29869747
_cell_length_b   6.29869747
_cell_length_c   6.29869795
_cell_angle_alpha   92.01202393
_cell_angle_beta   92.01202393
_cell_angle_gamma   92.01203156
_symmetry_Int_Tables_number   1
_chemical_formula_structural   CaHfTi2Cr2(WO6)2
_chemical_formula_sum   'Ca1 Hf1 Ti2 Cr2 W2 O12'
_cell_volume   249.41864787
_cell_formula_units_Z   1
loop_
 _symmetry_equiv_pos_site_id
 _symmetry_equiv_pos_as_xyz
  1  'x, y, z'
loop_
 _atom_site_type_symbol
 _atom_site_label
 _atom_site_symmetry_multiplicity
 _atom_site_fract_x
 _atom_site_fract_y
 _atom_site_fract_z
 _atom_site_occupancy
  Ca  Ca0  1  0.06954800  0.25360199  0.56246697  1
  Hf  Hf1  1  0.43753298  0.93045196  0.74639793  1
  Ti  Ti2  1  0.74639797  0.43753298  0.93045193  1
  Ti  Ti3  1  0.25360199  0.56246698  0.06954796  1
  Cr  Cr4  1  0.56246698  0.06954800  0.25360197  1
  Cr  Cr5  1  0.93045196  0.74639797  0.43753292  1
  W  W6  1  0.00000000  0.00000000  0.00000000  1
  W  W7  1  0.49999998  0.49999998  0.49999995  1
  O  O8  1  0.07016199  0.29627599  0.92383297  1
  O  O9  1  0.07616699  0.92983796  0.70372394  1
  O  O10  1  0.45805598  0.58539298  0.79509394  1
  O  O11  1  0.70372397  0.07616700  0.92983795  1
  O  O12  1  0.20490599  0.54194398  0.41460696  1
  O  O13  1  0.41460698  0.20490599  0.54194396  1
  O  O14  1  0.58539297  0.79509397  0.45805593  1
  O  O15  1  0.79509397  0.45805598  0.58539293  1
  O  O16  1  0.29627598  0.92383296  0.07016195  1
  O  O17  1  0.54194398  0.41460698  0.20490595  1
  O  O18  1  0.92383296  0.07016200  0.29627595  1
  O  O19  1  0.92983796  0.70372397  0.07616693  1
