# generated using pymatgen
data_Li3CuSe3S
_symmetry_space_group_name_H-M   'P 1'
_cell_length_a   5.81346178
_cell_length_b   5.81346178
_cell_length_c   5.81346178
_cell_angle_alpha   90.00000000
_cell_angle_beta   90.00000000
_cell_angle_gamma   90.00000000
_symmetry_Int_Tables_number   1
_chemical_formula_structural   Li3CuSe3S
_chemical_formula_sum   'Li3 Cu1 Se3 S1'
_cell_volume   196.47371855
_cell_formula_units_Z   1
loop_
 _symmetry_equiv_pos_site_id
 _symmetry_equiv_pos_as_xyz
  1  'x, y, z'
loop_
 _atom_site_type_symbol
 _atom_site_label
 _atom_site_symmetry_multiplicity
 _atom_site_fract_x
 _atom_site_fract_y
 _atom_site_fract_z
 _atom_site_occupancy
  Li  Li0  1  0.00000000  0.00000000  0.00000000  1
  Li  Li1  1  -0.00000000  0.50000002  0.50000002  1
  Li  Li2  1  0.50000002  0.50000002  0.00000000  1
  Cu  Cu3  1  0.50000002  0.00000000  0.50000002  1
  Se  Se4  1  0.76336003  0.76336003  0.23664001  1
  S  S5  1  0.76336003  0.23664001  0.76336003  1
  Se  Se6  1  0.23664001  0.76336003  0.76336003  1
  Se  Se7  1  0.23664001  0.23664001  0.23664001  1
