# generated using pymatgen
data_BaCa(BiO7)2
_symmetry_space_group_name_H-M   'P 1'
_cell_length_a   5.91887903
_cell_length_b   6.22291803
_cell_length_c   8.45211601
_cell_angle_alpha   102.88665771
_cell_angle_beta   90.00000000
_cell_angle_gamma   90.00000000
_symmetry_Int_Tables_number   1
_chemical_formula_structural   BaCa(BiO7)2
_chemical_formula_sum   'Ba1 Ca1 Bi2 O14'
_cell_volume   303.47322202
_cell_formula_units_Z   1
loop_
 _symmetry_equiv_pos_site_id
 _symmetry_equiv_pos_as_xyz
  1  'x, y, z'
loop_
 _atom_site_type_symbol
 _atom_site_label
 _atom_site_symmetry_multiplicity
 _atom_site_fract_x
 _atom_site_fract_y
 _atom_site_fract_z
 _atom_site_occupancy
  Ca  Ca0  1  0.76321800  0.15363100  0.18814701  1
  Ba  Ba1  1  0.26321800  0.84636900  0.81185303  1
  Bi  Bi2  1  0.75627200  0.31487900  0.72514501  1
  Bi  Bi3  1  0.25627200  0.68512100  0.27485502  1
  O  O4  1  0.55512000  0.96171700  0.98286903  1
  O  O5  1  0.05512000  0.03828300  0.01713100  1
  O  O6  1  0.51857100  0.55670200  0.73566702  1
  O  O7  1  0.01857100  0.44329800  0.26433301  1
  O  O8  1  0.26202600  0.73354300  0.52137502  1
  O  O9  1  0.76202600  0.26645700  0.47862501  1
  O  O10  1  0.99170799  0.56247700  0.74576702  1
  O  O11  1  0.49170800  0.43752300  0.25423301  1
  O  O12  1  0.49139800  0.09889300  0.70877301  1
  O  O13  1  0.99139799  0.90110700  0.29122703  1
  O  O14  1  0.49483000  0.92626000  0.29108503  1
  O  O15  1  0.99482999  0.07374000  0.70891501  1
  O  O16  1  0.25239700  0.64194300  0.02890402  1
  O  O17  1  0.75239700  0.35805700  0.97109602  1
