# generated using pymatgen
data_Na3ClF2
_symmetry_space_group_name_H-M   'P 1'
_cell_length_a   3.96972108
_cell_length_b   3.96972108
_cell_length_c   6.74812889
_cell_angle_alpha   90.00000000
_cell_angle_beta   90.00000000
_cell_angle_gamma   90.00000000
_symmetry_Int_Tables_number   1
_chemical_formula_structural   Na3ClF2
_chemical_formula_sum   'Na3 Cl1 F2'
_cell_volume   106.34164053
_cell_formula_units_Z   1
loop_
 _symmetry_equiv_pos_site_id
 _symmetry_equiv_pos_as_xyz
  1  'x, y, z'
loop_
 _atom_site_type_symbol
 _atom_site_label
 _atom_site_symmetry_multiplicity
 _atom_site_fract_x
 _atom_site_fract_y
 _atom_site_fract_z
 _atom_site_occupancy
  Na  Na0  1  -0.00000000  0.49999999  0.82934701  1
  Na  Na1  1  0.49999999  0.00000000  0.17065300  1
  Na  Na2  1  0.49999999  0.00000000  0.62748301  1
  Cl  Cl3  1  -0.00000000  0.49999999  0.37251701  1
  F  F4  1  0.00000000  0.00000000  0.00000000  1
  F  F5  1  0.49999999  0.49999999  0.00000000  1
