# generated using pymatgen
data_Li7CoO8
_symmetry_space_group_name_H-M   'P 1'
_cell_length_a   5.08902979
_cell_length_b   5.85449791
_cell_length_c   6.02502298
_cell_angle_alpha   61.61996841
_cell_angle_beta   77.13094330
_cell_angle_gamma   73.71723175
_symmetry_Int_Tables_number   1
_chemical_formula_structural   Li7CoO8
_chemical_formula_sum   'Li7 Co1 O8'
_cell_volume   150.74591712
_cell_formula_units_Z   1
loop_
 _symmetry_equiv_pos_site_id
 _symmetry_equiv_pos_as_xyz
  1  'x, y, z'
loop_
 _atom_site_type_symbol
 _atom_site_label
 _atom_site_symmetry_multiplicity
 _atom_site_fract_x
 _atom_site_fract_y
 _atom_site_fract_z
 _atom_site_occupancy
  Li  Li0  1  0.51723805  0.25971100  0.22715899  1
  Li  Li1  1  0.00000005  0.50000000  -0.00000001  1
  Li  Li2  1  0.00000000  0.00000000  0.50000001  1
  Li  Li3  1  0.48276209  0.74028900  0.77284098  1
  Li  Li4  1  0.49924005  0.24620600  0.75779299  1
  Li  Li5  1  0.00000005  0.50000000  0.50000000  1
  Li  Li6  1  0.50076009  0.75379400  0.24220698  1
  Co  Co7  1  0.00000000  0.00000000  0.00000000  1
  O  O8  1  0.73783607  0.36834200  0.86951899  1
  O  O9  1  0.24823907  0.59743800  0.63033099  1
  O  O10  1  0.25375402  0.09783200  0.14128299  1
  O  O11  1  0.77464312  0.87116301  0.33368197  1
  O  O12  1  0.22535702  0.12883700  0.66631800  1
  O  O13  1  0.75176107  0.40256200  0.36966898  1
  O  O14  1  0.74624612  0.90216801  0.85871698  1
  O  O15  1  0.26216407  0.63165800  0.13048098  1
