# generated using pymatgen
data_LiAl2BO6
_symmetry_space_group_name_H-M   'P 1'
_cell_length_a   4.69664001
_cell_length_b   5.27599478
_cell_length_c   5.29304600
_cell_angle_alpha   119.72958374
_cell_angle_beta   90.00000000
_cell_angle_gamma   90.00000000
_symmetry_Int_Tables_number   1
_chemical_formula_structural   LiAl2BO6
_chemical_formula_sum   'Li1 Al2 B1 O6'
_cell_volume   113.89506304
_cell_formula_units_Z   1
loop_
 _symmetry_equiv_pos_site_id
 _symmetry_equiv_pos_as_xyz
  1  'x, y, z'
loop_
 _atom_site_type_symbol
 _atom_site_label
 _atom_site_symmetry_multiplicity
 _atom_site_fract_x
 _atom_site_fract_y
 _atom_site_fract_z
 _atom_site_occupancy
  B  B0  1  0.49627200  0.67463504  0.67607503  1
  Al  Al1  1  0.99627200  0.32536502  0.32392502  1
  Li  Li2  1  0.50460500  0.00607400  0.33438000  1
  Al  Al3  1  0.00460500  0.99392606  0.66562004  1
  O  O4  1  0.14145300  0.66754204  0.57281403  1
  O  O5  1  0.15774200  0.08454001  0.43066601  1
  O  O6  1  0.64145300  0.33245802  0.42718602  1
  O  O7  1  0.65774200  0.91546006  0.56933404  1
  O  O8  1  0.06672800  0.23080801  0.98323602  1
  O  O9  1  0.56672800  0.76919205  0.01676403  1
