# generated using pymatgen
data_K2Ba2TaZnBiS11
_symmetry_space_group_name_H-M   'P 1'
_cell_length_a   7.49954081
_cell_length_b   7.49954081
_cell_length_c   10.38621712
_cell_angle_alpha   90.00000000
_cell_angle_beta   90.00000000
_cell_angle_gamma   90.00000000
_symmetry_Int_Tables_number   1
_chemical_formula_structural   K2Ba2TaZnBiS11
_chemical_formula_sum   'K2 Ba2 Ta1 Zn1 Bi1 S11'
_cell_volume   584.15317568
_cell_formula_units_Z   1
loop_
 _symmetry_equiv_pos_site_id
 _symmetry_equiv_pos_as_xyz
  1  'x, y, z'
loop_
 _atom_site_type_symbol
 _atom_site_label
 _atom_site_symmetry_multiplicity
 _atom_site_fract_x
 _atom_site_fract_y
 _atom_site_fract_z
 _atom_site_occupancy
  K  K0  1  0.50000001  0.00000000  0.78643699  1
  Ba  Ba1  1  -0.00000000  0.50000001  0.21356300  1
  Ba  Ba2  1  0.50000001  0.00000000  0.21356300  1
  K  K3  1  -0.00000000  0.50000001  0.78643699  1
  Ta  Ta4  1  0.00000000  0.00000000  0.00000000  1
  Zn  Zn5  1  0.50000001  0.50000001  0.49999999  1
  S  S6  1  0.00000000  0.00000000  0.74878599  1
  Bi  Bi7  1  0.50000001  0.50000001  0.26635800  1
  S  S8  1  0.72796702  0.72796702  0.49999999  1
  S  S9  1  0.24933001  0.24933001  -0.00000000  1
  S  S10  1  0.72796702  0.27203301  0.49999999  1
  S  S11  1  0.24933001  0.75067002  0.00000000  1
  S  S12  1  0.00000000  0.00000000  0.25121400  1
  S  S13  1  0.50000001  0.50000001  0.73364199  1
  S  S14  1  0.27203301  0.27203301  0.49999999  1
  S  S15  1  0.75067002  0.75067002  0.00000000  1
  S  S16  1  0.27203301  0.72796702  0.49999999  1
  S  S17  1  0.75067002  0.24933001  -0.00000000  1
