# generated using pymatgen
data_NaSrCaLa2Bi(PbO6)2
_symmetry_space_group_name_H-M   'P 1'
_cell_length_a   6.05300617
_cell_length_b   6.28418779
_cell_length_c   8.71357727
_cell_angle_alpha   90.00000000
_cell_angle_beta   89.66699219
_cell_angle_gamma   90.00000000
_symmetry_Int_Tables_number   1
_chemical_formula_structural   NaSrCaLa2Bi(PbO6)2
_chemical_formula_sum   'Na1 Sr1 Ca1 La2 Bi1 Pb2 O12'
_cell_volume   331.44343637
_cell_formula_units_Z   1
loop_
 _symmetry_equiv_pos_site_id
 _symmetry_equiv_pos_as_xyz
  1  'x, y, z'
loop_
 _atom_site_type_symbol
 _atom_site_label
 _atom_site_symmetry_multiplicity
 _atom_site_fract_x
 _atom_site_fract_y
 _atom_site_fract_z
 _atom_site_occupancy
  Ca  Ca0  1  0.49999999  0.50000002  0.00000001  1
  Na  Na1  1  -0.00000000  1.00000003  0.49999999  1
  Sr  Sr2  1  0.51450399  0.04882100  0.75716500  1
  La  La3  1  0.98549597  0.54882102  0.74283501  1
  Pb  Pb4  1  0.01450400  0.45117901  0.25716500  1
  La  La5  1  0.48549599  0.95117903  0.24283501  1
  Bi  Bi6  1  0.49999999  0.50000002  0.50000000  1
  Pb  Pb7  1  0.00000000  0.00000000  0.00000000  1
  O  O8  1  0.32656299  0.22717701  0.42330500  1
  O  O9  1  0.17343700  0.72717702  0.07669500  1
  O  O10  1  0.78190498  0.32360401  0.54980801  1
  O  O11  1  0.71809498  0.82360403  0.95019200  1
  O  O12  1  0.88213697  0.06248700  0.22410502  1
  O  O13  1  0.61786298  0.56248702  0.27589501  1
  O  O14  1  0.82656298  0.27282301  0.92330501  1
  O  O15  1  0.67343698  0.77282303  0.57669501  1
  O  O16  1  0.11786300  0.93751303  0.77589499  1
  O  O17  1  0.38213699  0.43751301  0.72410500  1
  O  O18  1  0.21809499  0.67639602  0.45019200  1
  O  O19  1  0.28190499  0.17639601  0.04980801  1
