# generated using pymatgen
data_CsKAgClF10
_symmetry_space_group_name_H-M   'P 1'
_cell_length_a   6.43232441
_cell_length_b   6.43232441
_cell_length_c   7.00646973
_cell_angle_alpha   76.38562775
_cell_angle_beta   76.38562775
_cell_angle_gamma   71.06176758
_symmetry_Int_Tables_number   1
_chemical_formula_structural   CsKAgClF10
_chemical_formula_sum   'Cs1 K1 Ag1 Cl1 F10'
_cell_volume   262.47878653
_cell_formula_units_Z   1
loop_
 _symmetry_equiv_pos_site_id
 _symmetry_equiv_pos_as_xyz
  1  'x, y, z'
loop_
 _atom_site_type_symbol
 _atom_site_label
 _atom_site_symmetry_multiplicity
 _atom_site_fract_x
 _atom_site_fract_y
 _atom_site_fract_z
 _atom_site_occupancy
  Cs  Cs0  1  0.22173400  0.22173400  0.88679799  1
  K  K1  1  0.77826600  0.77826601  0.11320199  1
  Ag  Ag2  1  0.63744400  0.63744401  0.73168499  1
  Cl  Cl3  1  0.36255600  0.36255601  0.26831500  1
  F  F4  1  0.01106100  0.01106100  0.23504400  1
  F  F5  1  0.98893900  0.98893901  0.76495599  1
  F  F6  1  0.49016801  0.11611800  0.15118500  1
  F  F7  1  0.70676700  0.70676701  0.46932999  1
  F  F8  1  0.46022800  0.46022801  0.79337499  1
  F  F9  1  0.29323300  0.29323300  0.53066999  1
  F  F10  1  0.53977200  0.53977201  0.20662499  1
  F  F11  1  0.88388201  0.50983201  0.84881499  1
  F  F12  1  0.50983200  0.88388201  0.84881499  1
  F  F13  1  0.11611800  0.49016801  0.15118500  1
