# generated using pymatgen
data_KBaZnCuPWSO11
_symmetry_space_group_name_H-M   'P 1'
_cell_length_a   7.42070961
_cell_length_b   7.42070961
_cell_length_c   7.50973511
_cell_angle_alpha   60.39138031
_cell_angle_beta   60.39138031
_cell_angle_gamma   60.00000381
_symmetry_Int_Tables_number   1
_chemical_formula_structural   KBaZnCuPWSO11
_chemical_formula_sum   'K1 Ba1 Zn1 Cu1 P1 W1 S1 O11'
_cell_volume   294.13350309
_cell_formula_units_Z   1
loop_
 _symmetry_equiv_pos_site_id
 _symmetry_equiv_pos_as_xyz
  1  'x, y, z'
loop_
 _atom_site_type_symbol
 _atom_site_label
 _atom_site_symmetry_multiplicity
 _atom_site_fract_x
 _atom_site_fract_y
 _atom_site_fract_z
 _atom_site_occupancy
  K  K0  1  0.87757797  0.87757799  0.36726605  1
  Ba  Ba1  1  0.12242200  0.12242200  0.63273399  1
  Zn  Zn2  1  0.49999997  0.99999999  0.00000006  1
  Cu  Cu3  1  0.49999998  0.49999999  0.00000004  1
  P  P4  1  0.49999998  0.49999999  0.50000002  1
  W  W5  1  -0.00000001  0.49999999  0.00000002  1
  O  O6  1  0.57593499  0.18292200  0.05822102  1
  O  O7  1  0.83493398  0.42842400  0.30821804  1
  O  O8  1  0.81707798  0.42406500  0.94177902  1
  S  S9  1  0.18292199  0.57593499  0.05822103  1
  O  O10  1  0.42842399  0.42842400  0.30821802  1
  O  O11  1  0.42406498  0.81707799  0.94177902  1
  O  O12  1  0.42842398  0.83493399  0.30821804  1
  O  O13  1  0.57157599  0.16506600  0.69178201  1
  O  O14  1  0.81707797  0.81707799  0.94177903  1
  O  O15  1  0.57157598  0.57157599  0.69178202  1
  O  O16  1  0.16506599  0.57157599  0.69178201  1
  O  O17  1  0.18292199  0.18292200  0.05822101  1
