# generated using pymatgen
data_Ca7LuBiO7
_symmetry_space_group_name_H-M   'P 1'
_cell_length_a   6.52435684
_cell_length_b   6.52435684
_cell_length_c   6.68766022
_cell_angle_alpha   90.00000000
_cell_angle_beta   90.00000000
_cell_angle_gamma   90.00000000
_symmetry_Int_Tables_number   1
_chemical_formula_structural   Ca7LuBiO7
_chemical_formula_sum   'Ca7 Lu1 Bi1 O7'
_cell_volume   284.67518536
_cell_formula_units_Z   1
loop_
 _symmetry_equiv_pos_site_id
 _symmetry_equiv_pos_as_xyz
  1  'x, y, z'
loop_
 _atom_site_type_symbol
 _atom_site_label
 _atom_site_symmetry_multiplicity
 _atom_site_fract_x
 _atom_site_fract_y
 _atom_site_fract_z
 _atom_site_occupancy
  Ca  Ca0  1  0.53027301  0.74243302  0.00000000  1
  Ca  Ca1  1  0.25756701  0.53027301  0.49999998  1
  Ca  Ca2  1  0.74243302  0.46972701  0.49999998  1
  Lu  Lu3  1  0.46972701  0.25756701  0.00000000  1
  Ca  Ca4  1  0.00000000  0.00000000  0.74999998  1
  Ca  Ca5  1  0.00000000  0.00000000  0.24999999  1
  Ca  Ca6  1  0.50000001  0.00000000  0.49999998  1
  Ca  Ca7  1  -0.00000000  0.50000001  0.00000000  1
  Bi  Bi8  1  0.19344700  0.30732401  0.77229297  1
  O  O9  1  0.69267602  0.19344700  0.27229299  1
  O  O10  1  0.30732401  0.80655302  0.27229299  1
  O  O11  1  0.80655302  0.69267602  0.77229297  1
  O  O12  1  0.80655302  0.69267602  0.22770699  1
  O  O13  1  0.30732401  0.80655302  0.72770698  1
  O  O14  1  0.69267602  0.19344700  0.72770698  1
  O  O15  1  0.19344700  0.30732401  0.22770699  1
