# generated using pymatgen
data_LiBH3O
_symmetry_space_group_name_H-M   'P 1'
_cell_length_a   5.55705309
_cell_length_b   5.55705309
_cell_length_c   5.55705309
_cell_angle_alpha   60.00000000
_cell_angle_beta   60.00000000
_cell_angle_gamma   60.00000000
_symmetry_Int_Tables_number   1
_chemical_formula_structural   LiBH3O
_chemical_formula_sum   'Li1 B1 H3 O1'
_cell_volume   121.34409295
_cell_formula_units_Z   1
loop_
 _symmetry_equiv_pos_site_id
 _symmetry_equiv_pos_as_xyz
  1  'x, y, z'
loop_
 _atom_site_type_symbol
 _atom_site_label
 _atom_site_symmetry_multiplicity
 _atom_site_fract_x
 _atom_site_fract_y
 _atom_site_fract_z
 _atom_site_occupancy
  Li  Li0  1  0.75000001  0.75000001  0.75000001  1
  H  H1  1  0.50000001  0.50000001  0.50000001  1
  O  O2  1  0.60823201  0.60823201  0.60823201  1
  B  B3  1  0.60823201  0.60823201  0.17530400  1
  H  H4  1  0.60823201  0.17530400  0.60823201  1
  H  H5  1  0.17530400  0.60823201  0.60823201  1
