# generated using pymatgen
data_KTl2Br2Cl5
_symmetry_space_group_name_H-M   'P 1'
_cell_length_a   6.38899422
_cell_length_b   7.10881472
_cell_length_c   7.71062803
_cell_angle_alpha   107.32649994
_cell_angle_beta   90.00000000
_cell_angle_gamma   116.70335388
_symmetry_Int_Tables_number   1
_chemical_formula_structural   KTl2Br2Cl5
_chemical_formula_sum   'K1 Tl2 Br2 Cl5'
_cell_volume   294.95523011
_cell_formula_units_Z   1
loop_
 _symmetry_equiv_pos_site_id
 _symmetry_equiv_pos_as_xyz
  1  'x, y, z'
loop_
 _atom_site_type_symbol
 _atom_site_label
 _atom_site_symmetry_multiplicity
 _atom_site_fract_x
 _atom_site_fract_y
 _atom_site_fract_z
 _atom_site_occupancy
  Tl  Tl0  1  0.22148205  0.78156305  0.53534903  1
  K  K1  1  0.43991900  0.21843701  0.96465102  1
  Tl  Tl2  1  0.77851799  0.21843701  0.46465101  1
  Br  Br3  1  0.56008104  0.78156305  0.03534902  1
  Br  Br4  1  0.84998497  0.00000000  0.75000001  1
  Cl  Cl5  1  0.15001499  0.00000000  0.25000000  1
  Cl  Cl6  1  0.02003702  0.36445602  0.05463001  1
  Cl  Cl7  1  0.65558102  0.63554404  0.44537002  1
  Cl  Cl8  1  0.97996301  0.63554404  0.94537003  1
  Cl  Cl9  1  0.34441901  0.36445602  0.55463002  1
