# generated using pymatgen
data_Zn2CuSe3S
_symmetry_space_group_name_H-M   'P 1'
_cell_length_a   5.67915392
_cell_length_b   5.67915392
_cell_length_c   6.93546867
_cell_angle_alpha   114.16892242
_cell_angle_beta   114.16892242
_cell_angle_gamma   90.00000000
_symmetry_Int_Tables_number   1
_chemical_formula_structural   Zn2CuSe3S
_chemical_formula_sum   'Zn2 Cu1 Se3 S1'
_cell_volume   182.37614572
_cell_formula_units_Z   1
loop_
 _symmetry_equiv_pos_site_id
 _symmetry_equiv_pos_as_xyz
  1  'x, y, z'
loop_
 _atom_site_type_symbol
 _atom_site_label
 _atom_site_symmetry_multiplicity
 _atom_site_fract_x
 _atom_site_fract_y
 _atom_site_fract_z
 _atom_site_occupancy
  Zn  Zn0  1  0.74999998  0.25000000  0.49999996  1
  Zn  Zn1  1  0.24999996  0.74999999  0.49999995  1
  Cu  Cu2  1  0.49999997  0.49999999  -0.00000005  1
  Se  Se3  1  0.64061599  0.10225600  0.74715198  1
  Se  Se4  1  0.10653597  0.64489599  0.74715196  1
  Se  Se5  1  0.89774395  0.89346399  0.25284791  1
  S  S6  1  0.35510398  0.35938399  0.25284797  1
