# generated using pymatgen
data_Li7CoO8
_symmetry_space_group_name_H-M   'P 1'
_cell_length_a   5.05762529
_cell_length_b   5.36693573
_cell_length_c   6.14781952
_cell_angle_alpha   69.15956116
_cell_angle_beta   86.34171295
_cell_angle_gamma   76.82089996
_symmetry_Int_Tables_number   1
_chemical_formula_structural   Li7CoO8
_chemical_formula_sum   'Li7 Co1 O8'
_cell_volume   151.82312885
_cell_formula_units_Z   1
loop_
 _symmetry_equiv_pos_site_id
 _symmetry_equiv_pos_as_xyz
  1  'x, y, z'
loop_
 _atom_site_type_symbol
 _atom_site_label
 _atom_site_symmetry_multiplicity
 _atom_site_fract_x
 _atom_site_fract_y
 _atom_site_fract_z
 _atom_site_occupancy
  Li  Li0  1  0.75415701  0.50226500  0.12550806  1
  Li  Li1  1  0.24593401  0.49772200  0.87447805  1
  Li  Li2  1  0.75222901  0.49332900  0.61785407  1
  Li  Li3  1  0.24780701  0.50669100  0.38211904  1
  Li  Li4  1  0.00014002  0.99993901  0.49987905  1
  Li  Li5  1  0.49745100  0.00518200  0.74891204  1
  Li  Li6  1  0.50238902  0.99485401  0.25108007  1
  Co  Co7  1  0.00004000  0.00006200  0.00004300  1
  O  O8  1  0.85917201  0.75978701  0.30578808  1
  O  O9  1  0.14086000  0.24022800  0.69419103  1
  O  O10  1  0.36043801  0.77335101  0.04343505  1
  O  O11  1  0.63965300  0.22663900  0.95651306  1
  O  O12  1  0.86835901  0.78046901  0.80457809  1
  O  O13  1  0.13153400  0.21938400  0.19559002  1
  O  O14  1  0.36520001  0.76881601  0.54674106  1
  O  O15  1  0.63463600  0.23128100  0.45329005  1
