# generated using pymatgen
data_K2Te
_symmetry_space_group_name_H-M   'P 1'
_cell_length_a   5.83628416
_cell_length_b   5.83628368
_cell_length_c   8.21469212
_cell_angle_alpha   90.00000000
_cell_angle_beta   90.00000000
_cell_angle_gamma   120.00000000
_symmetry_Int_Tables_number   1
_chemical_formula_structural   K2Te
_chemical_formula_sum   'K4 Te2'
_cell_volume   242.32306022
_cell_formula_units_Z   2
loop_
 _symmetry_equiv_pos_site_id
 _symmetry_equiv_pos_as_xyz
  1  'x, y, z'
loop_
 _atom_site_type_symbol
 _atom_site_label
 _atom_site_symmetry_multiplicity
 _atom_site_fract_x
 _atom_site_fract_y
 _atom_site_fract_z
 _atom_site_occupancy
  K  K0  1  0.33333331  0.66666668  0.74999999  1
  K  K1  1  0.66666664  0.33333334  0.25000000  1
  K  K2  1  0.00000000  0.00000000  0.00000000  1
  K  K3  1  0.00000000  0.00000000  0.49999999  1
  Te  Te4  1  0.33333331  0.66666668  0.25000000  1
  Te  Te5  1  0.66666664  0.33333334  0.74999999  1
