# generated using pymatgen
data_KNaO2
_symmetry_space_group_name_H-M   'P 1'
_cell_length_a   3.90263987
_cell_length_b   3.90263987
_cell_length_c   7.00544262
_cell_angle_alpha   73.82671356
_cell_angle_beta   73.82671356
_cell_angle_gamma   60.00000381
_symmetry_Int_Tables_number   1
_chemical_formula_structural   KNaO2
_chemical_formula_sum   'K1 Na1 O2'
_cell_volume   87.49249360
_cell_formula_units_Z   1
loop_
 _symmetry_equiv_pos_site_id
 _symmetry_equiv_pos_as_xyz
  1  'x, y, z'
loop_
 _atom_site_type_symbol
 _atom_site_label
 _atom_site_symmetry_multiplicity
 _atom_site_fract_x
 _atom_site_fract_y
 _atom_site_fract_z
 _atom_site_occupancy
  Na  Na0  1  0.00000000  0.00000000  0.00000000  1
  K  K1  1  0.50000004  0.50000000  0.49999996  1
  O  O2  1  0.75858005  0.75857999  0.72425994  1
  O  O3  1  0.24142002  0.24142000  0.27573998  1
