# generated using pymatgen
data_NaLi2Ru2NO
_symmetry_space_group_name_H-M   'P 1'
_cell_length_a   3.79722810
_cell_length_b   3.79722810
_cell_length_c   6.67865849
_cell_angle_alpha   106.51586151
_cell_angle_beta   106.51586151
_cell_angle_gamma   90.00000000
_symmetry_Int_Tables_number   1
_chemical_formula_structural   NaLi2Ru2NO
_chemical_formula_sum   'Na1 Li2 Ru2 N1 O1'
_cell_volume   88.17392726
_cell_formula_units_Z   1
loop_
 _symmetry_equiv_pos_site_id
 _symmetry_equiv_pos_as_xyz
  1  'x, y, z'
loop_
 _atom_site_type_symbol
 _atom_site_label
 _atom_site_symmetry_multiplicity
 _atom_site_fract_x
 _atom_site_fract_y
 _atom_site_fract_z
 _atom_site_occupancy
  Li  Li0  1  0.64054700  0.64054699  0.28109403  1
  Na  Na1  1  0.35826500  0.35826499  0.71653003  1
  Li  Li2  1  0.00509700  0.00509700  0.01019400  1
  Ru  Ru3  1  0.83065900  0.83065899  0.66131805  1
  O  O4  1  0.17012400  0.17012400  0.34024801  1
  Ru  Ru5  1  0.49765401  0.99765399  0.99530805  1
  N  N6  1  0.99765399  0.49765399  0.99530805  1
