# generated using pymatgen
data_Li2CoO6
_symmetry_space_group_name_H-M   'P 1'
_cell_length_a   4.62573481
_cell_length_b   4.62573481
_cell_length_c   9.10721302
_cell_angle_alpha   90.00000000
_cell_angle_beta   90.00000000
_cell_angle_gamma   90.00000000
_symmetry_Int_Tables_number   1
_chemical_formula_structural   Li2CoO6
_chemical_formula_sum   'Li4 Co2 O12'
_cell_volume   194.87088476
_cell_formula_units_Z   2
loop_
 _symmetry_equiv_pos_site_id
 _symmetry_equiv_pos_as_xyz
  1  'x, y, z'
loop_
 _atom_site_type_symbol
 _atom_site_label
 _atom_site_symmetry_multiplicity
 _atom_site_fract_x
 _atom_site_fract_y
 _atom_site_fract_z
 _atom_site_occupancy
  Li  Li0  1  0.00000000  0.00000000  0.33480300  1
  Li  Li1  1  0.50000002  0.50000002  0.83480300  1
  Li  Li2  1  0.50000002  0.50000002  0.16519700  1
  Li  Li3  1  0.00000000  0.00000000  0.66519700  1
  Co  Co4  1  0.50000002  0.50000002  0.50000000  1
  Co  Co5  1  0.00000000  0.00000000  0.00000000  1
  O  O6  1  0.80745403  0.80745403  0.83651600  1
  O  O7  1  0.19254601  0.19254601  0.83651600  1
  O  O8  1  0.80745403  0.80745403  0.16348400  1
  O  O9  1  0.30745401  0.69254603  0.33651600  1
  O  O10  1  0.69254603  0.30745401  0.33651600  1
  O  O11  1  0.69254603  0.30745401  0.66348400  1
  O  O12  1  0.30145501  0.69854503  0.00000000  1
  O  O13  1  0.80145503  0.80145503  0.50000000  1
  O  O14  1  0.19854501  0.19854501  0.50000000  1
  O  O15  1  0.69854503  0.30145501  0.00000000  1
  O  O16  1  0.19254601  0.19254601  0.16348400  1
  O  O17  1  0.30745401  0.69254603  0.66348400  1
