# generated using pymatgen
data_RbCaNb2SbWO12
_symmetry_space_group_name_H-M   'P 1'
_cell_length_a   7.28267622
_cell_length_b   7.34147501
_cell_length_c   7.34147501
_cell_angle_alpha   60.16048431
_cell_angle_beta   60.26458740
_cell_angle_gamma   60.26458740
_symmetry_Int_Tables_number   1
_chemical_formula_structural   RbCaNb2SbWO12
_chemical_formula_sum   'Rb1 Ca1 Nb2 Sb1 W1 O12'
_cell_volume   278.99481113
_cell_formula_units_Z   1
loop_
 _symmetry_equiv_pos_site_id
 _symmetry_equiv_pos_as_xyz
  1  'x, y, z'
loop_
 _atom_site_type_symbol
 _atom_site_label
 _atom_site_symmetry_multiplicity
 _atom_site_fract_x
 _atom_site_fract_y
 _atom_site_fract_z
 _atom_site_occupancy
  Ca  Ca0  1  0.61786299  0.13213700  0.63213699  1
  Rb  Rb1  1  0.38213696  0.86786300  0.36786303  1
  Nb  Nb2  1  0.49999997  0.50000000  0.00000001  1
  Nb  Nb3  1  -0.00000002  0.50000000  1.00000003  1
  Sb  Sb4  1  0.00000000  0.00000000  0.00000000  1
  W  W5  1  0.99999997  0.50000000  0.49999999  1
  O  O6  1  0.06727499  0.18272500  0.68272501  1
  O  O7  1  0.67962197  0.57037800  0.07037801  1
  O  O8  1  0.06774498  0.57070500  0.67351403  1
  O  O9  1  0.68803498  0.17351400  0.07070599  1
  O  O10  1  0.68803597  0.57070500  0.67351401  1
  O  O11  1  0.06774399  0.17351400  0.07070601  1
  O  O12  1  0.93272496  0.81727500  0.31727501  1
  O  O13  1  0.32037798  0.42962200  0.92962202  1
  O  O14  1  0.93225497  0.42929500  0.32648599  1
  O  O15  1  0.31196496  0.82648600  0.92929404  1
  O  O16  1  0.31196398  0.42929500  0.32648601  1
  O  O17  1  0.93225596  0.82648600  0.92929401  1
