# generated using pymatgen
data_NaLaY4BiO7
_symmetry_space_group_name_H-M   'P 1'
_cell_length_a   3.52520204
_cell_length_b   6.15233040
_cell_length_c   10.19959831
_cell_angle_alpha   89.74524689
_cell_angle_beta   90.00000000
_cell_angle_gamma   90.00000000
_symmetry_Int_Tables_number   1
_chemical_formula_structural   NaLaY4BiO7
_chemical_formula_sum   'Na1 La1 Y4 Bi1 O7'
_cell_volume   221.20881951
_cell_formula_units_Z   1
loop_
 _symmetry_equiv_pos_site_id
 _symmetry_equiv_pos_as_xyz
  1  'x, y, z'
loop_
 _atom_site_type_symbol
 _atom_site_label
 _atom_site_symmetry_multiplicity
 _atom_site_fract_x
 _atom_site_fract_y
 _atom_site_fract_z
 _atom_site_occupancy
  Y  Y0  1  0.49999999  0.42838099  0.82344498  1
  Na  Na1  1  0.49999999  0.07518100  0.31369299  1
  Y  Y2  1  0.49999999  0.92736099  0.67967598  1
  Y  Y3  1  0.49999999  0.57383499  0.18340199  1
  La  La4  1  -0.00000000  0.50196499  0.49646199  1
  Y  Y5  1  -0.00000000  0.99823099  0.00326400  1
  O  O6  1  0.49999999  0.72897299  0.44692799  1
  Bi  Bi7  1  0.49999999  0.27148100  0.54659298  1
  O  O8  1  0.49999999  0.23309100  0.05711100  1
  O  O9  1  0.49999999  0.77125299  0.95566197  1
  O  O10  1  -0.00000000  0.84689899  0.19414899  1
  O  O11  1  -0.00000000  0.13336200  0.80828498  1
  O  O12  1  -0.00000000  0.37637999  0.29813799  1
  O  O13  1  -0.00000000  0.63360699  0.69318998  1
