# generated using pymatgen
data_K2CrTcSe4
_symmetry_space_group_name_H-M   'P 1'
_cell_length_a   5.98443031
_cell_length_b   7.32003593
_cell_length_c   7.32003593
_cell_angle_alpha   63.41364288
_cell_angle_beta   78.41186523
_cell_angle_gamma   101.58813477
_symmetry_Int_Tables_number   1
_chemical_formula_structural   K2CrTcSe4
_chemical_formula_sum   'K2 Cr1 Tc1 Se4'
_cell_volume   264.98570418
_cell_formula_units_Z   1
loop_
 _symmetry_equiv_pos_site_id
 _symmetry_equiv_pos_as_xyz
  1  'x, y, z'
loop_
 _atom_site_type_symbol
 _atom_site_label
 _atom_site_symmetry_multiplicity
 _atom_site_fract_x
 _atom_site_fract_y
 _atom_site_fract_z
 _atom_site_occupancy
  K  K0  1  0.74999998  0.35566601  0.35566603  1
  K  K1  1  0.24999996  0.64433401  0.64433402  1
  Tc  Tc2  1  0.25000000  0.00351300  0.00351301  1
  Cr  Cr3  1  0.74999994  0.99648702  0.99648704  1
  Se  Se4  1  0.59303999  0.27584900  0.92093804  1
  Se  Se5  1  0.90695995  0.92093802  0.27584903  1
  Se  Se6  1  0.09304000  0.07906200  0.72415102  1
  Se  Se7  1  0.40695995  0.72415101  0.07906201  1
