# generated using pymatgen
data_Nb(HCl2)3
_symmetry_space_group_name_H-M   'P 1'
_cell_length_a   5.63169003
_cell_length_b   5.63426781
_cell_length_c   6.99968529
_cell_angle_alpha   66.26757812
_cell_angle_beta   90.00000000
_cell_angle_gamma   90.00000000
_symmetry_Int_Tables_number   1
_chemical_formula_structural   Nb(HCl2)3
_chemical_formula_sum   'Nb1 H3 Cl6'
_cell_volume   203.32100811
_cell_formula_units_Z   1
loop_
 _symmetry_equiv_pos_site_id
 _symmetry_equiv_pos_as_xyz
  1  'x, y, z'
loop_
 _atom_site_type_symbol
 _atom_site_label
 _atom_site_symmetry_multiplicity
 _atom_site_fract_x
 _atom_site_fract_y
 _atom_site_fract_z
 _atom_site_occupancy
  Nb  Nb0  1  0.50000000  0.34537602  0.30924798  1
  H  H1  1  0.00000000  0.83840405  0.32319196  1
  H  H2  1  0.00000000  0.16248301  0.67503399  1
  H  H3  1  0.50000000  0.66189204  0.67621597  1
  Cl  Cl4  1  0.00000000  0.49685303  0.00629398  1
  Cl  Cl5  1  0.50000000  0.00239900  0.99520200  1
  Cl  Cl6  1  0.24291900  0.99074506  0.50370295  1
  Cl  Cl7  1  0.75708100  0.50555203  0.50370298  1
  Cl  Cl8  1  0.24291900  0.50555203  0.50370298  1
  Cl  Cl9  1  0.75708100  0.99074506  0.50370295  1
