# generated using pymatgen
data_Ba2CaPS2
_symmetry_space_group_name_H-M   'P 1'
_cell_length_a   6.94901085
_cell_length_b   6.94901085
_cell_length_c   9.00790977
_cell_angle_alpha   90.00000000
_cell_angle_beta   90.00000000
_cell_angle_gamma   90.00000000
_symmetry_Int_Tables_number   1
_chemical_formula_structural   Ba2CaPS2
_chemical_formula_sum   'Ba4 Ca2 P2 S4'
_cell_volume   434.98071917
_cell_formula_units_Z   2
loop_
 _symmetry_equiv_pos_site_id
 _symmetry_equiv_pos_as_xyz
  1  'x, y, z'
loop_
 _atom_site_type_symbol
 _atom_site_label
 _atom_site_symmetry_multiplicity
 _atom_site_fract_x
 _atom_site_fract_y
 _atom_site_fract_z
 _atom_site_occupancy
  Ba  Ba0  1  0.50000001  0.50000001  0.00000000  1
  Ba  Ba1  1  0.00000000  0.00000000  0.00000000  1
  Ba  Ba2  1  0.50000001  0.50000001  0.50000001  1
  Ba  Ba3  1  0.00000000  0.00000000  0.50000001  1
  Ca  Ca4  1  0.35588501  0.85588502  0.28681101  1
  P  P5  1  0.14411500  0.35588501  0.28681101  1
  Ca  Ca6  1  0.85588502  0.64411501  0.28681101  1
  P  P7  1  0.35588501  0.14411500  0.71318902  1
  S  S8  1  0.64411501  0.85588502  0.71318902  1
  S  S9  1  0.64411501  0.14411500  0.28681101  1
  S  S10  1  0.85588502  0.35588501  0.71318902  1
  S  S11  1  0.14411500  0.64411501  0.71318902  1
