# generated using pymatgen
data_Ba4CaLa2BiO6
_symmetry_space_group_name_H-M   'P 1'
_cell_length_a   7.76307964
_cell_length_b   7.76307964
_cell_length_c   7.76307964
_cell_angle_alpha   109.47122192
_cell_angle_beta   109.47122192
_cell_angle_gamma   109.47122192
_symmetry_Int_Tables_number   1
_chemical_formula_structural   Ba4CaLa2BiO6
_chemical_formula_sum   'Ba4 Ca1 La2 Bi1 O6'
_cell_volume   360.14734181
_cell_formula_units_Z   1
loop_
 _symmetry_equiv_pos_site_id
 _symmetry_equiv_pos_as_xyz
  1  'x, y, z'
loop_
 _atom_site_type_symbol
 _atom_site_label
 _atom_site_symmetry_multiplicity
 _atom_site_fract_x
 _atom_site_fract_y
 _atom_site_fract_z
 _atom_site_occupancy
  Ba  Ba0  1  0.53067805  1.00000001  1.00000004  1
  Ba  Ba1  1  1.00000001  0.50000001  0.03067805  1
  Ba  Ba2  1  0.50000002  0.53067801  0.50000003  1
  Ba  Ba3  1  0.96932204  0.96932201  0.46932206  1
  Bi  Bi4  1  0.99017304  1.00000001  1.00000005  1
  Ca  Ca5  1  0.00000003  0.50000001  0.49017301  1
  La  La6  1  0.50000005  0.99017301  0.50000005  1
  La  La7  1  0.50982702  0.50982701  0.00982704  1
  O  O8  1  0.75000003  0.72459201  0.97459203  1
  O  O9  1  0.25000004  0.77540801  0.52540803  1
  O  O10  1  0.77540799  0.02540800  0.75000000  1
  O  O11  1  0.72459202  0.47459201  0.25000004  1
  O  O12  1  0.02540802  0.25000000  0.27540801  1
  O  O13  1  0.47459204  0.75000001  0.22459205  1
