# generated using pymatgen
data_Sr4Nb(SbO4)3
_symmetry_space_group_name_H-M   'P 1'
_cell_length_a   6.92108345
_cell_length_b   6.92109346
_cell_length_c   6.92109632
_cell_angle_alpha   109.56957245
_cell_angle_beta   109.56931305
_cell_angle_gamma   109.27499390
_symmetry_Int_Tables_number   1
_chemical_formula_structural   Sr4Nb(SbO4)3
_chemical_formula_sum   'Sr4 Nb1 Sb3 O12'
_cell_volume   255.21004953
_cell_formula_units_Z   1
loop_
 _symmetry_equiv_pos_site_id
 _symmetry_equiv_pos_as_xyz
  1  'x, y, z'
loop_
 _atom_site_type_symbol
 _atom_site_label
 _atom_site_symmetry_multiplicity
 _atom_site_fract_x
 _atom_site_fract_y
 _atom_site_fract_z
 _atom_site_occupancy
  Sr  Sr0  1  0.49999918  1.00000010  0.99999917  1
  Sr  Sr1  1  0.99999913  0.49999905  0.99999913  1
  Sr  Sr2  1  0.49999910  0.50000005  0.49999810  1
  Sr  Sr3  1  0.99999920  1.00000010  0.50000019  1
  Nb  Nb4  1  0.00000215  0.99999910  0.00000913  1
  Sb  Sb5  1  0.50000610  0.50000305  0.00000509  1
  Sb  Sb6  1  0.00000007  0.50000205  0.49999907  1
  Sb  Sb7  1  0.49999918  1.00000010  0.49999916  1
  O  O8  1  0.74999715  0.74999807  0.99999315  1
  O  O9  1  0.25000005  0.25000002  0.00000305  1
  O  O10  1  0.24099912  0.74099707  0.50000111  1
  O  O11  1  0.75900308  0.25900303  0.50000208  1
  O  O12  1  0.76253019  0.99999710  0.76253118  1
  O  O13  1  0.25082609  0.49999705  0.75082709  1
  O  O14  1  0.23747201  0.00000300  0.23746902  1
  O  O15  1  0.74916512  0.49999405  0.24916311  1
  O  O16  1  0.50000114  0.73746807  0.23747113  1
  O  O17  1  0.00000304  0.24917402  0.24917003  1
  O  O18  1  0.49999807  0.26253203  0.76253307  1
  O  O19  1  0.00000111  0.75083207  0.75082910  1
