# generated using pymatgen
data_LiNbO3
_symmetry_space_group_name_H-M   'P 1'
_cell_length_a   6.13256693
_cell_length_b   6.13256693
_cell_length_c   6.13256693
_cell_angle_alpha   90.00000000
_cell_angle_beta   90.00000000
_cell_angle_gamma   90.00000000
_symmetry_Int_Tables_number   1
_chemical_formula_structural   LiNbO3
_chemical_formula_sum   'Li4 Nb4 O12'
_cell_volume   230.63588988
_cell_formula_units_Z   4
loop_
 _symmetry_equiv_pos_site_id
 _symmetry_equiv_pos_as_xyz
  1  'x, y, z'
loop_
 _atom_site_type_symbol
 _atom_site_label
 _atom_site_symmetry_multiplicity
 _atom_site_fract_x
 _atom_site_fract_y
 _atom_site_fract_z
 _atom_site_occupancy
  Li  Li0  1  0.87830401  0.87830401  0.87830401  1
  Li  Li1  1  0.12169600  0.37830400  0.62169601  1
  Li  Li2  1  0.62169601  0.12169600  0.37830400  1
  Li  Li3  1  0.37830400  0.62169601  0.12169600  1
  Nb  Nb4  1  0.16158700  0.16158700  0.16158700  1
  Nb  Nb5  1  0.33841300  0.83841301  0.66158701  1
  Nb  Nb6  1  0.66158701  0.33841300  0.83841301  1
  Nb  Nb7  1  0.83841301  0.66158701  0.33841300  1
  O  O8  1  0.01334400  0.73491301  0.62015401  1
  O  O9  1  0.26508700  0.12015400  0.48665601  1
  O  O10  1  0.12015400  0.48665601  0.26508700  1
  O  O11  1  0.37984600  0.51334401  0.76508701  1
  O  O12  1  0.23491300  0.87984601  0.98665601  1
  O  O13  1  0.48665601  0.26508700  0.12015400  1
  O  O14  1  0.51334401  0.76508701  0.37984600  1
  O  O15  1  0.76508701  0.37984600  0.51334401  1
  O  O16  1  0.62015401  0.01334400  0.73491301  1
  O  O17  1  0.87984601  0.98665601  0.23491300  1
  O  O18  1  0.73491301  0.62015401  0.01334400  1
  O  O19  1  0.98665601  0.23491300  0.87984601  1
