# generated using pymatgen
data_Ba3SrCa2La3ThSnWO8
_symmetry_space_group_name_H-M   'P 1'
_cell_length_a   3.88806391
_cell_length_b   9.50640869
_cell_length_c   12.39987946
_cell_angle_alpha   90.00000000
_cell_angle_beta   90.00000000
_cell_angle_gamma   90.00000000
_symmetry_Int_Tables_number   1
_chemical_formula_structural   Ba3SrCa2La3ThSnWO8
_chemical_formula_sum   'Ba3 Sr1 Ca2 La3 Th1 Sn1 W1 O8'
_cell_volume   458.31844859
_cell_formula_units_Z   1
loop_
 _symmetry_equiv_pos_site_id
 _symmetry_equiv_pos_as_xyz
  1  'x, y, z'
loop_
 _atom_site_type_symbol
 _atom_site_label
 _atom_site_symmetry_multiplicity
 _atom_site_fract_x
 _atom_site_fract_y
 _atom_site_fract_z
 _atom_site_occupancy
  Ca  Ca0  1  0.75000002  0.00564100  0.25964899  1
  Th  Th1  1  0.25000001  0.99435903  0.74035097  1
  Ca  Ca2  1  0.25000001  0.49435902  0.75964897  1
  Sr  Sr3  1  0.75000002  0.50564102  0.24035099  1
  Ba  Ba4  1  0.75000002  0.30146501  0.53062098  1
  Ba  Ba5  1  0.25000001  0.69853502  0.46937898  1
  La  La6  1  0.75000002  0.80146503  0.96937896  1
  Ba  Ba7  1  0.25000001  0.19853501  0.03062100  1
  Sn  Sn8  1  0.25000001  0.74899902  0.82219597  1
  La  La9  1  0.75000002  0.05176600  0.88054197  1
  La  La10  1  0.25000001  0.24899901  0.67780398  1
  W  W11  1  0.75000002  0.55176602  0.61945798  1
  O  O12  1  0.25000001  0.44823401  0.38054199  1
  O  O13  1  0.75000002  0.25100101  0.17780399  1
  O  O14  1  0.25000001  0.94823403  0.11945800  1
  O  O15  1  0.75000002  0.75100102  0.32219599  1
  O  O16  1  0.25000001  0.56559802  0.11328500  1
  O  O17  1  0.75000002  0.93440203  0.61328498  1
  O  O18  1  0.75000002  0.43440201  0.88671497  1
  O  O19  1  0.25000001  0.06559800  0.38671499  1
