# generated using pymatgen
data_Sr2CaCdSe2
_symmetry_space_group_name_H-M   'P 1'
_cell_length_a   4.62192392
_cell_length_b   4.62192392
_cell_length_c   8.03876495
_cell_angle_alpha   90.00000000
_cell_angle_beta   90.00000000
_cell_angle_gamma   90.00000000
_symmetry_Int_Tables_number   1
_chemical_formula_structural   Sr2CaCdSe2
_chemical_formula_sum   'Sr2 Ca1 Cd1 Se2'
_cell_volume   171.72554998
_cell_formula_units_Z   1
loop_
 _symmetry_equiv_pos_site_id
 _symmetry_equiv_pos_as_xyz
  1  'x, y, z'
loop_
 _atom_site_type_symbol
 _atom_site_label
 _atom_site_symmetry_multiplicity
 _atom_site_fract_x
 _atom_site_fract_y
 _atom_site_fract_z
 _atom_site_occupancy
  Sr  Sr0  1  -0.00000000  0.50000001  0.35066400  1
  Sr  Sr1  1  0.50000001  0.00000000  0.64933600  1
  Ca  Ca2  1  0.00000000  0.00000000  0.00000000  1
  Cd  Cd3  1  0.50000001  0.50000001  0.00000000  1
  Se  Se4  1  -0.00000000  0.50000001  0.79346900  1
  Se  Se5  1  0.50000001  0.00000000  0.20653100  1
