# generated using pymatgen
data_KNa2B2CO5
_symmetry_space_group_name_H-M   'P 1'
_cell_length_a   5.49258995
_cell_length_b   5.60703087
_cell_length_c   6.68073034
_cell_angle_alpha   66.13082123
_cell_angle_beta   65.72748566
_cell_angle_gamma   60.67290115
_symmetry_Int_Tables_number   1
_chemical_formula_structural   KNa2B2CO5
_chemical_formula_sum   'K1 Na2 B2 C1 O5'
_cell_volume   158.08063995
_cell_formula_units_Z   1
loop_
 _symmetry_equiv_pos_site_id
 _symmetry_equiv_pos_as_xyz
  1  'x, y, z'
loop_
 _atom_site_type_symbol
 _atom_site_label
 _atom_site_symmetry_multiplicity
 _atom_site_fract_x
 _atom_site_fract_y
 _atom_site_fract_z
 _atom_site_occupancy
  Na  Na0  1  0.21135902  0.26187300  0.31540898  1
  K  K1  1  0.78864105  0.73812701  0.68459094  1
  Na  Na2  1  0.00000000  0.00000000  0.00000000  1
  B  B3  1  0.56300904  0.63018701  0.24379495  1
  B  B4  1  0.43699103  0.36981300  0.75620496  1
  C  C5  1  0.72246103  0.37901400  0.17606396  1
  O  O6  1  0.29781102  0.23730800  0.72798197  1
  O  O7  1  0.26310104  0.76269201  0.27201796  1
  O  O8  1  0.27753903  0.62098601  0.82393595  1
  O  O9  1  0.73689903  0.23730800  0.72798196  1
  O  O10  1  0.70218905  0.76269201  0.27201794  1
