# generated using pymatgen
data_BaCaZrCdGa2Si2P4(SO)2
_symmetry_space_group_name_H-M   'P 1'
_cell_length_a   3.94141889
_cell_length_b   3.94141889
_cell_length_c   15.31271839
_cell_angle_alpha   90.00000000
_cell_angle_beta   90.00000000
_cell_angle_gamma   90.00000000
_symmetry_Int_Tables_number   1
_chemical_formula_structural   BaCaZrCdGa2Si2P4(SO)2
_chemical_formula_sum   'Ba1 Ca1 Zr1 Cd1 Ga2 Si2 P4 S2 O2'
_cell_volume   237.87975485
_cell_formula_units_Z   1
loop_
 _symmetry_equiv_pos_site_id
 _symmetry_equiv_pos_as_xyz
  1  'x, y, z'
loop_
 _atom_site_type_symbol
 _atom_site_label
 _atom_site_symmetry_multiplicity
 _atom_site_fract_x
 _atom_site_fract_y
 _atom_site_fract_z
 _atom_site_occupancy
  Ba  Ba0  1  0.50000001  0.50000001  0.49999999  1
  Zr  Zr1  1  0.50000001  0.50000001  0.84980498  1
  Ca  Ca2  1  0.50000001  0.50000001  0.15019500  1
  Cd  Cd3  1  0.00000000  0.00000000  0.00000000  1
  Ga  Ga4  1  0.00000000  0.00000000  0.27995199  1
  Ga  Ga5  1  0.00000000  0.00000000  0.72004798  1
  Si  Si6  1  0.00000000  0.00000000  0.60260498  1
  Si  Si7  1  0.00000000  0.00000000  0.39739499  1
  P  P8  1  0.50000001  0.00000000  0.74736098  1
  P  P9  1  -0.00000000  0.50000001  0.74736098  1
  P  P10  1  0.50000001  0.00000000  0.25263899  1
  S  S11  1  -0.00000000  0.50000001  0.25263899  1
  O  O12  1  -0.00000000  0.50000001  0.00000000  1
  O  O13  1  0.50000001  0.00000000  0.00000000  1
  S  S14  1  0.00000000  0.00000000  0.12876200  1
  P  P15  1  0.00000000  0.00000000  0.87123798  1
