# generated using pymatgen
data_Ba2NbZnO6
_symmetry_space_group_name_H-M   'P 1'
_cell_length_a   5.71991587
_cell_length_b   5.74935961
_cell_length_c   5.71991587
_cell_angle_alpha   119.83073425
_cell_angle_beta   90.00000000
_cell_angle_gamma   119.83073425
_symmetry_Int_Tables_number   1
_chemical_formula_structural   Ba2NbZnO6
_chemical_formula_sum   'Ba2 Nb1 Zn1 O6'
_cell_volume   133.68754277
_cell_formula_units_Z   1
loop_
 _symmetry_equiv_pos_site_id
 _symmetry_equiv_pos_as_xyz
  1  'x, y, z'
loop_
 _atom_site_type_symbol
 _atom_site_label
 _atom_site_symmetry_multiplicity
 _atom_site_fract_x
 _atom_site_fract_y
 _atom_site_fract_z
 _atom_site_occupancy
  Ba  Ba0  1  0.75000000  0.49999999  0.24999998  1
  Ba  Ba1  1  0.24999998  0.49999999  0.75000000  1
  Zn  Zn2  1  0.50000001  0.00000000  0.50000001  1
  Nb  Nb3  1  0.00000000  0.00000000  0.00000000  1
  O  O4  1  0.24226198  0.48452399  0.24226199  1
  O  O5  1  0.75773800  0.51547599  0.75773800  1
  O  O6  1  0.72185702  0.00000000  0.79469302  1
  O  O7  1  0.27814296  0.99999998  0.20530696  1
  O  O8  1  0.20530700  0.00000000  0.72185702  1
  O  O9  1  0.79469298  0.99999998  0.27814296  1
