# generated using pymatgen
data_K2NaMn3B2(HO3)3
_symmetry_space_group_name_H-M   'P 1'
_cell_length_a   3.85725093
_cell_length_b   8.88921356
_cell_length_c   8.88921452
_cell_angle_alpha   120.00000000
_cell_angle_beta   90.00000000
_cell_angle_gamma   90.00000000
_symmetry_Int_Tables_number   1
_chemical_formula_structural   K2NaMn3B2(HO3)3
_chemical_formula_sum   'K2 Na1 Mn3 B2 H3 O9'
_cell_volume   263.95825642
_cell_formula_units_Z   1
loop_
 _symmetry_equiv_pos_site_id
 _symmetry_equiv_pos_as_xyz
  1  'x, y, z'
loop_
 _atom_site_type_symbol
 _atom_site_label
 _atom_site_symmetry_multiplicity
 _atom_site_fract_x
 _atom_site_fract_y
 _atom_site_fract_z
 _atom_site_occupancy
  K  K0  1  0.50000001  0.59571505  0.00000003  1
  K  K1  1  0.50000001  0.40428503  0.40428503  1
  Na  Na2  1  0.50000001  1.00000008  0.59571507  1
  Mn  Mn3  1  0.00000000  0.23458402  0.00000001  1
  Mn  Mn4  1  0.00000000  0.76541606  0.76541606  1
  Mn  Mn5  1  0.00000000  1.00000008  0.23458406  1
  B  B6  1  1.00000002  0.33333336  0.66666670  1
  B  B7  1  1.00000002  0.66666672  0.33333338  1
  H  H8  1  1.00000002  0.81490606  0.32056305  1
  H  H9  1  1.00000002  0.49434304  0.67943704  1
  H  H10  1  0.00000000  0.18509401  0.50565702  1
  O  O11  1  1.00000002  0.32056302  0.81490604  1
  O  O12  1  1.00000002  0.50565704  0.18509403  1
  O  O13  1  1.00000002  0.67943705  0.49434305  1
  O  O14  1  0.50000001  0.00000000  0.26355001  1
  O  O15  1  0.50000001  0.73645006  0.73645006  1
  O  O16  1  0.50000001  0.26355002  0.00000001  1
  O  O17  1  1.00000002  1.00000008  0.81540608  1
  O  O18  1  1.00000002  0.18459401  0.18459401  1
  O  O19  1  0.00000000  0.81540606  0.00000005  1
