# generated using pymatgen
data_RbC2O3
_symmetry_space_group_name_H-M   'P 1'
_cell_length_a   3.78055191
_cell_length_b   5.70954132
_cell_length_c   8.08804417
_cell_angle_alpha   70.22272491
_cell_angle_beta   77.38838196
_cell_angle_gamma   89.97959137
_symmetry_Int_Tables_number   1
_chemical_formula_structural   RbC2O3
_chemical_formula_sum   'Rb2 C4 O6'
_cell_volume   159.80603571
_cell_formula_units_Z   2
loop_
 _symmetry_equiv_pos_site_id
 _symmetry_equiv_pos_as_xyz
  1  'x, y, z'
loop_
 _atom_site_type_symbol
 _atom_site_label
 _atom_site_symmetry_multiplicity
 _atom_site_fract_x
 _atom_site_fract_y
 _atom_site_fract_z
 _atom_site_occupancy
  Rb  Rb0  1  0.03473201  0.16838900  0.66985602  1
  Rb  Rb1  1  0.96526806  0.83161100  0.33014403  1
  C  C2  1  0.48439204  0.70132100  0.96544704  1
  C  C3  1  0.51560802  0.29867900  0.03455301  1
  C  C4  1  0.38356004  0.61148100  0.76211403  1
  C  C5  1  0.61644003  0.38851900  0.23788602  1
  O  O6  1  0.43123705  0.78409000  0.83968803  1
  O  O7  1  0.43442603  0.38356600  0.84382303  1
  O  O8  1  0.56876302  0.21591000  0.16031201  1
  O  O9  1  0.56557404  0.61643400  0.15617702  1
  O  O10  1  0.29103904  0.69532900  0.61281602  1
  O  O11  1  0.70896103  0.30467100  0.38718402  1
