# generated using pymatgen
data_Ba2YVCuAg4Se7
_symmetry_space_group_name_H-M   'P 1'
_cell_length_a   4.08622789
_cell_length_b   7.47729206
_cell_length_c   14.79169464
_cell_angle_alpha   90.00000000
_cell_angle_beta   90.00000000
_cell_angle_gamma   105.85730743
_symmetry_Int_Tables_number   1
_chemical_formula_structural   Ba2YVCuAg4Se7
_chemical_formula_sum   'Ba2 Y1 V1 Cu1 Ag4 Se7'
_cell_volume   434.74558726
_cell_formula_units_Z   1
loop_
 _symmetry_equiv_pos_site_id
 _symmetry_equiv_pos_as_xyz
  1  'x, y, z'
loop_
 _atom_site_type_symbol
 _atom_site_label
 _atom_site_symmetry_multiplicity
 _atom_site_fract_x
 _atom_site_fract_y
 _atom_site_fract_z
 _atom_site_occupancy
  Ba  Ba0  1  0.89276905  0.78553800  0.50054901  1
  Ba  Ba1  1  0.10723101  0.21446200  0.00054900  1
  V  V2  1  0.84536205  0.69072400  0.98822202  1
  Y  Y3  1  0.15463802  0.30927600  0.48822201  1
  Ag  Ag4  1  0.62315603  0.24631200  0.68756902  1
  Ag  Ag5  1  0.37684404  0.75368800  0.18756900  1
  Ag  Ag6  1  0.35510204  0.71020400  0.79642602  1
  Ag  Ag7  1  0.64489803  0.28979600  0.29642601  1
  Cu  Cu8  1  0.00618400  0.01236800  0.23606801  1
  Se  Se9  1  0.25383803  0.50767600  0.36117301  1
  Se  Se10  1  0.74616204  0.49232400  0.86117302  1
  Se  Se11  1  0.99381606  0.98763200  0.73606802  1
  Se  Se12  1  0.25528503  0.51057000  0.64412202  1
  Se  Se13  1  0.58786502  0.17573000  0.51047101  1
  Se  Se14  1  0.41213504  0.82427000  0.01047100  1
  Se  Se15  1  0.74471504  0.48943000  0.14412200  1
