# generated using pymatgen
data_Cs4Ba2La2PbWSO9
_symmetry_space_group_name_H-M   'P 1'
_cell_length_a   3.65071297
_cell_length_b   9.84224319
_cell_length_c   15.34572601
_cell_angle_alpha   90.00000000
_cell_angle_beta   90.00000000
_cell_angle_gamma   90.00000000
_symmetry_Int_Tables_number   1
_chemical_formula_structural   Cs4Ba2La2PbWSO9
_chemical_formula_sum   'Cs4 Ba2 La2 Pb1 W1 S1 O9'
_cell_volume   551.39042501
_cell_formula_units_Z   1
loop_
 _symmetry_equiv_pos_site_id
 _symmetry_equiv_pos_as_xyz
  1  'x, y, z'
loop_
 _atom_site_type_symbol
 _atom_site_label
 _atom_site_symmetry_multiplicity
 _atom_site_fract_x
 _atom_site_fract_y
 _atom_site_fract_z
 _atom_site_occupancy
  Ba  Ba0  1  0.25000000  0.15829600  0.42798800  1
  Cs  Cs1  1  0.75000001  0.84170398  0.57201200  1
  La  La2  1  0.25000000  0.65829599  0.07201200  1
  La  La3  1  0.75000001  0.34170399  0.92798800  1
  Cs  Cs4  1  0.75000001  0.99912798  0.17197600  1
  Cs  Cs5  1  0.25000000  0.00087200  0.82802400  1
  Cs  Cs6  1  0.75000001  0.49912799  0.32802400  1
  Ba  Ba7  1  0.25000000  0.50087199  0.67197600  1
  W  W8  1  0.25000000  0.02884600  0.59645100  1
  O  O9  1  0.75000001  0.97115398  0.40354900  1
  Pb  Pb10  1  0.25000000  0.52884599  0.90354900  1
  S  S11  1  0.75000001  0.47115399  0.09645100  1
  O  O12  1  0.25000000  0.24377700  0.28145500  1
  O  O13  1  0.75000001  0.75622299  0.71854500  1
  O  O14  1  0.25000000  0.74377699  0.21854500  1
  O  O15  1  0.75000001  0.25622299  0.78145500  1
  O  O16  1  0.25000000  0.18894400  0.99782200  1
  O  O17  1  0.75000001  0.81105598  0.00217800  1
  O  O18  1  0.25000000  0.68894399  0.50217800  1
  O  O19  1  0.75000001  0.31105599  0.49782200  1
