# generated using pymatgen
data_Na8VAsO6
_symmetry_space_group_name_H-M   'P 1'
_cell_length_a   6.09724998
_cell_length_b   6.28895426
_cell_length_c   8.81608391
_cell_angle_alpha   70.21978760
_cell_angle_beta   69.76920319
_cell_angle_gamma   61.00333786
_symmetry_Int_Tables_number   1
_chemical_formula_structural   Na8VAsO6
_chemical_formula_sum   'Na8 V1 As1 O6'
_cell_volume   271.36479075
_cell_formula_units_Z   1
loop_
 _symmetry_equiv_pos_site_id
 _symmetry_equiv_pos_as_xyz
  1  'x, y, z'
loop_
 _atom_site_type_symbol
 _atom_site_label
 _atom_site_symmetry_multiplicity
 _atom_site_fract_x
 _atom_site_fract_y
 _atom_site_fract_z
 _atom_site_occupancy
  Na  Na0  1  0.00306198  0.75827002  0.86462700  1
  Na  Na1  1  0.20558798  0.75747302  0.47295500  1
  Na  Na2  1  0.74264299  0.24725501  0.54306502  1
  Na  Na3  1  0.46703698  0.74725502  0.04306500  1
  Na  Na4  1  0.95987799  0.27046601  0.13850902  1
  Na  Na5  1  0.63114698  0.77046602  0.63850901  1
  Na  Na6  1  0.56398399  0.25747301  0.97295502  1
  Na  Na7  1  0.37404099  0.25827001  0.36462701  1
  As  As8  1  0.86417698  0.73022301  0.24998701  1
  V  V9  1  0.15561299  0.23022300  0.74998701  1
  O  O10  1  0.62408798  0.60957801  0.31149301  1
  O  O11  1  0.45484099  0.10957800  0.81149302  1
  O  O12  1  0.83091997  0.95424902  0.35419501  1
  O  O13  1  0.86063598  0.45424901  0.85419502  1
  O  O14  1  0.17336199  0.54618501  0.13306800  1
  O  O15  1  0.14738500  0.04618500  0.63306801  1
