# generated using pymatgen
data_Y2InBiTe8
_symmetry_space_group_name_H-M   'P 1'
_cell_length_a   4.44032812
_cell_length_b   8.91685867
_cell_length_c   11.59904385
_cell_angle_alpha   90.00000000
_cell_angle_beta   90.00000000
_cell_angle_gamma   90.00000000
_symmetry_Int_Tables_number   1
_chemical_formula_structural   Y2InBiTe8
_chemical_formula_sum   'Y2 In1 Bi1 Te8'
_cell_volume   459.24997075
_cell_formula_units_Z   1
loop_
 _symmetry_equiv_pos_site_id
 _symmetry_equiv_pos_as_xyz
  1  'x, y, z'
loop_
 _atom_site_type_symbol
 _atom_site_label
 _atom_site_symmetry_multiplicity
 _atom_site_fract_x
 _atom_site_fract_y
 _atom_site_fract_z
 _atom_site_occupancy
  In  In0  1  0.24999999  0.62222802  0.64713001  1
  Y  Y1  1  0.74999998  0.37777201  0.35287000  1
  Bi  Bi2  1  0.74999998  0.87777203  0.14713000  1
  Y  Y3  1  0.24999999  0.12222800  0.85287001  1
  Te  Te4  1  0.24999999  0.51057202  0.19422700  1
  Te  Te5  1  0.74999998  0.48942802  0.80577301  1
  Te  Te6  1  0.74999998  0.98942804  0.69422701  1
  Te  Te7  1  0.24999999  0.01057200  0.30577300  1
  Te  Te8  1  0.24999999  0.83764103  0.95725901  1
  Te  Te9  1  0.74999998  0.16235901  0.04274100  1
  Te  Te10  1  0.74999998  0.66235902  0.45725901  1
  Te  Te11  1  0.24999999  0.33764101  0.54274101  1
