# generated using pymatgen
data_Li7Cu(NiO2)4
_symmetry_space_group_name_H-M   'P 1'
_cell_length_a   4.74271441
_cell_length_b   6.79539204
_cell_length_c   6.79545069
_cell_angle_alpha   90.11913300
_cell_angle_beta   101.32006073
_cell_angle_gamma   101.31975555
_symmetry_Int_Tables_number   1
_chemical_formula_structural   Li7Cu(NiO2)4
_chemical_formula_sum   'Li7 Cu1 Ni4 O8'
_cell_volume   210.38194398
_cell_formula_units_Z   1
loop_
 _symmetry_equiv_pos_site_id
 _symmetry_equiv_pos_as_xyz
  1  'x, y, z'
loop_
 _atom_site_type_symbol
 _atom_site_label
 _atom_site_symmetry_multiplicity
 _atom_site_fract_x
 _atom_site_fract_y
 _atom_site_fract_z
 _atom_site_occupancy
  Li  Li0  1  0.48966806  0.51556501  0.51556299  1
  Li  Li1  1  0.73892705  0.22912701  0.22912499  1
  Li  Li2  1  0.24364801  0.03146400  0.46066499  1
  Li  Li3  1  0.00792602  0.28630501  0.72205599  1
  Li  Li4  1  0.00792705  0.72205902  0.28630399  1
  Li  Li5  1  0.24364704  0.46066801  0.03146099  1
  Ni  Ni6  1  0.49300304  0.21433501  0.79754398  1
  Li  Li7  1  0.49300408  0.79754602  0.21433599  1
  Ni  Ni8  1  0.75383807  0.52643501  0.96098998  1
  Ni  Ni9  1  0.75383810  0.96099203  0.52643398  1
  Cu  Cu10  1  0.98585511  0.99867803  0.99869197  1
  Ni  Ni11  1  0.30110906  0.76169102  0.76170998  1
  O  O12  1  0.11064601  0.02438700  0.73355199  1
  O  O13  1  0.11064305  0.73354902  0.02438899  1
  O  O14  1  0.38149807  0.77812002  0.47175898  1
  O  O15  1  0.38149905  0.47176601  0.77811798  1
  O  O16  1  0.87700905  0.26180701  0.97638898  1
  O  O17  1  0.87701110  0.97639403  0.26180398  1
  O  O18  1  0.62465404  0.23055001  0.51856099  1
  O  O19  1  0.62465106  0.51856501  0.23054699  1
