# generated using pymatgen
data_Li3SbP2
_symmetry_space_group_name_H-M   'P 1'
_cell_length_a   4.28229809
_cell_length_b   4.28229809
_cell_length_c   7.45148373
_cell_angle_alpha   73.30089569
_cell_angle_beta   73.30089569
_cell_angle_gamma   59.99999619
_symmetry_Int_Tables_number   1
_chemical_formula_structural   Li3SbP2
_chemical_formula_sum   'Li3 Sb1 P2'
_cell_volume   111.63495942
_cell_formula_units_Z   1
loop_
 _symmetry_equiv_pos_site_id
 _symmetry_equiv_pos_as_xyz
  1  'x, y, z'
loop_
 _atom_site_type_symbol
 _atom_site_label
 _atom_site_symmetry_multiplicity
 _atom_site_fract_x
 _atom_site_fract_y
 _atom_site_fract_z
 _atom_site_occupancy
  Li  Li0  1  0.99931206  0.99931204  0.00206392  1
  Li  Li1  1  0.50142003  0.50142002  0.49573996  1
  Li  Li2  1  0.12858801  0.12858801  0.61423599  1
  Sb  Sb3  1  0.62100904  0.62100903  0.13697295  1
  P  P4  1  0.75002705  0.75002703  0.74991893  1
  P  P5  1  0.24964202  0.24964201  0.25107398  1
