# generated using pymatgen
data_Rb2Tc(PdS2)2
_symmetry_space_group_name_H-M   'P 1'
_cell_length_a   6.17834520
_cell_length_b   6.17834520
_cell_length_c   8.14805603
_cell_angle_alpha   101.18745422
_cell_angle_beta   101.18745422
_cell_angle_gamma   119.22565460
_symmetry_Int_Tables_number   1
_chemical_formula_structural   Rb2Tc(PdS2)2
_chemical_formula_sum   'Rb2 Tc1 Pd2 S4'
_cell_volume   250.67426997
_cell_formula_units_Z   1
loop_
 _symmetry_equiv_pos_site_id
 _symmetry_equiv_pos_as_xyz
  1  'x, y, z'
loop_
 _atom_site_type_symbol
 _atom_site_label
 _atom_site_symmetry_multiplicity
 _atom_site_fract_x
 _atom_site_fract_y
 _atom_site_fract_z
 _atom_site_occupancy
  Rb  Rb0  1  0.34435796  0.34435797  0.68871596  1
  Rb  Rb1  1  0.65564192  0.65564195  0.31128394  1
  Pd  Pd2  1  -0.00000005  0.49999996  -0.00000003  1
  Tc  Tc3  1  0.00000000  0.00000000  0.00000000  1
  Pd  Pd4  1  0.49999999  0.00000000  -0.00000002  1
  S  S5  1  0.93334495  0.26809998  0.20144496  1
  S  S6  1  0.06665493  0.73189994  0.79855495  1
  S  S7  1  0.73189998  0.06665499  0.79855497  1
  S  S8  1  0.26809990  0.93334493  0.20144494  1
