# generated using pymatgen
data_LiH7O4
_symmetry_space_group_name_H-M   'P 1'
_cell_length_a   5.08530664
_cell_length_b   5.90855455
_cell_length_c   5.90855455
_cell_angle_alpha   71.94709778
_cell_angle_beta   82.80587006
_cell_angle_gamma   82.80587006
_symmetry_Int_Tables_number   1
_chemical_formula_structural   LiH7O4
_chemical_formula_sum   'Li1 H7 O4'
_cell_volume   166.76025183
_cell_formula_units_Z   1
loop_
 _symmetry_equiv_pos_site_id
 _symmetry_equiv_pos_as_xyz
  1  'x, y, z'
loop_
 _atom_site_type_symbol
 _atom_site_label
 _atom_site_symmetry_multiplicity
 _atom_site_fract_x
 _atom_site_fract_y
 _atom_site_fract_z
 _atom_site_occupancy
  Li  Li0  1  0.27515900  0.95895300  0.48699306  1
  H  H1  1  0.72484100  0.51300700  0.04104703  1
  H  H2  1  1.00000000  0.13913800  0.86086203  1
  H  H3  1  0.50000000  0.87820800  0.12179205  1
  H  H4  1  0.29061200  0.19552800  0.03082001  1
  H  H5  1  0.70938800  0.96918000  0.80447206  1
  H  H6  1  0.21235300  0.80540900  0.97682205  1
  H  H7  1  0.78764700  0.02317800  0.19459101  1
  O  O8  1  0.35520800  0.80591700  0.43920405  1
  O  O9  1  0.64479200  0.56079600  0.19408304  1
  O  O10  1  0.15535300  0.17445700  0.56277002  1
  O  O11  1  0.84464700  0.43723000  0.82554304  1
