# generated using pymatgen
data_MgMnAlSi2PH2PdS9
_symmetry_space_group_name_H-M   'P 1'
_cell_length_a   7.24135208
_cell_length_b   7.24135208
_cell_length_c   7.24135208
_cell_angle_alpha   60.00000000
_cell_angle_beta   60.00000000
_cell_angle_gamma   60.00000000
_symmetry_Int_Tables_number   1
_chemical_formula_structural   MgMnAlSi2PH2PdS9
_chemical_formula_sum   'Mg1 Mn1 Al1 Si2 P1 H2 Pd1 S9'
_cell_volume   268.49981671
_cell_formula_units_Z   1
loop_
 _symmetry_equiv_pos_site_id
 _symmetry_equiv_pos_as_xyz
  1  'x, y, z'
loop_
 _atom_site_type_symbol
 _atom_site_label
 _atom_site_symmetry_multiplicity
 _atom_site_fract_x
 _atom_site_fract_y
 _atom_site_fract_z
 _atom_site_occupancy
  Al  Al0  1  0.26087999  0.26087999  0.73911998  1
  Mg  Mg1  1  0.73911998  0.26087999  0.26087999  1
  Mn  Mn2  1  0.26087999  0.73911998  0.73911998  1
  H  H3  1  0.73911998  0.73911998  0.26087999  1
  Si  Si4  1  0.73911998  0.26087999  0.73911998  1
  Si  Si5  1  0.26087999  0.73911998  0.26087999  1
  H  H6  1  0.74999998  0.74999998  0.74999998  1
  P  P7  1  0.24999999  0.24999999  0.24999999  1
  S  S8  1  0.00000000  0.00000000  0.00000000  1
  S  S9  1  0.49999998  0.49999998  0.49999998  1
  S  S10  1  0.35036499  0.35036499  0.35036499  1
  S  S11  1  0.05109500  0.64963498  0.64963498  1
  S  S12  1  0.64963498  0.64963498  0.05109500  1
  S  S13  1  0.64963498  0.05109500  0.64963498  1
  Pd  Pd14  1  0.64963498  0.64963498  0.64963498  1
  S  S15  1  0.35036499  0.94890497  0.35036499  1
  S  S16  1  0.94890497  0.35036499  0.35036499  1
  S  S17  1  0.35036499  0.35036499  0.94890497  1
