# generated using pymatgen
data_Bi2Te4Pb
_symmetry_space_group_name_H-M   'P 1'
_cell_length_a   4.41812801
_cell_length_b   4.41812801
_cell_length_c   14.38591003
_cell_angle_alpha   81.16685486
_cell_angle_beta   81.16685486
_cell_angle_gamma   60.00000000
_symmetry_Int_Tables_number   1
_chemical_formula_structural   Bi2Te4Pb
_chemical_formula_sum   'Bi2 Te4 Pb1'
_cell_volume   239.33590481
_cell_formula_units_Z   1
loop_
 _symmetry_equiv_pos_site_id
 _symmetry_equiv_pos_as_xyz
  1  'x, y, z'
loop_
 _atom_site_type_symbol
 _atom_site_label
 _atom_site_symmetry_multiplicity
 _atom_site_fract_x
 _atom_site_fract_y
 _atom_site_fract_z
 _atom_site_occupancy
  Bi  Bi0  1  0.57310104  0.57310100  0.28069698  1
  Bi  Bi1  1  0.42689903  0.42689900  0.71930297  1
  Te  Te2  1  0.71422005  0.71422001  0.85733996  1
  Te  Te3  1  0.13239601  0.13239600  0.60281199  1
  Te  Te4  1  0.86760406  0.86760401  0.39718797  1
  Te  Te5  1  0.28578002  0.28578000  0.14265999  1
  Pb  Pb6  1  0.00000000  0.00000000  0.00000000  1
