# generated using pymatgen
data_Ba4CaZrIn2O10
_symmetry_space_group_name_H-M   'P 1'
_cell_length_a   6.05647802
_cell_length_b   6.23725224
_cell_length_c   9.50185490
_cell_angle_alpha   109.16030884
_cell_angle_beta   108.58431244
_cell_angle_gamma   90.00000000
_symmetry_Int_Tables_number   1
_chemical_formula_structural   Ba4CaZrIn2O10
_chemical_formula_sum   'Ba4 Ca1 Zr1 In2 O10'
_cell_volume   319.17558444
_cell_formula_units_Z   1
loop_
 _symmetry_equiv_pos_site_id
 _symmetry_equiv_pos_as_xyz
  1  'x, y, z'
loop_
 _atom_site_type_symbol
 _atom_site_label
 _atom_site_symmetry_multiplicity
 _atom_site_fract_x
 _atom_site_fract_y
 _atom_site_fract_z
 _atom_site_occupancy
  Ba  Ba0  1  0.87082301  0.37309199  0.78201200  1
  Ba  Ba1  1  0.08881101  0.62690798  0.21798801  1
  Ba  Ba2  1  0.37082301  0.90891997  0.78201200  1
  Ba  Ba3  1  0.58881100  0.09108000  0.21798801  1
  Ca  Ca4  1  0.75692501  0.68340298  0.50000001  1
  Zr  Zr5  1  0.25692501  0.31659699  0.50000000  1
  In  In6  1  0.47472101  0.49999998  0.99999999  1
  In  In7  1  0.97472102  0.99999997  0.00000003  1
  O  O8  1  0.10145901  0.62040898  0.50000000  1
  O  O9  1  0.60145901  0.37959099  0.50000000  1
  O  O10  1  0.31341801  0.30713199  0.72432899  1
  O  O11  1  0.58908901  0.69286798  0.27567101  1
  O  O12  1  0.81341802  0.91719697  0.72432901  1
  O  O13  1  0.08908900  0.08280300  0.27567100  1
  O  O14  1  0.23722200  0.25342499  0.01638901  1
  O  O15  1  0.22083301  0.74657498  0.98361200  1
  O  O16  1  0.72083301  0.73703598  0.98361200  1
  O  O17  1  0.73722201  0.26296399  0.01638901  1
