# generated using pymatgen
data_BaY2CuS4
_symmetry_space_group_name_H-M   'P 1'
_cell_length_a   4.09608984
_cell_length_b   7.37361956
_cell_length_c   14.08177662
_cell_angle_alpha   90.00000000
_cell_angle_beta   90.00000000
_cell_angle_gamma   106.12614441
_symmetry_Int_Tables_number   1
_chemical_formula_structural   BaY2CuS4
_chemical_formula_sum   'Ba2 Y4 Cu2 S8'
_cell_volume   408.57705537
_cell_formula_units_Z   2
loop_
 _symmetry_equiv_pos_site_id
 _symmetry_equiv_pos_as_xyz
  1  'x, y, z'
loop_
 _atom_site_type_symbol
 _atom_site_label
 _atom_site_symmetry_multiplicity
 _atom_site_fract_x
 _atom_site_fract_y
 _atom_site_fract_z
 _atom_site_occupancy
  Ba  Ba0  1  0.89405106  0.78810198  0.75000002  1
  Ba  Ba1  1  0.10594901  0.21189800  0.25000001  1
  Y  Y2  1  0.36554304  0.73108598  0.06148600  1
  Y  Y3  1  0.63445703  0.26891399  0.56148602  1
  Y  Y4  1  0.36554304  0.73108598  0.43851401  1
  Y  Y5  1  0.63445703  0.26891399  0.93851403  1
  Cu  Cu6  1  0.83535006  0.67069998  0.25000001  1
  Cu  Cu7  1  0.16465002  0.32929999  0.75000002  1
  S  S8  1  0.00000000  0.00000000  0.50000001  1
  S  S9  1  0.00000000  0.00000000  0.00000000  1
  S  S10  1  0.57579803  0.15159600  0.75000002  1
  S  S11  1  0.42420205  0.84840398  0.25000001  1
  S  S12  1  0.25999403  0.51998799  0.61277302  1
  S  S13  1  0.74000605  0.48001199  0.11277300  1
  S  S14  1  0.74000605  0.48001199  0.38722701  1
  S  S15  1  0.25999403  0.51998799  0.88722702  1
