# generated using pymatgen
data_Cs4BaSrCa2I12
_symmetry_space_group_name_H-M   'P 1'
_cell_length_a   8.85338116
_cell_length_b   8.93053627
_cell_length_c   12.75775909
_cell_angle_alpha   90.00000000
_cell_angle_beta   90.00000000
_cell_angle_gamma   90.00000000
_symmetry_Int_Tables_number   1
_chemical_formula_structural   Cs4BaSrCa2I12
_chemical_formula_sum   'Cs4 Ba1 Sr1 Ca2 I12'
_cell_volume   1008.69785579
_cell_formula_units_Z   1
loop_
 _symmetry_equiv_pos_site_id
 _symmetry_equiv_pos_as_xyz
  1  'x, y, z'
loop_
 _atom_site_type_symbol
 _atom_site_label
 _atom_site_symmetry_multiplicity
 _atom_site_fract_x
 _atom_site_fract_y
 _atom_site_fract_z
 _atom_site_occupancy
  Cs  Cs0  1  0.99242198  0.96543797  0.25000000  1
  Cs  Cs1  1  0.00757800  0.03456200  0.74999999  1
  Cs  Cs2  1  0.49242199  0.53456198  0.74999999  1
  Cs  Cs3  1  0.50757799  0.46543799  0.25000000  1
  Ca  Ca4  1  0.49999999  0.00000000  0.00000000  1
  Ca  Ca5  1  -0.00000000  0.49999998  0.00000000  1
  Sr  Sr6  1  0.49999999  0.00000000  0.50000000  1
  Ba  Ba7  1  -0.00000000  0.49999998  0.50000000  1
  I  I8  1  0.05147900  0.50714098  0.25000000  1
  I  I9  1  0.94852098  0.49285899  0.74999999  1
  I  I10  1  0.55147899  0.99285897  0.74999999  1
  I  I11  1  0.44852099  0.00714100  0.25000000  1
  I  I12  1  0.79662399  0.20392399  0.02592500  1
  I  I13  1  0.20337600  0.79607598  0.97407499  1
  I  I14  1  0.29662399  0.29607599  0.97407499  1
  I  I15  1  0.70337599  0.70392398  0.02592500  1
  I  I16  1  0.20337600  0.79607598  0.52592500  1
  I  I17  1  0.79662399  0.20392399  0.47407500  1
  I  I18  1  0.70337599  0.70392398  0.47407500  1
  I  I19  1  0.29662399  0.29607599  0.52592500  1
