# generated using pymatgen
data_K2Ga3TcGeP8N
_symmetry_space_group_name_H-M   'P 1'
_cell_length_a   6.57846737
_cell_length_b   7.17023611
_cell_length_c   9.68504047
_cell_angle_alpha   68.27385712
_cell_angle_beta   81.95474243
_cell_angle_gamma   90.00000000
_symmetry_Int_Tables_number   1
_chemical_formula_structural   K2Ga3TcGeP8N
_chemical_formula_sum   'K2 Ga3 Tc1 Ge1 P8 N1'
_cell_volume   419.53951145
_cell_formula_units_Z   1
loop_
 _symmetry_equiv_pos_site_id
 _symmetry_equiv_pos_as_xyz
  1  'x, y, z'
loop_
 _atom_site_type_symbol
 _atom_site_label
 _atom_site_symmetry_multiplicity
 _atom_site_fract_x
 _atom_site_fract_y
 _atom_site_fract_z
 _atom_site_occupancy
  K  K0  1  0.73468200  0.23096600  0.53806804  1
  K  K1  1  0.26531799  0.76903399  0.46193202  1
  Ga  Ga2  1  0.49999999  0.77813799  0.00000001  1
  Ga  Ga3  1  0.50000000  0.22186200  0.00000001  1
  Tc  Tc4  1  0.70813800  0.63191899  0.73616204  1
  Ga  Ga5  1  0.29186200  0.36808099  0.26383802  1
  Ge  Ge6  1  0.17676999  0.64693799  0.17051101  1
  P  P7  1  0.24516900  0.25565500  0.48869002  1
  P  P8  1  0.82323000  0.35306199  0.82948905  1
  P  P9  1  0.39888599  0.58397999  0.83204004  1
  P  P10  1  0.82322999  0.81744899  0.82948905  1
  P  P11  1  0.33094700  0.06006300  0.87987404  1
  P  P12  1  0.66905299  0.93993698  0.12012602  1
  P  P13  1  0.60111400  0.41601999  0.16796002  1
  N  N14  1  0.17677000  0.18255100  0.17051101  1
  P  P15  1  0.75483099  0.74434499  0.51131004  1
