# generated using pymatgen
data_LaCeThTi2NiSnMoAsRu4N2O
_symmetry_space_group_name_H-M   'P 1'
_cell_length_a   6.55376196
_cell_length_b   6.55376196
_cell_length_c   6.83666992
_cell_angle_alpha   90.00000000
_cell_angle_beta   90.00000000
_cell_angle_gamma   90.00000000
_symmetry_Int_Tables_number   1
_chemical_formula_structural   LaCeThTi2NiSnMoAsRu4N2O
_chemical_formula_sum   'La1 Ce1 Th1 Ti2 Ni1 Sn1 Mo1 As1 Ru4 N2 O1'
_cell_volume   293.64725055
_cell_formula_units_Z   1
loop_
 _symmetry_equiv_pos_site_id
 _symmetry_equiv_pos_as_xyz
  1  'x, y, z'
loop_
 _atom_site_type_symbol
 _atom_site_label
 _atom_site_symmetry_multiplicity
 _atom_site_fract_x
 _atom_site_fract_y
 _atom_site_fract_z
 _atom_site_occupancy
  La  La0  1  0.65461500  0.34538500  0.73511101  1
  Th  Th1  1  0.65461500  0.34538500  0.26488900  1
  Ti  Ti2  1  0.84538501  0.84538501  0.76488901  1
  Ti  Ti3  1  0.15461500  0.15461500  0.76488901  1
  Sn  Sn4  1  -0.00000000  0.50000000  0.00000000  1
  Ce  Ce5  1  0.50000000  0.00000000  0.50000001  1
  Mo  Mo6  1  0.84538501  0.84538501  0.23511100  1
  Ni  Ni7  1  0.34538500  0.65461500  0.73511101  1
  Ru  Ru8  1  0.15461500  0.15461500  0.23511100  1
  Ru  Ru9  1  0.50000000  0.00000000  -0.00000000  1
  O  O10  1  0.34538500  0.65461500  0.26488900  1
  Ru  Ru11  1  -0.00000000  0.50000000  0.50000001  1
  N  N12  1  0.83969001  0.16031000  -0.00000000  1
  As  As13  1  0.66031000  0.66031000  0.50000001  1
  N  N14  1  0.16031000  0.83969001  0.00000000  1
  Ru  Ru15  1  0.33969000  0.33969000  0.50000001  1
