# generated using pymatgen
data_Ba(CaAs)2
_symmetry_space_group_name_H-M   'P 1'
_cell_length_a   4.82394981
_cell_length_b   4.82395077
_cell_length_c   8.21505737
_cell_angle_alpha   90.00000000
_cell_angle_beta   90.00000000
_cell_angle_gamma   119.99999237
_symmetry_Int_Tables_number   1
_chemical_formula_structural   Ba(CaAs)2
_chemical_formula_sum   'Ba1 Ca2 As2'
_cell_volume   165.55675816
_cell_formula_units_Z   1
loop_
 _symmetry_equiv_pos_site_id
 _symmetry_equiv_pos_as_xyz
  1  'x, y, z'
loop_
 _atom_site_type_symbol
 _atom_site_label
 _atom_site_symmetry_multiplicity
 _atom_site_fract_x
 _atom_site_fract_y
 _atom_site_fract_z
 _atom_site_occupancy
  Ba  Ba0  1  0.00000000  0.00000000  0.00000000  1
  Ca  Ca1  1  0.33333330  0.66666663  0.62413097  1
  Ca  Ca2  1  0.66666667  0.33333331  0.37586898  1
  As  As3  1  0.33333330  0.66666663  0.26802699  1
  As  As4  1  0.66666667  0.33333331  0.73197297  1
