# generated using pymatgen
data_UTl2In2Ga(TeI6)2
_symmetry_space_group_name_H-M   'P 1'
_cell_length_a   7.64861012
_cell_length_b   11.11984634
_cell_length_c   11.26941681
_cell_angle_alpha   81.84680176
_cell_angle_beta   88.41856384
_cell_angle_gamma   74.46506500
_symmetry_Int_Tables_number   1
_chemical_formula_structural   UTl2In2Ga(TeI6)2
_chemical_formula_sum   'U1 Tl2 In2 Ga1 Te2 I12'
_cell_volume   914.07532897
_cell_formula_units_Z   1
loop_
 _symmetry_equiv_pos_site_id
 _symmetry_equiv_pos_as_xyz
  1  'x, y, z'
loop_
 _atom_site_type_symbol
 _atom_site_label
 _atom_site_symmetry_multiplicity
 _atom_site_fract_x
 _atom_site_fract_y
 _atom_site_fract_z
 _atom_site_occupancy
  U  U0  1  0.11243490  0.90876103  0.83824697  1
  Tl  Tl1  1  0.88756498  0.09123900  0.16175301  1
  Tl  Tl2  1  0.18799993  0.67376103  0.72334198  1
  Ga  Ga3  1  0.81199995  0.32623901  0.27665800  1
  In  In4  1  0.22483390  0.94835604  0.06998696  1
  In  In5  1  0.46319191  0.76013103  0.83060099  1
  I  I6  1  0.89395189  0.89663203  0.65215898  1
  I  I7  1  0.19738699  0.11355500  0.72340301  1
  Te  Te8  1  0.80261290  0.88644503  0.27659698  1
  Te  Te9  1  0.05896095  0.44940002  0.33150998  1
  I  I10  1  0.41138095  0.43974302  0.80339400  1
  I  I11  1  0.02777893  0.68887103  0.96037598  1
  I  I12  1  0.10604799  0.10336800  0.34784100  1
  I  I13  1  0.53680797  0.23986901  0.16939900  1
  I  I14  1  0.77516598  0.05164400  0.93001303  1
  I  I15  1  0.97222095  0.31112901  0.03962400  1
  I  I16  1  0.66383296  0.29085201  0.49180001  1
  I  I17  1  0.94103893  0.55060002  0.66849000  1
  I  I18  1  0.33616692  0.70914803  0.50819998  1
  I  I19  1  0.58861893  0.56025702  0.19660599  1
