# generated using pymatgen
data_Li2Nb3WO11
_symmetry_space_group_name_H-M   'P 1'
_cell_length_a   5.26575804
_cell_length_b   5.45422888
_cell_length_c   7.25544453
_cell_angle_alpha   93.76903534
_cell_angle_beta   90.42671967
_cell_angle_gamma   90.64881134
_symmetry_Int_Tables_number   1
_chemical_formula_structural   Li2Nb3WO11
_chemical_formula_sum   'Li2 Nb3 W1 O11'
_cell_volume   207.91004124
_cell_formula_units_Z   1
loop_
 _symmetry_equiv_pos_site_id
 _symmetry_equiv_pos_as_xyz
  1  'x, y, z'
loop_
 _atom_site_type_symbol
 _atom_site_label
 _atom_site_symmetry_multiplicity
 _atom_site_fract_x
 _atom_site_fract_y
 _atom_site_fract_z
 _atom_site_occupancy
  Li  Li0  1  0.98006897  0.58069498  0.20052394  1
  Li  Li1  1  0.50980397  0.49404998  0.47878596  1
  Nb  Nb2  1  0.48247097  0.49351998  0.97515896  1
  Nb  Nb3  1  0.01199800  0.03141800  0.02052100  1
  Nb  Nb4  1  0.00254596  0.99746796  0.51620096  1
  W  W5  1  0.92324295  0.98138796  0.25423792  1
  O  O6  1  0.59536197  0.49996398  0.25195996  1
  O  O7  1  0.42582197  0.50346498  0.74472496  1
  O  O8  1  0.18485998  0.31547699  0.04747298  1
  O  O9  1  0.07064596  0.99178396  0.74774696  1
  O  O10  1  0.81428198  0.31161699  0.54563896  1
  O  O11  1  0.80898996  0.69092397  0.96839994  1
  O  O12  1  0.69066199  0.19544899  0.96005897  1
  O  O13  1  0.68251596  0.80849597  0.54545694  1
  O  O14  1  0.31439799  0.18558999  0.45467698  1
  O  O15  1  0.29960796  0.79921297  0.05380095  1
  O  O16  1  0.18231897  0.67111598  0.44119396  1
