# generated using pymatgen
data_AgPS
_symmetry_space_group_name_H-M   'P 1'
_cell_length_a   4.20160675
_cell_length_b   4.20160675
_cell_length_c   4.99535608
_cell_angle_alpha   88.92565918
_cell_angle_beta   88.92565918
_cell_angle_gamma   89.79916382
_symmetry_Int_Tables_number   1
_chemical_formula_structural   AgPS
_chemical_formula_sum   'Ag1 P1 S1'
_cell_volume   88.15407467
_cell_formula_units_Z   1
loop_
 _symmetry_equiv_pos_site_id
 _symmetry_equiv_pos_as_xyz
  1  'x, y, z'
loop_
 _atom_site_type_symbol
 _atom_site_label
 _atom_site_symmetry_multiplicity
 _atom_site_fract_x
 _atom_site_fract_y
 _atom_site_fract_z
 _atom_site_occupancy
  Ag  Ag0  1  0.15908998  0.84090998  0.00000004  1
  P  P1  1  0.17189199  0.33053099  0.27140903  1
  S  S2  1  0.66946897  0.82810798  0.72859110  1
