# generated using pymatgen
data_Sr2LiMgZnCu(SeCl)3
_symmetry_space_group_name_H-M   'P 1'
_cell_length_a   3.91530609
_cell_length_b   7.52817059
_cell_length_c   11.97321796
_cell_angle_alpha   93.37734985
_cell_angle_beta   99.41026306
_cell_angle_gamma   90.00000000
_symmetry_Int_Tables_number   1
_chemical_formula_structural   Sr2LiMgZnCu(SeCl)3
_chemical_formula_sum   'Sr2 Li1 Mg1 Zn1 Cu1 Se3 Cl3'
_cell_volume   347.54121668
_cell_formula_units_Z   1
loop_
 _symmetry_equiv_pos_site_id
 _symmetry_equiv_pos_as_xyz
  1  'x, y, z'
loop_
 _atom_site_type_symbol
 _atom_site_label
 _atom_site_symmetry_multiplicity
 _atom_site_fract_x
 _atom_site_fract_y
 _atom_site_fract_z
 _atom_site_occupancy
  Sr  Sr0  1  0.66130800  0.78601998  0.32261602  1
  Sr  Sr1  1  0.33869200  0.21398000  0.67738400  1
  Li  Li2  1  0.49210300  0.74739398  0.98420601  1
  Mg  Mg3  1  0.50789699  0.25260599  0.01579401  1
  Zn  Zn4  1  0.85175199  0.72060098  0.70350402  1
  Cu  Cu5  1  0.14824800  0.27939899  0.29649600  1
  Se  Se6  1  0.91278599  0.98596498  0.82557202  1
  Cl  Cl7  1  0.08721400  0.01403500  0.17442800  1
  Se  Se8  1  0.91034899  0.47277099  0.82069801  1
  Se  Se9  1  0.08965101  0.52722899  0.17930201  1
  Cl  Cl10  1  0.28632600  0.71439998  0.57265201  1
  Cl  Cl11  1  0.71367399  0.28559999  0.42734801  1
