# generated using pymatgen
data_Ca2H3CN5
_symmetry_space_group_name_H-M   'P 1'
_cell_length_a   3.74715996
_cell_length_b   5.20243883
_cell_length_c   7.33108759
_cell_angle_alpha   95.96185303
_cell_angle_beta   104.80715179
_cell_angle_gamma   90.00000000
_symmetry_Int_Tables_number   1
_chemical_formula_structural   Ca2H3CN5
_chemical_formula_sum   'Ca2 H3 C1 N5'
_cell_volume   137.36925416
_cell_formula_units_Z   1
loop_
 _symmetry_equiv_pos_site_id
 _symmetry_equiv_pos_as_xyz
  1  'x, y, z'
loop_
 _atom_site_type_symbol
 _atom_site_label
 _atom_site_symmetry_multiplicity
 _atom_site_fract_x
 _atom_site_fract_y
 _atom_site_fract_z
 _atom_site_occupancy
  Ca  Ca0  1  0.13428100  0.56945297  0.26856199  1
  Ca  Ca1  1  0.86571900  0.43054698  0.73143798  1
  C  C2  1  0.67203700  0.09395900  0.34407399  1
  H  H3  1  0.32796299  0.90604096  0.65592597  1
  H  H4  1  0.00000000  0.00000000  0.00000000  1
  H  H5  1  0.01146600  0.23815899  0.02293200  1
  N  N6  1  0.98853400  0.76184096  0.97706797  1
  N  N7  1  0.31007700  0.66558097  0.62015398  1
  N  N8  1  0.68992300  0.33441898  0.37984598  1
  N  N9  1  0.34255200  0.14095399  0.68510398  1
  N  N10  1  0.65744800  0.85904596  0.31489598  1
