# generated using pymatgen
data_LiY4Sc2FeN2O
_symmetry_space_group_name_H-M   'P 1'
_cell_length_a   3.83124995
_cell_length_b   5.50108004
_cell_length_c   11.47678661
_cell_angle_alpha   90.00000000
_cell_angle_beta   90.00000000
_cell_angle_gamma   90.00000000
_symmetry_Int_Tables_number   1
_chemical_formula_structural   LiY4Sc2FeN2O
_chemical_formula_sum   'Li1 Y4 Sc2 Fe1 N2 O1'
_cell_volume   241.88489957
_cell_formula_units_Z   1
loop_
 _symmetry_equiv_pos_site_id
 _symmetry_equiv_pos_as_xyz
  1  'x, y, z'
loop_
 _atom_site_type_symbol
 _atom_site_label
 _atom_site_symmetry_multiplicity
 _atom_site_fract_x
 _atom_site_fract_y
 _atom_site_fract_z
 _atom_site_occupancy
  Sc  Sc0  1  -0.00000000  0.00132500  0.84105403  1
  Y  Y1  1  -0.00000000  0.00132500  0.15894601  1
  Sc  Sc2  1  -0.00000000  0.00705000  0.50000002  1
  Li  Li3  1  0.50000001  0.50498800  0.33104401  1
  Y  Y4  1  0.50000001  0.50498800  0.66895602  1
  Y  Y5  1  -0.00000000  0.25252000  0.32853601  1
  Fe  Fe6  1  0.50000001  0.75344300  0.50000002  1
  Y  Y7  1  -0.00000000  0.25252000  0.67146402  1
  N  N8  1  0.50000001  0.74358900  0.83663803  1
  O  O9  1  -0.00000000  0.23466000  0.00000000  1
  N  N10  1  0.50000001  0.74358900  0.16336201  1
