# generated using pymatgen
data_AcU(BiO2)2
_symmetry_space_group_name_H-M   'P 1'
_cell_length_a   3.96527410
_cell_length_b   6.76833153
_cell_length_c   7.32490301
_cell_angle_alpha   103.74573517
_cell_angle_beta   105.70418549
_cell_angle_gamma   90.00000000
_symmetry_Int_Tables_number   1
_chemical_formula_structural   AcU(BiO2)2
_chemical_formula_sum   'Ac1 U1 Bi2 O4'
_cell_volume   183.39415780
_cell_formula_units_Z   1
loop_
 _symmetry_equiv_pos_site_id
 _symmetry_equiv_pos_as_xyz
  1  'x, y, z'
loop_
 _atom_site_type_symbol
 _atom_site_label
 _atom_site_symmetry_multiplicity
 _atom_site_fract_x
 _atom_site_fract_y
 _atom_site_fract_z
 _atom_site_occupancy
  Ac  Ac0  1  0.95729799  0.28011700  0.00017801  1
  U  U1  1  0.95711999  0.71988299  0.99982203  1
  Bi  Bi2  1  0.13261200  0.06302000  0.24688701  1
  Bi  Bi3  1  0.88572500  0.93697999  0.75311302  1
  O  O4  1  0.14366200  0.57381699  0.28634601  1
  O  O5  1  0.85731599  0.42618299  0.71365402  1
  O  O6  1  0.49746599  0.27282700  0.00066401  1
  O  O7  1  0.49680200  0.72717299  0.99933602  1
