# generated using pymatgen
data_BaBiClO2
_symmetry_space_group_name_H-M   'P 1'
_cell_length_a   5.92634583
_cell_length_b   6.17190409
_cell_length_c   7.89432812
_cell_angle_alpha   66.98902130
_cell_angle_beta   90.00000000
_cell_angle_gamma   90.00000000
_symmetry_Int_Tables_number   1
_chemical_formula_structural   BaBiClO2
_chemical_formula_sum   'Ba2 Bi2 Cl2 O4'
_cell_volume   265.77374869
_cell_formula_units_Z   2
loop_
 _symmetry_equiv_pos_site_id
 _symmetry_equiv_pos_as_xyz
  1  'x, y, z'
loop_
 _atom_site_type_symbol
 _atom_site_label
 _atom_site_symmetry_multiplicity
 _atom_site_fract_x
 _atom_site_fract_y
 _atom_site_fract_z
 _atom_site_occupancy
  Ba  Ba0  1  0.25000001  0.60132199  0.79735598  1
  Ba  Ba1  1  0.75000002  0.39867800  0.20264399  1
  Bi  Bi2  1  0.75000002  0.06725700  0.86548598  1
  Bi  Bi3  1  0.25000001  0.93274299  0.13451399  1
  Cl  Cl4  1  0.25000001  0.25199000  0.49601999  1
  Cl  Cl5  1  0.75000002  0.74800999  0.50397999  1
  O  O6  1  0.50000001  0.22356800  -0.00000000  1
  O  O7  1  0.50000001  0.77643199  0.99999997  1
  O  O8  1  1.00000003  0.77643199  0.99999997  1
  O  O9  1  1.00000003  0.22356800  -0.00000000  1
