# generated using pymatgen
data_NaMgZnCo3S8
_symmetry_space_group_name_H-M   'P 1'
_cell_length_a   6.81416321
_cell_length_b   6.81416321
_cell_length_c   6.81416321
_cell_angle_alpha   60.00000000
_cell_angle_beta   60.00000000
_cell_angle_gamma   60.00000000
_symmetry_Int_Tables_number   1
_chemical_formula_structural   NaMgZnCo3S8
_chemical_formula_sum   'Na1 Mg1 Zn1 Co3 S8'
_cell_volume   223.72916202
_cell_formula_units_Z   1
loop_
 _symmetry_equiv_pos_site_id
 _symmetry_equiv_pos_as_xyz
  1  'x, y, z'
loop_
 _atom_site_type_symbol
 _atom_site_label
 _atom_site_symmetry_multiplicity
 _atom_site_fract_x
 _atom_site_fract_y
 _atom_site_fract_z
 _atom_site_occupancy
  Mg  Mg0  1  0.50000000  0.50000000  0.50000000  1
  Na  Na1  1  0.25000000  0.25000000  0.25000000  1
  Zn  Zn2  1  0.87500000  0.37500000  0.87500000  1
  Co  Co3  1  0.87500000  0.87500000  0.87500000  1
  Co  Co4  1  0.37500000  0.87500000  0.87500000  1
  Co  Co5  1  0.87500000  0.87500000  0.37500000  1
  S  S6  1  0.10671000  0.10671000  0.67987000  1
  S  S7  1  0.64329000  0.64329000  0.64329000  1
  S  S8  1  0.07013000  0.64329000  0.64329000  1
  S  S9  1  0.10671000  0.67987000  0.10671000  1
  S  S10  1  0.64329000  0.07013000  0.64329000  1
  S  S11  1  0.67987000  0.10671000  0.10671000  1
  S  S12  1  0.10671000  0.10671000  0.10671000  1
  S  S13  1  0.64329000  0.64329000  0.07013000  1
