# generated using pymatgen
data_Cs2Ga2TeI11
_symmetry_space_group_name_H-M   'P 1'
_cell_length_a   7.43750000
_cell_length_b   7.98633623
_cell_length_c   14.38164520
_cell_angle_alpha   100.18236542
_cell_angle_beta   90.00000000
_cell_angle_gamma   117.75158691
_symmetry_Int_Tables_number   1
_chemical_formula_structural   Cs2Ga2TeI11
_chemical_formula_sum   'Cs2 Ga2 Te1 I11'
_cell_volume   740.74956899
_cell_formula_units_Z   1
loop_
 _symmetry_equiv_pos_site_id
 _symmetry_equiv_pos_as_xyz
  1  'x, y, z'
loop_
 _atom_site_type_symbol
 _atom_site_label
 _atom_site_symmetry_multiplicity
 _atom_site_fract_x
 _atom_site_fract_y
 _atom_site_fract_z
 _atom_site_occupancy
  Cs  Cs0  1  0.08901400  0.00000000  0.75000002  1
  Cs  Cs1  1  0.91098600  0.00000000  0.25000001  1
  Ga  Ga2  1  -0.00000000  0.50000002  0.00000001  1
  Ga  Ga3  1  0.50000000  0.50000002  0.50000002  1
  Te  Te4  1  0.47519500  0.15947500  0.39806601  1
  I  I5  1  0.68428000  0.15947500  0.89806603  1
  I  I6  1  0.31572000  0.84052503  0.10193402  1
  I  I7  1  0.62171700  0.42704901  0.66397003  1
  I  I8  1  0.37828300  0.57295102  0.33603002  1
  I  I9  1  0.90535000  0.69782902  0.46565902  1
  I  I10  1  0.09465000  0.30217101  0.53434102  1
  I  I11  1  0.52480500  0.84052503  0.60193403  1
  I  I12  1  0.79247900  0.69782902  0.96565904  1
  I  I13  1  0.19466800  0.57295102  0.83603003  1
  I  I14  1  0.80533200  0.42704901  0.16397001  1
  I  I15  1  0.20752100  0.30217101  0.03434101  1
