# generated using pymatgen
data_BaLaCu6BrO7
_symmetry_space_group_name_H-M   'P 1'
_cell_length_a   6.15008211
_cell_length_b   6.27976799
_cell_length_c   7.71803808
_cell_angle_alpha   90.00000000
_cell_angle_beta   90.00000000
_cell_angle_gamma   90.00000000
_symmetry_Int_Tables_number   1
_chemical_formula_structural   BaLaCu6BrO7
_chemical_formula_sum   'Ba1 La1 Cu6 Br1 O7'
_cell_volume   298.07903397
_cell_formula_units_Z   1
loop_
 _symmetry_equiv_pos_site_id
 _symmetry_equiv_pos_as_xyz
  1  'x, y, z'
loop_
 _atom_site_type_symbol
 _atom_site_label
 _atom_site_symmetry_multiplicity
 _atom_site_fract_x
 _atom_site_fract_y
 _atom_site_fract_z
 _atom_site_occupancy
  Ba  Ba0  1  0.09275500  0.86787300  0.68229699  1
  La  La1  1  0.59275499  0.13212700  0.31770300  1
  Cu  Cu2  1  0.59275499  0.63212700  0.18229700  1
  Cu  Cu3  1  0.09275500  0.36787300  0.81770299  1
  Cu  Cu4  1  0.40538899  0.01876700  0.96821599  1
  Cu  Cu5  1  0.90538898  0.98123300  0.03178400  1
  Cu  Cu6  1  0.90538898  0.48123300  0.46821600  1
  Cu  Cu7  1  0.40538899  0.51876700  0.53178399  1
  O  O8  1  0.12498700  0.08094500  0.38031300  1
  O  O9  1  0.62498699  0.91905500  0.61968699  1
  O  O10  1  0.62498699  0.41905500  0.88031299  1
  Br  Br11  1  0.12498700  0.58094500  0.11968700  1
  O  O12  1  0.12492000  0.56785900  0.62713599  1
  O  O13  1  0.62491999  0.43214100  0.37286400  1
  O  O14  1  0.62491999  0.93214100  0.12713600  1
  O  O15  1  0.12492000  0.06785900  0.87286399  1
