# generated using pymatgen
data_Ge2Te3
_symmetry_space_group_name_H-M   'P 1'
_cell_length_a   4.40459538
_cell_length_b   4.40459538
_cell_length_c   18.27267456
_cell_angle_alpha   83.07765198
_cell_angle_beta   83.07765198
_cell_angle_gamma   60.00000763
_symmetry_Int_Tables_number   1
_chemical_formula_structural   Ge2Te3
_chemical_formula_sum   'Ge4 Te6'
_cell_volume   304.01697801
_cell_formula_units_Z   2
loop_
 _symmetry_equiv_pos_site_id
 _symmetry_equiv_pos_as_xyz
  1  'x, y, z'
loop_
 _atom_site_type_symbol
 _atom_site_label
 _atom_site_symmetry_multiplicity
 _atom_site_fract_x
 _atom_site_fract_y
 _atom_site_fract_z
 _atom_site_occupancy
  Ge  Ge0  1  0.60352205  0.60352202  0.18943402  1
  Ge  Ge1  1  0.20132602  0.20132601  0.39602203  1
  Ge  Ge2  1  0.79867406  0.79867403  0.60397805  1
  Ge  Ge3  1  0.39647803  0.39647801  0.81056605  1
  Te  Te4  1  0.00000000  0.00000000  0.00000000  1
  Te  Te5  1  0.69515605  0.69515602  0.91453206  1
  Te  Te6  1  0.50000004  0.50000002  0.50000004  1
  Te  Te7  1  0.09759101  0.09759100  0.70722704  1
  Te  Te8  1  0.30484402  0.30484401  0.08546801  1
  Te  Te9  1  0.90240907  0.90240903  0.29277304  1
