# generated using pymatgen
data_HfMnFeP3IrOs6Ru
_symmetry_space_group_name_H-M   'P 1'
_cell_length_a   7.60111809
_cell_length_b   7.62292671
_cell_length_c   7.62292671
_cell_angle_alpha   60.17427444
_cell_angle_beta   60.09459305
_cell_angle_gamma   60.09459305
_symmetry_Int_Tables_number   1
_chemical_formula_structural   HfMnFeP3IrOs6Ru
_chemical_formula_sum   'Hf1 Mn1 Fe1 P3 Ir1 Os6 Ru1'
_cell_volume   313.18128968
_cell_formula_units_Z   1
loop_
 _symmetry_equiv_pos_site_id
 _symmetry_equiv_pos_as_xyz
  1  'x, y, z'
loop_
 _atom_site_type_symbol
 _atom_site_label
 _atom_site_symmetry_multiplicity
 _atom_site_fract_x
 _atom_site_fract_y
 _atom_site_fract_z
 _atom_site_occupancy
  Mn  Mn0  1  0.50500500  0.24521700  0.24521598  1
  Hf  Hf1  1  0.00456300  0.24521600  0.24521599  1
  Fe  Fe2  1  0.00000700  0.75900801  0.24097798  1
  Ir  Ir3  1  0.00000600  0.24097800  0.75900899  1
  Os  Os4  1  0.61482600  0.88517401  0.88517396  1
  Os  Os5  1  0.37709900  0.62290101  0.62290098  1
  Os  Os6  1  0.76477800  0.45473401  0.01570898  1
  Os  Os7  1  0.76477900  0.01570800  0.45473399  1
  Ru  Ru8  1  0.80427400  0.48136601  0.48136597  1
  P  P9  1  0.23299400  0.48136601  0.48136598  1
  P  P10  1  0.23516400  0.04557100  0.48410099  1
  Os  Os11  1  0.23516400  0.48410101  0.04557098  1
  Os  Os12  1  0.19310600  0.01933000  0.01933000  1
  P  P13  1  0.76823400  0.01933000  0.01932999  1
