# generated using pymatgen
data_KNa2PO2
_symmetry_space_group_name_H-M   'P 1'
_cell_length_a   4.18846607
_cell_length_b   5.22542620
_cell_length_c   6.48427153
_cell_angle_alpha   80.49505615
_cell_angle_beta   71.15729523
_cell_angle_gamma   66.37320709
_symmetry_Int_Tables_number   1
_chemical_formula_structural   KNa2PO2
_chemical_formula_sum   'K1 Na2 P1 O2'
_cell_volume   122.94957666
_cell_formula_units_Z   1
loop_
 _symmetry_equiv_pos_site_id
 _symmetry_equiv_pos_as_xyz
  1  'x, y, z'
loop_
 _atom_site_type_symbol
 _atom_site_label
 _atom_site_symmetry_multiplicity
 _atom_site_fract_x
 _atom_site_fract_y
 _atom_site_fract_z
 _atom_site_occupancy
  Na  Na0  1  -0.00000000  0.00000000  0.50000001  1
  K  K1  1  0.49999995  0.50000000  0.00000003  1
  Na  Na2  1  0.81960293  0.54897100  0.55295305  1
  P  P3  1  0.92152690  0.95102899  0.94704708  1
  O  O4  1  0.07847299  0.04897100  0.05295300  1
  O  O5  1  0.18039696  0.45102900  0.44704704  1
