# generated using pymatgen
data_Cd2SnTe4
_symmetry_space_group_name_H-M   'P 1'
_cell_length_a   6.53609419
_cell_length_b   6.53609419
_cell_length_c   8.04211140
_cell_angle_alpha   113.97680664
_cell_angle_beta   113.97680664
_cell_angle_gamma   90.00000000
_symmetry_Int_Tables_number   1
_chemical_formula_structural   Cd2SnTe4
_chemical_formula_sum   'Cd2 Sn1 Te4'
_cell_volume   281.16238966
_cell_formula_units_Z   1
loop_
 _symmetry_equiv_pos_site_id
 _symmetry_equiv_pos_as_xyz
  1  'x, y, z'
loop_
 _atom_site_type_symbol
 _atom_site_label
 _atom_site_symmetry_multiplicity
 _atom_site_fract_x
 _atom_site_fract_y
 _atom_site_fract_z
 _atom_site_occupancy
  Cd  Cd0  1  0.24999999  0.74999998  0.49999997  1
  Cd  Cd1  1  0.49999998  0.49999998  -0.00000001  1
  Sn  Sn2  1  0.00000000  0.00000000  0.00000000  1
  Te  Te3  1  0.62962298  0.61004098  0.74002395  1
  Te  Te4  1  0.87001697  0.37037699  0.25997598  1
  Te  Te5  1  0.11040100  0.12998300  0.74002396  1
  Te  Te6  1  0.38995898  0.88959897  0.25997598  1
