# generated using pymatgen
data_DyHo(HO2)2
_symmetry_space_group_name_H-M   'P 1'
_cell_length_a   3.56661105
_cell_length_b   4.24658012
_cell_length_c   5.82034063
_cell_angle_alpha   109.56375885
_cell_angle_beta   90.00000000
_cell_angle_gamma   90.00000000
_symmetry_Int_Tables_number   1
_chemical_formula_structural   DyHo(HO2)2
_chemical_formula_sum   'Dy1 Ho1 H2 O4'
_cell_volume   83.06509865
_cell_formula_units_Z   1
loop_
 _symmetry_equiv_pos_site_id
 _symmetry_equiv_pos_as_xyz
  1  'x, y, z'
loop_
 _atom_site_type_symbol
 _atom_site_label
 _atom_site_symmetry_multiplicity
 _atom_site_fract_x
 _atom_site_fract_y
 _atom_site_fract_z
 _atom_site_occupancy
  Ho  Ho0  1  0.23302600  0.33362899  0.18744299  1
  Dy  Dy1  1  0.73302599  0.66637097  0.81255697  1
  H  H2  1  0.17267900  0.98039896  0.59191496  1
  H  H3  1  0.67267899  0.01960100  0.40808499  1
  O  O4  1  0.23202600  0.76847797  0.05547198  1
  O  O5  1  0.73202599  0.23152199  0.94452798  1
  O  O6  1  0.23710700  0.74717097  0.56477097  1
  O  O7  1  0.73710699  0.25282899  0.43522899  1
