# generated using pymatgen
data_LiMnVP4WO12
_symmetry_space_group_name_H-M   'P 1'
_cell_length_a   5.03859711
_cell_length_b   7.70105314
_cell_length_c   8.70549202
_cell_angle_alpha   114.10120392
_cell_angle_beta   89.93154144
_cell_angle_gamma   89.85395050
_symmetry_Int_Tables_number   1
_chemical_formula_structural   LiMnVP4WO12
_chemical_formula_sum   'Li1 Mn1 V1 P4 W1 O12'
_cell_volume   308.34589520
_cell_formula_units_Z   1
loop_
 _symmetry_equiv_pos_site_id
 _symmetry_equiv_pos_as_xyz
  1  'x, y, z'
loop_
 _atom_site_type_symbol
 _atom_site_label
 _atom_site_symmetry_multiplicity
 _atom_site_fract_x
 _atom_site_fract_y
 _atom_site_fract_z
 _atom_site_occupancy
  W  W0  1  0.36143698  0.10778100  0.29017898  1
  Li  Li1  1  0.86466489  0.92933497  0.71960993  1
  V  V2  1  0.35490890  0.91070097  0.89617395  1
  Mn  Mn3  1  0.87147089  0.93510997  0.37774293  1
  P  P4  1  0.31238994  0.49160598  0.88459597  1
  P  P5  1  0.37172798  0.07159000  0.61651599  1
  P  P6  1  0.81568393  0.50558098  0.10206495  1
  P  P7  1  0.85442697  0.10129500  0.10587896  1
  O  O8  1  0.01788795  0.44983198  0.94138399  1
  O  O9  1  0.30713793  0.67004998  0.83339196  1
  O  O10  1  0.18892299  0.03536200  0.45047099  1
  O  O11  1  0.90331091  0.69443797  0.25929694  1
  O  O12  1  0.66884889  0.98030296  0.55709693  1
  O  O13  1  0.40471996  0.30058599  0.72166298  1
  O  O14  1  0.17186099  0.04636000  0.08288999  1
  O  O15  1  0.73202698  0.05497300  0.25996697  1
  O  O16  1  0.51698794  0.52871798  0.04026296  1
  O  O17  1  0.81060595  0.32793799  0.16047496  1
  O  O18  1  0.69483189  0.97800796  0.92978094  1
  O  O19  1  0.23574790  0.97233096  0.73236295  1
