# generated using pymatgen
data_Ba2LaZn2CdTe6
_symmetry_space_group_name_H-M   'P 1'
_cell_length_a   4.52688789
_cell_length_b   7.89252472
_cell_length_c   11.81531620
_cell_angle_alpha   90.00000000
_cell_angle_beta   90.00000000
_cell_angle_gamma   106.66547394
_symmetry_Int_Tables_number   1
_chemical_formula_structural   Ba2LaZn2CdTe6
_chemical_formula_sum   'Ba2 La1 Zn2 Cd1 Te6'
_cell_volume   404.41243421
_cell_formula_units_Z   1
loop_
 _symmetry_equiv_pos_site_id
 _symmetry_equiv_pos_as_xyz
  1  'x, y, z'
loop_
 _atom_site_type_symbol
 _atom_site_label
 _atom_site_symmetry_multiplicity
 _atom_site_fract_x
 _atom_site_fract_y
 _atom_site_fract_z
 _atom_site_occupancy
  Ba  Ba0  1  0.74738404  0.49476800  0.74999999  1
  Ba  Ba1  1  0.25261603  0.50523200  0.25000000  1
  Cd  Cd2  1  0.00000000  0.00000000  0.00000000  1
  La  La3  1  0.00000000  0.00000000  0.49999999  1
  Zn  Zn4  1  0.46475705  0.92951400  0.74999999  1
  Zn  Zn5  1  0.53524302  0.07048600  0.25000000  1
  Te  Te6  1  0.35989904  0.71979800  0.93205198  1
  Te  Te7  1  0.64010103  0.28020200  0.06794800  1
  Te  Te8  1  0.64010103  0.28020200  0.43205199  1
  Te  Te9  1  0.35989904  0.71979800  0.56794799  1
  Te  Te10  1  0.07042201  0.14084400  0.74999999  1
  Te  Te11  1  0.92957806  0.85915600  0.25000000  1
