# generated using pymatgen
data_Sr2NbO4
_symmetry_space_group_name_H-M   'P 1'
_cell_length_a   3.85762596
_cell_length_b   3.85763907
_cell_length_c   6.86590195
_cell_angle_alpha   73.68764496
_cell_angle_beta   73.68128204
_cell_angle_gamma   90.00056458
_symmetry_Int_Tables_number   1
_chemical_formula_structural   Sr2NbO4
_chemical_formula_sum   'Sr2 Nb1 O4'
_cell_volume   93.76402217
_cell_formula_units_Z   1
loop_
 _symmetry_equiv_pos_site_id
 _symmetry_equiv_pos_as_xyz
  1  'x, y, z'
loop_
 _atom_site_type_symbol
 _atom_site_label
 _atom_site_symmetry_multiplicity
 _atom_site_fract_x
 _atom_site_fract_y
 _atom_site_fract_z
 _atom_site_occupancy
  Sr  Sr0  1  0.64140902  0.64142000  0.71716997  1
  Sr  Sr1  1  0.35854101  0.35853900  0.28292199  1
  Nb  Nb2  1  0.00287400  0.00286700  0.99425999  1
  O  O3  1  0.49429702  0.99426800  0.01143797  1
  O  O4  1  0.99429302  0.49426600  0.01143699  1
  O  O5  1  0.83646002  0.83647700  0.32706297  1
  O  O6  1  0.17212600  0.17216500  0.65570899  1
