# generated using pymatgen
data_BaSr3CaO5
_symmetry_space_group_name_H-M   'P 1'
_cell_length_a   6.11553192
_cell_length_b   6.11553192
_cell_length_c   6.19434166
_cell_angle_alpha   90.26851654
_cell_angle_beta   119.36453247
_cell_angle_gamma   119.90540314
_symmetry_Int_Tables_number   1
_chemical_formula_structural   BaSr3CaO5
_chemical_formula_sum   'Ba1 Sr3 Ca1 O5'
_cell_volume   165.22527439
_cell_formula_units_Z   1
loop_
 _symmetry_equiv_pos_site_id
 _symmetry_equiv_pos_as_xyz
  1  'x, y, z'
loop_
 _atom_site_type_symbol
 _atom_site_label
 _atom_site_symmetry_multiplicity
 _atom_site_fract_x
 _atom_site_fract_y
 _atom_site_fract_z
 _atom_site_occupancy
  Sr  Sr0  1  0.99170999  0.24736500  0.23907498  1
  Ba  Ba1  1  0.00828997  0.75263499  0.76092500  1
  Sr  Sr2  1  0.49999996  0.99999999  0.49999998  1
  Sr  Sr3  1  0.49999998  0.49999999  -0.00000002  1
  Ca  Ca4  1  0.94440397  0.68467899  0.17683297  1
  O  O5  1  0.50784597  0.76757099  0.82316699  1
  O  O6  1  0.05559599  0.31532100  0.82316701  1
  O  O7  1  0.49215399  0.23242900  0.17683299  1
  O  O8  1  0.57407997  0.71914199  0.29322198  1
  O  O9  1  0.42591999  0.28085800  0.70677800  1
