# generated using pymatgen
data_NaLiTiVO5
_symmetry_space_group_name_H-M   'P 1'
_cell_length_a   3.67516899
_cell_length_b   3.67516899
_cell_length_c   7.21893883
_cell_angle_alpha   90.00000000
_cell_angle_beta   90.00000000
_cell_angle_gamma   90.00000000
_symmetry_Int_Tables_number   1
_chemical_formula_structural   NaLiTiVO5
_chemical_formula_sum   'Na1 Li1 Ti1 V1 O5'
_cell_volume   97.50524744
_cell_formula_units_Z   1
loop_
 _symmetry_equiv_pos_site_id
 _symmetry_equiv_pos_as_xyz
  1  'x, y, z'
loop_
 _atom_site_type_symbol
 _atom_site_label
 _atom_site_symmetry_multiplicity
 _atom_site_fract_x
 _atom_site_fract_y
 _atom_site_fract_z
 _atom_site_occupancy
  Li  Li0  1  0.00000000  0.00000000  0.00000000  1
  Na  Na1  1  0.00000000  0.00000000  0.50000001  1
  Ti  Ti2  1  0.50000000  0.50000000  0.25438101  1
  V  V3  1  0.50000000  0.50000000  0.74561902  1
  O  O4  1  0.50000000  0.00000000  0.21168001  1
  O  O5  1  0.50000000  0.00000000  0.78832002  1
  O  O6  1  0.50000000  0.50000000  0.50000001  1
  O  O7  1  -0.00000000  0.50000000  0.21168001  1
  O  O8  1  -0.00000000  0.50000000  0.78832002  1
