# generated using pymatgen
data_Zn6GaGeN8
_symmetry_space_group_name_H-M   'P 1'
_cell_length_a   5.22588682
_cell_length_b   5.55121899
_cell_length_c   6.66769791
_cell_angle_alpha   90.00000000
_cell_angle_beta   90.00000000
_cell_angle_gamma   90.00000000
_symmetry_Int_Tables_number   1
_chemical_formula_structural   Zn6GaGeN8
_chemical_formula_sum   'Zn6 Ga1 Ge1 N8'
_cell_volume   193.43019729
_cell_formula_units_Z   1
loop_
 _symmetry_equiv_pos_site_id
 _symmetry_equiv_pos_as_xyz
  1  'x, y, z'
loop_
 _atom_site_type_symbol
 _atom_site_label
 _atom_site_symmetry_multiplicity
 _atom_site_fract_x
 _atom_site_fract_y
 _atom_site_fract_z
 _atom_site_occupancy
  Zn  Zn0  1  0.00016300  0.58485000  0.87665101  1
  Zn  Zn1  1  0.50016302  0.91515000  0.37665101  1
  Zn  Zn2  1  0.50016302  0.41515000  0.12334900  1
  Zn  Zn3  1  0.00016300  0.08485000  0.62334901  1
  Ga  Ga4  1  0.00745100  0.07335100  0.12573600  1
  Zn  Zn5  1  0.50745102  0.92664900  0.87426401  1
  Zn  Zn6  1  0.50745102  0.42664900  0.62573601  1
  Ge  Ge7  1  0.00745100  0.57335100  0.37426401  1
  N  N8  1  0.40537201  0.60060600  0.85641101  1
  N  N9  1  0.90537203  0.39939400  0.14358900  1
  N  N10  1  0.90537203  0.89939400  0.35641100  1
  N  N11  1  0.40537201  0.10060600  0.64358901  1
  N  N12  1  0.36701401  0.56009600  0.39313001  1
  N  N13  1  0.36701401  0.06009600  0.10687000  1
  N  N14  1  0.86701403  0.93990400  0.89313001  1
  N  N15  1  0.86701403  0.43990400  0.60687001  1
