# generated using pymatgen
data_TmMgTi2AlReH6
_symmetry_space_group_name_H-M   'P 1'
_cell_length_a   4.76554203
_cell_length_b   5.58658695
_cell_length_c   5.58658695
_cell_angle_alpha   90.00000000
_cell_angle_beta   90.00000000
_cell_angle_gamma   90.00000000
_symmetry_Int_Tables_number   1
_chemical_formula_structural   TmMgTi2AlReH6
_chemical_formula_sum   'Tm1 Mg1 Ti2 Al1 Re1 H6'
_cell_volume   148.73234648
_cell_formula_units_Z   1
loop_
 _symmetry_equiv_pos_site_id
 _symmetry_equiv_pos_as_xyz
  1  'x, y, z'
loop_
 _atom_site_type_symbol
 _atom_site_label
 _atom_site_symmetry_multiplicity
 _atom_site_fract_x
 _atom_site_fract_y
 _atom_site_fract_z
 _atom_site_occupancy
  Mg  Mg0  1  0.50000000  0.50000000  0.50000000  1
  Tm  Tm1  1  0.50000000  0.00000000  0.00000000  1
  Ti  Ti2  1  0.00000000  0.00000000  0.50000000  1
  Ti  Ti3  1  -0.00000000  0.50000000  0.00000000  1
  Al  Al4  1  0.76288700  0.16843900  0.33156100  1
  H  H5  1  0.23711300  0.83156101  0.33156100  1
  Re  Re6  1  0.76288700  0.83156101  0.66843901  1
  H  H7  1  0.76288700  0.33156100  0.83156101  1
  H  H8  1  0.23711300  0.16843900  0.66843901  1
  H  H9  1  0.23711300  0.66843901  0.83156101  1
  H  H10  1  0.76288700  0.66843901  0.16843900  1
  H  H11  1  0.23711300  0.33156100  0.16843900  1
