# generated using pymatgen
data_Cs3RbCa3ThI12
_symmetry_space_group_name_H-M   'P 1'
_cell_length_a   4.78961515
_cell_length_b   10.38448143
_cell_length_c   17.34593773
_cell_angle_alpha   90.00000000
_cell_angle_beta   90.00000000
_cell_angle_gamma   90.00000000
_symmetry_Int_Tables_number   1
_chemical_formula_structural   Cs3RbCa3ThI12
_chemical_formula_sum   'Cs3 Rb1 Ca3 Th1 I12'
_cell_volume   862.74652012
_cell_formula_units_Z   1
loop_
 _symmetry_equiv_pos_site_id
 _symmetry_equiv_pos_as_xyz
  1  'x, y, z'
loop_
 _atom_site_type_symbol
 _atom_site_label
 _atom_site_symmetry_multiplicity
 _atom_site_fract_x
 _atom_site_fract_y
 _atom_site_fract_z
 _atom_site_occupancy
  Cs  Cs0  1  0.74999998  0.58077898  0.17242100  1
  Cs  Cs1  1  0.24999999  0.41922098  0.82757901  1
  Cs  Cs2  1  0.74999998  0.08077900  0.32757901  1
  Rb  Rb3  1  0.24999999  0.91922096  0.67242101  1
  Ca  Ca4  1  0.24999999  0.66183097  0.43943001  1
  Th  Th5  1  0.74999998  0.33816899  0.56057001  1
  Ca  Ca6  1  0.24999999  0.16183099  0.06057000  1
  Ca  Ca7  1  0.74999998  0.83816897  0.93943001  1
  I  I8  1  0.74999998  0.84119597  0.50353501  1
  I  I9  1  0.24999999  0.15880399  0.49646501  1
  I  I10  1  0.74999998  0.34119599  0.99646502  1
  I  I11  1  0.24999999  0.65880397  0.00353500  1
  I  I12  1  0.24999999  0.52580198  0.61775201  1
  I  I13  1  0.74999998  0.47419798  0.38224801  1
  I  I14  1  0.24999999  0.02580200  0.88224801  1
  I  I15  1  0.74999998  0.97419796  0.11775200  1
  I  I16  1  0.24999999  0.79952397  0.28582500  1
  I  I17  1  0.74999998  0.20047599  0.71417501  1
  I  I18  1  0.24999999  0.29952399  0.21417500  1
  I  I19  1  0.74999998  0.70047597  0.78582501  1
