# generated using pymatgen
data_CaZnTeSeS
_symmetry_space_group_name_H-M   'P 1'
_cell_length_a   4.01842022
_cell_length_b   4.01841927
_cell_length_c   9.78868771
_cell_angle_alpha   90.00000000
_cell_angle_beta   90.00000000
_cell_angle_gamma   120.00000763
_symmetry_Int_Tables_number   1
_chemical_formula_structural   CaZnTeSeS
_chemical_formula_sum   'Ca1 Zn1 Te1 Se1 S1'
_cell_volume   136.88809170
_cell_formula_units_Z   1
loop_
 _symmetry_equiv_pos_site_id
 _symmetry_equiv_pos_as_xyz
  1  'x, y, z'
loop_
 _atom_site_type_symbol
 _atom_site_label
 _atom_site_symmetry_multiplicity
 _atom_site_fract_x
 _atom_site_fract_y
 _atom_site_fract_z
 _atom_site_occupancy
  Ca  Ca0  1  0.33333334  0.66666669  0.80731102  1
  Zn  Zn1  1  0.66666664  0.33333334  0.19268901  1
  Te  Te2  1  0.00000000  0.00000000  0.00000000  1
  Se  Se3  1  0.33333334  0.66666669  0.32980701  1
  S  S4  1  0.66666664  0.33333334  0.67019302  1
