# generated using pymatgen
data_K3DyV2O8
_symmetry_space_group_name_H-M   'P 1'
_cell_length_a   5.93462420
_cell_length_b   5.93462467
_cell_length_c   7.62879610
_cell_angle_alpha   90.00000000
_cell_angle_beta   90.00000000
_cell_angle_gamma   119.99999237
_symmetry_Int_Tables_number   1
_chemical_formula_structural   K3DyV2O8
_chemical_formula_sum   'K3 Dy1 V2 O8'
_cell_volume   232.68755331
_cell_formula_units_Z   1
loop_
 _symmetry_equiv_pos_site_id
 _symmetry_equiv_pos_as_xyz
  1  'x, y, z'
loop_
 _atom_site_type_symbol
 _atom_site_label
 _atom_site_symmetry_multiplicity
 _atom_site_fract_x
 _atom_site_fract_y
 _atom_site_fract_z
 _atom_site_occupancy
  K  K0  1  0.33333328  0.66666665  0.66400899  1
  K  K1  1  0.66666662  0.33333333  0.33599100  1
  K  K2  1  0.00000000  0.00000000  0.00000000  1
  Dy  Dy3  1  0.00000000  0.00000000  0.49999999  1
  V  V4  1  0.33333328  0.66666665  0.21602400  1
  V  V5  1  0.66666662  0.33333333  0.78397599  1
  O  O6  1  0.33333328  0.66666665  0.98863599  1
  O  O7  1  0.66666662  0.33333333  0.01136400  1
  O  O8  1  0.17243294  0.82756698  0.30552200  1
  O  O9  1  0.82756696  0.17243300  0.69447799  1
  O  O10  1  0.17243297  0.34486599  0.30552200  1
  O  O11  1  0.82756693  0.65513398  0.69447799  1
  O  O12  1  0.65513392  0.82756698  0.30552200  1
  O  O13  1  0.34486598  0.17243300  0.69447799  1
