# generated using pymatgen
data_CaTiSO4
_symmetry_space_group_name_H-M   'P 1'
_cell_length_a   4.51510954
_cell_length_b   4.51510954
_cell_length_c   4.51510954
_cell_angle_alpha   91.00420380
_cell_angle_beta   119.85135651
_cell_angle_gamma   118.99430084
_symmetry_Int_Tables_number   1
_chemical_formula_structural   CaTiSO4
_chemical_formula_sum   'Ca1 Ti1 S1 O4'
_cell_volume   65.63874770
_cell_formula_units_Z   1
loop_
 _symmetry_equiv_pos_site_id
 _symmetry_equiv_pos_as_xyz
  1  'x, y, z'
loop_
 _atom_site_type_symbol
 _atom_site_label
 _atom_site_symmetry_multiplicity
 _atom_site_fract_x
 _atom_site_fract_y
 _atom_site_fract_z
 _atom_site_occupancy
  Ti  Ti0  1  0.50929294  0.75963697  0.25034397  1
  Ca  Ca1  1  0.50929298  0.25894899  0.74965599  1
  S  S2  1  0.03845200  0.03845200  -0.00000000  1
  O  O3  1  0.94859899  0.18064599  0.23204699  1
  O  O4  1  0.51832698  0.25688199  0.26144499  1
  O  O5  1  0.99543698  0.25688199  0.73855499  1
  O  O6  1  0.94859894  0.71655198  0.76795298  1
