# generated using pymatgen
data_Be3CN4
_symmetry_space_group_name_H-M   'P 1'
_cell_length_a   2.70097303
_cell_length_b   4.64187622
_cell_length_c   4.64187622
_cell_angle_alpha   90.00000000
_cell_angle_beta   90.00000000
_cell_angle_gamma   90.00000000
_symmetry_Int_Tables_number   1
_chemical_formula_structural   Be3CN4
_chemical_formula_sum   'Be3 C1 N4'
_cell_volume   58.19790607
_cell_formula_units_Z   1
loop_
 _symmetry_equiv_pos_site_id
 _symmetry_equiv_pos_as_xyz
  1  'x, y, z'
loop_
 _atom_site_type_symbol
 _atom_site_label
 _atom_site_symmetry_multiplicity
 _atom_site_fract_x
 _atom_site_fract_y
 _atom_site_fract_z
 _atom_site_occupancy
  Be  Be0  1  -0.00000000  0.67341397  0.32658598  1
  Be  Be1  1  0.49999999  0.82658596  0.82658596  1
  Be  Be2  1  0.49999999  0.17341399  0.17341399  1
  C  C3  1  -0.00000000  0.32658598  0.67341397  1
  N  N4  1  -0.00000000  0.31135299  0.31135299  1
  N  N5  1  0.49999999  0.81135296  0.18864699  1
  N  N6  1  0.49999999  0.18864699  0.81135296  1
  N  N7  1  -0.00000000  0.68864697  0.68864697  1
