# generated using pymatgen
data_Nb2CdHgCl12
_symmetry_space_group_name_H-M   'P 1'
_cell_length_a   5.81724215
_cell_length_b   5.82929897
_cell_length_c   13.09367847
_cell_angle_alpha   88.73968506
_cell_angle_beta   87.47352600
_cell_angle_gamma   60.06839752
_symmetry_Int_Tables_number   1
_chemical_formula_structural   Nb2CdHgCl12
_chemical_formula_sum   'Nb2 Cd1 Hg1 Cl12'
_cell_volume   384.41677464
_cell_formula_units_Z   1
loop_
 _symmetry_equiv_pos_site_id
 _symmetry_equiv_pos_as_xyz
  1  'x, y, z'
loop_
 _atom_site_type_symbol
 _atom_site_label
 _atom_site_symmetry_multiplicity
 _atom_site_fract_x
 _atom_site_fract_y
 _atom_site_fract_z
 _atom_site_occupancy
  Hg  Hg0  1  0.87040097  0.25919801  0.00000002  1
  Nb  Nb1  1  0.12959899  0.74080203  1.00000003  1
  Nb  Nb2  1  0.81336697  0.37326601  0.50000003  1
  Cd  Cd3  1  0.18663299  0.62673403  0.50000003  1
  Cl  Cl4  1  0.16421400  0.00000000  0.59700601  1
  Cl  Cl5  1  0.83578598  0.00000000  0.40299402  1
  Cl  Cl6  1  0.84475597  1.00000004  0.86749605  1
  Cl  Cl7  1  0.15524400  0.00000000  0.13250400  1
  Cl  Cl8  1  0.47858798  0.35293201  0.10466402  1
  Cl  Cl9  1  0.83151997  0.64706803  0.10466403  1
  Cl  Cl10  1  0.52141198  0.64706803  0.89533604  1
  Cl  Cl11  1  0.16847999  0.35293201  0.89533602  1
  Cl  Cl12  1  0.50158198  0.32842501  0.61947402  1
  Cl  Cl13  1  0.83000697  0.67157503  0.61947404  1
  Cl  Cl14  1  0.49841798  0.67157503  0.38052603  1
  Cl  Cl15  1  0.16999299  0.32842501  0.38052602  1
