# generated using pymatgen
data_KNaLaPr3NdVO10
_symmetry_space_group_name_H-M   'P 1'
_cell_length_a   6.71475363
_cell_length_b   6.71475363
_cell_length_c   7.25903749
_cell_angle_alpha   116.75736237
_cell_angle_beta   116.75736237
_cell_angle_gamma   91.52351379
_symmetry_Int_Tables_number   1
_chemical_formula_structural   KNaLaPr3NdVO10
_chemical_formula_sum   'K1 Na1 La1 Pr3 Nd1 V1 O10'
_cell_volume   249.93229323
_cell_formula_units_Z   1
loop_
 _symmetry_equiv_pos_site_id
 _symmetry_equiv_pos_as_xyz
  1  'x, y, z'
loop_
 _atom_site_type_symbol
 _atom_site_label
 _atom_site_symmetry_multiplicity
 _atom_site_fract_x
 _atom_site_fract_y
 _atom_site_fract_z
 _atom_site_occupancy
  K  K0  1  0.75000009  0.75000003  0.50000014  1
  Na  Na1  1  0.25000003  0.25000001  0.50000005  1
  Nd  Nd2  1  0.83175308  0.66824702  0.00000012  1
  Pr  Pr3  1  0.16824704  0.33175301  1.00000007  1
  Pr  Pr4  1  0.66982902  0.16982901  0.00000006  1
  Pr  Pr5  1  0.33017110  0.83017103  0.00000012  1
  V  V6  1  0.24982809  0.74982803  0.49965711  1
  La  La7  1  0.75017203  0.25017201  0.50034308  1
  O  O8  1  0.50528603  0.28574701  0.29103207  1
  O  O9  1  0.78574700  0.00528600  0.29103205  1
  O  O10  1  0.29239910  0.79239903  0.29065312  1
  O  O11  1  0.99825406  0.49825402  0.29065312  1
  O  O12  1  0.49471409  0.71425302  0.70896812  1
  O  O13  1  0.21425312  0.99471403  0.70896814  1
  O  O14  1  0.70760102  0.20760101  0.70934707  1
  O  O15  1  0.00174606  0.50174602  0.70934707  1
  O  O16  1  0.50000006  0.50000002  0.00000009  1
  O  O17  1  0.00000000  0.00000000  0.00000000  1
