# generated using pymatgen
data_Li2VO5
_symmetry_space_group_name_H-M   'P 1'
_cell_length_a   3.56758404
_cell_length_b   4.91394281
_cell_length_c   11.60682392
_cell_angle_alpha   89.93846130
_cell_angle_beta   90.00000000
_cell_angle_gamma   89.99998474
_symmetry_Int_Tables_number   1
_chemical_formula_structural   Li2VO5
_chemical_formula_sum   'Li4 V2 O10'
_cell_volume   203.47799791
_cell_formula_units_Z   2
loop_
 _symmetry_equiv_pos_site_id
 _symmetry_equiv_pos_as_xyz
  1  'x, y, z'
loop_
 _atom_site_type_symbol
 _atom_site_label
 _atom_site_symmetry_multiplicity
 _atom_site_fract_x
 _atom_site_fract_y
 _atom_site_fract_z
 _atom_site_occupancy
  Li  Li0  1  0.99999993  0.67769298  0.31123697  1
  Li  Li1  1  0.49999997  0.32246499  0.81046297  1
  Li  Li2  1  0.49999998  0.13831000  0.39887699  1
  Li  Li3  1  0.49999999  0.07140300  0.10056500  1
  V  V4  1  0.99999991  0.86140698  0.89897996  1
  V  V5  1  -0.00000008  0.92849798  0.60088896  1
  O  O6  1  -0.00000005  0.52808899  0.86944497  1
  O  O7  1  0.49999995  0.47220599  0.37000898  1
  O  O8  1  0.49999996  0.40112899  0.10661899  1
  O  O9  1  0.00000095  0.59874999  0.60766097  1
  O  O10  1  0.99999991  0.95012598  0.06875797  1
  O  O11  1  0.49999999  0.04938000  0.56876399  1
  O  O12  1  0.49999999  0.00666300  0.92524598  1
  O  O13  1  0.99999990  0.99286998  0.42535496  1
  O  O14  1  0.49999991  0.96528098  0.24724697  1
  O  O15  1  -0.00000000  0.03573000  0.74728398  1
