# generated using pymatgen
data_BaLa2NdScBiO6
_symmetry_space_group_name_H-M   'P 1'
_cell_length_a   6.93287802
_cell_length_b   6.93287802
_cell_length_c   6.93287802
_cell_angle_alpha   60.00000000
_cell_angle_beta   60.00000000
_cell_angle_gamma   60.00000000
_symmetry_Int_Tables_number   1
_chemical_formula_structural   BaLa2NdScBiO6
_chemical_formula_sum   'Ba1 La2 Nd1 Sc1 Bi1 O6'
_cell_volume   235.62733917
_cell_formula_units_Z   1
loop_
 _symmetry_equiv_pos_site_id
 _symmetry_equiv_pos_as_xyz
  1  'x, y, z'
loop_
 _atom_site_type_symbol
 _atom_site_label
 _atom_site_symmetry_multiplicity
 _atom_site_fract_x
 _atom_site_fract_y
 _atom_site_fract_z
 _atom_site_occupancy
  Sc  Sc0  1  0.05286500  0.64904499  0.64904499  1
  Nd  Nd1  1  0.64904499  0.05286500  0.64904499  1
  Ba  Ba2  1  0.64904499  0.64904499  0.64904499  1
  La  La3  1  0.64904499  0.64904499  0.05286500  1
  La  La4  1  0.34823400  0.88392199  0.88392199  1
  O  O5  1  0.88392299  0.34823300  0.88392199  1
  O  O6  1  0.88392299  0.88392199  0.88392199  1
  O  O7  1  0.88392299  0.88392199  0.34823300  1
  Bi  Bi8  1  0.85392199  0.38202600  0.38202600  1
  O  O9  1  0.38202500  0.85392299  0.38202600  1
  O  O10  1  0.38202500  0.38202600  0.38202600  1
  O  O11  1  0.38202500  0.38202600  0.85392299  1
