# generated using pymatgen
data_BaSr2Li3VCrNiPtF10
_symmetry_space_group_name_H-M   'P 1'
_cell_length_a   5.55185509
_cell_length_b   5.55939913
_cell_length_c   7.76769304
_cell_angle_alpha   90.00000000
_cell_angle_beta   89.99923706
_cell_angle_gamma   90.00000000
_symmetry_Int_Tables_number   1
_chemical_formula_structural   BaSr2Li3VCrNiPtF10
_chemical_formula_sum   'Ba1 Sr2 Li3 V1 Cr1 Ni1 Pt1 F10'
_cell_volume   239.74967742
_cell_formula_units_Z   1
loop_
 _symmetry_equiv_pos_site_id
 _symmetry_equiv_pos_as_xyz
  1  'x, y, z'
loop_
 _atom_site_type_symbol
 _atom_site_label
 _atom_site_symmetry_multiplicity
 _atom_site_fract_x
 _atom_site_fract_y
 _atom_site_fract_z
 _atom_site_occupancy
  Ba  Ba0  1  -0.00000000  0.49999999  0.50000000  1
  Li  Li1  1  -0.00000000  0.49999999  0.00000000  1
  Sr  Sr2  1  0.49999999  0.99092098  0.24999998  1
  Sr  Sr3  1  0.49999999  0.00907900  0.74999998  1
  Li  Li4  1  0.49999999  0.49999999  0.49999998  1
  Li  Li5  1  0.00000000  0.00000000  0.50000000  1
  V  V6  1  0.00000000  0.00000000  0.00000000  1
  Cr  Cr7  1  0.49999999  0.49999999  -0.00000002  1
  Ni  Ni8  1  0.73096199  0.23143699  0.01784797  1
  Pt  Pt9  1  0.25000000  0.25049799  0.01972999  1
  F  F10  1  0.74999999  0.25049799  0.48026997  1
  F  F11  1  0.49999999  0.54456099  0.24999998  1
  F  F12  1  0.26903800  0.23143699  0.48215199  1
  F  F13  1  0.73096199  0.76856298  0.51784797  1
  F  F14  1  -0.00000000  0.96220098  0.25000000  1
  F  F15  1  0.49999999  0.45543899  0.74999998  1
  F  F16  1  -0.00000000  0.03779900  0.75000000  1
  F  F17  1  0.25000000  0.74950198  0.51972999  1
  F  F18  1  0.74999999  0.74950198  0.98026996  1
  F  F19  1  0.26903800  0.76856298  0.98215198  1
