# generated using pymatgen
data_MnAlPBr
_symmetry_space_group_name_H-M   'P 1'
_cell_length_a   4.40366888
_cell_length_b   4.40366888
_cell_length_c   7.62215710
_cell_angle_alpha   73.20950317
_cell_angle_beta   73.20950317
_cell_angle_gamma   59.99998856
_symmetry_Int_Tables_number   1
_chemical_formula_structural   MnAlPBr
_chemical_formula_sum   'Mn1 Al1 P1 Br1'
_cell_volume   120.67694409
_cell_formula_units_Z   1
loop_
 _symmetry_equiv_pos_site_id
 _symmetry_equiv_pos_as_xyz
  1  'x, y, z'
loop_
 _atom_site_type_symbol
 _atom_site_label
 _atom_site_symmetry_multiplicity
 _atom_site_fract_x
 _atom_site_fract_y
 _atom_site_fract_z
 _atom_site_occupancy
  Mn  Mn0  1  0.00008600  0.00008600  0.99974202  1
  Al  Al1  1  0.50005103  0.50005099  0.49984699  1
  P  P2  1  0.87494006  0.87493999  0.37517997  1
  Br  Br3  1  0.37492302  0.37492300  0.87523100  1
