# generated using pymatgen
data_Li4CaBiN4
_symmetry_space_group_name_H-M   'P 1'
_cell_length_a   3.73953152
_cell_length_b   3.73953152
_cell_length_c   13.48767757
_cell_angle_alpha   90.64784241
_cell_angle_beta   97.33009338
_cell_angle_gamma   119.93688965
_symmetry_Int_Tables_number   1
_chemical_formula_structural   Li4CaBiN4
_chemical_formula_sum   'Li4 Ca1 Bi1 N4'
_cell_volume   161.49363913
_cell_formula_units_Z   1
loop_
 _symmetry_equiv_pos_site_id
 _symmetry_equiv_pos_as_xyz
  1  'x, y, z'
loop_
 _atom_site_type_symbol
 _atom_site_label
 _atom_site_symmetry_multiplicity
 _atom_site_fract_x
 _atom_site_fract_y
 _atom_site_fract_z
 _atom_site_occupancy
  Li  Li0  1  0.61924998  0.34832599  0.96757603  1
  Li  Li1  1  0.86949197  0.96893498  0.83842703  1
  Li  Li2  1  0.05361400  0.07491200  0.12852600  1
  Li  Li3  1  0.35147899  0.23359299  0.58507202  1
  Ca  Ca4  1  0.85260598  0.48207599  0.33468202  1
  N  N5  1  0.30476598  0.69284498  0.99761103  1
  N  N6  1  0.96522998  0.02269200  0.98792203  1
  Bi  Bi7  1  0.48320799  0.27358899  0.75679702  1
  N  N8  1  0.96785397  0.53826299  0.50611702  1
  N  N9  1  0.46675898  0.78551198  0.25227102  1
