# generated using pymatgen
data_Nb(CuS4)3
_symmetry_space_group_name_H-M   'P 1'
_cell_length_a   5.52647400
_cell_length_b   5.73414183
_cell_length_c   9.67615986
_cell_angle_alpha   95.08766174
_cell_angle_beta   90.00000000
_cell_angle_gamma   90.00000000
_symmetry_Int_Tables_number   1
_chemical_formula_structural   Nb(CuS4)3
_chemical_formula_sum   'Nb1 Cu3 S12'
_cell_volume   305.42541798
_cell_formula_units_Z   1
loop_
 _symmetry_equiv_pos_site_id
 _symmetry_equiv_pos_as_xyz
  1  'x, y, z'
loop_
 _atom_site_type_symbol
 _atom_site_label
 _atom_site_symmetry_multiplicity
 _atom_site_fract_x
 _atom_site_fract_y
 _atom_site_fract_z
 _atom_site_occupancy
  Nb  Nb0  1  0.30453700  0.69834102  0.79288803  1
  Cu  Cu1  1  0.17317800  0.25000001  0.50000002  1
  Cu  Cu2  1  0.82682200  0.75000002  0.50000002  1
  Cu  Cu3  1  0.30453700  0.80165902  0.20711201  1
  S  S4  1  0.69546300  0.30165901  0.20711201  1
  S  S5  1  0.69546300  0.19834101  0.79288803  1
  S  S6  1  0.28990900  0.25000001  -0.00000000  1
  S  S7  1  0.71009100  0.75000002  -0.00000000  1
  S  S8  1  0.91562500  0.10123300  0.61997303  1
  S  S9  1  0.91562500  0.39876701  0.38002702  1
  S  S10  1  0.08437500  0.89876703  0.38002702  1
  S  S11  1  0.08437500  0.60123302  0.61997303  1
  S  S12  1  0.52563300  0.45222201  0.70193503  1
  S  S13  1  0.47436700  0.54777802  0.29806501  1
  S  S14  1  0.52563300  0.04777800  0.29806501  1
  S  S15  1  0.47436700  0.95222203  0.70193503  1
