# generated using pymatgen
data_NaAg2AuF8
_symmetry_space_group_name_H-M   'P 1'
_cell_length_a   5.17662191
_cell_length_b   5.17662191
_cell_length_c   6.44552803
_cell_angle_alpha   113.67617035
_cell_angle_beta   113.67617035
_cell_angle_gamma   90.00000000
_symmetry_Int_Tables_number   1
_chemical_formula_structural   NaAg2AuF8
_chemical_formula_sum   'Na1 Ag2 Au1 F8'
_cell_volume   142.16811575
_cell_formula_units_Z   1
loop_
 _symmetry_equiv_pos_site_id
 _symmetry_equiv_pos_as_xyz
  1  'x, y, z'
loop_
 _atom_site_type_symbol
 _atom_site_label
 _atom_site_symmetry_multiplicity
 _atom_site_fract_x
 _atom_site_fract_y
 _atom_site_fract_z
 _atom_site_occupancy
  Na  Na0  1  0.74999999  0.25000000  0.49999996  1
  Au  Au1  1  0.00000000  0.00000000  0.00000000  1
  Ag  Ag2  1  0.49999998  0.50000000  -0.00000004  1
  Ag  Ag3  1  0.24999997  0.74999999  0.49999995  1
  F  F4  1  0.49094796  0.89309299  0.36034393  1
  F  F5  1  0.23714498  0.38010300  0.17879297  1
  F  F6  1  0.53274898  0.50905100  0.63965495  1
  F  F7  1  0.10690699  0.13060500  0.63965698  1
  F  F8  1  0.86939598  0.46725100  0.36034394  1
  F  F9  1  0.20130997  0.76285499  0.82120695  1
  F  F10  1  0.94164796  0.79868999  0.17879293  1
  F  F11  1  0.61989700  0.05835200  0.82120697  1
