# generated using pymatgen
data_LiMnO2
_symmetry_space_group_name_H-M   'P 1'
_cell_length_a   5.87699556
_cell_length_b   5.87699556
_cell_length_c   6.02094221
_cell_angle_alpha   61.25131989
_cell_angle_beta   61.25131989
_cell_angle_gamma   89.99188232
_symmetry_Int_Tables_number   1
_chemical_formula_structural   LiMnO2
_chemical_formula_sum   'Li4 Mn4 O8'
_cell_volume   152.44936857
_cell_formula_units_Z   4
loop_
 _symmetry_equiv_pos_site_id
 _symmetry_equiv_pos_as_xyz
  1  'x, y, z'
loop_
 _atom_site_type_symbol
 _atom_site_label
 _atom_site_symmetry_multiplicity
 _atom_site_fract_x
 _atom_site_fract_y
 _atom_site_fract_z
 _atom_site_occupancy
  Li  Li0  1  0.50000001  0.00000000  -0.00000001  1
  Li  Li1  1  0.50000006  0.50000003  0.49999995  1
  Li  Li2  1  0.00000005  0.50000003  0.49999995  1
  Li  Li3  1  0.50000006  0.50000003  -0.00000004  1
  Mn  Mn4  1  0.50000001  0.00000000  0.49999998  1
  Mn  Mn5  1  0.00000005  0.50000003  -0.00000003  1
  Mn  Mn6  1  0.00000000  0.00000000  0.49999999  1
  Mn  Mn7  1  0.00000000  0.00000000  0.00000000  1
  O  O8  1  0.77797505  0.26615602  0.98465794  1
  O  O9  1  0.22222003  0.24354001  0.02856698  1
  O  O10  1  0.73384404  0.22202501  0.51534196  1
  O  O11  1  0.75646010  0.77778004  0.47143292  1
  O  O12  1  0.24354003  0.22222001  0.52856697  1
  O  O13  1  0.26615608  0.77797504  0.48465793  1
  O  O14  1  0.77778009  0.75646004  0.97143291  1
  O  O15  1  0.22202508  0.73384404  0.01534195  1
