# generated using pymatgen
data_Li5Mn3O8
_symmetry_space_group_name_H-M   'P 1'
_cell_length_a   5.18878222
_cell_length_b   5.20487404
_cell_length_c   6.16676807
_cell_angle_alpha   90.00000000
_cell_angle_beta   90.00000000
_cell_angle_gamma   108.64846039
_symmetry_Int_Tables_number   1
_chemical_formula_structural   Li5Mn3O8
_chemical_formula_sum   'Li5 Mn3 O8'
_cell_volume   157.80171546
_cell_formula_units_Z   1
loop_
 _symmetry_equiv_pos_site_id
 _symmetry_equiv_pos_as_xyz
  1  'x, y, z'
loop_
 _atom_site_type_symbol
 _atom_site_label
 _atom_site_symmetry_multiplicity
 _atom_site_fract_x
 _atom_site_fract_y
 _atom_site_fract_z
 _atom_site_occupancy
  Li  Li0  1  0.74999993  0.49999997  0.57318599  1
  Li  Li1  1  0.24999996  0.49999997  0.42681399  1
  Li  Li2  1  0.74999997  0.00000000  0.38849300  1
  Li  Li3  1  0.24999999  0.00000000  0.61150699  1
  Mn  Mn4  1  0.24999996  0.49999997  0.85465299  1
  Li  Li5  1  0.74999993  0.49999997  0.14534700  1
  Mn  Mn6  1  0.74999997  0.00000000  0.85631499  1
  Mn  Mn7  1  0.24999999  0.00000000  0.14368500  1
  O  O8  1  0.49454596  0.22334799  0.89784799  1
  O  O9  1  0.47621496  0.24530899  0.36058800  1
  O  O10  1  0.97621494  0.24530899  0.63941199  1
  O  O11  1  0.52378493  0.75469096  0.63941199  1
  O  O12  1  0.50545393  0.77665196  0.10215200  1
  O  O13  1  0.99454594  0.22334799  0.10215200  1
  O  O14  1  0.02378495  0.75469096  0.36058800  1
  O  O15  1  0.00545395  0.77665196  0.89784799  1
