# generated using pymatgen
data_Li3Mn(CoO4)2
_symmetry_space_group_name_H-M   'P 1'
_cell_length_a   4.88143444
_cell_length_b   5.77984190
_cell_length_c   5.93893719
_cell_angle_alpha   60.88360977
_cell_angle_beta   74.36529541
_cell_angle_gamma   89.99967194
_symmetry_Int_Tables_number   1
_chemical_formula_structural   Li3Mn(CoO4)2
_chemical_formula_sum   'Li3 Mn1 Co2 O8'
_cell_volume   139.24730013
_cell_formula_units_Z   1
loop_
 _symmetry_equiv_pos_site_id
 _symmetry_equiv_pos_as_xyz
  1  'x, y, z'
loop_
 _atom_site_type_symbol
 _atom_site_label
 _atom_site_symmetry_multiplicity
 _atom_site_fract_x
 _atom_site_fract_y
 _atom_site_fract_z
 _atom_site_occupancy
  Li  Li0  1  0.97863006  0.49679902  0.00278094  1
  Li  Li1  1  0.02137401  0.99959003  0.99721797  1
  Mn  Mn2  1  0.49999903  0.25048501  0.50000097  1
  Li  Li3  1  0.49999804  0.75569002  0.49999895  1
  Co  Co4  1  0.00000101  0.49603902  0.49999998  1
  Co  Co5  1  0.00000200  0.00179100  0.50000100  1
  O  O6  1  0.25419802  0.38305601  0.70806097  1
  O  O7  1  0.26026602  0.91173703  0.70947996  1
  O  O8  1  0.74580005  0.59110602  0.29193995  1
  O  O9  1  0.73973704  0.12120700  0.29051996  1
  O  O10  1  0.22768002  0.34846101  0.30550998  1
  O  O11  1  0.22111102  0.84455703  0.30093196  1
  O  O12  1  0.77231704  0.15398000  0.69449196  1
  O  O13  1  0.77888905  0.64549902  0.69906694  1
