# generated using pymatgen
data_SrLaH3
_symmetry_space_group_name_H-M   'P 1'
_cell_length_a   3.89925003
_cell_length_b   3.89925027
_cell_length_c   6.13763905
_cell_angle_alpha   90.00000000
_cell_angle_beta   90.00000000
_cell_angle_gamma   120.00000000
_symmetry_Int_Tables_number   1
_chemical_formula_structural   SrLaH3
_chemical_formula_sum   'Sr1 La1 H3'
_cell_volume   80.81540816
_cell_formula_units_Z   1
loop_
 _symmetry_equiv_pos_site_id
 _symmetry_equiv_pos_as_xyz
  1  'x, y, z'
loop_
 _atom_site_type_symbol
 _atom_site_label
 _atom_site_symmetry_multiplicity
 _atom_site_fract_x
 _atom_site_fract_y
 _atom_site_fract_z
 _atom_site_occupancy
  Sr  Sr0  1  0.33333337  0.66666671  0.24869900  1
  La  La1  1  0.66666668  0.33333335  0.75130099  1
  H  H2  1  0.33333337  0.66666671  0.64463500  1
  H  H3  1  0.66666668  0.33333335  0.35536500  1
  H  H4  1  0.00000000  0.00000000  0.00000000  1
