# generated using pymatgen
data_Sr2ErWO6
_symmetry_space_group_name_H-M   'P 1'
_cell_length_a   5.84643888
_cell_length_b   5.88542604
_cell_length_c   8.27618027
_cell_angle_alpha   90.00000000
_cell_angle_beta   89.79614258
_cell_angle_gamma   90.00000000
_symmetry_Int_Tables_number   1
_chemical_formula_structural   Sr2ErWO6
_chemical_formula_sum   'Sr4 Er2 W2 O12'
_cell_volume   284.77149401
_cell_formula_units_Z   2
loop_
 _symmetry_equiv_pos_site_id
 _symmetry_equiv_pos_as_xyz
  1  'x, y, z'
loop_
 _atom_site_type_symbol
 _atom_site_label
 _atom_site_symmetry_multiplicity
 _atom_site_fract_x
 _atom_site_fract_y
 _atom_site_fract_z
 _atom_site_occupancy
  Sr  Sr0  1  0.50686001  0.03358600  0.75092799  1
  Sr  Sr1  1  0.00686000  0.46641400  0.25092800  1
  Sr  Sr2  1  0.49314001  0.96641399  0.24907198  1
  Sr  Sr3  1  0.99314002  0.53358600  0.74907197  1
  Er  Er4  1  0.50000001  0.50000000  0.49999999  1
  Er  Er5  1  0.00000000  0.00000000  0.00000000  1
  W  W6  1  1.00000002  0.00000000  0.49999997  1
  W  W7  1  0.50000001  0.50000000  1.00000000  1
  O  O8  1  0.42508501  0.48093700  0.76630299  1
  O  O9  1  0.92508502  0.01906300  0.26630297  1
  O  O10  1  0.57491501  0.51906300  0.23369698  1
  O  O11  1  0.07491500  0.98093699  0.73369701  1
  O  O12  1  0.26999901  0.19980600  0.46127700  1
  O  O13  1  0.76999902  0.30019400  0.96127698  1
  O  O14  1  0.73000101  0.80019399  0.53872298  1
  O  O15  1  0.23000100  0.69980599  0.03872299  1
  O  O16  1  0.19647000  0.72877299  0.45994100  1
  O  O17  1  0.69647001  0.77122699  0.95994099  1
  O  O18  1  0.80353002  0.27122700  0.54005898  1
  O  O19  1  0.30353001  0.22877300  0.04005899  1
