# generated using pymatgen
data_K5H2O3
_symmetry_space_group_name_H-M   'P 1'
_cell_length_a   4.10120010
_cell_length_b   5.91960001
_cell_length_c   10.94808006
_cell_angle_alpha   105.68502045
_cell_angle_beta   100.79538727
_cell_angle_gamma   90.00000000
_symmetry_Int_Tables_number   1
_chemical_formula_structural   K5H2O3
_chemical_formula_sum   'K5 H2 O3'
_cell_volume   251.00489214
_cell_formula_units_Z   1
loop_
 _symmetry_equiv_pos_site_id
 _symmetry_equiv_pos_as_xyz
  1  'x, y, z'
loop_
 _atom_site_type_symbol
 _atom_site_label
 _atom_site_symmetry_multiplicity
 _atom_site_fract_x
 _atom_site_fract_y
 _atom_site_fract_z
 _atom_site_occupancy
  K  K0  1  0.00000000  0.00000000  0.00000000  1
  K  K1  1  0.39643899  0.39643900  0.79287801  1
  K  K2  1  0.79646297  0.79646299  0.59292600  1
  K  K3  1  0.20353699  0.20353700  0.40707401  1
  K  K4  1  0.60356098  0.60356100  0.20712200  1
  O  O5  1  0.61122898  0.11122900  0.22245800  1
  H  H6  1  0.80119198  0.30119200  0.60238401  1
  H  H7  1  0.19880799  0.69880800  0.39761600  1
  O  O8  1  -0.00000000  0.50000000  -0.00000001  1
  O  O9  1  0.38877098  0.88877099  0.77754201  1
