# generated using pymatgen
data_Cs4Pb5S7
_symmetry_space_group_name_H-M   'P 1'
_cell_length_a   8.47852230
_cell_length_b   9.62016678
_cell_length_c   8.47852230
_cell_angle_alpha   116.14625549
_cell_angle_beta   90.00000000
_cell_angle_gamma   116.14625549
_symmetry_Int_Tables_number   1
_chemical_formula_structural   Cs4Pb5S7
_chemical_formula_sum   'Cs4 Pb5 S7'
_cell_volume   540.83835800
_cell_formula_units_Z   1
loop_
 _symmetry_equiv_pos_site_id
 _symmetry_equiv_pos_as_xyz
  1  'x, y, z'
loop_
 _atom_site_type_symbol
 _atom_site_label
 _atom_site_symmetry_multiplicity
 _atom_site_fract_x
 _atom_site_fract_y
 _atom_site_fract_z
 _atom_site_occupancy
  Cs  Cs0  1  0.74999998  0.49999999  0.74999999  1
  Cs  Cs1  1  0.25000000  0.49999999  0.25000000  1
  Cs  Cs2  1  0.32297699  0.00000000  0.17702299  1
  Cs  Cs3  1  0.67702298  0.00000000  0.82297697  1
  Pb  Pb4  1  0.17702299  0.00000000  0.67702298  1
  Pb  Pb5  1  0.82297699  0.99999997  0.32297701  1
  Pb  Pb6  1  0.70356599  0.73239098  0.52882500  1
  Pb  Pb7  1  0.29643400  0.26760899  0.47117499  1
  Pb  Pb8  1  0.02882502  0.73239098  0.20356601  1
  S  S9  1  0.97117497  0.26760899  0.79643398  1
  S  S10  1  0.00000000  0.00000000  0.00000000  1
  S  S11  1  0.49999998  0.00000000  0.49999998  1
  S  S12  1  0.47117499  0.26760899  0.97117497  1
  S  S13  1  0.52882500  0.73239098  0.02882502  1
  S  S14  1  0.79643398  0.26760899  0.29643400  1
  S  S15  1  0.20356601  0.73239098  0.70356599  1
