# generated using pymatgen
data_AgBi2(OF2)2
_symmetry_space_group_name_H-M   'P 1'
_cell_length_a   4.01270580
_cell_length_b   5.37239504
_cell_length_c   7.15401793
_cell_angle_alpha   104.28324127
_cell_angle_beta   106.28713226
_cell_angle_gamma   90.00000000
_symmetry_Int_Tables_number   1
_chemical_formula_structural   AgBi2(OF2)2
_chemical_formula_sum   'Ag1 Bi2 O2 F4'
_cell_volume   143.06233728
_cell_formula_units_Z   1
loop_
 _symmetry_equiv_pos_site_id
 _symmetry_equiv_pos_as_xyz
  1  'x, y, z'
loop_
 _atom_site_type_symbol
 _atom_site_label
 _atom_site_symmetry_multiplicity
 _atom_site_fract_x
 _atom_site_fract_y
 _atom_site_fract_z
 _atom_site_occupancy
  Bi  Bi0  1  0.50000001  0.50000000  -0.00000001  1
  Bi  Bi1  1  0.80990002  0.75258499  0.61980000  1
  Ag  Ag2  1  0.19010000  0.24741500  0.38020000  1
  O  O3  1  0.41390801  0.17413700  0.82781600  1
  O  O4  1  0.58609201  0.82586299  0.17218400  1
  F  F5  1  0.69606702  0.40634300  0.39213399  1
  F  F6  1  0.06723700  0.37910800  0.13447401  1
  F  F7  1  0.93276302  0.62089200  0.86552599  1
  F  F8  1  0.30393300  0.59365700  0.60786601  1
