# generated using pymatgen
data_Cs6PdCl7
_symmetry_space_group_name_H-M   'P 1'
_cell_length_a   8.03505707
_cell_length_b   8.25736332
_cell_length_c   8.25736332
_cell_angle_alpha   66.52931976
_cell_angle_beta   83.73492432
_cell_angle_gamma   96.26507568
_symmetry_Int_Tables_number   1
_chemical_formula_structural   Cs6PdCl7
_chemical_formula_sum   'Cs6 Pd1 Cl7'
_cell_volume   492.48836338
_cell_formula_units_Z   1
loop_
 _symmetry_equiv_pos_site_id
 _symmetry_equiv_pos_as_xyz
  1  'x, y, z'
loop_
 _atom_site_type_symbol
 _atom_site_label
 _atom_site_symmetry_multiplicity
 _atom_site_fract_x
 _atom_site_fract_y
 _atom_site_fract_z
 _atom_site_occupancy
  Cs  Cs0  1  0.00000001  0.25277700  0.25277700  1
  Cs  Cs1  1  0.50000003  0.32074900  0.32074899  1
  Cs  Cs2  1  0.64649306  0.88732699  0.11267300  1
  Cs  Cs3  1  0.50000005  0.67925099  0.67925099  1
  Cs  Cs4  1  1.00000006  0.74722299  0.74722298  1
  Cs  Cs5  1  0.35350702  0.11267300  0.88732698  1
  Pd  Pd6  1  0.85336904  0.32466000  0.67533997  1
  Cl  Cl7  1  0.14663104  0.67533999  0.32466001  1
  Cl  Cl8  1  0.27436904  0.65460499  0.05171400  1
  Cl  Cl9  1  0.17717102  0.39894600  0.60105400  1
  Cl  Cl10  1  0.82282905  0.60105399  0.39894598  1
  Cl  Cl11  1  0.72563104  0.34539500  0.94828598  1
  Cl  Cl12  1  0.72563102  0.05171400  0.65460497  1
  Cl  Cl13  1  0.27436905  0.94828599  0.34539501  1
