# generated using pymatgen
data_LiCrAsS3F2
_symmetry_space_group_name_H-M   'P 1'
_cell_length_a   5.86601114
_cell_length_b   5.86601114
_cell_length_c   5.98941660
_cell_angle_alpha   60.67926025
_cell_angle_beta   60.67926025
_cell_angle_gamma   59.99998856
_symmetry_Int_Tables_number   1
_chemical_formula_structural   LiCrAsS3F2
_chemical_formula_sum   'Li1 Cr1 As1 S3 F2'
_cell_volume   147.21046438
_cell_formula_units_Z   1
loop_
 _symmetry_equiv_pos_site_id
 _symmetry_equiv_pos_as_xyz
  1  'x, y, z'
loop_
 _atom_site_type_symbol
 _atom_site_label
 _atom_site_symmetry_multiplicity
 _atom_site_fract_x
 _atom_site_fract_y
 _atom_site_fract_z
 _atom_site_occupancy
  Li  Li0  1  0.00000000  0.00000000  0.00000000  1
  Cr  Cr1  1  0.49999998  0.49999999  0.50000003  1
  As  As2  1  0.19524299  0.73266498  0.73398803  1
  S  S3  1  0.73266498  0.33810399  0.73398803  1
  S  S4  1  0.66189598  0.80475698  0.26601202  1
  F  F5  1  0.26733499  0.66189598  0.26601202  1
  F  F6  1  0.80475698  0.26733499  0.26601202  1
  S  S7  1  0.33810399  0.19524300  0.73398803  1
