# generated using pymatgen
data_YCrO3
_symmetry_space_group_name_H-M   'P 1'
_cell_length_a   5.32099724
_cell_length_b   5.60395002
_cell_length_c   7.65955496
_cell_angle_alpha   90.00000000
_cell_angle_beta   90.00000000
_cell_angle_gamma   90.00000000
_symmetry_Int_Tables_number   1
_chemical_formula_structural   YCrO3
_chemical_formula_sum   'Y4 Cr4 O12'
_cell_volume   228.39722539
_cell_formula_units_Z   4
loop_
 _symmetry_equiv_pos_site_id
 _symmetry_equiv_pos_as_xyz
  1  'x, y, z'
loop_
 _atom_site_type_symbol
 _atom_site_label
 _atom_site_symmetry_multiplicity
 _atom_site_fract_x
 _atom_site_fract_y
 _atom_site_fract_z
 _atom_site_occupancy
  Y  Y0  1  0.01905800  0.06618400  0.75000000  1
  Y  Y1  1  0.48094198  0.56618400  0.75000000  1
  Y  Y2  1  0.51905798  0.43381600  0.25000000  1
  Y  Y3  1  0.98094196  0.93381600  0.25000000  1
  Cr  Cr4  1  -0.00000000  0.50000000  0.50000000  1
  Cr  Cr5  1  0.49999998  0.00000000  0.50000000  1
  Cr  Cr6  1  0.49999998  0.00000000  -0.00000000  1
  Cr  Cr7  1  -0.00000000  0.50000000  0.00000000  1
  O  O8  1  0.10878500  0.53742000  0.25000000  1
  O  O9  1  0.19643099  0.80198700  0.55595400  1
  O  O10  1  0.19643099  0.80198700  0.94404601  1
  O  O11  1  0.30356899  0.30198700  0.94404601  1
  O  O12  1  0.30356899  0.30198700  0.55595400  1
  O  O13  1  0.39121498  0.03742000  0.25000000  1
  O  O14  1  0.60878497  0.96258000  0.75000000  1
  O  O15  1  0.69643097  0.69801300  0.05595400  1
  O  O16  1  0.69643097  0.69801300  0.44404600  1
  O  O17  1  0.80356896  0.19801300  0.44404600  1
  O  O18  1  0.80356896  0.19801300  0.05595400  1
  O  O19  1  0.89121496  0.46258000  0.75000000  1
