# generated using pymatgen
data_HgMoW2Cl3O11
_symmetry_space_group_name_H-M   'P 1'
_cell_length_a   5.33023977
_cell_length_b   5.68669415
_cell_length_c   9.74472713
_cell_angle_alpha   90.34577942
_cell_angle_beta   90.00000000
_cell_angle_gamma   90.00000000
_symmetry_Int_Tables_number   1
_chemical_formula_structural   HgMoW2Cl3O11
_chemical_formula_sum   'Hg1 Mo1 W2 Cl3 O11'
_cell_volume   295.37136514
_cell_formula_units_Z   1
loop_
 _symmetry_equiv_pos_site_id
 _symmetry_equiv_pos_as_xyz
  1  'x, y, z'
loop_
 _atom_site_type_symbol
 _atom_site_label
 _atom_site_symmetry_multiplicity
 _atom_site_fract_x
 _atom_site_fract_y
 _atom_site_fract_z
 _atom_site_occupancy
  Hg  Hg0  1  0.81791003  0.73286301  0.24511600  1
  Mo  Mo1  1  0.31791001  0.26713701  0.75488402  1
  W  W2  1  0.73902303  0.23685300  0.43314701  1
  W  W3  1  0.23902301  0.76314702  0.56685301  1
  Cl  Cl4  1  0.72038103  0.77030202  0.89842002  1
  Cl  Cl5  1  0.22038101  0.22969800  0.10158000  1
  O  O6  1  0.60447003  0.65034901  0.06104600  1
  Cl  Cl7  1  0.10447000  0.34965101  0.93895403  1
  O  O8  1  0.03500400  0.84493102  0.42253901  1
  O  O9  1  0.53500402  0.15506900  0.57746102  1
  O  O10  1  0.58531602  0.51285801  0.38150401  1
  O  O11  1  0.08531600  0.48714201  0.61849602  1
  O  O12  1  0.54455502  0.04844800  0.89644103  1
  O  O13  1  0.04455500  0.95155202  0.10355900  1
  O  O14  1  0.53297002  0.59686201  0.77536202  1
  O  O15  1  0.03297000  0.40313801  0.22463800  1
  O  O16  1  0.59562003  0.04046500  0.30428001  1
  O  O17  1  0.09562000  0.95953502  0.69572002  1
