# generated using pymatgen
data_BaTbZrCdGa2Si2P5SO2
_symmetry_space_group_name_H-M   'P 1'
_cell_length_a   3.96610093
_cell_length_b   3.96610093
_cell_length_c   15.28333664
_cell_angle_alpha   90.00000000
_cell_angle_beta   90.00000000
_cell_angle_gamma   90.00000000
_symmetry_Int_Tables_number   1
_chemical_formula_structural   BaTbZrCdGa2Si2P5SO2
_chemical_formula_sum   'Ba1 Tb1 Zr1 Cd1 Ga2 Si2 P5 S1 O2'
_cell_volume   240.40622198
_cell_formula_units_Z   1
loop_
 _symmetry_equiv_pos_site_id
 _symmetry_equiv_pos_as_xyz
  1  'x, y, z'
loop_
 _atom_site_type_symbol
 _atom_site_label
 _atom_site_symmetry_multiplicity
 _atom_site_fract_x
 _atom_site_fract_y
 _atom_site_fract_z
 _atom_site_occupancy
  Ba  Ba0  1  0.50000001  0.50000001  0.50000001  1
  Zr  Zr1  1  0.50000001  0.50000001  0.84954502  1
  Tb  Tb2  1  0.50000001  0.50000001  0.15045500  1
  Cd  Cd3  1  0.00000000  0.00000000  0.00000000  1
  Ga  Ga4  1  0.00000000  0.00000000  0.28172301  1
  Ga  Ga5  1  0.00000000  0.00000000  0.71827702  1
  Si  Si6  1  0.00000000  0.00000000  0.60036601  1
  Si  Si7  1  0.00000000  0.00000000  0.39963401  1
  P  P8  1  0.50000001  0.00000000  0.74619302  1
  P  P9  1  -0.00000000  0.50000001  0.74619302  1
  P  P10  1  0.50000001  0.00000000  0.25380701  1
  P  P11  1  -0.00000000  0.50000001  0.25380701  1
  O  O12  1  -0.00000000  0.50000001  0.00000000  1
  O  O13  1  0.50000001  0.00000000  0.00000000  1
  S  S14  1  0.00000000  0.00000000  0.12960900  1
  P  P15  1  0.00000000  0.00000000  0.87039102  1
