# generated using pymatgen
data_Rb2Zn3S4
_symmetry_space_group_name_H-M   'P 1'
_cell_length_a   6.12711620
_cell_length_b   9.69763756
_cell_length_c   9.69763756
_cell_angle_alpha   74.03958130
_cell_angle_beta   71.58438110
_cell_angle_gamma   71.58438110
_symmetry_Int_Tables_number   1
_chemical_formula_structural   Rb2Zn3S4
_chemical_formula_sum   'Rb4 Zn6 S8'
_cell_volume   508.79822522
_cell_formula_units_Z   2
loop_
 _symmetry_equiv_pos_site_id
 _symmetry_equiv_pos_as_xyz
  1  'x, y, z'
loop_
 _atom_site_type_symbol
 _atom_site_label
 _atom_site_symmetry_multiplicity
 _atom_site_fract_x
 _atom_site_fract_y
 _atom_site_fract_z
 _atom_site_occupancy
  Rb  Rb0  1  0.76282898  0.12020101  0.87979902  1
  Rb  Rb1  1  0.26282997  0.37979802  0.62020103  1
  Rb  Rb2  1  0.73716994  0.62020203  0.37979901  1
  Rb  Rb3  1  0.23717094  0.87979904  0.12020102  1
  Zn  Zn4  1  0.74999993  0.75000004  0.75000003  1
  Zn  Zn5  1  0.24999998  0.25000001  0.25000001  1
  Zn  Zn6  1  0.24999993  0.97512905  0.52487104  1
  Zn  Zn7  1  0.24999996  0.52487103  0.97512905  1
  Zn  Zn8  1  0.74999995  0.47512902  0.02487099  1
  Zn  Zn9  1  0.74999998  0.02487100  0.47512900  1
  S  S10  1  0.06019294  0.79133804  0.52106404  1
  S  S11  1  0.87259494  0.70866304  0.97893603  1
  S  S12  1  0.43980692  0.97893605  0.70866204  1
  S  S13  1  0.62740495  0.52106303  0.79133803  1
  S  S14  1  0.56019299  0.02106400  0.29133800  1
  S  S15  1  0.37259496  0.47893702  0.20866201  1
  S  S16  1  0.12740498  0.29133701  0.02106400  1
  S  S17  1  0.93980697  0.20866201  0.47893600  1
