# generated using pymatgen
data_NaLi3CaCrF12
_symmetry_space_group_name_H-M   'P 1'
_cell_length_a   5.19448185
_cell_length_b   5.19448233
_cell_length_c   9.91370106
_cell_angle_alpha   90.00000000
_cell_angle_beta   90.00000000
_cell_angle_gamma   120.00000000
_symmetry_Int_Tables_number   1
_chemical_formula_structural   NaLi3CaCrF12
_chemical_formula_sum   'Na1 Li3 Ca1 Cr1 F12'
_cell_volume   231.65994913
_cell_formula_units_Z   1
loop_
 _symmetry_equiv_pos_site_id
 _symmetry_equiv_pos_as_xyz
  1  'x, y, z'
loop_
 _atom_site_type_symbol
 _atom_site_label
 _atom_site_symmetry_multiplicity
 _atom_site_fract_x
 _atom_site_fract_y
 _atom_site_fract_z
 _atom_site_occupancy
  Ca  Ca0  1  0.66666671  0.33333336  0.75000000  1
  Li  Li1  1  0.33333339  0.66666672  0.25000000  1
  Li  Li2  1  0.00000000  0.00000000  0.00000000  1
  Na  Na3  1  0.00000000  0.00000000  0.50000000  1
  Li  Li4  1  0.33333339  0.66666672  0.75000000  1
  Cr  Cr5  1  0.66666671  0.33333336  0.25000000  1
  F  F6  1  0.34634308  0.98378707  0.86026800  1
  F  F7  1  0.01621303  0.36255603  0.86026800  1
  F  F8  1  0.65365706  0.63744405  0.36026800  1
  F  F9  1  0.98378707  0.63744405  0.13973200  1
  F  F10  1  0.63744409  0.98378707  0.63973200  1
  F  F11  1  0.01621305  0.65365705  0.63973200  1
  F  F12  1  0.36255603  0.34634303  0.13973200  1
  F  F13  1  0.34634304  0.36255603  0.63973200  1
  F  F14  1  0.98378705  0.34634303  0.36026800  1
  F  F15  1  0.63744406  0.65365705  0.86026800  1
  F  F16  1  0.36255601  0.01621300  0.36026800  1
  F  F17  1  0.65365702  0.01621300  0.13973200  1
