# generated using pymatgen
data_SnHgI6
_symmetry_space_group_name_H-M   'P 1'
_cell_length_a   7.70691299
_cell_length_b   7.70691299
_cell_length_c   8.77045536
_cell_angle_alpha   63.93645096
_cell_angle_beta   63.93645096
_cell_angle_gamma   60.00000763
_symmetry_Int_Tables_number   1
_chemical_formula_structural   SnHgI6
_chemical_formula_sum   'Sn1 Hg1 I6'
_cell_volume   388.77068768
_cell_formula_units_Z   1
loop_
 _symmetry_equiv_pos_site_id
 _symmetry_equiv_pos_as_xyz
  1  'x, y, z'
loop_
 _atom_site_type_symbol
 _atom_site_label
 _atom_site_symmetry_multiplicity
 _atom_site_fract_x
 _atom_site_fract_y
 _atom_site_fract_z
 _atom_site_occupancy
  Hg  Hg0  1  0.16639800  0.16639800  0.50080601  1
  Sn  Sn1  1  0.83360198  0.83360201  0.49919405  1
  I  I2  1  0.22167799  0.57762200  0.26544302  1
  I  I3  1  0.06474298  0.77832201  0.73455702  1
  I  I4  1  0.42237800  0.06474300  0.73455701  1
  I  I5  1  0.77832199  0.42237800  0.73455703  1
  I  I6  1  0.57762198  0.93525701  0.26544304  1
  I  I7  1  0.93525700  0.22167800  0.26544303  1
