# generated using pymatgen
data_Sr2LiCaLaBe(CN3)2
_symmetry_space_group_name_H-M   'P 1'
_cell_length_a   5.63688421
_cell_length_b   5.63688421
_cell_length_c   8.20371819
_cell_angle_alpha   90.00000000
_cell_angle_beta   90.00000000
_cell_angle_gamma   90.00000000
_symmetry_Int_Tables_number   1
_chemical_formula_structural   Sr2LiCaLaBe(CN3)2
_chemical_formula_sum   'Sr2 Li1 Ca1 La1 Be1 C2 N6'
_cell_volume   260.66874507
_cell_formula_units_Z   1
loop_
 _symmetry_equiv_pos_site_id
 _symmetry_equiv_pos_as_xyz
  1  'x, y, z'
loop_
 _atom_site_type_symbol
 _atom_site_label
 _atom_site_symmetry_multiplicity
 _atom_site_fract_x
 _atom_site_fract_y
 _atom_site_fract_z
 _atom_site_occupancy
  Sr  Sr0  1  0.49999998  0.00000000  0.24999999  1
  Sr  Sr1  1  -0.00000000  0.49999998  0.24999999  1
  La  La2  1  0.49999998  0.00000000  0.74999998  1
  Ca  Ca3  1  -0.00000000  0.49999998  0.74999998  1
  Li  Li4  1  0.20885099  0.20885099  0.00000000  1
  Be  Be5  1  0.79114897  0.79114897  0.00000000  1
  N  N6  1  0.00000000  0.00000000  0.20308400  1
  N  N7  1  0.49999998  0.49999998  0.29691599  1
  C  C8  1  0.70885097  0.29114899  0.49999999  1
  C  C9  1  0.29114899  0.70885097  0.49999999  1
  N  N10  1  0.49999998  0.49999998  0.70308398  1
  N  N11  1  0.00000000  0.00000000  0.79691598  1
  N  N12  1  0.00000000  0.00000000  0.00000000  1
  N  N13  1  0.49999998  0.49999998  0.49999999  1
