# generated using pymatgen
data_Zn7GaN8
_symmetry_space_group_name_H-M   'P 1'
_cell_length_a   5.29002094
_cell_length_b   5.85947704
_cell_length_c   6.77615786
_cell_angle_alpha   90.00000000
_cell_angle_beta   90.00000000
_cell_angle_gamma   90.00000000
_symmetry_Int_Tables_number   1
_chemical_formula_structural   Zn7GaN8
_chemical_formula_sum   'Zn7 Ga1 N8'
_cell_volume   210.03891352
_cell_formula_units_Z   1
loop_
 _symmetry_equiv_pos_site_id
 _symmetry_equiv_pos_as_xyz
  1  'x, y, z'
loop_
 _atom_site_type_symbol
 _atom_site_label
 _atom_site_symmetry_multiplicity
 _atom_site_fract_x
 _atom_site_fract_y
 _atom_site_fract_z
 _atom_site_occupancy
  Zn  Zn0  1  0.14272600  0.83075199  0.74774402  1
  Zn  Zn1  1  0.14272600  0.83075199  0.25225601  1
  Zn  Zn2  1  0.64272601  0.16924800  0.75225602  1
  Zn  Zn3  1  0.64272601  0.16924800  0.24774401  1
  Zn  Zn4  1  0.14184000  0.33931300  0.00000000  1
  Zn  Zn5  1  0.64184001  0.66068700  0.50000001  1
  Ga  Ga6  1  0.65056501  0.67089200  1.00000002  1
  Zn  Zn7  1  0.15056500  0.32910800  0.50000001  1
  N  N8  1  0.54363601  0.36446500  1.00000002  1
  N  N9  1  0.04363600  0.63553500  0.50000001  1
  N  N10  1  0.00284700  0.67356700  0.00000000  1
  N  N11  1  0.50284701  0.32643300  0.50000001  1
  N  N12  1  0.54302001  0.82299099  0.23114000  1
  N  N13  1  0.54302001  0.82299099  0.76886002  1
  N  N14  1  0.04302000  0.17700900  0.26886001  1
  N  N15  1  0.04302000  0.17700900  0.73114002  1
