# generated using pymatgen
data_LiMgNi2(PtS4)2
_symmetry_space_group_name_H-M   'P 1'
_cell_length_a   6.84896708
_cell_length_b   6.84896708
_cell_length_c   6.84896708
_cell_angle_alpha   60.00000000
_cell_angle_beta   60.00000000
_cell_angle_gamma   60.00000000
_symmetry_Int_Tables_number   1
_chemical_formula_structural   LiMgNi2(PtS4)2
_chemical_formula_sum   'Li1 Mg1 Ni2 Pt2 S8'
_cell_volume   227.17484350
_cell_formula_units_Z   1
loop_
 _symmetry_equiv_pos_site_id
 _symmetry_equiv_pos_as_xyz
  1  'x, y, z'
loop_
 _atom_site_type_symbol
 _atom_site_label
 _atom_site_symmetry_multiplicity
 _atom_site_fract_x
 _atom_site_fract_y
 _atom_site_fract_z
 _atom_site_occupancy
  Mg  Mg0  1  0.74999999  0.74999999  0.74999999  1
  Li  Li1  1  0.00000000  0.00000000  0.00000000  1
  Ni  Ni2  1  0.87499999  0.37500000  0.37500000  1
  Ni  Ni3  1  0.37500000  0.37500000  0.37500000  1
  Pt  Pt4  1  0.37500000  0.37500000  0.87499999  1
  Pt  Pt5  1  0.37500000  0.87499999  0.37500000  1
  S  S6  1  0.61234099  0.16297500  0.61234199  1
  S  S7  1  0.13765900  0.13765800  0.13765800  1
  S  S8  1  0.61234099  0.61234199  0.61234199  1
  S  S9  1  0.61234099  0.61234199  0.16297500  1
  S  S10  1  0.16297400  0.61234199  0.61234199  1
  S  S11  1  0.58702599  0.13765800  0.13765800  1
  S  S12  1  0.13765900  0.58702499  0.13765800  1
  S  S13  1  0.13765900  0.13765800  0.58702499  1
