# generated using pymatgen
data_Li5Mn(NiO4)2
_symmetry_space_group_name_H-M   'P 1'
_cell_length_a   5.02530813
_cell_length_b   5.16791058
_cell_length_c   5.89733934
_cell_angle_alpha   72.95857239
_cell_angle_beta   88.79062653
_cell_angle_gamma   80.35396576
_symmetry_Int_Tables_number   1
_chemical_formula_structural   Li5Mn(NiO4)2
_chemical_formula_sum   'Li5 Mn1 Ni2 O8'
_cell_volume   144.29733068
_cell_formula_units_Z   1
loop_
 _symmetry_equiv_pos_site_id
 _symmetry_equiv_pos_as_xyz
  1  'x, y, z'
loop_
 _atom_site_type_symbol
 _atom_site_label
 _atom_site_symmetry_multiplicity
 _atom_site_fract_x
 _atom_site_fract_y
 _atom_site_fract_z
 _atom_site_occupancy
  Li  Li0  1  0.75186002  0.50291497  0.37543201  1
  Li  Li1  1  0.25063903  0.49757797  0.12669202  1
  Li  Li2  1  0.74936102  0.50242197  0.87330800  1
  Li  Li3  1  0.24814003  0.49708497  0.62456801  1
  Mn  Mn4  1  0.49999999  0.00000000  0.99999997  1
  Li  Li5  1  0.01090200  0.00298100  0.74291599  1
  Ni  Ni6  1  0.49999999  0.00000000  0.49999998  1
  Ni  Ni7  1  0.98909805  0.99701893  0.25708403  1
  O  O8  1  0.62590500  0.22750698  0.17380600  1
  O  O9  1  0.14522401  0.22374798  0.94758399  1
  O  O10  1  0.62523700  0.22667198  0.70557099  1
  O  O11  1  0.11605202  0.23767098  0.44206800  1
  O  O12  1  0.88394804  0.76232895  0.55793201  1
  O  O13  1  0.37476305  0.77332795  0.29442903  1
  O  O14  1  0.85477604  0.77625195  0.05241602  1
  O  O15  1  0.37409505  0.77249295  0.82619402  1
