# generated using pymatgen
data_Li4B2HO2F7
_symmetry_space_group_name_H-M   'P 1'
_cell_length_a   5.22065783
_cell_length_b   5.47003555
_cell_length_c   7.20803404
_cell_angle_alpha   106.76300049
_cell_angle_beta   107.48068237
_cell_angle_gamma   97.29292297
_symmetry_Int_Tables_number   1
_chemical_formula_structural   Li4B2HO2F7
_chemical_formula_sum   'Li4 B2 H1 O2 F7'
_cell_volume   182.77922841
_cell_formula_units_Z   1
loop_
 _symmetry_equiv_pos_site_id
 _symmetry_equiv_pos_as_xyz
  1  'x, y, z'
loop_
 _atom_site_type_symbol
 _atom_site_label
 _atom_site_symmetry_multiplicity
 _atom_site_fract_x
 _atom_site_fract_y
 _atom_site_fract_z
 _atom_site_occupancy
  Li  Li0  1  0.72524297  0.35925901  0.21130803  1
  Li  Li1  1  0.25351798  0.61977702  0.71464401  1
  Li  Li2  1  0.99698697  0.00022900  0.49843302  1
  Li  Li3  1  0.00299698  0.99689603  0.99946701  1
  B  B4  1  0.66928497  0.36580901  0.74902502  1
  B  B5  1  0.33142598  0.63620402  0.25127803  1
  H  H6  1  0.87278197  0.34061901  0.64031403  1
  O  O7  1  0.12810998  0.65713402  0.36170002  1
  O  O8  1  0.68280697  0.64724502  0.85398703  1
  F  F9  1  0.31588198  0.35339601  0.14475702  1
  F  F10  1  0.72951097  0.22981901  0.90369301  1
  F  F11  1  0.26966298  0.77190502  0.09854503  1
  F  F12  1  0.38340098  0.25453801  0.59730801  1
  F  F13  1  0.61664297  0.74653202  0.40302604  1
  F  F14  1  0.89183897  0.08245100  0.24334603  1
  F  F15  1  0.10790598  0.91818703  0.75416702  1
