# generated using pymatgen
data_Sr3Fe2Br2O5
_symmetry_space_group_name_H-M   'P 1'
_cell_length_a   4.01024835
_cell_length_b   4.01024836
_cell_length_c   13.65876308
_cell_angle_alpha   98.44160239
_cell_angle_beta   98.44160240
_cell_angle_gamma   89.99999998
_symmetry_Int_Tables_number   1
_chemical_formula_structural   Sr3Fe2Br2O5
_chemical_formula_sum   'Sr3 Fe2 Br2 O5'
_cell_volume   214.87550291
_cell_formula_units_Z   1
loop_
 _symmetry_equiv_pos_site_id
 _symmetry_equiv_pos_as_xyz
  1  'x, y, z'
loop_
 _atom_site_type_symbol
 _atom_site_label
 _atom_site_symmetry_multiplicity
 _atom_site_fract_x
 _atom_site_fract_y
 _atom_site_fract_z
 _atom_site_occupancy
  O  O0  1  0.08185326  0.58185316  0.16370875  1
  O  O1  1  0.91814645  0.41814614  0.83629112  1
  O  O2  1  0.41814585  0.91814606  0.83629109  1
  O  O3  1  0.49999910  0.49999991  0.00000010  1
  O  O4  1  0.58185386  0.08185325  0.16370878  1
  Fe  Fe5  1  0.42806269  0.42806089  0.85612400  1
  Fe  Fe6  1  0.57193702  0.57193842  0.14387587  1
  Br  Br7  1  0.30572368  0.30572365  0.61144681  1
  Br  Br8  1  0.69427602  0.69427566  0.38855307  1
  Sr  Sr9  1  0.85899516  0.85899661  0.71799110  1
  Sr  Sr10  1  0.14100461  0.14100526  0.28200889  1
  Sr  Sr11  1  0.00000000  0.00000000  0.00000000  1
