# generated using pymatgen
data_Li6FeCoO8
_symmetry_space_group_name_H-M   'P 1'
_cell_length_a   2.97538829
_cell_length_b   5.12938547
_cell_length_c   9.83342457
_cell_angle_alpha   100.76988220
_cell_angle_beta   89.99938965
_cell_angle_gamma   89.99977112
_symmetry_Int_Tables_number   1
_chemical_formula_structural   Li6FeCoO8
_chemical_formula_sum   'Li6 Fe1 Co1 O8'
_cell_volume   147.43336258
_cell_formula_units_Z   1
loop_
 _symmetry_equiv_pos_site_id
 _symmetry_equiv_pos_as_xyz
  1  'x, y, z'
loop_
 _atom_site_type_symbol
 _atom_site_label
 _atom_site_symmetry_multiplicity
 _atom_site_fract_x
 _atom_site_fract_y
 _atom_site_fract_z
 _atom_site_occupancy
  Li  Li0  1  -0.00000003  0.50000000  0.49999999  1
  Li  Li1  1  0.00000000  0.00000000  0.00000000  1
  Li  Li2  1  0.49999997  0.25000000  0.25000001  1
  Li  Li3  1  0.49999994  0.75000001  0.75000000  1
  Li  Li4  1  -0.00000004  0.75000001  0.24999901  1
  Li  Li5  1  -0.00000001  0.25000000  0.75000098  1
  Fe  Fe6  1  0.49999995  0.50000000  0.00000002  1
  Co  Co7  1  0.49999993  1.00000001  0.50000002  1
  O  O8  1  0.00001097  0.59866901  0.87079198  1
  O  O9  1  0.00001099  0.09867300  0.37079199  1
  O  O10  1  0.99998894  0.40133100  0.12920802  1
  O  O11  1  0.99998891  0.90132701  0.62920802  1
  O  O12  1  0.50001193  0.86657301  0.13666003  1
  O  O13  1  0.50001196  0.36657200  0.63665899  1
  O  O14  1  0.49998797  0.13342700  0.86333998  1
  O  O15  1  0.49998795  0.63342801  0.36334001  1
