# generated using pymatgen
data_Ba6MoO11
_symmetry_space_group_name_H-M   'P 1'
_cell_length_a   6.84993219
_cell_length_b   7.51718760
_cell_length_c   6.84993219
_cell_angle_alpha   62.89529419
_cell_angle_beta   90.00000000
_cell_angle_gamma   117.10470581
_symmetry_Int_Tables_number   1
_chemical_formula_structural   Ba6MoO11
_chemical_formula_sum   'Ba6 Mo1 O11'
_cell_volume   269.73710359
_cell_formula_units_Z   1
loop_
 _symmetry_equiv_pos_site_id
 _symmetry_equiv_pos_as_xyz
  1  'x, y, z'
loop_
 _atom_site_type_symbol
 _atom_site_label
 _atom_site_symmetry_multiplicity
 _atom_site_fract_x
 _atom_site_fract_y
 _atom_site_fract_z
 _atom_site_occupancy
  Ba  Ba0  1  0.83256698  0.00000100  0.33256599  1
  Ba  Ba1  1  0.33256699  0.00000000  0.16743300  1
  Ba  Ba2  1  0.66743298  0.00000000  0.83256698  1
  Ba  Ba3  1  0.16743300  0.99999898  0.66743397  1
  Ba  Ba4  1  0.25000000  0.49999999  0.74999998  1
  Ba  Ba5  1  0.74999998  0.49999999  0.24999999  1
  Mo  Mo6  1  0.74999998  0.49999999  0.74999998  1
  O  O7  1  0.25000000  0.49999999  0.24999999  1
  O  O8  1  0.49667899  0.28822799  0.70845098  1
  O  O9  1  0.20845100  0.71177198  0.99667897  1
  O  O10  1  0.50332099  0.71177198  0.29154899  1
  O  O11  1  0.00332101  0.71177198  0.49667898  1
  O  O12  1  0.70845099  0.71177198  0.79154897  1
  O  O13  1  0.99667897  0.28822799  0.50332098  1
  O  O14  1  0.29154899  0.28822799  0.20845099  1
  O  O15  1  0.79154898  0.28822799  0.00332100  1
  O  O16  1  0.49999999  0.99999998  0.49999998  1
  O  O17  1  0.00000000  0.00000000  0.00000000  1
