# generated using pymatgen
data_K4SiGeS4
_symmetry_space_group_name_H-M   'P 1'
_cell_length_a   6.14686394
_cell_length_b   6.93077183
_cell_length_c   7.99660492
_cell_angle_alpha   115.68080139
_cell_angle_beta   112.60290527
_cell_angle_gamma   90.00000000
_symmetry_Int_Tables_number   1
_chemical_formula_structural   K4SiGeS4
_chemical_formula_sum   'K4 Si1 Ge1 S4'
_cell_volume   277.70435327
_cell_formula_units_Z   1
loop_
 _symmetry_equiv_pos_site_id
 _symmetry_equiv_pos_as_xyz
  1  'x, y, z'
loop_
 _atom_site_type_symbol
 _atom_site_label
 _atom_site_symmetry_multiplicity
 _atom_site_fract_x
 _atom_site_fract_y
 _atom_site_fract_z
 _atom_site_occupancy
  K  K0  1  0.85408001  0.69224000  0.70815996  1
  K  K1  1  0.14592000  0.30776000  0.29183998  1
  K  K2  1  0.64591900  0.98407900  0.29183896  1
  K  K3  1  0.35408101  0.01592100  0.70816099  1
  Ge  Ge4  1  0.25000000  0.50000000  -0.00000002  1
  Si  Si5  1  0.75000001  0.50000000  -0.00000001  1
  S  S6  1  0.40360500  0.56713300  0.80720996  1
  S  S7  1  0.09639499  0.75992300  0.19278996  1
  S  S8  1  0.90360501  0.24007700  0.80720999  1
  S  S9  1  0.59639500  0.43286700  0.19278998  1
