# generated using pymatgen
data_BaLa2MoO5
_symmetry_space_group_name_H-M   'P 1'
_cell_length_a   5.90117979
_cell_length_b   6.79314137
_cell_length_c   6.79314137
_cell_angle_alpha   90.49822235
_cell_angle_beta   90.00000000
_cell_angle_gamma   90.00000000
_symmetry_Int_Tables_number   1
_chemical_formula_structural   BaLa2MoO5
_chemical_formula_sum   'Ba2 La4 Mo2 O10'
_cell_volume   272.31008867
_cell_formula_units_Z   2
loop_
 _symmetry_equiv_pos_site_id
 _symmetry_equiv_pos_as_xyz
  1  'x, y, z'
loop_
 _atom_site_type_symbol
 _atom_site_label
 _atom_site_symmetry_multiplicity
 _atom_site_fract_x
 _atom_site_fract_y
 _atom_site_fract_z
 _atom_site_occupancy
  Ba  Ba0  1  -0.00000000  0.49999999  0.50000002  1
  Ba  Ba1  1  0.00000000  0.00000000  0.00000000  1
  La  La2  1  0.50000002  0.32510699  0.17489301  1
  La  La3  1  0.50000002  0.67489298  0.82510702  1
  La  La4  1  0.50000002  0.17389100  0.67389099  1
  La  La5  1  0.50000002  0.82610898  0.32610904  1
  Mo  Mo6  1  0.00000000  0.00000000  0.49999999  1
  Mo  Mo7  1  -0.00000000  0.49999999  0.00000003  1
  O  O8  1  0.50000002  0.49999999  0.50000002  1
  O  O9  1  0.50000002  0.00000000  0.00000000  1
  O  O10  1  0.24041701  0.35690399  0.85690400  1
  O  O11  1  0.24041701  0.64309599  0.14309603  1
  O  O12  1  0.24445901  0.13618100  0.36381900  1
  O  O13  1  0.24445901  0.86381898  0.63618104  1
  O  O14  1  0.75958303  0.64309599  0.14309603  1
  O  O15  1  0.75958303  0.35690399  0.85690400  1
  O  O16  1  0.75554103  0.86381898  0.63618104  1
  O  O17  1  0.75554103  0.13618100  0.36381900  1
