# generated using pymatgen
data_BaSrPb5WIO7
_symmetry_space_group_name_H-M   'P 1'
_cell_length_a   5.54041719
_cell_length_b   7.83425188
_cell_length_c   7.83425188
_cell_angle_alpha   90.00000000
_cell_angle_beta   90.00000000
_cell_angle_gamma   90.00000000
_symmetry_Int_Tables_number   1
_chemical_formula_structural   BaSrPb5WIO7
_chemical_formula_sum   'Ba1 Sr1 Pb5 W1 I1 O7'
_cell_volume   340.04588953
_cell_formula_units_Z   1
loop_
 _symmetry_equiv_pos_site_id
 _symmetry_equiv_pos_as_xyz
  1  'x, y, z'
loop_
 _atom_site_type_symbol
 _atom_site_label
 _atom_site_symmetry_multiplicity
 _atom_site_fract_x
 _atom_site_fract_y
 _atom_site_fract_z
 _atom_site_occupancy
  Ba  Ba0  1  0.00000000  0.50000001  0.50000001  1
  Sr  Sr1  1  0.00000000  0.00000000  0.00000000  1
  Pb  Pb2  1  0.00000000  0.24963300  0.75036701  1
  Pb  Pb3  1  0.00000000  0.75036701  0.24963300  1
  Pb  Pb4  1  0.00000000  0.24963300  0.24963300  1
  Pb  Pb5  1  0.00000000  0.75036701  0.75036701  1
  W  W6  1  0.49999998  0.00000000  0.00000000  1
  Pb  Pb7  1  0.49999998  0.50000001  0.50000001  1
  O  O8  1  0.75876497  0.50000001  0.25876600  1
  I  I9  1  0.75794797  1.00000002  0.75783001  1
  O  O10  1  0.75876497  0.50000001  0.74123401  1
  O  O11  1  0.75794797  1.00000002  0.24217000  1
  O  O12  1  0.24205199  0.75783001  0.00000000  1
  O  O13  1  0.24123499  0.25876600  0.50000001  1
  O  O14  1  0.24205199  0.24217000  0.00000000  1
  O  O15  1  0.24123499  0.74123401  0.50000001  1
