# generated using pymatgen
data_Li4Mn2CoBO6
_symmetry_space_group_name_H-M   'P 1'
_cell_length_a   6.18869638
_cell_length_b   6.18877172
_cell_length_c   6.35247898
_cell_angle_alpha   61.09240723
_cell_angle_beta   88.13806152
_cell_angle_gamma   118.06935120
_symmetry_Int_Tables_number   1
_chemical_formula_structural   Li4Mn2CoBO6
_chemical_formula_sum   'Li4 Mn2 Co1 B1 O6'
_cell_volume   176.97349844
_cell_formula_units_Z   1
loop_
 _symmetry_equiv_pos_site_id
 _symmetry_equiv_pos_as_xyz
  1  'x, y, z'
loop_
 _atom_site_type_symbol
 _atom_site_label
 _atom_site_symmetry_multiplicity
 _atom_site_fract_x
 _atom_site_fract_y
 _atom_site_fract_z
 _atom_site_occupancy
  Li  Li0  1  0.37504603  0.75006404  0.87502400  1
  Li  Li1  1  0.37501700  0.24993501  0.37507901  1
  Li  Li2  1  0.87491598  0.24974801  0.37492003  1
  Li  Li3  1  0.37490803  0.74988104  0.37495000  1
  Mn  Mn4  1  0.01992900  0.04823300  0.93236501  1
  Mn  Mn5  1  0.73032200  0.45229702  0.81764203  1
  B  B6  1  0.14114501  0.30076102  0.55788800  1
  Co  Co7  1  0.60873799  0.19899801  0.19210602  1
  O  O8  1  0.61113402  0.74404504  0.64461201  1
  O  O9  1  0.13870404  0.75585504  0.10541498  1
  O  O10  1  0.60289499  0.22289701  0.64370703  1
  O  O11  1  0.14713301  0.27713901  0.10635400  1
  O  O12  1  0.61670602  0.74679804  0.10620200  1
  O  O13  1  0.13340704  0.75334904  0.64373699  1
