# generated using pymatgen
data_Cs2TlBiF6
_symmetry_space_group_name_H-M   'P 1'
_cell_length_a   6.88336229
_cell_length_b   6.88336229
_cell_length_c   6.88336229
_cell_angle_alpha   60.00000000
_cell_angle_beta   60.00000000
_cell_angle_gamma   60.00000000
_symmetry_Int_Tables_number   1
_chemical_formula_structural   Cs2TlBiF6
_chemical_formula_sum   'Cs2 Tl1 Bi1 F6'
_cell_volume   230.61464722
_cell_formula_units_Z   1
loop_
 _symmetry_equiv_pos_site_id
 _symmetry_equiv_pos_as_xyz
  1  'x, y, z'
loop_
 _atom_site_type_symbol
 _atom_site_label
 _atom_site_symmetry_multiplicity
 _atom_site_fract_x
 _atom_site_fract_y
 _atom_site_fract_z
 _atom_site_occupancy
  Cs  Cs0  1  0.24999999  0.24999999  0.24999999  1
  Cs  Cs1  1  0.74999998  0.74999998  0.74999998  1
  Tl  Tl2  1  0.49999998  0.49999998  0.49999998  1
  Bi  Bi3  1  0.00000000  0.00000000  0.00000000  1
  F  F4  1  0.22618799  0.77381197  0.22618799  1
  F  F5  1  0.22618799  0.22618799  0.77381197  1
  F  F6  1  0.77381197  0.22618799  0.77381197  1
  F  F7  1  0.22618799  0.77381197  0.77381197  1
  F  F8  1  0.77381197  0.22618799  0.22618799  1
  F  F9  1  0.77381197  0.77381197  0.22618799  1
