# generated using pymatgen
data_Zn7SiGe4P3Os
_symmetry_space_group_name_H-M   'P 1'
_cell_length_a   6.49939299
_cell_length_b   6.49939299
_cell_length_c   6.66246700
_cell_angle_alpha   90.00000000
_cell_angle_beta   90.00000000
_cell_angle_gamma   90.00000000
_symmetry_Int_Tables_number   1
_chemical_formula_structural   Zn7SiGe4P3Os
_chemical_formula_sum   'Zn7 Si1 Ge4 P3 Os1'
_cell_volume   281.43665861
_cell_formula_units_Z   1
loop_
 _symmetry_equiv_pos_site_id
 _symmetry_equiv_pos_as_xyz
  1  'x, y, z'
loop_
 _atom_site_type_symbol
 _atom_site_label
 _atom_site_symmetry_multiplicity
 _atom_site_fract_x
 _atom_site_fract_y
 _atom_site_fract_z
 _atom_site_occupancy
  Zn  Zn0  1  0.00000000  0.00000000  0.25000000  1
  Zn  Zn1  1  0.00000000  0.00000000  0.75000000  1
  Zn  Zn2  1  0.00000000  0.50000000  0.50000000  1
  Zn  Zn3  1  0.50000000  0.00000000  0.00000000  1
  Zn  Zn4  1  0.52929700  0.25646100  0.50000000  1
  Zn  Zn5  1  0.47070300  0.74353900  0.50000000  1
  Zn  Zn6  1  0.25646100  0.47070300  0.00000000  1
  Si  Si7  1  0.74353900  0.52929700  0.00000000  1
  Ge  Ge8  1  0.80675900  0.30757800  0.27325800  1
  P  P9  1  0.19324100  0.69242200  0.27325800  1
  P  P10  1  0.30757800  0.19324100  0.77325800  1
  Ge  Ge11  1  0.69242200  0.80675900  0.77325800  1
  Os  Os12  1  0.19324100  0.69242200  0.72674200  1
  Ge  Ge13  1  0.80675900  0.30757800  0.72674200  1
  Ge  Ge14  1  0.69242200  0.80675900  0.22674200  1
  P  P15  1  0.30757800  0.19324100  0.22674200  1
