# generated using pymatgen
data_Eu(UH4)3
_symmetry_space_group_name_H-M   'P 1'
_cell_length_a   4.42768192
_cell_length_b   6.36583090
_cell_length_c   6.89709377
_cell_angle_alpha   90.00000000
_cell_angle_beta   90.00000000
_cell_angle_gamma   90.00000000
_symmetry_Int_Tables_number   1
_chemical_formula_structural   Eu(UH4)3
_chemical_formula_sum   'Eu1 U3 H12'
_cell_volume   194.40061876
_cell_formula_units_Z   1
loop_
 _symmetry_equiv_pos_site_id
 _symmetry_equiv_pos_as_xyz
  1  'x, y, z'
loop_
 _atom_site_type_symbol
 _atom_site_label
 _atom_site_symmetry_multiplicity
 _atom_site_fract_x
 _atom_site_fract_y
 _atom_site_fract_z
 _atom_site_occupancy
  Eu  Eu0  1  0.55981501  0.13141800  0.75000002  1
  U  U1  1  0.94018502  0.63141801  0.75000002  1
  U  U2  1  0.05981500  0.36858201  0.25000001  1
  U  U3  1  0.44018501  0.86858201  0.25000001  1
  H  H4  1  0.87740602  0.33513201  0.93667903  1
  H  H5  1  0.09070500  0.97644402  0.75000002  1
  H  H6  1  0.62259401  0.83513201  0.56332102  1
  H  H7  1  0.90929502  0.02355600  0.25000001  1
  H  H8  1  0.40929501  0.47644401  0.75000002  1
  H  H9  1  0.37740601  0.16486800  0.43667901  1
  H  H10  1  0.12259400  0.66486801  0.43667901  1
  H  H11  1  0.62259401  0.83513201  0.93667903  1
  H  H12  1  0.37740601  0.16486800  0.06332100  1
  H  H13  1  0.59070501  0.52355601  0.25000001  1
  H  H14  1  0.12259400  0.66486801  0.06332100  1
  H  H15  1  0.87740602  0.33513201  0.56332102  1
