# generated using pymatgen
data_Ba3Sr(ZnSe2)4
_symmetry_space_group_name_H-M   'P 1'
_cell_length_a   7.01101923
_cell_length_b   8.28662586
_cell_length_c   8.28662586
_cell_angle_alpha   90.00000000
_cell_angle_beta   90.00000000
_cell_angle_gamma   90.00000000
_symmetry_Int_Tables_number   1
_chemical_formula_structural   Ba3Sr(ZnSe2)4
_chemical_formula_sum   'Ba3 Sr1 Zn4 Se8'
_cell_volume   481.43384758
_cell_formula_units_Z   1
loop_
 _symmetry_equiv_pos_site_id
 _symmetry_equiv_pos_as_xyz
  1  'x, y, z'
loop_
 _atom_site_type_symbol
 _atom_site_label
 _atom_site_symmetry_multiplicity
 _atom_site_fract_x
 _atom_site_fract_y
 _atom_site_fract_z
 _atom_site_occupancy
  Ba  Ba0  1  0.24999999  0.00000000  -0.00000000  1
  Ba  Ba1  1  0.74999998  0.50000001  0.50000001  1
  Ba  Ba2  1  0.24999999  0.50000001  0.50000001  1
  Sr  Sr3  1  0.74999998  0.00000000  0.00000000  1
  Zn  Zn4  1  0.74999998  0.00000000  0.50000001  1
  Zn  Zn5  1  0.24999999  0.50000001  0.00000000  1
  Zn  Zn6  1  0.74999998  0.50000001  0.00000000  1
  Zn  Zn7  1  0.24999999  0.00000000  0.50000001  1
  Se  Se8  1  0.50024398  0.32964201  0.82964201  1
  Se  Se9  1  0.00841100  0.82624801  0.32624801  1
  Se  Se10  1  0.00841100  0.17375200  0.67375201  1
  Se  Se11  1  0.50024398  0.67035801  0.17035800  1
  Se  Se12  1  0.49158898  0.17375200  0.32624801  1
  Se  Se13  1  0.99975597  0.67035801  0.82964201  1
  Se  Se14  1  0.99975597  0.32964201  0.17035800  1
  Se  Se15  1  0.49158898  0.82624801  0.67375201  1
