# generated using pymatgen
data_CeO2
_symmetry_space_group_name_H-M   'P 1'
_cell_length_a   5.26041412
_cell_length_b   5.28398895
_cell_length_c   5.28400278
_cell_angle_alpha   89.99983978
_cell_angle_beta   90.00171661
_cell_angle_gamma   89.99505615
_symmetry_Int_Tables_number   1
_chemical_formula_structural   CeO2
_chemical_formula_sum   'Ce4 O8'
_cell_volume   146.87398277
_cell_formula_units_Z   4
loop_
 _symmetry_equiv_pos_site_id
 _symmetry_equiv_pos_as_xyz
  1  'x, y, z'
loop_
 _atom_site_type_symbol
 _atom_site_label
 _atom_site_symmetry_multiplicity
 _atom_site_fract_x
 _atom_site_fract_y
 _atom_site_fract_z
 _atom_site_occupancy
  Ce  Ce0  1  0.99997498  0.49996101  0.50000004  1
  Ce  Ce1  1  0.00000101  0.99996201  0.00006504  1
  Ce  Ce2  1  0.49998400  0.50001901  0.99994006  1
  Ce  Ce3  1  0.50003699  0.00003700  0.50001202  1
  O  O4  1  0.75984499  0.27681400  0.27682202  1
  O  O5  1  0.75987599  0.72316701  0.72315906  1
  O  O6  1  0.73082599  0.21807600  0.78193804  1
  O  O7  1  0.73071899  0.78189001  0.21808604  1
  O  O8  1  0.24019100  0.27683500  0.72318004  1
  O  O9  1  0.26922800  0.78193701  0.78190606  1
  O  O10  1  0.26922800  0.21810000  0.21808602  1
  O  O11  1  0.24009100  0.72320301  0.27680504  1
