# generated using pymatgen
data_Ba2Co2O3
_symmetry_space_group_name_H-M   'P 1'
_cell_length_a   5.95110893
_cell_length_b   6.30246592
_cell_length_c   6.38588572
_cell_angle_alpha   90.00000000
_cell_angle_beta   65.93569183
_cell_angle_gamma   90.00000000
_symmetry_Int_Tables_number   1
_chemical_formula_structural   Ba2Co2O3
_chemical_formula_sum   'Ba4 Co4 O6'
_cell_volume   218.69676382
_cell_formula_units_Z   2
loop_
 _symmetry_equiv_pos_site_id
 _symmetry_equiv_pos_as_xyz
  1  'x, y, z'
loop_
 _atom_site_type_symbol
 _atom_site_label
 _atom_site_symmetry_multiplicity
 _atom_site_fract_x
 _atom_site_fract_y
 _atom_site_fract_z
 _atom_site_occupancy
  Ba  Ba0  1  0.82177400  0.63241701  0.92641303  1
  Ba  Ba1  1  0.17822600  0.13241700  0.57358701  1
  Ba  Ba2  1  0.82177400  0.86758301  0.42641302  1
  Ba  Ba3  1  0.17822600  0.36758300  0.07358700  1
  Co  Co4  1  0.66281900  0.39229101  0.57595802  1
  Co  Co5  1  0.66281900  0.10770900  0.07595801  1
  Co  Co6  1  0.33718100  0.89229101  0.92404202  1
  Co  Co7  1  0.33718100  0.60770901  0.42404201  1
  O  O8  1  -0.00000000  0.50000001  0.50000001  1
  O  O9  1  0.00000000  0.00000000  0.00000000  1
  O  O10  1  0.58288700  0.14165600  0.79404002  1
  O  O11  1  0.41711300  0.64165601  0.70596002  1
  O  O12  1  0.58288700  0.35834400  0.29404001  1
  O  O13  1  0.41711300  0.85834401  0.20596001  1
