# generated using pymatgen
data_Li4CoPO10
_symmetry_space_group_name_H-M   'P 1'
_cell_length_a   5.07762623
_cell_length_b   6.40245581
_cell_length_c   6.43766594
_cell_angle_alpha   108.75106812
_cell_angle_beta   105.61305237
_cell_angle_gamma   99.45847321
_symmetry_Int_Tables_number   1
_chemical_formula_structural   Li4CoPO10
_chemical_formula_sum   'Li4 Co1 P1 O10'
_cell_volume   183.50139169
_cell_formula_units_Z   1
loop_
 _symmetry_equiv_pos_site_id
 _symmetry_equiv_pos_as_xyz
  1  'x, y, z'
loop_
 _atom_site_type_symbol
 _atom_site_label
 _atom_site_symmetry_multiplicity
 _atom_site_fract_x
 _atom_site_fract_y
 _atom_site_fract_z
 _atom_site_occupancy
  Li  Li0  1  0.37436899  0.23910599  0.94541101  1
  Li  Li1  1  0.62563096  0.76089198  0.05458797  1
  Li  Li2  1  0.16383096  0.62763098  0.25268296  1
  Li  Li3  1  0.83617100  0.37236899  0.74731701  1
  P  P4  1  0.16621099  0.18461999  0.38833900  1
  Co  Co5  1  0.83378797  0.81537998  0.61166098  1
  O  O6  1  0.08723795  0.74283398  0.55651095  1
  O  O7  1  0.91276101  0.25716699  0.44348802  1
  O  O8  1  0.22646897  0.55353098  0.95192998  1
  O  O9  1  0.77353199  0.44646799  0.04807000  1
  O  O10  1  0.06384594  0.92590897  0.21579494  1
  O  O11  1  0.93615202  0.07409200  0.78420504  1
  O  O12  1  0.40869500  0.20798199  0.61085601  1
  O  O13  1  0.59130496  0.79201798  0.38914497  1
  O  O14  1  0.28618398  0.33241399  0.26546199  1
  O  O15  1  0.71381797  0.66758598  0.73453799  1
