# generated using pymatgen
data_Na2Cu2S5
_symmetry_space_group_name_H-M   'P 1'
_cell_length_a   6.69374990
_cell_length_b   6.70194435
_cell_length_c   10.01340771
_cell_angle_alpha   79.74417877
_cell_angle_beta   71.53292847
_cell_angle_gamma   67.54396057
_symmetry_Int_Tables_number   1
_chemical_formula_structural   Na2Cu2S5
_chemical_formula_sum   'Na4 Cu4 S10'
_cell_volume   392.93772720
_cell_formula_units_Z   2
loop_
 _symmetry_equiv_pos_site_id
 _symmetry_equiv_pos_as_xyz
  1  'x, y, z'
loop_
 _atom_site_type_symbol
 _atom_site_label
 _atom_site_symmetry_multiplicity
 _atom_site_fract_x
 _atom_site_fract_y
 _atom_site_fract_z
 _atom_site_occupancy
  Na  Na0  1  0.51376907  0.77197998  0.93762698  1
  Na  Na1  1  0.04221902  0.27326199  0.88648599  1
  Na  Na2  1  0.41315206  0.75209998  0.32714598  1
  Na  Na3  1  0.23818302  0.25311299  0.47679699  1
  Cu  Cu4  1  0.76181707  0.74688698  0.52320298  1
  Cu  Cu5  1  0.95778107  0.72673798  0.11351399  1
  Cu  Cu6  1  0.48623102  0.22801999  0.06237300  1
  Cu  Cu7  1  0.58684803  0.24789999  0.67285399  1
  S  S8  1  0.15304906  0.77984198  0.74498098  1
  S  S9  1  0.84695103  0.22015799  0.25501900  1
  S  S10  1  0.64266001  0.02619000  0.30692500  1
  S  S11  1  0.70291805  0.47508799  0.11700899  1
  S  S12  1  0.35734008  0.97380997  0.69307497  1
  S  S13  1  0.29708205  0.52491199  0.88299098  1
  S  S14  1  0.82993409  0.97592997  0.85776797  1
  S  S15  1  0.15952705  0.62686098  0.57726398  1
  S  S16  1  0.84047304  0.37313899  0.42273599  1
  S  S17  1  0.17006600  0.02407000  0.14223200  1
