# generated using pymatgen
data_Li4TiAl2SiO8
_symmetry_space_group_name_H-M   'P 1'
_cell_length_a   5.15839577
_cell_length_b   5.34904623
_cell_length_c   7.02748299
_cell_angle_alpha   90.00000000
_cell_angle_beta   90.00000000
_cell_angle_gamma   90.00000000
_symmetry_Int_Tables_number   1
_chemical_formula_structural   Li4TiAl2SiO8
_chemical_formula_sum   'Li4 Ti1 Al2 Si1 O8'
_cell_volume   193.90580626
_cell_formula_units_Z   1
loop_
 _symmetry_equiv_pos_site_id
 _symmetry_equiv_pos_as_xyz
  1  'x, y, z'
loop_
 _atom_site_type_symbol
 _atom_site_label
 _atom_site_symmetry_multiplicity
 _atom_site_fract_x
 _atom_site_fract_y
 _atom_site_fract_z
 _atom_site_occupancy
  Li  Li0  1  0.52047902  0.80089697  -0.00000000  1
  Li  Li1  1  0.02047900  0.19910299  0.50000000  1
  Li  Li2  1  0.50734802  0.32312899  0.25058800  1
  Li  Li3  1  0.00734800  0.67687097  0.75058800  1
  Al  Al4  1  0.50734802  0.32312899  0.74941200  1
  Ti  Ti5  1  0.00734800  0.67687097  0.24941200  1
  Al  Al6  1  0.49912802  0.81051397  0.50000000  1
  Si  Si7  1  0.99912805  0.18948599  -0.00000000  1
  O  O8  1  0.06526100  0.87178496  -0.00000000  1
  O  O9  1  0.66608503  0.22740299  0.00000000  1
  O  O10  1  0.56526103  0.12821499  0.50000000  1
  O  O11  1  0.16608501  0.77259697  0.50000000  1
  O  O12  1  0.12722601  0.32896199  0.19981100  1
  O  O13  1  0.62722603  0.67103797  0.30018900  1
  O  O14  1  0.62722603  0.67103797  0.69981100  1
  O  O15  1  0.12722601  0.32896199  0.80018900  1
