# generated using pymatgen
data_ZnInO2
_symmetry_space_group_name_H-M   'P 1'
_cell_length_a   3.33555198
_cell_length_b   3.33555126
_cell_length_c   12.82671165
_cell_angle_alpha   90.00000000
_cell_angle_beta   90.00000000
_cell_angle_gamma   120.00000763
_symmetry_Int_Tables_number   1
_chemical_formula_structural   ZnInO2
_chemical_formula_sum   'Zn2 In2 O4'
_cell_volume   123.58941091
_cell_formula_units_Z   2
loop_
 _symmetry_equiv_pos_site_id
 _symmetry_equiv_pos_as_xyz
  1  'x, y, z'
loop_
 _atom_site_type_symbol
 _atom_site_label
 _atom_site_symmetry_multiplicity
 _atom_site_fract_x
 _atom_site_fract_y
 _atom_site_fract_z
 _atom_site_occupancy
  Zn  Zn0  1  0.00000000  0.00000000  0.00000000  1
  In  In1  1  0.00000000  0.00000000  0.50000001  1
  Zn  Zn2  1  0.33333335  0.66666669  0.25000001  1
  In  In3  1  0.66666668  0.33333334  0.75000002  1
  O  O4  1  0.33333335  0.66666669  0.08508900  1
  O  O5  1  0.66666668  0.33333334  0.58508902  1
  O  O6  1  0.66666668  0.33333334  0.91491102  1
  O  O7  1  0.33333335  0.66666669  0.41491101  1
