# generated using pymatgen
data_NaLiCuAg3O8
_symmetry_space_group_name_H-M   'P 1'
_cell_length_a   5.15820408
_cell_length_b   5.32817173
_cell_length_c   8.56974888
_cell_angle_alpha   90.00000000
_cell_angle_beta   90.00000000
_cell_angle_gamma   118.95025635
_symmetry_Int_Tables_number   1
_chemical_formula_structural   NaLiCuAg3O8
_chemical_formula_sum   'Na1 Li1 Cu1 Ag3 O8'
_cell_volume   206.09757302
_cell_formula_units_Z   1
loop_
 _symmetry_equiv_pos_site_id
 _symmetry_equiv_pos_as_xyz
  1  'x, y, z'
loop_
 _atom_site_type_symbol
 _atom_site_label
 _atom_site_symmetry_multiplicity
 _atom_site_fract_x
 _atom_site_fract_y
 _atom_site_fract_z
 _atom_site_occupancy
  Li  Li0  1  0.70412200  0.34384401  0.44567801  1
  Na  Na1  1  0.36027801  0.65615601  0.55432201  1
  Ag  Ag2  1  0.70412200  0.34384401  0.05432200  1
  Cu  Cu3  1  0.36027801  0.65615601  0.94567801  1
  Ag  Ag4  1  0.03042700  0.06042600  0.25000000  1
  Ag  Ag5  1  0.97000101  0.93957402  0.75000001  1
  O  O6  1  0.83440900  0.37257001  0.25000000  1
  O  O7  1  0.46183901  0.62743001  0.75000001  1
  O  O8  1  0.64173601  1.00000002  0.50000001  1
  O  O9  1  0.64173601  1.00000002  1.00000001  1
  O  O10  1  0.38151500  0.38250301  0.44569701  1
  O  O11  1  0.99901200  0.61749701  0.55430301  1
  O  O12  1  0.99901200  0.61749701  0.94569701  1
  O  O13  1  0.38151500  0.38250301  0.05430300  1
