# generated using pymatgen
data_Al2SiMoO5
_symmetry_space_group_name_H-M   'P 1'
_cell_length_a   5.61627817
_cell_length_b   5.61627769
_cell_length_c   6.12683010
_cell_angle_alpha   90.00000000
_cell_angle_beta   90.00000000
_cell_angle_gamma   120.00000000
_symmetry_Int_Tables_number   1
_chemical_formula_structural   Al2SiMoO5
_chemical_formula_sum   'Al2 Si1 Mo1 O5'
_cell_volume   167.36461865
_cell_formula_units_Z   1
loop_
 _symmetry_equiv_pos_site_id
 _symmetry_equiv_pos_as_xyz
  1  'x, y, z'
loop_
 _atom_site_type_symbol
 _atom_site_label
 _atom_site_symmetry_multiplicity
 _atom_site_fract_x
 _atom_site_fract_y
 _atom_site_fract_z
 _atom_site_occupancy
  Al  Al0  1  0.46672694  0.99999997  -0.00000000  1
  Al  Al1  1  0.99999995  0.46672698  0.33333333  1
  Mo  Mo2  1  0.53327296  0.53327298  0.66666666  1
  Si  Si3  1  0.58022594  0.85121297  0.78740899  1
  O  O4  1  0.85121295  0.58022598  0.54592399  1
  O  O5  1  0.14878696  0.72901298  0.12074200  1
  O  O6  1  0.72901297  0.14878700  0.21259100  1
  O  O7  1  0.27098697  0.41977399  0.45407599  1
  O  O8  1  0.41977398  0.27098699  0.87925799  1
