# generated using pymatgen
data_Rb2IF6
_symmetry_space_group_name_H-M   'P 1'
_cell_length_a   5.14377308
_cell_length_b   6.52228594
_cell_length_c   6.52228642
_cell_angle_alpha   60.00000381
_cell_angle_beta   90.00000000
_cell_angle_gamma   90.00000000
_symmetry_Int_Tables_number   1
_chemical_formula_structural   Rb2IF6
_chemical_formula_sum   'Rb2 I1 F6'
_cell_volume   189.50128104
_cell_formula_units_Z   1
loop_
 _symmetry_equiv_pos_site_id
 _symmetry_equiv_pos_as_xyz
  1  'x, y, z'
loop_
 _atom_site_type_symbol
 _atom_site_label
 _atom_site_symmetry_multiplicity
 _atom_site_fract_x
 _atom_site_fract_y
 _atom_site_fract_z
 _atom_site_occupancy
  Rb  Rb0  1  0.69147499  0.66666667  0.66666669  1
  Rb  Rb1  1  0.30852500  0.33333333  0.33333335  1
  I  I2  1  0.00000000  0.00000000  0.00000000  1
  F  F3  1  0.21961300  0.84867000  0.30266002  1
  F  F4  1  0.21961300  0.30266000  0.84867002  1
  F  F5  1  0.21961300  0.84867000  0.84867004  1
  F  F6  1  0.78038699  0.15133000  0.69734002  1
  F  F7  1  0.78038699  0.69734000  0.15133002  1
  F  F8  1  0.78038699  0.15133000  0.15133001  1
