# generated using pymatgen
data_KLiZn2SiSbO4
_symmetry_space_group_name_H-M   'P 1'
_cell_length_a   6.39551497
_cell_length_b   6.39551497
_cell_length_c   6.39551497
_cell_angle_alpha   60.00000000
_cell_angle_beta   60.00000000
_cell_angle_gamma   60.00000000
_symmetry_Int_Tables_number   1
_chemical_formula_structural   KLiZn2SiSbO4
_chemical_formula_sum   'K1 Li1 Zn2 Si1 Sb1 O4'
_cell_volume   184.97437162
_cell_formula_units_Z   1
loop_
 _symmetry_equiv_pos_site_id
 _symmetry_equiv_pos_as_xyz
  1  'x, y, z'
loop_
 _atom_site_type_symbol
 _atom_site_label
 _atom_site_symmetry_multiplicity
 _atom_site_fract_x
 _atom_site_fract_y
 _atom_site_fract_z
 _atom_site_occupancy
  K  K0  1  0.71245300  0.71245300  0.28754700  1
  Li  Li1  1  0.71245300  0.28754700  0.28754700  1
  Zn  Zn2  1  0.28754700  0.71245300  0.71245300  1
  Zn  Zn3  1  0.28754700  0.71245300  0.28754700  1
  Si  Si4  1  0.28754700  0.28754700  0.71245300  1
  Sb  Sb5  1  0.71245300  0.28754700  0.71245300  1
  O  O6  1  0.75000000  0.75000000  0.75000000  1
  O  O7  1  0.25000000  0.25000000  0.25000000  1
  O  O8  1  0.00000000  0.00000000  0.00000000  1
  O  O9  1  0.50000000  0.50000000  0.50000000  1
