# generated using pymatgen
data_Li2La3Fe(MoO6)2
_symmetry_space_group_name_H-M   'P 1'
_cell_length_a   5.54871988
_cell_length_b   5.63323784
_cell_length_c   7.89625263
_cell_angle_alpha   90.00000000
_cell_angle_beta   90.11454010
_cell_angle_gamma   90.00000000
_symmetry_Int_Tables_number   1
_chemical_formula_structural   Li2La3Fe(MoO6)2
_chemical_formula_sum   'Li2 La3 Fe1 Mo2 O12'
_cell_volume   246.81471890
_cell_formula_units_Z   1
loop_
 _symmetry_equiv_pos_site_id
 _symmetry_equiv_pos_as_xyz
  1  'x, y, z'
loop_
 _atom_site_type_symbol
 _atom_site_label
 _atom_site_symmetry_multiplicity
 _atom_site_fract_x
 _atom_site_fract_y
 _atom_site_fract_z
 _atom_site_occupancy
  Li  Li0  1  0.49425201  0.21315901  0.75017603  1
  Li  Li1  1  0.99425202  0.78684102  0.25017604  1
  La  La2  1  0.51306601  0.30365001  0.24895002  1
  La  La3  1  0.01306600  0.69635002  0.74895001  1
  Fe  Fe4  1  0.50024101  0.75540202  0.99998304  1
  La  La5  1  0.00024100  0.24459801  0.49998301  1
  Mo  Mo6  1  0.49976801  0.75212902  0.50038303  1
  Mo  Mo7  1  0.99976802  0.24787101  0.00038304  1
  O  O8  1  0.59067801  0.76238402  0.74557703  1
  O  O9  1  0.09067800  0.23761601  0.24557701  1
  O  O10  1  0.43464401  0.72660402  0.25415902  1
  O  O11  1  0.93464402  0.27339601  0.75415905  1
  O  O12  1  0.20666800  0.95398003  0.54418902  1
  O  O13  1  0.70666801  0.04602000  0.04418903  1
  O  O14  1  0.77906802  0.53081302  0.46245304  1
  O  O15  1  0.27906801  0.46918701  0.96245303  1
  O  O16  1  0.69816001  0.04307300  0.45412103  1
  O  O17  1  0.19816000  0.95692703  0.95412102  1
  O  O18  1  0.28345601  0.47207501  0.54000902  1
  O  O19  1  0.78345602  0.52792502  0.04000903  1
