# generated using pymatgen
data_Ba2P3O8
_symmetry_space_group_name_H-M   'P 1'
_cell_length_a   5.68907452
_cell_length_b   5.68907452
_cell_length_c   7.84418869
_cell_angle_alpha   68.73819733
_cell_angle_beta   68.73819733
_cell_angle_gamma   59.99999237
_symmetry_Int_Tables_number   1
_chemical_formula_structural   Ba2P3O8
_chemical_formula_sum   'Ba2 P3 O8'
_cell_volume   199.66452626
_cell_formula_units_Z   1
loop_
 _symmetry_equiv_pos_site_id
 _symmetry_equiv_pos_as_xyz
  1  'x, y, z'
loop_
 _atom_site_type_symbol
 _atom_site_label
 _atom_site_symmetry_multiplicity
 _atom_site_fract_x
 _atom_site_fract_y
 _atom_site_fract_z
 _atom_site_occupancy
  Ba  Ba0  1  0.21012301  0.21012301  0.36963099  1
  Ba  Ba1  1  0.78987705  0.78987702  0.63036895  1
  P  P2  1  0.00000000  0.00000000  0.00000000  1
  P  P3  1  0.40737303  0.40737301  0.77788099  1
  P  P4  1  0.59262704  0.59262702  0.22211895  1
  O  O5  1  0.28265302  0.28265301  0.70322600  1
  O  O6  1  0.28265303  0.73146802  0.70322598  1
  O  O7  1  0.73146804  0.28265301  0.70322598  1
  O  O8  1  0.26853203  0.71734702  0.29677396  1
  O  O9  1  0.71734705  0.71734702  0.29677395  1
  O  O10  1  0.66513204  0.66513202  0.00460394  1
  O  O11  1  0.33486802  0.33486801  0.99539600  1
  O  O12  1  0.71734704  0.26853201  0.29677397  1
