# generated using pymatgen
data_LiAsO3
_symmetry_space_group_name_H-M   'P 1'
_cell_length_a   6.24900866
_cell_length_b   7.05859756
_cell_length_c   7.05859756
_cell_angle_alpha   79.08154297
_cell_angle_beta   68.14826965
_cell_angle_gamma   68.14826965
_symmetry_Int_Tables_number   1
_chemical_formula_structural   LiAsO3
_chemical_formula_sum   'Li4 As4 O12'
_cell_volume   267.74773477
_cell_formula_units_Z   4
loop_
 _symmetry_equiv_pos_site_id
 _symmetry_equiv_pos_as_xyz
  1  'x, y, z'
loop_
 _atom_site_type_symbol
 _atom_site_label
 _atom_site_symmetry_multiplicity
 _atom_site_fract_x
 _atom_site_fract_y
 _atom_site_fract_z
 _atom_site_occupancy
  Li  Li0  1  0.75000006  0.81442599  0.18557398  1
  Li  Li1  1  0.25000001  0.18557400  0.81442601  1
  Li  Li2  1  0.75000000  0.19247200  0.80752803  1
  Li  Li3  1  0.67735102  0.35487600  0.23608001  1
  As  As4  1  0.82264905  0.76391999  0.64512399  1
  As  As5  1  0.17735102  0.23608000  0.35487599  1
  As  As6  1  0.32264906  0.64512399  0.76391997  1
  As  As7  1  0.25000008  0.80752799  0.19247195  1
  O  O8  1  0.47746203  0.38646800  0.81677800  1
  O  O9  1  0.67936608  0.97238599  0.80831096  1
  O  O10  1  0.56172106  0.74386499  0.60204797  1
  O  O11  1  0.82063399  0.19168900  0.02761403  1
  O  O12  1  0.02253802  0.18322200  0.61353199  1
  O  O13  1  0.06172106  0.60204799  0.74386496  1
  O  O14  1  0.93827901  0.39795200  0.25613502  1
  O  O15  1  0.97746205  0.81677799  0.38646799  1
  O  O16  1  0.17936608  0.80831099  0.97238595  1
  O  O17  1  0.43827901  0.25613500  0.39795201  1
  O  O18  1  0.32063399  0.02761400  0.19168902  1
  O  O19  1  0.52253805  0.61353199  0.18322198  1
