# generated using pymatgen
data_NaTiNbO4
_symmetry_space_group_name_H-M   'P 1'
_cell_length_a   3.05228591
_cell_length_b   5.16178083
_cell_length_c   6.57268143
_cell_angle_alpha   105.17220306
_cell_angle_beta   91.27970123
_cell_angle_gamma   93.30093384
_symmetry_Int_Tables_number   1
_chemical_formula_structural   NaTiNbO4
_chemical_formula_sum   'Na1 Ti1 Nb1 O4'
_cell_volume   99.70356297
_cell_formula_units_Z   1
loop_
 _symmetry_equiv_pos_site_id
 _symmetry_equiv_pos_as_xyz
  1  'x, y, z'
loop_
 _atom_site_type_symbol
 _atom_site_label
 _atom_site_symmetry_multiplicity
 _atom_site_fract_x
 _atom_site_fract_y
 _atom_site_fract_z
 _atom_site_occupancy
  Na  Na0  1  0.50000001  0.00000000  0.49999999  1
  Ti  Ti1  1  0.00000000  0.00000000  0.00000000  1
  Nb  Nb2  1  0.49999998  0.50000001  -0.00000004  1
  O  O3  1  0.47588496  0.79106601  0.84493096  1
  O  O4  1  0.03398198  0.26054600  0.83626300  1
  O  O5  1  0.96601798  0.73945401  0.16373694  1
  O  O6  1  0.52411500  0.20893400  0.15506898  1
