# generated using pymatgen
data_LiVCoO6
_symmetry_space_group_name_H-M   'P 1'
_cell_length_a   5.85730791
_cell_length_b   6.79555321
_cell_length_c   6.79555321
_cell_angle_alpha   84.39469147
_cell_angle_beta   75.18205261
_cell_angle_gamma   75.18204498
_symmetry_Int_Tables_number   1
_chemical_formula_structural   LiVCoO6
_chemical_formula_sum   'Li2 V2 Co2 O12'
_cell_volume   252.64519039
_cell_formula_units_Z   2
loop_
 _symmetry_equiv_pos_site_id
 _symmetry_equiv_pos_as_xyz
  1  'x, y, z'
loop_
 _atom_site_type_symbol
 _atom_site_label
 _atom_site_symmetry_multiplicity
 _atom_site_fract_x
 _atom_site_fract_y
 _atom_site_fract_z
 _atom_site_occupancy
  Li  Li0  1  0.75808096  0.61093599  0.79512405  1
  Li  Li1  1  0.26304594  0.79456099  0.60894204  1
  V  V2  1  0.74191899  0.20487600  0.38906403  1
  V  V3  1  0.23695397  0.39105800  0.20543903  1
  Co  Co4  1  0.24999993  0.91682799  0.08317206  1
  Co  Co5  1  0.75000000  0.08773000  0.91227001  1
  O  O6  1  0.63205394  0.80893199  0.96412105  1
  O  O7  1  0.77787798  0.37851700  0.91164603  1
  O  O8  1  0.14974492  0.96405399  0.81035705  1
  O  O9  1  0.55987796  0.64050899  0.62857704  1
  O  O10  1  0.72212200  0.08835400  0.62148302  1
  O  O11  1  0.05172895  0.63271299  0.65228603  1
  O  O12  1  0.94012198  0.37142300  0.35949105  1
  O  O13  1  0.28452793  0.90379899  0.36752506  1
  O  O14  1  0.44827098  0.34771400  0.36728703  1
  O  O15  1  0.86794601  0.03587900  0.19106803  1
  O  O16  1  0.21547195  0.63247499  0.09620104  1
  O  O17  1  0.35025499  0.18964300  0.03594602  1
