# generated using pymatgen
data_KNa4YScTiMoO9
_symmetry_space_group_name_H-M   'P 1'
_cell_length_a   4.88586378
_cell_length_b   4.88586378
_cell_length_c   10.48284912
_cell_angle_alpha   90.00000000
_cell_angle_beta   90.00000000
_cell_angle_gamma   109.35032654
_symmetry_Int_Tables_number   1
_chemical_formula_structural   KNa4YScTiMoO9
_chemical_formula_sum   'K1 Na4 Y1 Sc1 Ti1 Mo1 O9'
_cell_volume   236.10689972
_cell_formula_units_Z   1
loop_
 _symmetry_equiv_pos_site_id
 _symmetry_equiv_pos_as_xyz
  1  'x, y, z'
loop_
 _atom_site_type_symbol
 _atom_site_label
 _atom_site_symmetry_multiplicity
 _atom_site_fract_x
 _atom_site_fract_y
 _atom_site_fract_z
 _atom_site_occupancy
  K  K0  1  0.35126701  0.64873302  0.93525199  1
  Na  Na1  1  0.35126701  0.64873302  0.56474799  1
  Na  Na2  1  0.64873302  0.35126701  0.43525199  1
  Na  Na3  1  0.68584302  0.31415701  0.74999999  1
  Y  Y4  1  0.31415701  0.68584302  0.25000000  1
  Na  Na5  1  0.64873302  0.35126701  0.06474800  1
  Ti  Ti6  1  0.00000000  0.00000000  0.00000000  1
  Sc  Sc7  1  0.07185900  0.92814103  0.74999999  1
  Mo  Mo8  1  0.00000000  0.00000000  0.49999999  1
  O  O9  1  0.92814103  0.07185900  0.25000000  1
  O  O10  1  0.29629601  0.13988701  0.88062599  1
  O  O11  1  0.29629601  0.13988701  0.61937399  1
  O  O12  1  0.13988700  0.29629601  0.11937400  1
  O  O13  1  0.13988700  0.29629601  0.38062600  1
  O  O14  1  0.86011303  0.70370403  0.61937399  1
  O  O15  1  0.86011303  0.70370403  0.88062599  1
  O  O16  1  0.70370402  0.86011303  0.38062600  1
  O  O17  1  0.70370402  0.86011303  0.11937400  1
