# generated using pymatgen
data_Tl2InSnPbBr13
_symmetry_space_group_name_H-M   'P 1'
_cell_length_a   7.54407787
_cell_length_b   7.54407787
_cell_length_c   10.91841602
_cell_angle_alpha   90.00000000
_cell_angle_beta   90.00000000
_cell_angle_gamma   90.00000000
_symmetry_Int_Tables_number   1
_chemical_formula_structural   Tl2InSnPbBr13
_chemical_formula_sum   'Tl2 In1 Sn1 Pb1 Br13'
_cell_volume   621.40102261
_cell_formula_units_Z   1
loop_
 _symmetry_equiv_pos_site_id
 _symmetry_equiv_pos_as_xyz
  1  'x, y, z'
loop_
 _atom_site_type_symbol
 _atom_site_label
 _atom_site_symmetry_multiplicity
 _atom_site_fract_x
 _atom_site_fract_y
 _atom_site_fract_z
 _atom_site_occupancy
  In  In0  1  0.00000000  0.00000000  0.50000000  1
  Sn  Sn1  1  0.50000001  0.50000001  -0.00000000  1
  Tl  Tl2  1  0.00000000  0.50000001  0.25000000  1
  Tl  Tl3  1  0.00000000  0.50000001  0.75000000  1
  Br  Br4  1  0.50000001  0.00000000  0.75000000  1
  Pb  Pb5  1  0.50000001  0.00000000  0.25000000  1
  Br  Br6  1  0.79649701  0.71304801  0.50000000  1
  Br  Br7  1  0.21304800  0.29649700  0.00000000  1
  Br  Br8  1  0.50000001  0.50000001  0.75727100  1
  Br  Br9  1  0.28695200  0.79649701  0.50000000  1
  Br  Br10  1  0.00000000  0.00000000  0.25727100  1
  Br  Br11  1  0.78695201  0.70350301  -0.00000000  1
  Br  Br12  1  0.70350301  0.21304800  0.00000000  1
  Br  Br13  1  0.29649700  0.78695201  0.00000000  1
  Br  Br14  1  0.00000000  0.00000000  0.74272900  1
  Br  Br15  1  0.20350300  0.28695200  0.50000000  1
  Br  Br16  1  0.50000001  0.50000001  0.24272900  1
  Br  Br17  1  0.71304801  0.20350300  0.50000000  1
