# generated using pymatgen
data_Zn2InAgSe4
_symmetry_space_group_name_H-M   'P 1'
_cell_length_a   5.83946419
_cell_length_b   5.83946419
_cell_length_c   6.97727823
_cell_angle_alpha   114.73757935
_cell_angle_beta   114.73757935
_cell_angle_gamma   90.00000000
_symmetry_Int_Tables_number   1
_chemical_formula_structural   Zn2InAgSe4
_chemical_formula_sum   'Zn2 In1 Ag1 Se4'
_cell_volume   191.78490947
_cell_formula_units_Z   1
loop_
 _symmetry_equiv_pos_site_id
 _symmetry_equiv_pos_as_xyz
  1  'x, y, z'
loop_
 _atom_site_type_symbol
 _atom_site_label
 _atom_site_symmetry_multiplicity
 _atom_site_fract_x
 _atom_site_fract_y
 _atom_site_fract_z
 _atom_site_occupancy
  Zn  Zn0  1  0.74999995  0.24999998  0.49999994  1
  Zn  Zn1  1  0.49999995  0.49999997  -0.00000005  1
  Ag  Ag2  1  0.00000000  0.00000000  0.00000000  1
  In  In3  1  0.24999995  0.74999995  0.49999993  1
  Se  Se4  1  0.64612796  0.14462999  0.76349895  1
  Se  Se5  1  0.11737096  0.61886896  0.76349894  1
  Se  Se6  1  0.85536991  0.88262994  0.23650191  1
  Se  Se7  1  0.38113096  0.35387098  0.23649996  1
