# generated using pymatgen
data_DyBiO4
_symmetry_space_group_name_H-M   'P 1'
_cell_length_a   5.54901218
_cell_length_b   5.54901218
_cell_length_c   6.72600794
_cell_angle_alpha   114.36223602
_cell_angle_beta   114.36223602
_cell_angle_gamma   90.00000000
_symmetry_Int_Tables_number   1
_chemical_formula_structural   DyBiO4
_chemical_formula_sum   'Dy2 Bi2 O8'
_cell_volume   168.21147972
_cell_formula_units_Z   2
loop_
 _symmetry_equiv_pos_site_id
 _symmetry_equiv_pos_as_xyz
  1  'x, y, z'
loop_
 _atom_site_type_symbol
 _atom_site_label
 _atom_site_symmetry_multiplicity
 _atom_site_fract_x
 _atom_site_fract_y
 _atom_site_fract_z
 _atom_site_occupancy
  Dy  Dy0  1  0.00000000  0.00000000  0.00000000  1
  Dy  Dy1  1  0.74999997  0.24999999  0.50000001  1
  Bi  Bi2  1  0.49999998  0.49999998  1.00000002  1
  Bi  Bi3  1  0.24999998  0.74999997  0.50000001  1
  O  O4  1  0.14648799  0.62499998  0.75000002  1
  O  O5  1  0.87499996  0.85351197  0.24999999  1
  O  O6  1  0.60351197  0.62499998  0.75000001  1
  O  O7  1  0.60351198  0.12500000  0.75000002  1
  O  O8  1  0.37499998  0.85351197  0.25000000  1
  O  O9  1  0.37499998  0.39648798  0.25000000  1
  O  O10  1  0.14648799  0.12500000  0.75000002  1
  O  O11  1  0.87499996  0.39648798  0.25000000  1
