# generated using pymatgen
data_KGeBr2
_symmetry_space_group_name_H-M   'P 1'
_cell_length_a   4.94690895
_cell_length_b   4.94690895
_cell_length_c   9.64907837
_cell_angle_alpha   90.00000000
_cell_angle_beta   90.00000000
_cell_angle_gamma   90.00000000
_symmetry_Int_Tables_number   1
_chemical_formula_structural   KGeBr2
_chemical_formula_sum   'K2 Ge2 Br4'
_cell_volume   236.13135975
_cell_formula_units_Z   2
loop_
 _symmetry_equiv_pos_site_id
 _symmetry_equiv_pos_as_xyz
  1  'x, y, z'
loop_
 _atom_site_type_symbol
 _atom_site_label
 _atom_site_symmetry_multiplicity
 _atom_site_fract_x
 _atom_site_fract_y
 _atom_site_fract_z
 _atom_site_occupancy
  K  K0  1  0.00000000  0.50000000  0.30380899  1
  K  K1  1  0.50000000  0.00000000  0.69619097  1
  Ge  Ge2  1  0.50000000  0.00000000  0.08460800  1
  Ge  Ge3  1  0.00000000  0.50000000  0.91539196  1
  Br  Br4  1  0.00000000  0.50000000  0.66963797  1
  Br  Br5  1  0.50000000  0.00000000  0.33036199  1
  Br  Br6  1  0.00000000  0.00000000  0.00000000  1
  Br  Br7  1  0.50000000  0.50000000  0.00000000  1
