# generated using pymatgen
data_Li3LaMgFeMoAs5
_symmetry_space_group_name_H-M   'P 1'
_cell_length_a   6.74691677
_cell_length_b   6.74691677
_cell_length_c   6.74691677
_cell_angle_alpha   90.00000000
_cell_angle_beta   90.00000000
_cell_angle_gamma   90.00000000
_symmetry_Int_Tables_number   1
_chemical_formula_structural   Li3LaMgFeMoAs5
_chemical_formula_sum   'Li3 La1 Mg1 Fe1 Mo1 As5'
_cell_volume   307.12562860
_cell_formula_units_Z   1
loop_
 _symmetry_equiv_pos_site_id
 _symmetry_equiv_pos_as_xyz
  1  'x, y, z'
loop_
 _atom_site_type_symbol
 _atom_site_label
 _atom_site_symmetry_multiplicity
 _atom_site_fract_x
 _atom_site_fract_y
 _atom_site_fract_z
 _atom_site_occupancy
  La  La0  1  0.50000002  0.50000002  0.00000000  1
  Li  Li1  1  0.50000002  0.00000000  0.50000002  1
  Li  Li2  1  0.00000000  0.50000002  0.50000002  1
  Li  Li3  1  0.00000000  0.00000000  0.00000000  1
  Mg  Mg4  1  0.10252200  0.89747803  0.39747801  1
  As  As5  1  0.89747803  0.39747801  0.10252200  1
  As  As6  1  0.39747801  0.10252200  0.89747803  1
  Mo  Mo7  1  0.60252202  0.60252202  0.60252202  1
  Fe  Fe8  1  0.89747803  0.10252200  0.60252202  1
  As  As9  1  0.10252200  0.60252202  0.89747803  1
  As  As10  1  0.60252202  0.89747803  0.10252200  1
  As  As11  1  0.39747801  0.39747801  0.39747801  1
