# generated using pymatgen
data_NaCoRu2SOF2
_symmetry_space_group_name_H-M   'P 1'
_cell_length_a   4.81682110
_cell_length_b   5.72836018
_cell_length_c   6.14762211
_cell_angle_alpha   90.00000000
_cell_angle_beta   90.00000000
_cell_angle_gamma   90.00000000
_symmetry_Int_Tables_number   1
_chemical_formula_structural   NaCoRu2SOF2
_chemical_formula_sum   'Na1 Co1 Ru2 S1 O1 F2'
_cell_volume   169.62817791
_cell_formula_units_Z   1
loop_
 _symmetry_equiv_pos_site_id
 _symmetry_equiv_pos_as_xyz
  1  'x, y, z'
loop_
 _atom_site_type_symbol
 _atom_site_label
 _atom_site_symmetry_multiplicity
 _atom_site_fract_x
 _atom_site_fract_y
 _atom_site_fract_z
 _atom_site_occupancy
  Co  Co0  1  0.74999998  0.01797200  0.22119500  1
  Na  Na1  1  0.24999999  0.98202797  0.77880499  1
  F  F2  1  0.74999998  0.51797198  0.77880499  1
  F  F3  1  0.24999999  0.48202799  0.22119500  1
  Ru  Ru4  1  0.74999998  0.90607797  0.86791598  1
  Ru  Ru5  1  0.24999999  0.09392200  0.13208400  1
  S  S6  1  0.74999998  0.40607799  0.13208400  1
  O  O7  1  0.24999999  0.59392198  0.86791598  1
