# generated using pymatgen
data_Li3CoO3
_symmetry_space_group_name_H-M   'P 1'
_cell_length_a   5.52967978
_cell_length_b   5.58373213
_cell_length_c   6.04743910
_cell_angle_alpha   63.55846786
_cell_angle_beta   64.54601288
_cell_angle_gamma   60.93567657
_symmetry_Int_Tables_number   1
_chemical_formula_structural   Li3CoO3
_chemical_formula_sum   'Li6 Co2 O6'
_cell_volume   140.59468499
_cell_formula_units_Z   2
loop_
 _symmetry_equiv_pos_site_id
 _symmetry_equiv_pos_as_xyz
  1  'x, y, z'
loop_
 _atom_site_type_symbol
 _atom_site_label
 _atom_site_symmetry_multiplicity
 _atom_site_fract_x
 _atom_site_fract_y
 _atom_site_fract_z
 _atom_site_occupancy
  Li  Li0  1  0.10988502  0.74253799  0.61703800  1
  Li  Li1  1  0.47143604  0.15123400  0.61368397  1
  Li  Li2  1  0.35750103  0.33541099  0.98939298  1
  Li  Li3  1  0.62668705  0.63428699  0.05240097  1
  Li  Li4  1  0.50530605  0.89508699  0.37130398  1
  Li  Li5  1  0.91158707  0.23285400  0.35391495  1
  Co  Co6  1  0.80293606  0.49130399  0.62138796  1
  Co  Co7  1  0.00849502  0.97890698  0.00598802  1
  O  O8  1  0.09134001  0.37251799  0.78616600  1
  O  O9  1  0.24337603  0.91725299  0.24135300  1
  O  O10  1  0.62186405  0.22236700  0.23573296  1
  O  O11  1  0.39784704  0.75497199  0.75747298  1
  O  O12  1  0.78108606  0.09744100  0.73363595  1
  O  O13  1  0.88065607  0.61882799  0.24252895  1
