# generated using pymatgen
data_Na2CdP
_symmetry_space_group_name_H-M   'P 1'
_cell_length_a   4.03727102
_cell_length_b   4.03727102
_cell_length_c   7.43680859
_cell_angle_alpha   74.25011444
_cell_angle_beta   74.25011444
_cell_angle_gamma   60.00001526
_symmetry_Int_Tables_number   1
_chemical_formula_structural   Na2CdP
_chemical_formula_sum   'Na2 Cd1 P1'
_cell_volume   99.68709782
_cell_formula_units_Z   1
loop_
 _symmetry_equiv_pos_site_id
 _symmetry_equiv_pos_as_xyz
  1  'x, y, z'
loop_
 _atom_site_type_symbol
 _atom_site_label
 _atom_site_symmetry_multiplicity
 _atom_site_fract_x
 _atom_site_fract_y
 _atom_site_fract_z
 _atom_site_occupancy
  Na  Na0  1  0.50000004  0.50000001  0.49999997  1
  Na  Na1  1  0.00000000  0.00000000  0.00000000  1
  Cd  Cd2  1  0.74032005  0.74032002  0.77903996  1
  P  P3  1  0.25968002  0.25968001  0.22095999  1
