# generated using pymatgen
data_ZrMn(TeO3)4
_symmetry_space_group_name_H-M   'P 1'
_cell_length_a   5.31441307
_cell_length_b   5.55809498
_cell_length_c   9.50505161
_cell_angle_alpha   89.69956207
_cell_angle_beta   90.00000000
_cell_angle_gamma   90.00000000
_symmetry_Int_Tables_number   1
_chemical_formula_structural   ZrMn(TeO3)4
_chemical_formula_sum   'Zr1 Mn1 Te4 O12'
_cell_volume   280.75647448
_cell_formula_units_Z   1
loop_
 _symmetry_equiv_pos_site_id
 _symmetry_equiv_pos_as_xyz
  1  'x, y, z'
loop_
 _atom_site_type_symbol
 _atom_site_label
 _atom_site_symmetry_multiplicity
 _atom_site_fract_x
 _atom_site_fract_y
 _atom_site_fract_z
 _atom_site_occupancy
  Mn  Mn0  1  0.42401399  0.76554300  0.74623602  1
  Zr  Zr1  1  0.92401399  0.23445700  0.25376401  1
  Te  Te2  1  0.00088100  0.73760200  0.06626201  1
  Te  Te3  1  0.52341099  0.72992400  0.39920701  1
  Te  Te4  1  0.02341100  0.27007600  0.60079301  1
  Te  Te5  1  0.50088099  0.26239800  0.93373801  1
  O  O6  1  0.13689700  0.15236400  0.43277300  1
  O  O7  1  0.15336700  0.01796600  0.12281200  1
  O  O8  1  0.63689699  0.84763600  0.56722702  1
  O  O9  1  0.20530400  0.55109900  0.60497501  1
  O  O10  1  0.71072499  0.34145600  0.07982701  1
  O  O11  1  0.65336699  0.98203400  0.87718802  1
  O  O12  1  0.21083000  0.08757900  0.72395601  1
  O  O13  1  0.70530399  0.44890100  0.39502501  1
  O  O14  1  0.71082999  0.91242100  0.27604402  1
  O  O15  1  0.64307199  0.46591200  0.80302401  1
  O  O16  1  0.14307200  0.53408800  0.19697601  1
  O  O17  1  0.21072500  0.65854400  0.92017302  1
