# generated using pymatgen
data_Tb(AgS2)2
_symmetry_space_group_name_H-M   'P 1'
_cell_length_a   3.86892390
_cell_length_b   6.59721708
_cell_length_c   7.04159021
_cell_angle_alpha   107.73670197
_cell_angle_beta   90.00000000
_cell_angle_gamma   90.00000000
_symmetry_Int_Tables_number   1
_chemical_formula_structural   Tb(AgS2)2
_chemical_formula_sum   'Tb1 Ag2 S4'
_cell_volume   171.18725742
_cell_formula_units_Z   1
loop_
 _symmetry_equiv_pos_site_id
 _symmetry_equiv_pos_as_xyz
  1  'x, y, z'
loop_
 _atom_site_type_symbol
 _atom_site_label
 _atom_site_symmetry_multiplicity
 _atom_site_fract_x
 _atom_site_fract_y
 _atom_site_fract_z
 _atom_site_occupancy
  Tb  Tb0  1  -0.00000000  0.49999999  0.49999999  1
  Ag  Ag1  1  0.50000001  0.49999999  -0.00000001  1
  Ag  Ag2  1  0.00000000  0.00000000  0.00000000  1
  S  S3  1  0.50000001  0.22349800  0.22068000  1
  S  S4  1  -0.00000000  0.75663099  0.22013499  1
  S  S5  1  0.50000001  0.77650199  0.77931999  1
  S  S6  1  -0.00000000  0.24336900  0.77986500  1
