# generated using pymatgen
data_LiCO3
_symmetry_space_group_name_H-M   'P 1'
_cell_length_a   5.39710808
_cell_length_b   6.50486898
_cell_length_c   8.40308952
_cell_angle_alpha   83.10787201
_cell_angle_beta   73.18627167
_cell_angle_gamma   65.49004364
_symmetry_Int_Tables_number   1
_chemical_formula_structural   LiCO3
_chemical_formula_sum   'Li4 C4 O12'
_cell_volume   256.95237750
_cell_formula_units_Z   4
loop_
 _symmetry_equiv_pos_site_id
 _symmetry_equiv_pos_as_xyz
  1  'x, y, z'
loop_
 _atom_site_type_symbol
 _atom_site_label
 _atom_site_symmetry_multiplicity
 _atom_site_fract_x
 _atom_site_fract_y
 _atom_site_fract_z
 _atom_site_occupancy
  Li  Li0  1  0.23297702  0.23425200  0.34835096  1
  Li  Li1  1  0.46722906  0.76574800  0.84835090  1
  Li  Li2  1  0.12423005  0.74153200  0.49707093  1
  Li  Li3  1  0.86576202  0.25846800  0.99707091  1
  C  C4  1  0.38236305  0.66248100  0.20868694  1
  C  C5  1  0.84221001  0.15608000  0.29284095  1
  C  C6  1  0.04484402  0.33751900  0.70868695  1
  C  C7  1  0.99829006  0.84392000  0.79284088  1
  O  O8  1  0.52931904  0.61204300  0.05974995  1
  O  O9  1  0.04032801  0.20569900  0.17986898  1
  O  O10  1  0.47048405  0.72009600  0.31991093  1
  O  O11  1  0.13278905  0.65784600  0.26802994  1
  O  O12  1  0.62741601  0.18281900  0.24110996  1
  O  O13  1  0.88012201  0.09173800  0.43576095  1
  O  O14  1  0.14136203  0.38795700  0.55974995  1
  O  O15  1  0.79063402  0.34215500  0.76802992  1
  O  O16  1  0.24602706  0.79430100  0.67986891  1
  O  O17  1  0.81023506  0.81718100  0.74110989  1
  O  O18  1  0.19058002  0.27990400  0.81991094  1
  O  O19  1  0.97186007  0.90826200  0.93576087  1
