# generated using pymatgen
data_Rb2Te
_symmetry_space_group_name_H-M   'P 1'
_cell_length_a   5.62415791
_cell_length_b   9.09580421
_cell_length_c   10.99891281
_cell_angle_alpha   90.00000000
_cell_angle_beta   90.00000000
_cell_angle_gamma   90.00000000
_symmetry_Int_Tables_number   1
_chemical_formula_structural   Rb2Te
_chemical_formula_sum   'Rb8 Te4'
_cell_volume   562.66301450
_cell_formula_units_Z   4
loop_
 _symmetry_equiv_pos_site_id
 _symmetry_equiv_pos_as_xyz
  1  'x, y, z'
loop_
 _atom_site_type_symbol
 _atom_site_label
 _atom_site_symmetry_multiplicity
 _atom_site_fract_x
 _atom_site_fract_y
 _atom_site_fract_z
 _atom_site_occupancy
  Rb  Rb0  1  0.25000000  0.02360800  0.82936401  1
  Rb  Rb1  1  0.25000000  0.52360799  0.67063601  1
  Rb  Rb2  1  0.75000001  0.97639198  0.17063600  1
  Rb  Rb3  1  0.75000001  0.47639199  0.32936401  1
  Rb  Rb4  1  0.25000000  0.14580600  0.42553201  1
  Rb  Rb5  1  0.25000000  0.64580598  0.07446800  1
  Rb  Rb6  1  0.75000001  0.85419398  0.57446801  1
  Rb  Rb7  1  0.75000001  0.35419399  0.92553202  1
  Te  Te8  1  0.25000000  0.24793799  0.11071800  1
  Te  Te9  1  0.25000000  0.74793798  0.38928201  1
  Te  Te10  1  0.75000001  0.75206198  0.88928202  1
  Te  Te11  1  0.75000001  0.25206199  0.61071801  1
