# generated using pymatgen
data_Mn2V5O13
_symmetry_space_group_name_H-M   'P 1'
_cell_length_a   5.43364477
_cell_length_b   6.92611217
_cell_length_c   8.52536392
_cell_angle_alpha   70.63339233
_cell_angle_beta   76.86400604
_cell_angle_gamma   86.09850311
_symmetry_Int_Tables_number   1
_chemical_formula_structural   Mn2V5O13
_chemical_formula_sum   'Mn2 V5 O13'
_cell_volume   294.75951679
_cell_formula_units_Z   1
loop_
 _symmetry_equiv_pos_site_id
 _symmetry_equiv_pos_as_xyz
  1  'x, y, z'
loop_
 _atom_site_type_symbol
 _atom_site_label
 _atom_site_symmetry_multiplicity
 _atom_site_fract_x
 _atom_site_fract_y
 _atom_site_fract_z
 _atom_site_occupancy
  V  V0  1  0.87010902  0.97769502  0.74338400  1
  V  V1  1  0.12989100  0.02230500  0.25661600  1
  Mn  Mn2  1  0.29343301  0.28174300  0.82074300  1
  Mn  Mn3  1  0.81756002  0.51489201  0.67469200  1
  V  V4  1  0.18244000  0.48510801  0.32530799  1
  V  V5  1  0.70656702  0.71825701  0.17925700  1
  O  O6  1  0.66635501  0.81987401  0.95599100  1
  V  V7  1  0.93485603  0.38685201  0.88220500  1
  O  O8  1  0.45537301  0.55256701  0.76345300  1
  O  O9  1  0.91616102  0.78739001  0.62056400  1
  O  O10  1  0.66865802  0.23669300  0.71208200  1
  O  O11  1  0.16748201  0.05277400  0.79248900  1
  O  O12  1  0.19236100  0.43843901  0.57408000  1
  O  O13  1  0.80763902  0.56156101  0.42592000  1
  O  O14  1  0.83251802  0.94722602  0.20751100  1
  O  O15  1  0.33134200  0.76330701  0.28791799  1
  O  O16  1  0.08383900  0.21261000  0.37943600  1
  O  O17  1  0.54462701  0.44743301  0.23654700  1
  O  O18  1  0.06514399  0.61314801  0.11779499  1
  O  O19  1  0.33364501  0.18012600  0.04400900  1
