# generated using pymatgen
data_CdSn2Ge3(TeSe)2
_symmetry_space_group_name_H-M   'P 1'
_cell_length_a   4.15656710
_cell_length_b   4.15656710
_cell_length_c   19.67582703
_cell_angle_alpha   83.93676758
_cell_angle_beta   83.93676758
_cell_angle_gamma   60.00001144
_symmetry_Int_Tables_number   1
_chemical_formula_structural   CdSn2Ge3(TeSe)2
_chemical_formula_sum   'Cd1 Sn2 Ge3 Te2 Se2'
_cell_volume   292.19902574
_cell_formula_units_Z   1
loop_
 _symmetry_equiv_pos_site_id
 _symmetry_equiv_pos_as_xyz
  1  'x, y, z'
loop_
 _atom_site_type_symbol
 _atom_site_label
 _atom_site_symmetry_multiplicity
 _atom_site_fract_x
 _atom_site_fract_y
 _atom_site_fract_z
 _atom_site_occupancy
  Ge  Ge0  1  0.19997099  0.19997101  0.40008702  1
  Cd  Cd1  1  0.69999198  0.69999202  0.90002404  1
  Sn  Sn2  1  0.29955699  0.29955701  0.10132901  1
  Sn  Sn3  1  0.80173197  0.80173203  0.59480404  1
  Ge  Ge4  1  0.60578598  0.60578602  0.18264202  1
  Ge  Ge5  1  0.10797900  0.10797900  0.67606302  1
  Te  Te6  1  0.88875197  0.88875203  0.33374403  1
  Te  Te7  1  0.39394799  0.39394801  0.81815603  1
  Se  Se8  1  0.99997797  0.99997803  0.00006602  1
  Se  Se9  1  0.50230398  0.50230402  0.49308803  1
