# generated using pymatgen
data_MnO2
_symmetry_space_group_name_H-M   'P 1'
_cell_length_a   4.58448219
_cell_length_b   5.50301361
_cell_length_c   7.65269136
_cell_angle_alpha   87.08522797
_cell_angle_beta   89.07980347
_cell_angle_gamma   88.64424133
_symmetry_Int_Tables_number   1
_chemical_formula_structural   MnO2
_chemical_formula_sum   'Mn6 O12'
_cell_volume   192.74058671
_cell_formula_units_Z   6
loop_
 _symmetry_equiv_pos_site_id
 _symmetry_equiv_pos_as_xyz
  1  'x, y, z'
loop_
 _atom_site_type_symbol
 _atom_site_label
 _atom_site_symmetry_multiplicity
 _atom_site_fract_x
 _atom_site_fract_y
 _atom_site_fract_z
 _atom_site_occupancy
  Mn  Mn0  1  0.50000002  0.49999999  0.50000000  1
  Mn  Mn1  1  0.49151299  0.16042300  0.82751901  1
  Mn  Mn2  1  0.50848705  0.83957699  0.17248099  1
  Mn  Mn3  1  0.00000000  0.00000000  0.50000002  1
  Mn  Mn4  1  0.98204599  0.33108600  0.14981397  1
  Mn  Mn5  1  0.01795405  0.66891399  0.85018603  1
  O  O6  1  0.79752697  0.03333500  0.26197098  1
  O  O7  1  0.79797400  0.37071699  0.93256600  1
  O  O8  1  0.70185404  0.86918699  0.93018201  1
  O  O9  1  0.68814399  0.19959000  0.60226899  1
  O  O10  1  0.70775801  0.53002199  0.26747098  1
  O  O11  1  0.31185605  0.80040999  0.39773100  1
  O  O12  1  0.29814600  0.13081300  0.06981799  1
  O  O13  1  0.29224203  0.46997799  0.73252901  1
  O  O14  1  0.20202604  0.62928299  0.06743400  1
  O  O15  1  0.20247307  0.96666499  0.73802902  1
  O  O16  1  0.80901202  0.69679699  0.60823099  1
  O  O17  1  0.19098802  0.30320300  0.39176901  1
