# generated using pymatgen
data_LiBiO3
_symmetry_space_group_name_H-M   'P 1'
_cell_length_a   5.45414782
_cell_length_b   5.64538813
_cell_length_c   7.78937292
_cell_angle_alpha   89.99876404
_cell_angle_beta   89.46838379
_cell_angle_gamma   89.99948120
_symmetry_Int_Tables_number   1
_chemical_formula_structural   LiBiO3
_chemical_formula_sum   'Li4 Bi4 O12'
_cell_volume   239.83055431
_cell_formula_units_Z   4
loop_
 _symmetry_equiv_pos_site_id
 _symmetry_equiv_pos_as_xyz
  1  'x, y, z'
loop_
 _atom_site_type_symbol
 _atom_site_label
 _atom_site_symmetry_multiplicity
 _atom_site_fract_x
 _atom_site_fract_y
 _atom_site_fract_z
 _atom_site_occupancy
  Li  Li0  1  0.98549205  0.94459198  0.74662603  1
  Li  Li1  1  0.51450902  0.44459599  0.75340001  1
  Li  Li2  1  0.01450900  0.05540800  0.25337400  1
  Li  Li3  1  0.48549003  0.55540399  0.24660002  1
  Bi  Bi4  1  0.00000101  0.49999999  0.50000002  1
  Bi  Bi5  1  0.50000101  0.00000000  -0.00000000  1
  Bi  Bi6  1  0.00000001  0.49999999  0.00000002  1
  Bi  Bi7  1  0.50000001  0.00000000  0.49999999  1
  O  O8  1  0.69037703  0.71549598  0.55345402  1
  O  O9  1  0.80959602  0.21552400  0.94656600  1
  O  O10  1  0.30962301  0.28450399  0.44654601  1
  O  O11  1  0.19040403  0.78447598  0.05343403  1
  O  O12  1  0.21067903  0.80597498  0.45481603  1
  O  O13  1  0.28928901  0.30593299  0.04516601  1
  O  O14  1  0.78932102  0.19402500  0.54518500  1
  O  O15  1  0.71071103  0.69406698  0.95483402  1
  O  O16  1  0.09552902  0.53194399  0.75873802  1
  O  O17  1  0.40451501  0.03193100  0.74124799  1
  O  O18  1  0.59548604  0.96806898  0.25875204  1
  O  O19  1  0.90447203  0.46805599  0.24126201  1
