# generated using pymatgen
data_Li2MgFeO6
_symmetry_space_group_name_H-M   'P 1'
_cell_length_a   5.44143343
_cell_length_b   5.44143391
_cell_length_c   5.81015682
_cell_angle_alpha   91.36391449
_cell_angle_beta   117.33287811
_cell_angle_gamma   118.96736908
_symmetry_Int_Tables_number   1
_chemical_formula_structural   Li2MgFeO6
_chemical_formula_sum   'Li2 Mg1 Fe1 O6'
_cell_volume   126.82335553
_cell_formula_units_Z   1
loop_
 _symmetry_equiv_pos_site_id
 _symmetry_equiv_pos_as_xyz
  1  'x, y, z'
loop_
 _atom_site_type_symbol
 _atom_site_label
 _atom_site_symmetry_multiplicity
 _atom_site_fract_x
 _atom_site_fract_y
 _atom_site_fract_z
 _atom_site_occupancy
  Mg  Mg0  1  0.74295299  0.86558802  0.57133903  1
  Li  Li1  1  0.27916299  0.62853202  0.93024301  1
  Fe  Fe2  1  0.70575200  0.32838701  0.07133903  1
  Li  Li3  1  0.30171100  0.15108000  0.43024301  1
  O  O4  1  0.80610101  0.05205900  0.26475003  1
  O  O5  1  0.21268998  0.95864803  0.76475001  1
  O  O6  1  0.79273801  0.25465301  0.74679103  1
  O  O7  1  0.49213700  0.45405201  0.24679102  1
  O  O8  1  0.48812500  0.55824902  0.73687802  1
  O  O9  1  0.17862899  0.74875302  0.23687801  1
