# generated using pymatgen
data_Li2ScAlFe3NiO8
_symmetry_space_group_name_H-M   'P 1'
_cell_length_a   5.96790171
_cell_length_b   5.96849585
_cell_length_c   5.97577429
_cell_angle_alpha   60.59189224
_cell_angle_beta   88.89279175
_cell_angle_gamma   119.28161621
_symmetry_Int_Tables_number   1
_chemical_formula_structural   Li2ScAlFe3NiO8
_chemical_formula_sum   'Li2 Sc1 Al1 Fe3 Ni1 O8'
_cell_volume   152.01020892
_cell_formula_units_Z   1
loop_
 _symmetry_equiv_pos_site_id
 _symmetry_equiv_pos_as_xyz
  1  'x, y, z'
loop_
 _atom_site_type_symbol
 _atom_site_label
 _atom_site_symmetry_multiplicity
 _atom_site_fract_x
 _atom_site_fract_y
 _atom_site_fract_z
 _atom_site_occupancy
  Li  Li0  1  -0.00000001  0.49999900  0.50000100  1
  Li  Li1  1  0.49999999  0.00000000  0.00000103  1
  Al  Al2  1  -0.00000001  0.49999900  0.00000001  1
  Sc  Sc3  1  0.50000098  0.49999900  0.00000104  1
  Fe  Fe4  1  0.49999899  0.00000100  0.49999902  1
  Fe  Fe5  1  0.49999898  0.50000400  0.49999803  1
  Fe  Fe6  1  0.00000200  0.00000000  0.00000000  1
  Ni  Ni7  1  0.00000100  0.00000000  0.49999899  1
  O  O8  1  0.26043199  0.49873700  0.24082302  1
  O  O9  1  0.73956798  0.50126200  0.75917703  1
  O  O10  1  0.75010997  0.98336401  0.26653906  1
  O  O11  1  0.24988899  0.01663700  0.73346200  1
  O  O12  1  0.25854399  0.50007800  0.76139101  1
  O  O13  1  0.73852097  0.98005501  0.76138804  1
  O  O14  1  0.74145598  0.49992100  0.23861005  1
  O  O15  1  0.26147899  0.01994400  0.23861301  1
