# generated using pymatgen
data_Mg2Al3N5
_symmetry_space_group_name_H-M   'P 1'
_cell_length_a   3.45791197
_cell_length_b   3.45791149
_cell_length_c   11.70532322
_cell_angle_alpha   90.00000000
_cell_angle_beta   90.00000000
_cell_angle_gamma   120.00000763
_symmetry_Int_Tables_number   1
_chemical_formula_structural   Mg2Al3N5
_chemical_formula_sum   'Mg2 Al3 N5'
_cell_volume   121.21093864
_cell_formula_units_Z   1
loop_
 _symmetry_equiv_pos_site_id
 _symmetry_equiv_pos_as_xyz
  1  'x, y, z'
loop_
 _atom_site_type_symbol
 _atom_site_label
 _atom_site_symmetry_multiplicity
 _atom_site_fract_x
 _atom_site_fract_y
 _atom_site_fract_z
 _atom_site_occupancy
  Mg  Mg0  1  0.00000000  0.00000000  0.00000000  1
  Mg  Mg1  1  0.00000000  0.00000000  0.49999999  1
  Al  Al2  1  0.66666669  0.33333334  0.74999999  1
  Al  Al3  1  0.33333337  0.66666667  0.25000000  1
  N  N4  1  0.66666669  0.33333334  0.91440298  1
  Al  Al5  1  0.00000000  0.00000000  0.74999999  1
  N  N6  1  0.66666669  0.33333334  0.58559699  1
  N  N7  1  0.00000000  0.00000000  0.25000000  1
  N  N8  1  0.33333337  0.66666667  0.08559700  1
  N  N9  1  0.33333337  0.66666667  0.41440299  1
