# generated using pymatgen
data_Li2Co(HO)4
_symmetry_space_group_name_H-M   'P 1'
_cell_length_a   5.07693768
_cell_length_b   5.12217093
_cell_length_c   5.08668041
_cell_angle_alpha   97.99411011
_cell_angle_beta   96.04897308
_cell_angle_gamma   99.96934509
_symmetry_Int_Tables_number   1
_chemical_formula_structural   Li2Co(HO)4
_chemical_formula_sum   'Li2 Co1 H4 O4'
_cell_volume   127.87397850
_cell_formula_units_Z   1
loop_
 _symmetry_equiv_pos_site_id
 _symmetry_equiv_pos_as_xyz
  1  'x, y, z'
loop_
 _atom_site_type_symbol
 _atom_site_label
 _atom_site_symmetry_multiplicity
 _atom_site_fract_x
 _atom_site_fract_y
 _atom_site_fract_z
 _atom_site_occupancy
  Li  Li0  1  0.99775202  0.99648605  0.99702103  1
  H  H1  1  0.35020901  0.61837803  0.05705704  1
  Co  Co2  1  0.60097500  0.06489400  0.35363199  1
  H  H3  1  0.93751701  0.38793402  0.64612600  1
  Li  Li4  1  0.49222401  0.51192002  0.51178801  1
  H  H5  1  0.24120901  0.56074003  0.20471003  1
  H  H6  1  0.57963600  0.21561401  0.25008901  1
  O  O7  1  0.21050401  0.25175601  0.57184999  1
  O  O8  1  0.74423102  0.77647304  0.41589604  1
  O  O9  1  0.42914502  0.75173703  0.79700202  1
  O  O10  1  0.78659801  0.42406802  0.75482800  1
