# generated using pymatgen
data_H3IO
_symmetry_space_group_name_H-M   'P 1'
_cell_length_a   4.27629852
_cell_length_b   4.27629852
_cell_length_c   4.42975473
_cell_angle_alpha   71.60769653
_cell_angle_beta   71.60769653
_cell_angle_gamma   70.76811218
_symmetry_Int_Tables_number   1
_chemical_formula_structural   H3IO
_chemical_formula_sum   'H3 I1 O1'
_cell_volume   70.52512988
_cell_formula_units_Z   1
loop_
 _symmetry_equiv_pos_site_id
 _symmetry_equiv_pos_as_xyz
  1  'x, y, z'
loop_
 _atom_site_type_symbol
 _atom_site_label
 _atom_site_symmetry_multiplicity
 _atom_site_fract_x
 _atom_site_fract_y
 _atom_site_fract_z
 _atom_site_occupancy
  H  H0  1  0.31447200  0.31447199  0.64755901  1
  H  H1  1  0.30794202  0.64267497  0.31996403  1
  H  H2  1  0.64267499  0.30794199  0.31996403  1
  I  I3  1  0.01608700  0.01608700  0.01134000  1
  O  O4  1  0.46024200  0.46024198  0.46371403  1
