# generated using pymatgen
data_GeP7(NO2)4
_symmetry_space_group_name_H-M   'P 1'
_cell_length_a   4.54576731
_cell_length_b   6.56726551
_cell_length_c   7.92309666
_cell_angle_alpha   89.99996948
_cell_angle_beta   90.00000763
_cell_angle_gamma   101.40866089
_symmetry_Int_Tables_number   1
_chemical_formula_structural   GeP7(NO2)4
_chemical_formula_sum   'Ge1 P7 N4 O8'
_cell_volume   231.85673714
_cell_formula_units_Z   1
loop_
 _symmetry_equiv_pos_site_id
 _symmetry_equiv_pos_as_xyz
  1  'x, y, z'
loop_
 _atom_site_type_symbol
 _atom_site_label
 _atom_site_symmetry_multiplicity
 _atom_site_fract_x
 _atom_site_fract_y
 _atom_site_fract_z
 _atom_site_occupancy
  P  P0  1  0.00000101  0.50000199  0.61622900  1
  Ge  Ge1  1  1.00000004  0.99999997  0.11618003  1
  P  P2  1  0.41547501  0.20372899  0.46268101  1
  P  P3  1  0.41550003  0.70372198  0.96264101  1
  P  P4  1  0.58452603  0.79627198  0.46268102  1
  P  P5  1  0.58450002  0.29627699  0.96264102  1
  N  N6  1  0.50000004  0.99999997  0.54820102  1
  N  N7  1  0.49999902  0.49999999  0.04812202  1
  P  P8  1  0.70812002  0.36271099  0.44373002  1
  N  N9  1  0.70805703  0.86274198  0.94360502  1
  P  P10  1  0.29188102  0.63728898  0.44373001  1
  O  O11  1  0.29194201  0.13725800  0.94360501  1
  O  O12  1  0.80448703  0.72916098  0.59144903  1
  O  O13  1  0.80431102  0.22933199  0.09148203  1
  O  O14  1  0.19551301  0.27083799  0.59144801  1
  O  O15  1  0.19568802  0.77066798  0.09148201  1
  N  N16  1  0.73387203  0.85662598  0.29351202  1
  O  O17  1  0.73387502  0.35668999  0.79342102  1
  O  O18  1  0.26612801  0.14337300  0.29351201  1
  O  O19  1  0.26612502  0.64331098  0.79342201  1
