# generated using pymatgen
data_Bi4PbS4
_symmetry_space_group_name_H-M   'P 1'
_cell_length_a   4.16426420
_cell_length_b   4.16426468
_cell_length_c   16.96500206
_cell_angle_alpha   90.00000000
_cell_angle_beta   90.00000000
_cell_angle_gamma   119.99999237
_symmetry_Int_Tables_number   1
_chemical_formula_structural   Bi4PbS4
_chemical_formula_sum   'Bi4 Pb1 S4'
_cell_volume   254.77756504
_cell_formula_units_Z   1
loop_
 _symmetry_equiv_pos_site_id
 _symmetry_equiv_pos_as_xyz
  1  'x, y, z'
loop_
 _atom_site_type_symbol
 _atom_site_label
 _atom_site_symmetry_multiplicity
 _atom_site_fract_x
 _atom_site_fract_y
 _atom_site_fract_z
 _atom_site_occupancy
  Bi  Bi0  1  0.66666661  0.33333331  0.89459000  1
  Bi  Bi1  1  0.33333327  0.66666662  0.10541000  1
  Bi  Bi2  1  0.33333327  0.66666662  0.79170600  1
  Bi  Bi3  1  0.66666661  0.33333331  0.59114700  1
  Pb  Pb4  1  0.33333327  0.66666662  0.40885300  1
  S  S5  1  0.00000000  0.00000000  0.00000000  1
  S  S6  1  0.66666661  0.33333331  0.20829400  1
  S  S7  1  0.00000000  0.00000000  0.68214700  1
  S  S8  1  0.00000000  0.00000000  0.31785300  1
