# generated using pymatgen
data_SrLi3LaBiO10
_symmetry_space_group_name_H-M   'P 1'
_cell_length_a   5.51103687
_cell_length_b   6.00221062
_cell_length_c   7.02241564
_cell_angle_alpha   93.05750275
_cell_angle_beta   103.23773956
_cell_angle_gamma   93.25827026
_symmetry_Int_Tables_number   1
_chemical_formula_structural   SrLi3LaBiO10
_chemical_formula_sum   'Sr1 Li3 La1 Bi1 O10'
_cell_volume   225.22564026
_cell_formula_units_Z   1
loop_
 _symmetry_equiv_pos_site_id
 _symmetry_equiv_pos_as_xyz
  1  'x, y, z'
loop_
 _atom_site_type_symbol
 _atom_site_label
 _atom_site_symmetry_multiplicity
 _atom_site_fract_x
 _atom_site_fract_y
 _atom_site_fract_z
 _atom_site_occupancy
  Li  Li0  1  0.29829801  0.56044401  0.05374002  1
  Li  Li1  1  0.97325201  0.00530900  0.98664899  1
  Li  Li2  1  0.39886302  0.85012702  0.66080405  1
  Sr  Sr3  1  0.60480101  0.14867600  0.36897600  1
  La  La4  1  0.65527003  0.99636202  0.84160305  1
  O  O5  1  0.08023101  0.29018001  0.97236603  1
  O  O6  1  0.42520802  0.60432601  0.81694304  1
  Bi  Bi7  1  0.10906302  0.92589102  0.76155406  1
  O  O8  1  0.35144701  0.13999700  0.51671201  1
  O  O9  1  0.82635202  0.30020401  0.55814900  1
  O  O10  1  0.20774202  0.68797801  0.45451804  1
  O  O11  1  0.65050303  0.85897902  0.47789903  1
  O  O12  1  0.86128301  0.08837900  0.22338098  1
  O  O13  1  0.51978201  0.40783001  0.24493301  1
  O  O14  1  0.35980502  0.98820002  0.15600304  1
  O  O15  1  0.98145003  0.71490101  0.04396001  1
