# generated using pymatgen
data_Li6CoO8
_symmetry_space_group_name_H-M   'P 1'
_cell_length_a   4.19144487
_cell_length_b   5.81841373
_cell_length_c   9.21659279
_cell_angle_alpha   72.77954865
_cell_angle_beta   89.98280334
_cell_angle_gamma   89.15564728
_symmetry_Int_Tables_number   1
_chemical_formula_structural   Li6CoO8
_chemical_formula_sum   'Li6 Co1 O8'
_cell_volume   214.66912863
_cell_formula_units_Z   1
loop_
 _symmetry_equiv_pos_site_id
 _symmetry_equiv_pos_as_xyz
  1  'x, y, z'
loop_
 _atom_site_type_symbol
 _atom_site_label
 _atom_site_symmetry_multiplicity
 _atom_site_fract_x
 _atom_site_fract_y
 _atom_site_fract_z
 _atom_site_occupancy
  Li  Li0  1  0.45669497  0.81461904  0.35003996  1
  Li  Li1  1  0.45539401  0.16574901  0.66371498  1
  Li  Li2  1  0.46634099  0.45724402  0.01139898  1
  Li  Li3  1  0.88453098  0.93462905  0.01457995  1
  Li  Li4  1  0.94270900  0.62193903  0.73046796  1
  Li  Li5  1  0.93101601  0.32928902  0.29124397  1
  Co  Co6  1  0.98872601  0.51977603  0.00316596  1
  O  O7  1  0.00996199  0.17348201  0.66146599  1
  O  O8  1  0.01036795  0.82707204  0.33976297  1
  O  O9  1  0.51670700  0.34716102  0.81591997  1
  O  O10  1  0.53133698  0.66611203  0.18005997  1
  O  O11  1  0.52187602  0.00249400  0.50028399  1
  O  O12  1  0.52927797  0.85953004  0.82344896  1
  O  O13  1  0.51911499  0.49785003  0.49886697  1
  O  O14  1  0.52454701  0.14212101  0.18604598  1
