# generated using pymatgen
data_KTiSbO5
_symmetry_space_group_name_H-M   'P 1'
_cell_length_a   5.06071901
_cell_length_b   5.06071901
_cell_length_c   5.06071901
_cell_angle_alpha   97.46791840
_cell_angle_beta   97.46791840
_cell_angle_gamma   97.46792603
_symmetry_Int_Tables_number   1
_chemical_formula_structural   KTiSbO5
_chemical_formula_sum   'K1 Ti1 Sb1 O5'
_cell_volume   125.99022018
_cell_formula_units_Z   1
loop_
 _symmetry_equiv_pos_site_id
 _symmetry_equiv_pos_as_xyz
  1  'x, y, z'
loop_
 _atom_site_type_symbol
 _atom_site_label
 _atom_site_symmetry_multiplicity
 _atom_site_fract_x
 _atom_site_fract_y
 _atom_site_fract_z
 _atom_site_occupancy
  K  K0  1  0.00000000  0.00000000  0.00000000  1
  Sb  Sb1  1  0.50000004  0.50000002  0.49999993  1
  Ti  Ti2  1  0.57036403  0.18224201  0.25259995  1
  O  O3  1  0.18224202  0.25260001  0.57036396  1
  O  O4  1  0.74740005  0.42963602  0.81775791  1
  O  O5  1  0.81775806  0.74740003  0.42963591  1
  O  O6  1  0.42963605  0.81775804  0.74739991  1
  O  O7  1  0.25260003  0.57036403  0.18224196  1
