# generated using pymatgen
data_GdHoZr2Ti4O12
_symmetry_space_group_name_H-M   'P 1'
_cell_length_a   5.25125980
_cell_length_b   5.36046791
_cell_length_c   7.61239100
_cell_angle_alpha   90.00000000
_cell_angle_beta   90.00000000
_cell_angle_gamma   90.00000000
_symmetry_Int_Tables_number   1
_chemical_formula_structural   GdHoZr2Ti4O12
_chemical_formula_sum   'Gd1 Ho1 Zr2 Ti4 O12'
_cell_volume   214.28279020
_cell_formula_units_Z   1
loop_
 _symmetry_equiv_pos_site_id
 _symmetry_equiv_pos_as_xyz
  1  'x, y, z'
loop_
 _atom_site_type_symbol
 _atom_site_label
 _atom_site_symmetry_multiplicity
 _atom_site_fract_x
 _atom_site_fract_y
 _atom_site_fract_z
 _atom_site_occupancy
  Ti  Ti0  1  -0.00000000  0.50000001  0.00000000  1
  Zr  Zr1  1  -0.00000000  0.50000001  0.50000000  1
  Ho  Ho2  1  0.50000002  0.00000000  0.00000000  1
  Ti  Ti3  1  0.50000002  0.00000000  0.50000000  1
  Gd  Gd4  1  0.01307800  0.96002602  0.75000000  1
  Zr  Zr5  1  0.48692202  0.46002601  0.75000000  1
  Ti  Ti6  1  0.51307802  0.53997401  0.25000000  1
  Ti  Ti7  1  0.98692204  0.03997400  0.25000000  1
  O  O8  1  0.09681800  0.46655001  0.25000000  1
  O  O9  1  0.20658601  0.20906900  0.55134900  1
  O  O10  1  0.20658601  0.20906900  0.94865100  1
  O  O11  1  0.29341401  0.70906901  0.94865100  1
  O  O12  1  0.29341401  0.70906901  0.55134900  1
  O  O13  1  0.40318202  0.96655002  0.25000000  1
  O  O14  1  0.59681802  0.03345000  0.75000000  1
  O  O15  1  0.70658603  0.29093100  0.05134900  1
  O  O16  1  0.70658603  0.29093100  0.44865100  1
  O  O17  1  0.79341403  0.79093101  0.05134900  1
  O  O18  1  0.79341403  0.79093101  0.44865100  1
  O  O19  1  0.90318203  0.53345001  0.75000000  1
