# generated using pymatgen
data_Ti(GaO3)2
_symmetry_space_group_name_H-M   'P 1'
_cell_length_a   4.63301611
_cell_length_b   5.10195017
_cell_length_c   5.10194969
_cell_angle_alpha   120.00000000
_cell_angle_beta   90.00000000
_cell_angle_gamma   90.00000000
_symmetry_Int_Tables_number   1
_chemical_formula_structural   Ti(GaO3)2
_chemical_formula_sum   'Ti1 Ga2 O6'
_cell_volume   104.43999115
_cell_formula_units_Z   1
loop_
 _symmetry_equiv_pos_site_id
 _symmetry_equiv_pos_as_xyz
  1  'x, y, z'
loop_
 _atom_site_type_symbol
 _atom_site_label
 _atom_site_symmetry_multiplicity
 _atom_site_fract_x
 _atom_site_fract_y
 _atom_site_fract_z
 _atom_site_occupancy
  Ti  Ti0  1  0.00000000  0.00000000  0.00000000  1
  Ga  Ga1  1  0.49999999  0.33333332  0.66666666  1
  Ga  Ga2  1  0.49999999  0.66666663  0.33333331  1
  O  O3  1  0.26380699  0.66226497  -0.00000002  1
  O  O4  1  0.26380699  0.33773498  0.33773499  1
  O  O5  1  0.26380699  0.99999995  0.66226497  1
  O  O6  1  0.73619298  0.66226497  0.66226498  1
  O  O7  1  0.73619298  0.99999995  0.33773497  1
  O  O8  1  0.73619298  0.33773498  -0.00000001  1
