# generated using pymatgen
data_Li3CaO4
_symmetry_space_group_name_H-M   'P 1'
_cell_length_a   3.12498808
_cell_length_b   5.62771988
_cell_length_c   6.52955389
_cell_angle_alpha   94.79113007
_cell_angle_beta   90.00000000
_cell_angle_gamma   106.11955261
_symmetry_Int_Tables_number   1
_chemical_formula_structural   Li3CaO4
_chemical_formula_sum   'Li3 Ca1 O4'
_cell_volume   109.89994948
_cell_formula_units_Z   1
loop_
 _symmetry_equiv_pos_site_id
 _symmetry_equiv_pos_as_xyz
  1  'x, y, z'
loop_
 _atom_site_type_symbol
 _atom_site_label
 _atom_site_symmetry_multiplicity
 _atom_site_fract_x
 _atom_site_fract_y
 _atom_site_fract_z
 _atom_site_occupancy
  Ca  Ca0  1  0.36076005  0.72151999  0.55158997  1
  Li  Li1  1  0.63924001  0.27848000  0.44840999  1
  Li  Li2  1  0.88431004  0.76861999  0.05661998  1
  Li  Li3  1  0.11569002  0.23138000  0.94337999  1
  O  O4  1  0.31690004  0.63379999  0.87286997  1
  O  O5  1  0.56808000  0.13616000  0.75207999  1
  O  O6  1  0.43192006  0.86383999  0.24791997  1
  O  O7  1  0.68310001  0.36620000  0.12712999  1
