# generated using pymatgen
data_Cd2Ag3PH4
_symmetry_space_group_name_H-M   'P 1'
_cell_length_a   5.11868191
_cell_length_b   5.19037914
_cell_length_c   7.59668732
_cell_angle_alpha   98.56618500
_cell_angle_beta   90.00000000
_cell_angle_gamma   90.00000000
_symmetry_Int_Tables_number   1
_chemical_formula_structural   Cd2Ag3PH4
_chemical_formula_sum   'Cd2 Ag3 P1 H4'
_cell_volume   199.57652732
_cell_formula_units_Z   1
loop_
 _symmetry_equiv_pos_site_id
 _symmetry_equiv_pos_as_xyz
  1  'x, y, z'
loop_
 _atom_site_type_symbol
 _atom_site_label
 _atom_site_symmetry_multiplicity
 _atom_site_fract_x
 _atom_site_fract_y
 _atom_site_fract_z
 _atom_site_occupancy
  Cd  Cd0  1  0.00000000  0.00000000  0.00000000  1
  Ag  Ag1  1  0.50000001  0.00000000  0.49999999  1
  Cd  Cd2  1  0.70780301  0.74702498  0.74619498  1
  Ag  Ag3  1  0.20780300  0.25297499  0.75380498  1
  H  H4  1  0.29219701  0.25297499  0.25380499  1
  Ag  Ag5  1  0.79219701  0.74702498  0.24619499  1
  P  P6  1  0.10868100  0.60322898  0.40049499  1
  H  H7  1  0.60868101  0.39677099  0.09950500  1
  H  H8  1  0.89131902  0.39677099  0.59950499  1
  H  H9  1  0.39131901  0.60322898  0.90049498  1
