# generated using pymatgen
data_Ca2MgAl(BO3)4
_symmetry_space_group_name_H-M   'P 1'
_cell_length_a   6.47992277
_cell_length_b   6.47992277
_cell_length_c   7.07000208
_cell_angle_alpha   62.75104141
_cell_angle_beta   62.75104141
_cell_angle_gamma   75.21409607
_symmetry_Int_Tables_number   1
_chemical_formula_structural   Ca2MgAl(BO3)4
_chemical_formula_sum   'Ca2 Mg1 Al1 B4 O12'
_cell_volume   234.24180329
_cell_formula_units_Z   1
loop_
 _symmetry_equiv_pos_site_id
 _symmetry_equiv_pos_as_xyz
  1  'x, y, z'
loop_
 _atom_site_type_symbol
 _atom_site_label
 _atom_site_symmetry_multiplicity
 _atom_site_fract_x
 _atom_site_fract_y
 _atom_site_fract_z
 _atom_site_occupancy
  Al  Al0  1  0.74971701  0.25028300  0.74999998  1
  Mg  Mg1  1  0.25028302  0.74971700  0.24999997  1
  Ca  Ca2  1  0.80356101  0.19643900  0.24999998  1
  Ca  Ca3  1  0.19643903  0.80356100  0.74999997  1
  B  B4  1  0.78962503  0.67600400  0.37137996  1
  B  B5  1  0.32399601  0.21037500  0.12861999  1
  B  B6  1  0.21037501  0.32399600  0.62861999  1
  B  B7  1  0.67600403  0.78962500  0.87137996  1
  O  O8  1  0.79105602  0.45499500  0.43801097  1
  O  O9  1  0.54500501  0.20894400  0.06198898  1
  O  O10  1  0.20894402  0.54500500  0.56198898  1
  O  O11  1  0.45499503  0.79105600  0.93801097  1
  O  O12  1  0.96414603  0.79686100  0.19568396  1
  O  O13  1  0.20313900  0.03585400  0.30431600  1
  O  O14  1  0.03585401  0.20313900  0.80431600  1
  O  O15  1  0.79686103  0.96414600  0.69568396  1
  O  O16  1  0.38224501  0.21072900  0.52042599  1
  O  O17  1  0.78927102  0.61775500  0.97957397  1
  O  O18  1  0.61775503  0.78927100  0.47957396  1
  O  O19  1  0.21072901  0.38224500  0.02042598  1
