# generated using pymatgen
data_Tl5Cd(SnSe6)2
_symmetry_space_group_name_H-M   'P 1'
_cell_length_a   4.01734304
_cell_length_b   9.58492088
_cell_length_c   15.50029278
_cell_angle_alpha   90.00000000
_cell_angle_beta   90.00000000
_cell_angle_gamma   90.00000000
_symmetry_Int_Tables_number   1
_chemical_formula_structural   Tl5Cd(SnSe6)2
_chemical_formula_sum   'Tl5 Cd1 Sn2 Se12'
_cell_volume   596.85295991
_cell_formula_units_Z   1
loop_
 _symmetry_equiv_pos_site_id
 _symmetry_equiv_pos_as_xyz
  1  'x, y, z'
loop_
 _atom_site_type_symbol
 _atom_site_label
 _atom_site_symmetry_multiplicity
 _atom_site_fract_x
 _atom_site_fract_y
 _atom_site_fract_z
 _atom_site_occupancy
  Cd  Cd0  1  0.25000000  0.16268800  0.55472901  1
  Tl  Tl1  1  0.74999999  0.83731201  0.44527101  1
  Sn  Sn2  1  0.25000000  0.66268801  0.94527101  1
  Sn  Sn3  1  0.74999999  0.33731200  0.05472900  1
  Tl  Tl4  1  0.25000000  0.45927401  0.32377800  1
  Tl  Tl5  1  0.74999999  0.54072601  0.67622201  1
  Tl  Tl6  1  0.25000000  0.95927401  0.17622200  1
  Tl  Tl7  1  0.74999999  0.04072600  0.82377801  1
  Se  Se8  1  0.74999999  0.48008001  0.89981701  1
  Se  Se9  1  0.25000000  0.51992001  0.10018300  1
  Se  Se10  1  0.74999999  0.98008001  0.60018301  1
  Se  Se11  1  0.25000000  0.01992000  0.39981701  1
  Se  Se12  1  0.74999999  0.82541601  0.00359700  1
  Se  Se13  1  0.25000000  0.17458400  0.99640301  1
  Se  Se14  1  0.74999999  0.32541600  0.49640301  1
  Se  Se15  1  0.25000000  0.67458401  0.50359701  1
  Se  Se16  1  0.74999999  0.22262200  0.20715300  1
  Se  Se17  1  0.25000000  0.77737801  0.79284701  1
  Se  Se18  1  0.74999999  0.72262201  0.29284700  1
  Se  Se19  1  0.25000000  0.27737800  0.70715301  1
