# generated using pymatgen
data_Hf3TaO8
_symmetry_space_group_name_H-M   'P 1'
_cell_length_a   5.14231920
_cell_length_b   5.19514799
_cell_length_c   5.32603836
_cell_angle_alpha   90.00000000
_cell_angle_beta   80.32546997
_cell_angle_gamma   90.00000000
_symmetry_Int_Tables_number   1
_chemical_formula_structural   Hf3TaO8
_chemical_formula_sum   'Hf3 Ta1 O8'
_cell_volume   140.26214820
_cell_formula_units_Z   1
loop_
 _symmetry_equiv_pos_site_id
 _symmetry_equiv_pos_as_xyz
  1  'x, y, z'
loop_
 _atom_site_type_symbol
 _atom_site_label
 _atom_site_symmetry_multiplicity
 _atom_site_fract_x
 _atom_site_fract_y
 _atom_site_fract_z
 _atom_site_occupancy
  Ta  Ta0  1  0.27595899  0.45731900  0.29210900  1
  Hf  Hf1  1  0.72404097  0.95731900  0.20789099  1
  Hf  Hf2  1  0.72404097  0.54268100  0.70789100  1
  Hf  Hf3  1  0.27595899  0.04268100  0.79210901  1
  O  O4  1  0.44888698  0.74260300  0.02229199  1
  O  O5  1  0.55111298  0.24260300  0.47770800  1
  O  O6  1  0.55111298  0.25739700  0.97770801  1
  O  O7  1  0.44888698  0.75739700  0.52229200  1
  O  O8  1  0.06784900  0.33012200  0.65290601  1
  O  O9  1  0.93215097  0.83012200  0.84709400  1
  O  O10  1  0.93215097  0.66987800  0.34709399  1
  O  O11  1  0.06784900  0.16987800  0.15290600  1
