# generated using pymatgen
data_Ag2GeS9
_symmetry_space_group_name_H-M   'P 1'
_cell_length_a   4.95878792
_cell_length_b   5.36517000
_cell_length_c   9.43815422
_cell_angle_alpha   90.00000000
_cell_angle_beta   90.00000000
_cell_angle_gamma   102.12277222
_symmetry_Int_Tables_number   1
_chemical_formula_structural   Ag2GeS9
_chemical_formula_sum   'Ag2 Ge1 S9'
_cell_volume   245.50008035
_cell_formula_units_Z   1
loop_
 _symmetry_equiv_pos_site_id
 _symmetry_equiv_pos_as_xyz
  1  'x, y, z'
loop_
 _atom_site_type_symbol
 _atom_site_label
 _atom_site_symmetry_multiplicity
 _atom_site_fract_x
 _atom_site_fract_y
 _atom_site_fract_z
 _atom_site_occupancy
  Ag  Ag0  1  0.00347501  0.34637201  0.74999998  1
  Ag  Ag1  1  0.99652504  0.65362801  0.24999999  1
  S  S2  1  0.27668504  0.89222702  0.74999998  1
  Ge  Ge3  1  0.72331502  0.10777300  0.24999999  1
  S  S4  1  0.61594104  0.95482102  0.59251699  1
  S  S5  1  0.38405901  0.04517900  0.09251700  1
  S  S6  1  0.38405901  0.04517900  0.40748299  1
  S  S7  1  0.61594104  0.95482102  0.90748298  1
  S  S8  1  0.71393003  0.59494301  0.52837199  1
  S  S9  1  0.28607002  0.40505701  0.02837200  1
  S  S10  1  0.28607002  0.40505701  0.47162799  1
  S  S11  1  0.71393003  0.59494301  0.97162798  1
