# generated using pymatgen
data_RbTeSeBr6
_symmetry_space_group_name_H-M   'P 1'
_cell_length_a   6.93276978
_cell_length_b   8.38332558
_cell_length_c   9.79974079
_cell_angle_alpha   90.70927429
_cell_angle_beta   90.00000000
_cell_angle_gamma   90.00000000
_symmetry_Int_Tables_number   1
_chemical_formula_structural   RbTeSeBr6
_chemical_formula_sum   'Rb2 Te2 Se2 Br12'
_cell_volume   569.51402334
_cell_formula_units_Z   2
loop_
 _symmetry_equiv_pos_site_id
 _symmetry_equiv_pos_as_xyz
  1  'x, y, z'
loop_
 _atom_site_type_symbol
 _atom_site_label
 _atom_site_symmetry_multiplicity
 _atom_site_fract_x
 _atom_site_fract_y
 _atom_site_fract_z
 _atom_site_occupancy
  Rb  Rb0  1  0.50000002  0.50000002  -0.00000002  1
  Te  Te1  1  0.00000000  0.00000000  0.00000000  1
  Rb  Rb2  1  0.04152300  0.62128103  0.28256498  1
  Te  Te3  1  0.54152302  0.87871904  0.71743497  1
  Se  Se4  1  0.95847703  0.37871902  0.71743499  1
  Se  Se5  1  0.45847701  0.12128101  0.28256500  1
  Br  Br6  1  0.34387401  0.83244204  0.44332497  1
  Br  Br7  1  0.84387403  0.66755803  0.55667498  1
  Br  Br8  1  0.65612602  0.16755801  0.55667500  1
  Br  Br9  1  0.15612601  0.33244202  0.44332499  1
  Br  Br10  1  0.29599601  0.85478604  0.06541797  1
  Br  Br11  1  0.79599603  0.64521403  0.93458198  1
  Br  Br12  1  0.62658602  0.47269302  0.23557898  1
  Br  Br13  1  0.12658600  0.02730700  0.76442101  1
  Br  Br14  1  0.37341401  0.52730703  0.76442099  1
  Br  Br15  1  0.87341403  0.97269305  0.23557897  1
  Br  Br16  1  0.20400401  0.35478602  0.06541799  1
  Br  Br17  1  0.70400402  0.14521401  0.93458200  1
