# generated using pymatgen
data_Si2As3P6Ru
_symmetry_space_group_name_H-M   'P 1'
_cell_length_a   5.58405209
_cell_length_b   5.58405209
_cell_length_c   5.58405209
_cell_angle_alpha   90.00000000
_cell_angle_beta   90.00000000
_cell_angle_gamma   90.00000000
_symmetry_Int_Tables_number   1
_chemical_formula_structural   Si2As3P6Ru
_chemical_formula_sum   'Si2 As3 P6 Ru1'
_cell_volume   174.11988903
_cell_formula_units_Z   1
loop_
 _symmetry_equiv_pos_site_id
 _symmetry_equiv_pos_as_xyz
  1  'x, y, z'
loop_
 _atom_site_type_symbol
 _atom_site_label
 _atom_site_symmetry_multiplicity
 _atom_site_fract_x
 _atom_site_fract_y
 _atom_site_fract_z
 _atom_site_occupancy
  Si  Si0  1  0.50798299  0.49201699  0.99201698  1
  Si  Si1  1  0.49201699  0.99201698  0.50798299  1
  P  P2  1  0.00798300  0.00798300  0.00798300  1
  P  P3  1  0.99201698  0.50798299  0.49201699  1
  P  P4  1  0.62141099  0.87858899  0.12141100  1
  As  As5  1  0.12141100  0.62141099  0.87858899  1
  As  As6  1  0.37858899  0.37858899  0.37858899  1
  As  As7  1  0.87858899  0.12141100  0.62141099  1
  Ru  Ru8  1  0.38094299  0.11905700  0.88094299  1
  P  P9  1  0.88094299  0.38094299  0.11905700  1
  P  P10  1  0.11905700  0.88094299  0.38094299  1
  P  P11  1  0.61905699  0.61905699  0.61905699  1
