# generated using pymatgen
data_Rb2LaNd(CO3)4
_symmetry_space_group_name_H-M   'P 1'
_cell_length_a   6.49848270
_cell_length_b   6.49848270
_cell_length_c   7.12025642
_cell_angle_alpha   103.50302124
_cell_angle_beta   103.50302124
_cell_angle_gamma   97.43115234
_symmetry_Int_Tables_number   1
_chemical_formula_structural   Rb2LaNd(CO3)4
_chemical_formula_sum   'Rb2 La1 Nd1 C4 O12'
_cell_volume   278.86961259
_cell_formula_units_Z   1
loop_
 _symmetry_equiv_pos_site_id
 _symmetry_equiv_pos_as_xyz
  1  'x, y, z'
loop_
 _atom_site_type_symbol
 _atom_site_label
 _atom_site_symmetry_multiplicity
 _atom_site_fract_x
 _atom_site_fract_y
 _atom_site_fract_z
 _atom_site_occupancy
  Rb  Rb0  1  0.12196399  0.87803603  0.75000005  1
  Rb  Rb1  1  0.87803603  0.12196400  0.25000006  1
  Nd  Nd2  1  0.59520701  0.40479301  0.75000005  1
  La  La3  1  0.40479300  0.59520702  0.25000005  1
  C  C4  1  0.39271301  0.14408800  0.24649003  1
  C  C5  1  0.85591202  0.60728702  0.25351008  1
  C  C6  1  0.60728700  0.85591203  0.75351008  1
  C  C7  1  0.14408800  0.39271301  0.74649002  1
  O  O8  1  0.94561602  0.40443301  0.72566107  1
  O  O9  1  0.59556702  0.05438400  0.77433903  1
  O  O10  1  0.05438399  0.59556702  0.27433903  1
  O  O11  1  0.40443299  0.94561603  0.22566107  1
  O  O12  1  0.20727000  0.25256701  0.62172602  1
  O  O13  1  0.74743301  0.79273002  0.87827408  1
  O  O14  1  0.79273001  0.74743302  0.37827408  1
  O  O15  1  0.25256700  0.20727001  0.12172603  1
  O  O16  1  0.29734900  0.53051002  0.89450504  1
  O  O17  1  0.46949000  0.70265102  0.60549506  1
  O  O18  1  0.70265101  0.46949001  0.10549507  1
  O  O19  1  0.53051001  0.29734901  0.39450504  1
