# generated using pymatgen
data_Rb2PdO3
_symmetry_space_group_name_H-M   'P 1'
_cell_length_a   5.92843103
_cell_length_b   6.93899822
_cell_length_c   6.93899822
_cell_angle_alpha   110.78549194
_cell_angle_beta   90.00000000
_cell_angle_gamma   90.00000000
_symmetry_Int_Tables_number   1
_chemical_formula_structural   Rb2PdO3
_chemical_formula_sum   'Rb4 Pd2 O6'
_cell_volume   266.87366163
_cell_formula_units_Z   2
loop_
 _symmetry_equiv_pos_site_id
 _symmetry_equiv_pos_as_xyz
  1  'x, y, z'
loop_
 _atom_site_type_symbol
 _atom_site_label
 _atom_site_symmetry_multiplicity
 _atom_site_fract_x
 _atom_site_fract_y
 _atom_site_fract_z
 _atom_site_occupancy
  Rb  Rb0  1  0.25000000  0.19282601  0.51734002  1
  Rb  Rb1  1  0.75000000  0.48266002  0.80717403  1
  Rb  Rb2  1  0.75000000  0.80717403  0.48266003  1
  Rb  Rb3  1  0.25000000  0.51734002  0.19282601  1
  Pd  Pd4  1  0.75000000  0.08291900  0.08291900  1
  Pd  Pd5  1  0.25000000  0.91708103  0.91708104  1
  O  O6  1  0.99999999  0.11843100  0.88156902  1
  O  O7  1  0.50000000  0.11843100  0.88156902  1
  O  O8  1  0.25000000  0.66758002  0.66758003  1
  O  O9  1  0.75000000  0.33242001  0.33242001  1
  O  O10  1  -0.00000000  0.88156903  0.11843102  1
  O  O11  1  0.50000000  0.88156903  0.11843102  1
