# generated using pymatgen
data_Mn2PSeO7
_symmetry_space_group_name_H-M   'P 1'
_cell_length_a   4.89239883
_cell_length_b   5.63228226
_cell_length_c   5.63271809
_cell_angle_alpha   105.12056732
_cell_angle_beta   97.82678223
_cell_angle_gamma   97.83886719
_symmetry_Int_Tables_number   1
_chemical_formula_structural   Mn2PSeO7
_chemical_formula_sum   'Mn2 P1 Se1 O7'
_cell_volume   146.02444885
_cell_formula_units_Z   1
loop_
 _symmetry_equiv_pos_site_id
 _symmetry_equiv_pos_as_xyz
  1  'x, y, z'
loop_
 _atom_site_type_symbol
 _atom_site_label
 _atom_site_symmetry_multiplicity
 _atom_site_fract_x
 _atom_site_fract_y
 _atom_site_fract_z
 _atom_site_occupancy
  Mn  Mn0  1  0.49649803  0.69431103  0.30272405  1
  Mn  Mn1  1  0.49606101  0.31165401  0.68597704  1
  P  P2  1  0.09220703  0.76801303  0.77284205  1
  Se  Se3  1  0.89947600  0.22477101  0.22975604  1
  O  O4  1  0.28764403  0.59692503  0.91601705  1
  O  O5  1  0.28006104  0.93551204  0.61883906  1
  O  O6  1  0.71187601  0.37901202  0.06229504  1
  O  O7  1  0.70442300  0.08148800  0.40111603  1
  O  O8  1  0.77466602  0.60861103  0.59802606  1
  O  O9  1  0.21831702  0.39802402  0.38741403  1
  O  O10  1  0.99317104  0.95487804  0.04079408  1
