# generated using pymatgen
data_Na2LiLaNd2Nb2O12
_symmetry_space_group_name_H-M   'P 1'
_cell_length_a   5.43008089
_cell_length_b   5.73985815
_cell_length_c   7.79580879
_cell_angle_alpha   90.00000000
_cell_angle_beta   89.65330505
_cell_angle_gamma   90.00000000
_symmetry_Int_Tables_number   1
_chemical_formula_structural   Na2LiLaNd2Nb2O12
_chemical_formula_sum   'Na2 Li1 La1 Nd2 Nb2 O12'
_cell_volume   242.97449430
_cell_formula_units_Z   1
loop_
 _symmetry_equiv_pos_site_id
 _symmetry_equiv_pos_as_xyz
  1  'x, y, z'
loop_
 _atom_site_type_symbol
 _atom_site_label
 _atom_site_symmetry_multiplicity
 _atom_site_fract_x
 _atom_site_fract_y
 _atom_site_fract_z
 _atom_site_occupancy
  Li  Li0  1  0.97951502  0.43182099  0.25157801  1
  Na  Na1  1  0.02048500  0.56817899  0.74842199  1
  Na  Na2  1  0.52048501  0.93182098  0.24842200  1
  Nd  Nd3  1  0.47951501  0.06817900  0.75157800  1
  La  La4  1  0.00000000  0.99999997  0.50000000  1
  Nd  Nd5  1  0.50000001  0.49999999  0.00000000  1
  Nb  Nb6  1  0.00000000  0.00000000  0.00000000  1
  Nb  Nb7  1  0.50000001  0.49999999  0.50000000  1
  O  O8  1  0.11511900  0.04369400  0.24728600  1
  O  O9  1  0.88488102  0.95630597  0.75271400  1
  O  O10  1  0.38488101  0.54369399  0.25271400  1
  O  O11  1  0.61511901  0.45630599  0.74728600  1
  O  O12  1  0.81071402  0.70103198  0.06137101  1
  O  O13  1  0.18928600  0.29896799  0.93862899  1
  O  O14  1  0.68928601  0.20103199  0.43862900  1
  O  O15  1  0.31071401  0.79896798  0.56137100  1
  O  O16  1  0.69325801  0.19567099  0.05564801  1
  O  O17  1  0.30674201  0.80432898  0.94435199  1
  O  O18  1  0.80674202  0.69567098  0.44435200  1
  O  O19  1  0.19325800  0.30432899  0.55564800  1
