# generated using pymatgen
data_BiPb4S5
_symmetry_space_group_name_H-M   'P 1'
_cell_length_a   4.31584740
_cell_length_b   4.31584740
_cell_length_c   17.58300400
_cell_angle_alpha   82.95044708
_cell_angle_beta   82.95044708
_cell_angle_gamma   60.00000763
_symmetry_Int_Tables_number   1
_chemical_formula_structural   BiPb4S5
_chemical_formula_sum   'Bi1 Pb4 S5'
_cell_volume   280.76992938
_cell_formula_units_Z   1
loop_
 _symmetry_equiv_pos_site_id
 _symmetry_equiv_pos_as_xyz
  1  'x, y, z'
loop_
 _atom_site_type_symbol
 _atom_site_label
 _atom_site_symmetry_multiplicity
 _atom_site_fract_x
 _atom_site_fract_y
 _atom_site_fract_z
 _atom_site_occupancy
  Bi  Bi0  1  0.59490102  0.59490102  0.21529701  1
  Pb  Pb1  1  0.29811101  0.29811101  0.10566700  1
  Pb  Pb2  1  0.00395400  0.00395400  0.98813803  1
  Pb  Pb3  1  0.40167002  0.40167001  0.79499003  1
  Pb  Pb4  1  0.80010103  0.80010102  0.59969702  1
  S  S5  1  0.19876801  0.19876801  0.40369601  1
  S  S6  1  0.70216103  0.70216102  0.89351703  1
  S  S7  1  0.10066200  0.10066200  0.69801402  1
  S  S8  1  0.50021202  0.50021201  0.49936402  1
  S  S9  1  0.89945804  0.89945802  0.30162601  1
