# generated using pymatgen
data_ScN
_symmetry_space_group_name_H-M   'P 1'
_cell_length_a   3.13803935
_cell_length_b   3.13803935
_cell_length_c   5.98720884
_cell_angle_alpha   74.80755615
_cell_angle_beta   74.80755615
_cell_angle_gamma   60.00001144
_symmetry_Int_Tables_number   1
_chemical_formula_structural   ScN
_chemical_formula_sum   'Sc2 N2'
_cell_volume   48.66513443
_cell_formula_units_Z   2
loop_
 _symmetry_equiv_pos_site_id
 _symmetry_equiv_pos_as_xyz
  1  'x, y, z'
loop_
 _atom_site_type_symbol
 _atom_site_label
 _atom_site_symmetry_multiplicity
 _atom_site_fract_x
 _atom_site_fract_y
 _atom_site_fract_z
 _atom_site_occupancy
  Sc  Sc0  1  0.49999999  0.50000001  0.50000002  1
  Sc  Sc1  1  0.00000000  0.00000000  0.00000000  1
  N  N2  1  0.73084098  0.73084102  0.80747703  1
  N  N3  1  0.26915899  0.26915901  0.19252301  1
