# generated using pymatgen
data_K5CaP2
_symmetry_space_group_name_H-M   'P 1'
_cell_length_a   5.08262014
_cell_length_b   5.08262014
_cell_length_c   10.07058525
_cell_angle_alpha   90.00000000
_cell_angle_beta   90.00000000
_cell_angle_gamma   120.00000000
_symmetry_Int_Tables_number   1
_chemical_formula_structural   K5CaP2
_chemical_formula_sum   'K5 Ca1 P2'
_cell_volume   225.29971828
_cell_formula_units_Z   1
loop_
 _symmetry_equiv_pos_site_id
 _symmetry_equiv_pos_as_xyz
  1  'x, y, z'
loop_
 _atom_site_type_symbol
 _atom_site_label
 _atom_site_symmetry_multiplicity
 _atom_site_fract_x
 _atom_site_fract_y
 _atom_site_fract_z
 _atom_site_occupancy
  K  K0  1  0.33333332  0.66666664  0.92034798  1
  K  K1  1  0.33333332  0.66666664  0.57965199  1
  K  K2  1  0.66666665  0.33333332  0.42034799  1
  K  K3  1  0.66666665  0.33333332  0.07965200  1
  K  K4  1  0.00000000  0.00000000  0.74999998  1
  Ca  Ca5  1  0.00000000  0.00000000  0.24999999  1
  P  P6  1  0.66666665  0.33333332  0.74999998  1
  P  P7  1  0.33333332  0.66666664  0.24999999  1
