# generated using pymatgen
data_Li4Mn3CoO10
_symmetry_space_group_name_H-M   'P 1'
_cell_length_a   5.16370535
_cell_length_b   5.25931740
_cell_length_c   7.66811705
_cell_angle_alpha   109.04042053
_cell_angle_beta   108.82826996
_cell_angle_gamma   79.39788818
_symmetry_Int_Tables_number   1
_chemical_formula_structural   Li4Mn3CoO10
_chemical_formula_sum   'Li4 Mn3 Co1 O10'
_cell_volume   185.59805054
_cell_formula_units_Z   1
loop_
 _symmetry_equiv_pos_site_id
 _symmetry_equiv_pos_as_xyz
  1  'x, y, z'
loop_
 _atom_site_type_symbol
 _atom_site_label
 _atom_site_symmetry_multiplicity
 _atom_site_fract_x
 _atom_site_fract_y
 _atom_site_fract_z
 _atom_site_occupancy
  Li  Li0  1  0.49915296  0.21749301  0.42327800  1
  Li  Li1  1  -0.00000003  0.49999902  0.49999800  1
  Li  Li2  1  0.50084393  0.78250803  0.57671799  1
  Li  Li3  1  0.99750595  0.10990800  0.69630400  1
  Mn  Mn4  1  0.50000698  0.00000100  0.00000800  1
  Mn  Mn5  1  0.02193095  0.69158903  0.89841499  1
  Mn  Mn6  1  0.97807294  0.30840601  0.10159000  1
  Co  Co7  1  0.00248694  0.89009504  0.30369799  1
  O  O8  1  0.77666996  0.06672200  0.85376800  1
  O  O9  1  0.21988798  0.10712800  0.53296200  1
  O  O10  1  0.22533497  0.31162701  0.94892899  1
  O  O11  1  0.75870795  0.20669601  0.23459300  1
  O  O12  1  0.80966294  0.45065802  0.66613799  1
  O  O13  1  0.19033696  0.54934202  0.33385900  1
  O  O14  1  0.24129494  0.79330803  0.76540899  1
  O  O15  1  0.77466592  0.68837203  0.05107000  1
  O  O16  1  0.78010891  0.89287004  0.46703299  1
  O  O17  1  0.22332993  0.93327904  0.14623100  1
