# generated using pymatgen
data_Ba2SrEu(ClF)4
_symmetry_space_group_name_H-M   'P 1'
_cell_length_a   4.11642218
_cell_length_b   4.11642218
_cell_length_c   14.05130768
_cell_angle_alpha   90.00000000
_cell_angle_beta   90.00000000
_cell_angle_gamma   90.00000000
_symmetry_Int_Tables_number   1
_chemical_formula_structural   Ba2SrEu(ClF)4
_chemical_formula_sum   'Ba2 Sr1 Eu1 Cl4 F4'
_cell_volume   238.09844657
_cell_formula_units_Z   1
loop_
 _symmetry_equiv_pos_site_id
 _symmetry_equiv_pos_as_xyz
  1  'x, y, z'
loop_
 _atom_site_type_symbol
 _atom_site_label
 _atom_site_symmetry_multiplicity
 _atom_site_fract_x
 _atom_site_fract_y
 _atom_site_fract_z
 _atom_site_occupancy
  Ba  Ba0  1  0.49999998  0.49999998  0.89990002  1
  Ba  Ba1  1  0.00000000  0.00000000  0.10648900  1
  Sr  Sr2  1  0.00000000  0.00000000  0.59554501  1
  Eu  Eu3  1  0.49999998  0.49999998  0.40345701  1
  Cl  Cl4  1  0.49999998  0.49999998  0.18653900  1
  Cl  Cl5  1  0.49999998  0.49999998  0.67315502  1
  Cl  Cl6  1  0.00000000  0.00000000  0.32671601  1
  Cl  Cl7  1  0.00000000  0.00000000  0.81817002  1
  F  F8  1  0.49999998  0.00000000  0.00189500  1
  F  F9  1  0.49999998  0.00000000  0.49312001  1
  F  F10  1  0.00000000  0.49999998  0.00189500  1
  F  F11  1  0.00000000  0.49999998  0.49312001  1
