# generated using pymatgen
data_Li4HfSbO6
_symmetry_space_group_name_H-M   'P 1'
_cell_length_a   5.26663160
_cell_length_b   5.26663160
_cell_length_c   5.41137362
_cell_angle_alpha   101.52931213
_cell_angle_beta   101.52931213
_cell_angle_gamma   117.83917236
_symmetry_Int_Tables_number   1
_chemical_formula_structural   Li4HfSbO6
_chemical_formula_sum   'Li4 Hf1 Sb1 O6'
_cell_volume   122.37439676
_cell_formula_units_Z   1
loop_
 _symmetry_equiv_pos_site_id
 _symmetry_equiv_pos_as_xyz
  1  'x, y, z'
loop_
 _atom_site_type_symbol
 _atom_site_label
 _atom_site_symmetry_multiplicity
 _atom_site_fract_x
 _atom_site_fract_y
 _atom_site_fract_z
 _atom_site_occupancy
  Li  Li0  1  0.07580803  0.92419203  0.25000006  1
  Li  Li1  1  0.75817502  0.24182501  0.25000006  1
  Li  Li2  1  0.92419201  0.07580800  0.75000007  1
  Li  Li3  1  0.24182503  0.75817502  0.75000008  1
  Hf  Hf4  1  0.40922202  0.59077802  0.25000006  1
  Sb  Sb5  1  0.59077802  0.40922201  0.75000007  1
  O  O6  1  0.80289203  0.65187202  0.51535209  1
  O  O7  1  0.65187203  0.80289202  0.01535207  1
  O  O8  1  0.50000001  0.00000000  0.50000004  1
  O  O9  1  0.19710801  0.34812801  0.48464804  1
  O  O10  1  0.00000002  0.50000001  0.00000003  1
  O  O11  1  0.34812801  0.19710801  0.98464806  1
