# generated using pymatgen
data_CdGeSe2
_symmetry_space_group_name_H-M   'P 1'
_cell_length_a   4.29590845
_cell_length_b   4.29590893
_cell_length_c   6.96027088
_cell_angle_alpha   90.00286865
_cell_angle_beta   90.00286865
_cell_angle_gamma   60.00705338
_symmetry_Int_Tables_number   1
_chemical_formula_structural   CdGeSe2
_chemical_formula_sum   'Cd1 Ge1 Se2'
_cell_volume   111.24941074
_cell_formula_units_Z   1
loop_
 _symmetry_equiv_pos_site_id
 _symmetry_equiv_pos_as_xyz
  1  'x, y, z'
loop_
 _atom_site_type_symbol
 _atom_site_label
 _atom_site_symmetry_multiplicity
 _atom_site_fract_x
 _atom_site_fract_y
 _atom_site_fract_z
 _atom_site_occupancy
  Ge  Ge0  1  0.66666668  0.66672838  0.00184602  1
  Cd  Cd1  1  0.33333334  0.33333336  0.49828602  1
  Se  Se2  1  0.33333334  0.33333336  0.11154001  1
  Se  Se3  1  0.66666668  0.66666671  0.63832903  1
