# generated using pymatgen
data_YMn(BiO2)4
_symmetry_space_group_name_H-M   'P 1'
_cell_length_a   6.80764914
_cell_length_b   6.80764914
_cell_length_c   6.80765009
_cell_angle_alpha   60.29690933
_cell_angle_beta   60.29690933
_cell_angle_gamma   60.29691315
_symmetry_Int_Tables_number   1
_chemical_formula_structural   YMn(BiO2)4
_chemical_formula_sum   'Y1 Mn1 Bi4 O8'
_cell_volume   224.58710466
_cell_formula_units_Z   1
loop_
 _symmetry_equiv_pos_site_id
 _symmetry_equiv_pos_as_xyz
  1  'x, y, z'
loop_
 _atom_site_type_symbol
 _atom_site_label
 _atom_site_symmetry_multiplicity
 _atom_site_fract_x
 _atom_site_fract_y
 _atom_site_fract_z
 _atom_site_occupancy
  Mn  Mn0  1  0.61833405  0.61833402  0.61833397  1
  Y  Y1  1  0.24905602  0.24905601  0.24905599  1
  Bi  Bi2  1  0.00039900  0.00039900  0.00039900  1
  Bi  Bi3  1  0.61957905  0.61957902  0.13732796  1
  Bi  Bi4  1  0.61957903  0.13732800  0.61957899  1
  Bi  Bi5  1  0.13732803  0.61957902  0.61957898  1
  O  O6  1  0.86610507  0.86610503  0.86610496  1
  O  O7  1  0.85872007  0.85872002  0.40698395  1
  O  O8  1  0.85872005  0.40698401  0.85871998  1
  O  O9  1  0.40698405  0.85872002  0.85871997  1
  O  O10  1  0.37487303  0.37487301  0.37487298  1
  O  O11  1  0.38399203  0.38399201  0.87233699  1
  O  O12  1  0.38399205  0.87233703  0.38399196  1
  O  O13  1  0.87233705  0.38399201  0.38399197  1
