# generated using pymatgen
data_CsCu(AgSe2)2
_symmetry_space_group_name_H-M   'P 1'
_cell_length_a   6.70469618
_cell_length_b   6.71179247
_cell_length_c   6.71179247
_cell_angle_alpha   104.57593536
_cell_angle_beta   119.96502686
_cell_angle_gamma   60.03496933
_symmetry_Int_Tables_number   1
_chemical_formula_structural   CsCu(AgSe2)2
_chemical_formula_sum   'Cs1 Cu1 Ag2 Se4'
_cell_volume   226.68429013
_cell_formula_units_Z   1
loop_
 _symmetry_equiv_pos_site_id
 _symmetry_equiv_pos_as_xyz
  1  'x, y, z'
loop_
 _atom_site_type_symbol
 _atom_site_label
 _atom_site_symmetry_multiplicity
 _atom_site_fract_x
 _atom_site_fract_y
 _atom_site_fract_z
 _atom_site_occupancy
  Cs  Cs0  1  0.00000000  0.00000000  0.00000000  1
  Ag  Ag1  1  0.00000001  0.50000002  0.50000005  1
  Ag  Ag2  1  0.49999997  0.00000000  -0.00000003  1
  Cu  Cu3  1  0.49999998  0.50000002  0.50000002  1
  Se  Se4  1  0.43505598  0.16757001  0.49904300  1
  Se  Se5  1  0.10358301  0.83243003  0.50095707  1
  Se  Se6  1  0.89641696  0.50095702  0.83243001  1
  Se  Se7  1  0.56494398  0.49904302  0.16757001  1
