# generated using pymatgen
data_Na2SbCl3O
_symmetry_space_group_name_H-M   'P 1'
_cell_length_a   3.90197206
_cell_length_b   6.82735491
_cell_length_c   6.82735491
_cell_angle_alpha   109.80180359
_cell_angle_beta   90.00000000
_cell_angle_gamma   90.00000000
_symmetry_Int_Tables_number   1
_chemical_formula_structural   Na2SbCl3O
_chemical_formula_sum   'Na2 Sb1 Cl3 O1'
_cell_volume   171.12709720
_cell_formula_units_Z   1
loop_
 _symmetry_equiv_pos_site_id
 _symmetry_equiv_pos_as_xyz
  1  'x, y, z'
loop_
 _atom_site_type_symbol
 _atom_site_label
 _atom_site_symmetry_multiplicity
 _atom_site_fract_x
 _atom_site_fract_y
 _atom_site_fract_z
 _atom_site_occupancy
  Na  Na0  1  0.49999999  0.49999999  0.99999999  1
  Na  Na1  1  0.49999999  0.00000000  0.49999998  1
  Sb  Sb2  1  0.00000000  0.00000000  0.00000000  1
  Cl  Cl3  1  0.49999999  0.76025299  0.76025301  1
  Cl  Cl4  1  0.49999999  0.23974700  0.23974700  1
  Cl  Cl5  1  -0.00000000  0.75804899  0.24195103  1
  O  O6  1  -0.00000000  0.24195100  0.75804898  1
