# generated using pymatgen
data_NaFeO2F
_symmetry_space_group_name_H-M   'P 1'
_cell_length_a   3.88060498
_cell_length_b   5.64129782
_cell_length_c   5.69048595
_cell_angle_alpha   90.00000000
_cell_angle_beta   90.00000000
_cell_angle_gamma   90.00000000
_symmetry_Int_Tables_number   1
_chemical_formula_structural   NaFeO2F
_chemical_formula_sum   'Na2 Fe2 O4 F2'
_cell_volume   124.57411783
_cell_formula_units_Z   2
loop_
 _symmetry_equiv_pos_site_id
 _symmetry_equiv_pos_as_xyz
  1  'x, y, z'
loop_
 _atom_site_type_symbol
 _atom_site_label
 _atom_site_symmetry_multiplicity
 _atom_site_fract_x
 _atom_site_fract_y
 _atom_site_fract_z
 _atom_site_occupancy
  Na  Na0  1  0.00000000  0.25000001  0.23427900  1
  Na  Na1  1  0.00000000  0.75000002  0.76572101  1
  Fe  Fe2  1  0.50000000  0.25000001  0.73082001  1
  Fe  Fe3  1  0.50000000  0.75000002  0.26918000  1
  O  O4  1  0.50000000  0.00000000  0.50000000  1
  O  O5  1  0.50000000  0.50000002  0.50000000  1
  O  O6  1  0.50000000  0.00000000  0.00000000  1
  F  F7  1  0.50000000  0.50000002  0.00000000  1
  F  F8  1  0.00000000  0.75000002  0.21944800  1
  O  O9  1  0.00000000  0.25000001  0.78055201  1
