# generated using pymatgen
data_BaBiPb2SeS5
_symmetry_space_group_name_H-M   'P 1'
_cell_length_a   4.30527592
_cell_length_b   8.32910728
_cell_length_c   9.88988113
_cell_angle_alpha   94.93732452
_cell_angle_beta   90.00000000
_cell_angle_gamma   104.97796631
_symmetry_Int_Tables_number   1
_chemical_formula_structural   BaBiPb2SeS5
_chemical_formula_sum   'Ba1 Bi1 Pb2 Se1 S5'
_cell_volume   341.23103287
_cell_formula_units_Z   1
loop_
 _symmetry_equiv_pos_site_id
 _symmetry_equiv_pos_as_xyz
  1  'x, y, z'
loop_
 _atom_site_type_symbol
 _atom_site_label
 _atom_site_symmetry_multiplicity
 _atom_site_fract_x
 _atom_site_fract_y
 _atom_site_fract_z
 _atom_site_occupancy
  Ba  Ba0  1  0.02579299  0.05158600  0.79088898  1
  Bi  Bi1  1  0.97420690  0.94841397  0.20911098  1
  Pb  Pb2  1  0.76383595  0.52767198  0.80610397  1
  Pb  Pb3  1  0.23616395  0.47232798  0.19389599  1
  S  S4  1  0.16809096  0.33618199  0.63231498  1
  S  S5  1  0.83190893  0.66381798  0.36768498  1
  S  S6  1  0.56671999  0.13344000  0.35676099  1
  S  S7  1  0.43327990  0.86655997  0.64323897  1
  S  S8  1  0.35782292  0.71564598  0.99722596  1
  Se  Se9  1  0.64217698  0.28435399  0.00277400  1
