# generated using pymatgen
data_SrCaNbMoO6
_symmetry_space_group_name_H-M   'P 1'
_cell_length_a   5.68074894
_cell_length_b   5.71374702
_cell_length_c   8.03295708
_cell_angle_alpha   90.00000000
_cell_angle_beta   90.03330231
_cell_angle_gamma   90.00000000
_symmetry_Int_Tables_number   1
_chemical_formula_structural   SrCaNbMoO6
_chemical_formula_sum   'Sr2 Ca2 Nb2 Mo2 O12'
_cell_volume   260.73658751
_cell_formula_units_Z   2
loop_
 _symmetry_equiv_pos_site_id
 _symmetry_equiv_pos_as_xyz
  1  'x, y, z'
loop_
 _atom_site_type_symbol
 _atom_site_label
 _atom_site_symmetry_multiplicity
 _atom_site_fract_x
 _atom_site_fract_y
 _atom_site_fract_z
 _atom_site_occupancy
  Sr  Sr0  1  0.00556400  0.27272300  0.25064301  1
  Sr  Sr1  1  0.50556401  0.72727700  0.75064303  1
  Ca  Ca2  1  0.98731501  0.21562700  0.75299403  1
  Ca  Ca3  1  0.48731501  0.78437300  0.25299401  1
  Nb  Nb4  1  0.49905501  0.25253900  0.50023102  1
  Nb  Nb5  1  0.99905501  0.74746100  0.00023100  1
  Mo  Mo6  1  0.99963201  0.74791500  0.50101902  1
  Mo  Mo7  1  0.49963201  0.25208500  0.00101900  1
  O  O8  1  0.90789501  0.73556800  0.25759101  1
  O  O9  1  0.40789500  0.26443200  0.75759103  1
  O  O10  1  0.06974800  0.77124700  0.74250003  1
  O  O11  1  0.56974801  0.22875300  0.24250001  1
  O  O12  1  0.73640101  0.97340900  0.53853602  1
  O  O13  1  0.23640100  0.02659100  0.03853600  1
  O  O14  1  0.27744400  0.53991600  0.45488202  1
  O  O15  1  0.77744401  0.46008400  0.95488204  1
  O  O16  1  0.79370201  0.47023400  0.54555402  1
  O  O17  1  0.29370200  0.52976600  0.04555400  1
  O  O18  1  0.22324400  0.01402400  0.45605002  1
  O  O19  1  0.72324401  0.98597600  0.95605004  1
