# generated using pymatgen
data_HBr2F7
_symmetry_space_group_name_H-M   'P 1'
_cell_length_a   4.62593412
_cell_length_b   5.57294321
_cell_length_c   7.24596882
_cell_angle_alpha   89.90735626
_cell_angle_beta   73.47842407
_cell_angle_gamma   89.83477020
_symmetry_Int_Tables_number   1
_chemical_formula_structural   HBr2F7
_chemical_formula_sum   'H1 Br2 F7'
_cell_volume   179.08823388
_cell_formula_units_Z   1
loop_
 _symmetry_equiv_pos_site_id
 _symmetry_equiv_pos_as_xyz
  1  'x, y, z'
loop_
 _atom_site_type_symbol
 _atom_site_label
 _atom_site_symmetry_multiplicity
 _atom_site_fract_x
 _atom_site_fract_y
 _atom_site_fract_z
 _atom_site_occupancy
  Br  Br0  1  0.02261800  0.00203400  0.98178298  1
  Br  Br1  1  0.53330097  0.49796400  0.49011897  1
  H  H2  1  0.63236997  0.49918700  0.93399196  1
  F  F3  1  0.04127900  0.00088300  0.47914799  1
  F  F4  1  0.15751095  0.89135599  0.59317498  1
  F  F5  1  0.77138296  0.49874900  0.06293497  1
  F  F6  1  0.92529194  0.88365099  0.36774096  1
  F  F7  1  0.56626696  0.69613900  0.86868496  1
  F  F8  1  0.56608198  0.30168100  0.86936396  1
  F  F9  1  0.04189799  0.22835800  0.47405899  1
