# generated using pymatgen
data_MgScAl3FeO4
_symmetry_space_group_name_H-M   'P 1'
_cell_length_a   3.49447799
_cell_length_b   3.49447823
_cell_length_c   11.70390415
_cell_angle_alpha   90.00000000
_cell_angle_beta   90.00000000
_cell_angle_gamma   120.00000000
_symmetry_Int_Tables_number   1
_chemical_formula_structural   MgScAl3FeO4
_chemical_formula_sum   'Mg1 Sc1 Al3 Fe1 O4'
_cell_volume   123.77303378
_cell_formula_units_Z   1
loop_
 _symmetry_equiv_pos_site_id
 _symmetry_equiv_pos_as_xyz
  1  'x, y, z'
loop_
 _atom_site_type_symbol
 _atom_site_label
 _atom_site_symmetry_multiplicity
 _atom_site_fract_x
 _atom_site_fract_y
 _atom_site_fract_z
 _atom_site_occupancy
  Mg  Mg0  1  0.00000000  0.00000000  0.00000000  1
  Sc  Sc1  1  0.00000000  0.00000000  0.49999999  1
  Al  Al2  1  0.66666668  0.33333334  0.74999999  1
  Al  Al3  1  0.33333337  0.66666668  0.25000000  1
  Al  Al4  1  0.66666668  0.33333334  0.91396899  1
  Fe  Fe5  1  0.00000000  0.00000000  0.74999999  1
  O  O6  1  0.66666668  0.33333334  0.58603099  1
  O  O7  1  0.00000000  0.00000000  0.25000000  1
  O  O8  1  0.33333337  0.66666668  0.08603100  1
  O  O9  1  0.33333337  0.66666668  0.41396899  1
