# generated using pymatgen
data_TiNbO4
_symmetry_space_group_name_H-M   'P 1'
_cell_length_a   4.86368990
_cell_length_b   5.14224434
_cell_length_c   5.88077688
_cell_angle_alpha   90.00000000
_cell_angle_beta   90.00000000
_cell_angle_gamma   90.72157288
_symmetry_Int_Tables_number   1
_chemical_formula_structural   TiNbO4
_chemical_formula_sum   'Ti2 Nb2 O8'
_cell_volume   147.06822373
_cell_formula_units_Z   2
loop_
 _symmetry_equiv_pos_site_id
 _symmetry_equiv_pos_as_xyz
  1  'x, y, z'
loop_
 _atom_site_type_symbol
 _atom_site_label
 _atom_site_symmetry_multiplicity
 _atom_site_fract_x
 _atom_site_fract_y
 _atom_site_fract_z
 _atom_site_occupancy
  Ti  Ti0  1  0.50000001  0.75000002  0.32889301  1
  Ti  Ti1  1  0.00000001  0.25000001  0.17064200  1
  Nb  Nb2  1  0.00000003  0.75000002  0.81409102  1
  Nb  Nb3  1  0.49999999  0.25000001  0.69410501  1
  O  O4  1  0.77673099  0.57228601  0.11211500  1
  O  O5  1  0.22326902  0.92771402  0.11211500  1
  O  O6  1  0.21281601  0.43263401  0.89213002  1
  O  O7  1  0.78718397  0.06736600  0.89213002  1
  O  O8  1  0.73960297  0.09093500  0.37421701  1
  O  O9  1  0.26039700  0.40906501  0.37421701  1
  O  O10  1  0.26631602  0.90533502  0.61767201  1
  O  O11  1  0.73368399  0.59466501  0.61767201  1
