# generated using pymatgen
data_LiMnCoO3
_symmetry_space_group_name_H-M   'P 1'
_cell_length_a   2.95248199
_cell_length_b   5.91833353
_cell_length_c   6.61028957
_cell_angle_alpha   103.25748444
_cell_angle_beta   102.90438080
_cell_angle_gamma   90.00000000
_symmetry_Int_Tables_number   1
_chemical_formula_structural   LiMnCoO3
_chemical_formula_sum   'Li2 Mn2 Co2 O6'
_cell_volume   109.42911073
_cell_formula_units_Z   2
loop_
 _symmetry_equiv_pos_site_id
 _symmetry_equiv_pos_as_xyz
  1  'x, y, z'
loop_
 _atom_site_type_symbol
 _atom_site_label
 _atom_site_symmetry_multiplicity
 _atom_site_fract_x
 _atom_site_fract_y
 _atom_site_fract_z
 _atom_site_occupancy
  Li  Li0  1  0.49999999  0.50000000  0.00000001  1
  Li  Li1  1  0.82876299  0.16395400  0.65752600  1
  Mn  Mn2  1  0.17123699  0.83604601  0.34247404  1
  Mn  Mn3  1  0.50000000  0.00000000  -0.00000001  1
  Co  Co4  1  0.83230599  0.66666667  0.66461202  1
  Co  Co5  1  0.16769400  0.33333334  0.33538802  1
  O  O6  1  0.33502199  0.90457001  0.67004404  1
  O  O7  1  0.67161999  0.57010400  0.34324001  1
  O  O8  1  0.66497799  0.09543000  0.32995599  1
  O  O9  1  0.00322300  0.23849500  0.00644601  1
  O  O10  1  0.99677698  0.76150500  0.99355403  1
  O  O11  1  0.32837999  0.42989600  0.65676003  1
