# generated using pymatgen
data_LiCuO3
_symmetry_space_group_name_H-M   'P 1'
_cell_length_a   5.79759836
_cell_length_b   7.64851189
_cell_length_c   7.64851189
_cell_angle_alpha   83.53101349
_cell_angle_beta   68.56626129
_cell_angle_gamma   68.56626129
_symmetry_Int_Tables_number   1
_chemical_formula_structural   LiCuO3
_chemical_formula_sum   'Li4 Cu4 O12'
_cell_volume   293.78310717
_cell_formula_units_Z   4
loop_
 _symmetry_equiv_pos_site_id
 _symmetry_equiv_pos_as_xyz
  1  'x, y, z'
loop_
 _atom_site_type_symbol
 _atom_site_label
 _atom_site_symmetry_multiplicity
 _atom_site_fract_x
 _atom_site_fract_y
 _atom_site_fract_z
 _atom_site_occupancy
  Li  Li0  1  0.74999999  0.68527600  0.31472398  1
  Li  Li1  1  0.25000000  0.31472400  0.68527599  1
  Li  Li2  1  0.74999999  0.30256400  0.69743598  1
  Li  Li3  1  0.24999999  0.69743600  0.30256398  1
  Cu  Cu4  1  0.71305999  0.69399600  0.88253197  1
  Cu  Cu5  1  0.28693999  0.30600400  0.11746799  1
  Cu  Cu6  1  0.78693999  0.11746800  0.30600399  1
  Cu  Cu7  1  0.21305999  0.88253199  0.69399598  1
  O  O8  1  0.87465998  0.88783599  0.35921498  1
  O  O9  1  0.62533999  0.64078500  0.11216398  1
  O  O10  1  0.12534000  0.11216400  0.64078499  1
  O  O11  1  0.12271999  0.50273700  0.25514899  1
  O  O12  1  0.07633400  0.16772300  0.16340800  1
  O  O13  1  0.62271999  0.25514900  0.50273699  1
  O  O14  1  0.37465999  0.35921500  0.88783598  1
  O  O15  1  0.37727999  0.74485100  0.49726298  1
  O  O16  1  0.42366599  0.83659199  0.83227698  1
  O  O17  1  0.87727999  0.49726300  0.74485098  1
  O  O18  1  0.57633399  0.16340800  0.16772299  1
  O  O19  1  0.92366598  0.83227699  0.83659197  1
