# generated using pymatgen
data_TlB2H3BrNO4
_symmetry_space_group_name_H-M   'P 1'
_cell_length_a   4.36920786
_cell_length_b   6.09130001
_cell_length_c   6.09130001
_cell_angle_alpha   90.00000000
_cell_angle_beta   90.00000000
_cell_angle_gamma   90.00000000
_symmetry_Int_Tables_number   1
_chemical_formula_structural   TlB2H3BrNO4
_chemical_formula_sum   'Tl1 B2 H3 Br1 N1 O4'
_cell_volume   162.11480799
_cell_formula_units_Z   1
loop_
 _symmetry_equiv_pos_site_id
 _symmetry_equiv_pos_as_xyz
  1  'x, y, z'
loop_
 _atom_site_type_symbol
 _atom_site_label
 _atom_site_symmetry_multiplicity
 _atom_site_fract_x
 _atom_site_fract_y
 _atom_site_fract_z
 _atom_site_occupancy
  B  B0  1  0.00000000  0.50000000  0.50000000  1
  N  N1  1  0.00000000  0.00000000  0.00000000  1
  Tl  Tl2  1  0.81011403  0.00000000  0.18875200  1
  B  B3  1  0.81011403  0.31124800  0.50000000  1
  H  H4  1  0.18988601  0.50000000  0.68875200  1
  Br  Br5  1  0.18988601  0.18875200  0.00000000  1
  O  O6  1  0.18988601  0.81124800  0.00000000  1
  H  H7  1  0.18988601  0.50000000  0.31124800  1
  O  O8  1  0.81011403  0.00000000  0.81124800  1
  H  H9  1  0.81011403  0.68875200  0.50000000  1
  O  O10  1  0.40516401  0.00000000  0.50000000  1
  O  O11  1  0.59483602  0.50000000  0.00000000  1
