# generated using pymatgen
data_AlFeSe2
_symmetry_space_group_name_H-M   'P 1'
_cell_length_a   3.85048199
_cell_length_b   3.85048175
_cell_length_c   6.36568594
_cell_angle_alpha   90.00000000
_cell_angle_beta   90.00000000
_cell_angle_gamma   120.00000000
_symmetry_Int_Tables_number   1
_chemical_formula_structural   AlFeSe2
_chemical_formula_sum   'Al1 Fe1 Se2'
_cell_volume   81.73461197
_cell_formula_units_Z   1
loop_
 _symmetry_equiv_pos_site_id
 _symmetry_equiv_pos_as_xyz
  1  'x, y, z'
loop_
 _atom_site_type_symbol
 _atom_site_label
 _atom_site_symmetry_multiplicity
 _atom_site_fract_x
 _atom_site_fract_y
 _atom_site_fract_z
 _atom_site_occupancy
  Al  Al0  1  0.66666666  0.33333333  0.93704401  1
  Fe  Fe1  1  0.33333331  0.66666666  0.43704400  1
  Se  Se2  1  0.66666666  0.33333333  0.56295601  1
  Se  Se3  1  0.33333331  0.66666666  0.06295600  1
