# generated using pymatgen
data_CsTeO3
_symmetry_space_group_name_H-M   'P 1'
_cell_length_a   4.87201309
_cell_length_b   6.05753994
_cell_length_c   7.53740263
_cell_angle_alpha   90.00000000
_cell_angle_beta   107.37981415
_cell_angle_gamma   90.00000000
_symmetry_Int_Tables_number   1
_chemical_formula_structural   CsTeO3
_chemical_formula_sum   'Cs2 Te2 O6'
_cell_volume   212.29126962
_cell_formula_units_Z   2
loop_
 _symmetry_equiv_pos_site_id
 _symmetry_equiv_pos_as_xyz
  1  'x, y, z'
loop_
 _atom_site_type_symbol
 _atom_site_label
 _atom_site_symmetry_multiplicity
 _atom_site_fract_x
 _atom_site_fract_y
 _atom_site_fract_z
 _atom_site_occupancy
  Cs  Cs0  1  0.65291098  0.75000001  0.80870097  1
  Cs  Cs1  1  0.34708899  0.25000000  0.19129899  1
  Te  Te2  1  0.95070397  0.75000001  0.34688297  1
  Te  Te3  1  0.04929600  0.25000000  0.65311699  1
  O  O4  1  0.82822597  0.97076901  0.16412297  1
  O  O5  1  0.17177399  0.47076900  0.83587698  1
  O  O6  1  0.67640898  0.25000000  0.67650797  1
  O  O7  1  0.32359099  0.75000001  0.32349199  1
  O  O8  1  0.17177399  0.02923100  0.83587698  1
  O  O9  1  0.82822597  0.52923101  0.16412297  1
