# generated using pymatgen
data_Li2CoO3
_symmetry_space_group_name_H-M   'P 1'
_cell_length_a   3.06636405
_cell_length_b   6.06149197
_cell_length_c   6.70706081
_cell_angle_alpha   103.36437988
_cell_angle_beta   103.21420288
_cell_angle_gamma   90.00000000
_symmetry_Int_Tables_number   1
_chemical_formula_structural   Li2CoO3
_chemical_formula_sum   'Li4 Co2 O6'
_cell_volume   117.89125583
_cell_formula_units_Z   2
loop_
 _symmetry_equiv_pos_site_id
 _symmetry_equiv_pos_as_xyz
  1  'x, y, z'
loop_
 _atom_site_type_symbol
 _atom_site_label
 _atom_site_symmetry_multiplicity
 _atom_site_fract_x
 _atom_site_fract_y
 _atom_site_fract_z
 _atom_site_occupancy
  Li  Li0  1  0.00000000  0.00000000  0.00000000  1
  Li  Li1  1  0.32561699  0.66880801  0.65123402  1
  Li  Li2  1  0.67438298  0.33119200  0.34876600  1
  Li  Li3  1  0.32464199  0.15084100  0.64928400  1
  Co  Co4  1  0.67535798  0.84915901  0.35071602  1
  Co  Co5  1  0.00000000  0.50000001  0.00000002  1
  O  O6  1  0.83764798  0.40028400  0.67529600  1
  O  O7  1  0.16923000  0.07700400  0.33846000  1
  O  O8  1  0.16235200  0.59971601  0.32470402  1
  O  O9  1  0.50239299  0.74135901  0.00478602  1
  O  O10  1  0.49760699  0.25864100  0.99521400  1
  O  O11  1  0.83076998  0.92299601  0.66154002  1
