# generated using pymatgen
data_NdTiO3
_symmetry_space_group_name_H-M   'P 1'
_cell_length_a   5.40053511
_cell_length_b   5.60652494
_cell_length_c   7.76219511
_cell_angle_alpha   90.00000000
_cell_angle_beta   90.00000000
_cell_angle_gamma   90.00000000
_symmetry_Int_Tables_number   1
_chemical_formula_structural   NdTiO3
_chemical_formula_sum   'Nd4 Ti4 O12'
_cell_volume   235.02556602
_cell_formula_units_Z   4
loop_
 _symmetry_equiv_pos_site_id
 _symmetry_equiv_pos_as_xyz
  1  'x, y, z'
loop_
 _atom_site_type_symbol
 _atom_site_label
 _atom_site_symmetry_multiplicity
 _atom_site_fract_x
 _atom_site_fract_y
 _atom_site_fract_z
 _atom_site_occupancy
  Nd  Nd0  1  0.01642400  0.94045201  0.74999999  1
  Nd  Nd1  1  0.51642399  0.55954801  0.25000000  1
  Nd  Nd2  1  0.48357699  0.44045200  0.74999999  1
  Nd  Nd3  1  0.98357598  0.05954800  0.25000000  1
  Ti  Ti4  1  0.49999999  0.00000000  0.49999999  1
  Ti  Ti5  1  0.00000000  0.50000000  0.49999999  1
  Ti  Ti6  1  0.00000000  0.50000000  0.00000000  1
  Ti  Ti7  1  0.49999999  0.00000000  -0.00000000  1
  O  O8  1  0.69600399  0.29999200  0.44551099  1
  O  O9  1  0.19600400  0.20000800  0.55448899  1
  O  O10  1  0.80399598  0.79999201  0.05448900  1
  O  O11  1  0.30399599  0.70000801  0.94551099  1
  O  O12  1  0.30399599  0.70000801  0.55448899  1
  O  O13  1  0.80399598  0.79999201  0.44551099  1
  O  O14  1  0.19600400  0.20000800  0.94551099  1
  O  O15  1  0.69600399  0.29999200  0.05448900  1
  O  O16  1  0.10493800  0.46349000  0.25000000  1
  O  O17  1  0.60493799  0.03651000  0.74999999  1
  O  O18  1  0.39506199  0.96349001  0.25000000  1
  O  O19  1  0.89506198  0.53651001  0.74999999  1
