# generated using pymatgen
data_LiLa(CO2)4
_symmetry_space_group_name_H-M   'P 1'
_cell_length_a   5.41188383
_cell_length_b   5.90610313
_cell_length_c   6.00057173
_cell_angle_alpha   112.92675781
_cell_angle_beta   90.00000000
_cell_angle_gamma   90.00000000
_symmetry_Int_Tables_number   1
_chemical_formula_structural   LiLa(CO2)4
_chemical_formula_sum   'Li1 La1 C4 O8'
_cell_volume   176.64585116
_cell_formula_units_Z   1
loop_
 _symmetry_equiv_pos_site_id
 _symmetry_equiv_pos_as_xyz
  1  'x, y, z'
loop_
 _atom_site_type_symbol
 _atom_site_label
 _atom_site_symmetry_multiplicity
 _atom_site_fract_x
 _atom_site_fract_y
 _atom_site_fract_z
 _atom_site_occupancy
  La  La0  1  0.00000000  0.00000000  0.00000000  1
  Li  Li1  1  0.50000002  0.50000000  0.50000001  1
  C  C2  1  0.88235103  0.53791200  0.08216603  1
  C  C3  1  0.11764900  0.46208800  0.91783400  1
  C  C4  1  0.61764902  0.03791200  0.58216598  1
  C  C5  1  0.38235101  0.96208800  0.41783405  1
  O  O6  1  0.27866301  0.76065900  0.38621303  1
  O  O7  1  0.69275902  0.88907600  0.67516503  1
  O  O8  1  0.30724101  0.11092400  0.32483500  1
  O  O9  1  0.80724103  0.38907600  0.17516502  1
  O  O10  1  0.72133702  0.23934100  0.61378700  1
  O  O11  1  0.77866302  0.73934100  0.11378704  1
  O  O12  1  0.19275901  0.61092400  0.82483501  1
  O  O13  1  0.22133701  0.26065900  0.88621299  1
