# generated using pymatgen
data_Rb3AuF2
_symmetry_space_group_name_H-M   'P 1'
_cell_length_a   4.23863220
_cell_length_b   7.40835476
_cell_length_c   8.72431755
_cell_angle_alpha   103.53771973
_cell_angle_beta   90.00000000
_cell_angle_gamma   106.62287903
_symmetry_Int_Tables_number   1
_chemical_formula_structural   Rb3AuF2
_chemical_formula_sum   'Rb3 Au1 F2'
_cell_volume   254.55215912
_cell_formula_units_Z   1
loop_
 _symmetry_equiv_pos_site_id
 _symmetry_equiv_pos_as_xyz
  1  'x, y, z'
loop_
 _atom_site_type_symbol
 _atom_site_label
 _atom_site_symmetry_multiplicity
 _atom_site_fract_x
 _atom_site_fract_y
 _atom_site_fract_z
 _atom_site_occupancy
  Rb  Rb0  1  0.83529089  0.67058200  0.30222696  1
  Rb  Rb1  1  0.16470896  0.32941800  0.69777297  1
  Au  Au2  1  0.56528896  0.13057800  0.31364299  1
  Rb  Rb3  1  0.90476688  0.80953400  0.89249495  1
  F  F4  1  0.09523298  0.19046600  0.10750499  1
  F  F5  1  0.43471089  0.86942200  0.68635695  1
