# generated using pymatgen
data_SrIn3As3P4Se9
_symmetry_space_group_name_H-M   'P 1'
_cell_length_a   7.03999996
_cell_length_b   8.08707809
_cell_length_c   10.19709301
_cell_angle_alpha   90.00000000
_cell_angle_beta   88.95087433
_cell_angle_gamma   90.00000000
_symmetry_Int_Tables_number   1
_chemical_formula_structural   SrIn3As3P4Se9
_chemical_formula_sum   'Sr1 In3 As3 P4 Se9'
_cell_volume   580.45407552
_cell_formula_units_Z   1
loop_
 _symmetry_equiv_pos_site_id
 _symmetry_equiv_pos_as_xyz
  1  'x, y, z'
loop_
 _atom_site_type_symbol
 _atom_site_label
 _atom_site_symmetry_multiplicity
 _atom_site_fract_x
 _atom_site_fract_y
 _atom_site_fract_z
 _atom_site_occupancy
  In  In0  1  0.81290800  0.21979000  0.00345203  1
  Sr  Sr1  1  0.18709200  0.71978999  0.99654805  1
  In  In2  1  0.68446700  0.50388399  0.48299604  1
  In  In3  1  0.31553300  0.00388400  0.51700403  1
  P  P4  1  0.70127700  0.71213699  0.19396003  1
  P  P5  1  0.29872300  0.21213700  0.80604004  1
  As  As6  1  0.80360800  0.92354799  0.32303804  1
  As  As7  1  0.19639200  0.42354800  0.67696203  1
  P  P8  1  0.92829300  0.51894199  0.75818806  1
  P  P9  1  0.07170700  0.01894200  0.24181201  1
  Se  Se10  1  0.84281500  0.80290699  0.52193005  1
  As  As11  1  0.15718500  0.30290700  0.47807002  1
  Se  Se12  1  0.91252100  0.51597399  0.22871004  1
  Se  Se13  1  0.08747900  0.01597400  0.77129003  1
  Se  Se14  1  0.33540100  0.30175200  0.00159601  1
  Se  Se15  1  0.66459900  0.80175199  0.99840406  1
  Se  Se16  1  0.43902700  0.63103799  0.30593603  1
  Se  Se17  1  0.56097300  0.13103800  0.69406405  1
  Se  Se18  1  0.57906000  0.11869800  0.32466803  1
  Se  Se19  1  0.42094000  0.61869799  0.67533204  1
