# generated using pymatgen
data_Na4CoO4
_symmetry_space_group_name_H-M   'P 1'
_cell_length_a   5.76200008
_cell_length_b   5.76940918
_cell_length_c   8.74029922
_cell_angle_alpha   81.43624878
_cell_angle_beta   71.35358429
_cell_angle_gamma   68.39711761
_symmetry_Int_Tables_number   1
_chemical_formula_structural   Na4CoO4
_chemical_formula_sum   'Na8 Co2 O8'
_cell_volume   255.80676107
_cell_formula_units_Z   2
loop_
 _symmetry_equiv_pos_site_id
 _symmetry_equiv_pos_as_xyz
  1  'x, y, z'
loop_
 _atom_site_type_symbol
 _atom_site_label
 _atom_site_symmetry_multiplicity
 _atom_site_fract_x
 _atom_site_fract_y
 _atom_site_fract_z
 _atom_site_occupancy
  Na  Na0  1  0.94637297  0.24344199  0.60055201  1
  Na  Na1  1  0.52077199  0.26477499  0.43278700  1
  Na  Na2  1  0.60737499  0.73166698  0.18248600  1
  Na  Na3  1  0.24131400  0.75402598  0.98801995  1
  Na  Na4  1  0.75868598  0.24597399  0.01198002  1
  Na  Na5  1  0.47922799  0.73522498  0.56721298  1
  Na  Na6  1  0.05362701  0.75655798  0.39944797  1
  Na  Na7  1  0.39262499  0.26833299  0.81751397  1
  Co  Co8  1  0.84376498  0.72089498  0.75772598  1
  Co  Co9  1  0.15623500  0.27910499  0.24227399  1
  O  O10  1  0.85036498  0.84571898  0.93133697  1
  O  O11  1  0.70454499  0.97278598  0.62413798  1
  O  O12  1  0.29545499  0.02721400  0.37586200  1
  O  O13  1  0.36231699  0.47092699  0.19620599  1
  O  O14  1  0.63768299  0.52907299  0.80379398  1
  O  O15  1  0.16367300  0.52834299  0.63859997  1
  O  O16  1  0.14963500  0.15428100  0.06866300  1
  O  O17  1  0.83632698  0.47165699  0.36140001  1
