# generated using pymatgen
data_NaAl3(CO3)4
_symmetry_space_group_name_H-M   'P 1'
_cell_length_a   6.14443445
_cell_length_b   6.14443445
_cell_length_c   6.14443493
_cell_angle_alpha   102.95625305
_cell_angle_beta   102.95625305
_cell_angle_gamma   102.95625305
_symmetry_Int_Tables_number   1
_chemical_formula_structural   NaAl3(CO3)4
_chemical_formula_sum   'Na1 Al3 C4 O12'
_cell_volume   210.91489127
_cell_formula_units_Z   1
loop_
 _symmetry_equiv_pos_site_id
 _symmetry_equiv_pos_as_xyz
  1  'x, y, z'
loop_
 _atom_site_type_symbol
 _atom_site_label
 _atom_site_symmetry_multiplicity
 _atom_site_fract_x
 _atom_site_fract_y
 _atom_site_fract_z
 _atom_site_occupancy
  Na  Na0  1  0.00000000  0.00000000  0.00000000  1
  Al  Al1  1  0.54254102  0.00000000  0.45745904  1
  Al  Al2  1  0.00000002  0.45745902  0.54254104  1
  Al  Al3  1  0.45745904  0.54254103  1.00000008  1
  C  C4  1  0.95665106  0.50000002  0.04334909  1
  C  C5  1  0.50000002  0.04334900  0.95665104  1
  C  C6  1  0.04334905  0.95665105  0.50000008  1
  C  C7  1  0.50000004  0.50000002  0.50000007  1
  O  O8  1  0.80848106  0.61935403  0.02502709  1
  O  O9  1  0.19151906  0.97497305  0.38064609  1
  O  O10  1  0.38064602  0.19151901  0.97497305  1
  O  O11  1  0.97497305  0.38064602  0.19151909  1
  O  O12  1  0.63496704  0.36503302  0.50000007  1
  O  O13  1  0.50000005  0.63496703  0.36503308  1
  O  O14  1  0.36503304  0.50000002  0.63496706  1
  O  O15  1  0.90790204  0.09209800  0.50000006  1
  O  O16  1  0.50000006  0.90790204  0.09209810  1
  O  O17  1  0.09209803  0.50000002  0.90790205  1
  O  O18  1  0.02502704  0.80848104  0.61935407  1
  O  O19  1  0.61935402  0.02502700  0.80848105  1
