# generated using pymatgen
data_Li6CuF7
_symmetry_space_group_name_H-M   'P 1'
_cell_length_a   5.96780443
_cell_length_b   5.96780443
_cell_length_c   5.96780443
_cell_angle_alpha   60.00000000
_cell_angle_beta   60.00000000
_cell_angle_gamma   60.00000000
_symmetry_Int_Tables_number   1
_chemical_formula_structural   Li6CuF7
_chemical_formula_sum   'Li6 Cu1 F7'
_cell_volume   150.28953824
_cell_formula_units_Z   1
loop_
 _symmetry_equiv_pos_site_id
 _symmetry_equiv_pos_as_xyz
  1  'x, y, z'
loop_
 _atom_site_type_symbol
 _atom_site_label
 _atom_site_symmetry_multiplicity
 _atom_site_fract_x
 _atom_site_fract_y
 _atom_site_fract_z
 _atom_site_occupancy
  Li  Li0  1  0.25000000  0.25000000  0.25000000  1
  Li  Li1  1  0.50000000  0.50000000  0.50000000  1
  Li  Li2  1  0.87500000  0.37500000  0.87500000  1
  Li  Li3  1  0.87500000  0.87500000  0.87500000  1
  Li  Li4  1  0.37500000  0.87500000  0.87500000  1
  Li  Li5  1  0.87500000  0.87500000  0.37500000  1
  F  F6  1  0.63516900  0.63517000  0.63517000  1
  Cu  Cu7  1  0.09449000  0.63517000  0.63517000  1
  F  F8  1  0.63516900  0.63517000  0.09449100  1
  F  F9  1  0.11483100  0.65550900  0.11483000  1
  F  F10  1  0.11483100  0.11483000  0.65550900  1
  F  F11  1  0.65551000  0.11483000  0.11483000  1
  F  F12  1  0.63516900  0.09449100  0.63517000  1
  F  F13  1  0.11483100  0.11483000  0.11483000  1
