# generated using pymatgen
data_SrTiO3
_symmetry_space_group_name_H-M   'P 1'
_cell_length_a   5.52965117
_cell_length_b   5.58393383
_cell_length_c   7.86973000
_cell_angle_alpha   90.00000000
_cell_angle_beta   90.00000000
_cell_angle_gamma   90.00000000
_symmetry_Int_Tables_number   1
_chemical_formula_structural   SrTiO3
_chemical_formula_sum   'Sr4 Ti4 O12'
_cell_volume   242.99527589
_cell_formula_units_Z   4
loop_
 _symmetry_equiv_pos_site_id
 _symmetry_equiv_pos_as_xyz
  1  'x, y, z'
loop_
 _atom_site_type_symbol
 _atom_site_label
 _atom_site_symmetry_multiplicity
 _atom_site_fract_x
 _atom_site_fract_y
 _atom_site_fract_z
 _atom_site_occupancy
  Sr  Sr0  1  0.99709597  0.98001603  0.75000000  1
  Sr  Sr1  1  0.00290400  0.01998400  0.25000000  1
  Sr  Sr2  1  0.50290398  0.48001601  0.75000000  1
  Sr  Sr3  1  0.49709599  0.51998402  0.25000000  1
  Ti  Ti4  1  0.49999999  0.00000000  0.50000000  1
  Ti  Ti5  1  0.49999999  0.00000000  -0.00000000  1
  Ti  Ti6  1  0.00000000  0.50000002  0.50000000  1
  Ti  Ti7  1  0.00000000  0.50000002  -0.00000000  1
  O  O8  1  0.21489999  0.78453202  0.46905500  1
  O  O9  1  0.78509998  0.21546801  0.96905500  1
  O  O10  1  0.28509999  0.28453201  0.46905500  1
  O  O11  1  0.71489998  0.71546802  0.96905500  1
  O  O12  1  0.21489999  0.78453202  0.03094500  1
  O  O13  1  0.78509998  0.21546801  0.53094500  1
  O  O14  1  0.28509999  0.28453201  0.03094500  1
  O  O15  1  0.71489998  0.71546802  0.53094500  1
  O  O16  1  0.06239800  0.51119902  0.75000000  1
  O  O17  1  0.93760197  0.48880101  0.25000000  1
  O  O18  1  0.43760199  0.01119900  0.75000000  1
  O  O19  1  0.56239798  0.98880103  0.25000000  1
