# generated using pymatgen
data_NaTl2VCl5F
_symmetry_space_group_name_H-M   'P 1'
_cell_length_a   6.67935324
_cell_length_b   6.68909883
_cell_length_c   6.75632477
_cell_angle_alpha   77.66622925
_cell_angle_beta   78.88906097
_cell_angle_gamma   105.55727386
_symmetry_Int_Tables_number   1
_chemical_formula_structural   NaTl2VCl5F
_chemical_formula_sum   'Na1 Tl2 V1 Cl5 F1'
_cell_volume   273.88691967
_cell_formula_units_Z   1
loop_
 _symmetry_equiv_pos_site_id
 _symmetry_equiv_pos_as_xyz
  1  'x, y, z'
loop_
 _atom_site_type_symbol
 _atom_site_label
 _atom_site_symmetry_multiplicity
 _atom_site_fract_x
 _atom_site_fract_y
 _atom_site_fract_z
 _atom_site_occupancy
  Tl  Tl0  1  0.00000000  0.00000000  0.50000001  1
  Tl  Tl1  1  0.50000000  0.99999997  0.00000005  1
  Na  Na2  1  -0.00000000  0.49999999  0.00000003  1
  V  V3  1  0.00000000  0.00000000  0.00000000  1
  Cl  Cl4  1  0.04757200  0.77360598  0.22687805  1
  F  F5  1  0.95242800  0.22639399  0.77312200  1
  Cl  Cl6  1  0.78732300  0.07353900  0.21151699  1
  Cl  Cl7  1  0.21267700  0.92646097  0.78848307  1
  Cl  Cl8  1  0.77133500  0.77956798  0.92067404  1
  Cl  Cl9  1  0.22866500  0.22043199  0.07932601  1
