# generated using pymatgen
data_LiAgO3
_symmetry_space_group_name_H-M   'P 1'
_cell_length_a   5.09450483
_cell_length_b   7.20713711
_cell_length_c   8.39832497
_cell_angle_alpha   112.88657379
_cell_angle_beta   90.00000000
_cell_angle_gamma   90.00000000
_symmetry_Int_Tables_number   1
_chemical_formula_structural   LiAgO3
_chemical_formula_sum   'Li4 Ag4 O12'
_cell_volume   284.08444955
_cell_formula_units_Z   4
loop_
 _symmetry_equiv_pos_site_id
 _symmetry_equiv_pos_as_xyz
  1  'x, y, z'
loop_
 _atom_site_type_symbol
 _atom_site_label
 _atom_site_symmetry_multiplicity
 _atom_site_fract_x
 _atom_site_fract_y
 _atom_site_fract_z
 _atom_site_occupancy
  Li  Li0  1  0.74017602  0.41871800  0.51217501  1
  Li  Li1  1  0.75982402  0.91871800  0.01217504  1
  Li  Li2  1  0.24017601  0.08128200  0.98782499  1
  Li  Li3  1  0.25982401  0.58128200  0.48782502  1
  Ag  Ag4  1  0.22414101  0.59014100  0.88086301  1
  Ag  Ag5  1  0.27585901  0.09014100  0.38086300  1
  Ag  Ag6  1  0.72414102  0.90985900  0.61913703  1
  Ag  Ag7  1  0.77585903  0.40985900  0.11913702  1
  O  O8  1  0.54547202  0.63030200  0.65593802  1
  O  O9  1  0.07425400  0.44259900  0.61087501  1
  O  O10  1  0.95452803  0.13030200  0.15593800  1
  O  O11  1  0.64586202  0.18206800  0.52860200  1
  O  O12  1  0.42574601  0.94259900  0.11087504  1
  O  O13  1  0.14586200  0.31793200  0.97139800  1
  O  O14  1  0.85413803  0.68206800  0.02860203  1
  O  O15  1  0.57425402  0.05740100  0.88912499  1
  O  O16  1  0.35413801  0.81793200  0.47139803  1
  O  O17  1  0.04547200  0.86969800  0.84406202  1
  O  O18  1  0.92574603  0.55740100  0.38912502  1
  O  O19  1  0.45452801  0.36969800  0.34406201  1
