# generated using pymatgen
data_Ga3CuF8
_symmetry_space_group_name_H-M   'P 1'
_cell_length_a   5.10442209
_cell_length_b   5.85117006
_cell_length_c   9.83070469
_cell_angle_alpha   90.00000000
_cell_angle_beta   90.00000000
_cell_angle_gamma   90.00000000
_symmetry_Int_Tables_number   1
_chemical_formula_structural   Ga3CuF8
_chemical_formula_sum   'Ga3 Cu1 F8'
_cell_volume   293.61210110
_cell_formula_units_Z   1
loop_
 _symmetry_equiv_pos_site_id
 _symmetry_equiv_pos_as_xyz
  1  'x, y, z'
loop_
 _atom_site_type_symbol
 _atom_site_label
 _atom_site_symmetry_multiplicity
 _atom_site_fract_x
 _atom_site_fract_y
 _atom_site_fract_z
 _atom_site_occupancy
  Ga  Ga0  1  0.99040898  0.09879500  0.07629900  1
  Ga  Ga1  1  0.49040899  0.90120499  0.92370103  1
  Cu  Cu2  1  0.99040898  0.59879499  0.92370103  1
  Ga  Ga3  1  0.49040899  0.40120500  0.07629900  1
  F  F4  1  0.09243600  0.99853499  0.31579301  1
  F  F5  1  0.59243599  0.00146500  0.68420702  1
  F  F6  1  0.09243600  0.49853499  0.68420702  1
  F  F7  1  0.59243599  0.50146499  0.31579301  1
  F  F8  1  0.14615600  0.37199000  0.02758800  1
  F  F9  1  0.64615599  0.62800999  0.97241203  1
  F  F10  1  0.14615600  0.87198999  0.97241203  1
  F  F11  1  0.64615599  0.12801000  0.02758800  1
