# generated using pymatgen
data_Rb4TiReO6
_symmetry_space_group_name_H-M   'P 1'
_cell_length_a   5.60448885
_cell_length_b   6.84873199
_cell_length_c   6.84873199
_cell_angle_alpha   111.01425934
_cell_angle_beta   90.00000000
_cell_angle_gamma   90.00000000
_symmetry_Int_Tables_number   1
_chemical_formula_structural   Rb4TiReO6
_chemical_formula_sum   'Rb4 Ti1 Re1 O6'
_cell_volume   245.39549495
_cell_formula_units_Z   1
loop_
 _symmetry_equiv_pos_site_id
 _symmetry_equiv_pos_as_xyz
  1  'x, y, z'
loop_
 _atom_site_type_symbol
 _atom_site_label
 _atom_site_symmetry_multiplicity
 _atom_site_fract_x
 _atom_site_fract_y
 _atom_site_fract_z
 _atom_site_occupancy
  Rb  Rb0  1  0.25000001  0.18219299  0.50509299  1
  Rb  Rb1  1  0.75000002  0.49490699  0.81780697  1
  Rb  Rb2  1  0.75000002  0.81780698  0.49490697  1
  Rb  Rb3  1  0.25000001  0.50509299  0.18219298  1
  Re  Re4  1  0.75000002  0.07649100  0.07649100  1
  Ti  Ti5  1  0.25000001  0.92350897  0.92350896  1
  O  O6  1  -0.00000000  0.11244100  0.88755898  1
  O  O7  1  0.50000001  0.11244100  0.88755898  1
  O  O8  1  0.25000001  0.69325098  0.69325097  1
  O  O9  1  0.75000002  0.30674899  0.30674899  1
  O  O10  1  -0.00000000  0.88755897  0.11244097  1
  O  O11  1  0.50000001  0.88755897  0.11244097  1
