# generated using pymatgen
data_RbAuS2
_symmetry_space_group_name_H-M   'P 1'
_cell_length_a   7.09673119
_cell_length_b   7.54271221
_cell_length_c   11.28954220
_cell_angle_alpha   73.20391083
_cell_angle_beta   75.56292725
_cell_angle_gamma   72.07257080
_symmetry_Int_Tables_number   1
_chemical_formula_structural   RbAuS2
_chemical_formula_sum   'Rb4 Au4 S8'
_cell_volume   541.84487858
_cell_formula_units_Z   4
loop_
 _symmetry_equiv_pos_site_id
 _symmetry_equiv_pos_as_xyz
  1  'x, y, z'
loop_
 _atom_site_type_symbol
 _atom_site_label
 _atom_site_symmetry_multiplicity
 _atom_site_fract_x
 _atom_site_fract_y
 _atom_site_fract_z
 _atom_site_occupancy
  Rb  Rb0  1  0.71739996  0.75628098  0.59458200  1
  Rb  Rb1  1  0.28259998  0.24371899  0.40541800  1
  Rb  Rb2  1  0.76446597  0.51051698  0.18840199  1
  Rb  Rb3  1  0.23553397  0.48948298  0.81159801  1
  Au  Au4  1  0.62115899  0.09110000  0.07243098  1
  Au  Au5  1  0.37884095  0.90889997  0.92756902  1
  Au  Au6  1  0.86962898  0.13221700  0.76437096  1
  Au  Au7  1  0.13037096  0.86778297  0.23562904  1
  S  S8  1  0.26505297  0.63855298  0.11033802  1
  S  S9  1  0.77152195  0.94832597  0.26938502  1
  S  S10  1  0.75476298  0.26152199  0.57190298  1
  S  S11  1  0.73494697  0.36144699  0.88966198  1
  S  S12  1  0.23838699  0.14876700  0.11795900  1
  S  S13  1  0.24523696  0.73847798  0.42809702  1
  S  S14  1  0.76161295  0.85123297  0.88204100  1
  S  S15  1  0.22847800  0.05167400  0.73061499  1
