# generated using pymatgen
data_NdHo(SeO4)2
_symmetry_space_group_name_H-M   'P 1'
_cell_length_a   6.02160835
_cell_length_b   6.02160835
_cell_length_c   6.02160835
_cell_angle_alpha   106.23201752
_cell_angle_beta   106.23201752
_cell_angle_gamma   116.16416931
_symmetry_Int_Tables_number   1
_chemical_formula_structural   NdHo(SeO4)2
_chemical_formula_sum   'Nd1 Ho1 Se2 O8'
_cell_volume   166.34019783
_cell_formula_units_Z   1
loop_
 _symmetry_equiv_pos_site_id
 _symmetry_equiv_pos_as_xyz
  1  'x, y, z'
loop_
 _atom_site_type_symbol
 _atom_site_label
 _atom_site_symmetry_multiplicity
 _atom_site_fract_x
 _atom_site_fract_y
 _atom_site_fract_z
 _atom_site_occupancy
  Nd  Nd0  1  0.00000000  0.00000000  0.00000000  1
  Ho  Ho1  1  0.75000002  0.25000001  0.50000004  1
  Se  Se2  1  0.50000001  0.50000001  0.00000003  1
  Se  Se3  1  0.25000000  0.75000002  0.50000004  1
  O  O4  1  0.24081600  0.92542502  0.31539104  1
  O  O5  1  0.67542501  0.86003402  0.18460905  1
  O  O6  1  0.67542502  0.49081601  0.81539105  1
  O  O7  1  0.61003401  0.92542502  0.68460906  1
  O  O8  1  0.07457499  0.75918402  0.68460904  1
  O  O9  1  0.13996600  0.32457501  0.81539103  1
  O  O10  1  0.50918401  0.32457501  0.18460903  1
  O  O11  1  0.07457500  0.38996601  0.31539102  1
