# generated using pymatgen
data_Li2SiP2O3
_symmetry_space_group_name_H-M   'P 1'
_cell_length_a   4.31061411
_cell_length_b   4.31061411
_cell_length_c   4.31061411
_cell_angle_alpha   98.36104584
_cell_angle_beta   98.36104584
_cell_angle_gamma   98.36105347
_symmetry_Int_Tables_number   1
_chemical_formula_structural   Li2SiP2O3
_chemical_formula_sum   'Li2 Si1 P2 O3'
_cell_volume   77.26032708
_cell_formula_units_Z   1
loop_
 _symmetry_equiv_pos_site_id
 _symmetry_equiv_pos_as_xyz
  1  'x, y, z'
loop_
 _atom_site_type_symbol
 _atom_site_label
 _atom_site_symmetry_multiplicity
 _atom_site_fract_x
 _atom_site_fract_y
 _atom_site_fract_z
 _atom_site_occupancy
  Li  Li0  1  0.50000000  0.49999999  0.49999993  1
  Li  Li1  1  0.00000000  0.00000000  0.00000000  1
  Si  Si2  1  0.06038301  0.70561199  0.70561195  1
  P  P3  1  0.70561200  0.70561199  0.06038291  1
  P  P4  1  0.70561199  0.06038300  0.70561194  1
  O  O5  1  0.93961699  0.29438800  0.29438792  1
  O  O6  1  0.29438800  0.29438800  0.93961695  1
  O  O7  1  0.29438801  0.93961699  0.29438792  1
