# generated using pymatgen
data_Li4Co2O7
_symmetry_space_group_name_H-M   'P 1'
_cell_length_a   3.00734997
_cell_length_b   7.19296551
_cell_length_c   7.19296551
_cell_angle_alpha   87.49531555
_cell_angle_beta   77.93343353
_cell_angle_gamma   77.93343353
_symmetry_Int_Tables_number   1
_chemical_formula_structural   Li4Co2O7
_chemical_formula_sum   'Li4 Co2 O7'
_cell_volume   148.79680420
_cell_formula_units_Z   1
loop_
 _symmetry_equiv_pos_site_id
 _symmetry_equiv_pos_as_xyz
  1  'x, y, z'
loop_
 _atom_site_type_symbol
 _atom_site_label
 _atom_site_symmetry_multiplicity
 _atom_site_fract_x
 _atom_site_fract_y
 _atom_site_fract_z
 _atom_site_occupancy
  Li  Li0  1  0.50000000  0.00000000  0.00000001  1
  Li  Li1  1  0.16460702  0.18351199  0.48727399  1
  Li  Li2  1  0.83539308  0.81648797  0.51272599  1
  Li  Li3  1  0.65188105  0.51272598  0.18351200  1
  Co  Co4  1  0.34811904  0.48727398  0.81648798  1
  Co  Co5  1  0.20226508  0.95237396  0.64309697  1
  O  O6  1  0.79773501  0.04762600  0.35690300  1
  O  O7  1  0.84536103  0.35690299  0.95237498  1
  O  O8  1  0.15463906  0.64309698  0.04762499  1
  O  O9  1  0.16270203  0.37700599  0.29758999  1
  O  O10  1  0.83729806  0.62299398  0.70240998  1
  O  O11  1  0.46029206  0.70240997  0.37700599  1
  O  O12  1  0.53970803  0.29758999  0.62299399  1
