# generated using pymatgen
data_NdInO3
_symmetry_space_group_name_H-M   'P 1'
_cell_length_a   5.73166084
_cell_length_b   5.97958088
_cell_length_c   8.32714272
_cell_angle_alpha   90.00000000
_cell_angle_beta   90.00000000
_cell_angle_gamma   90.00000000
_symmetry_Int_Tables_number   1
_chemical_formula_structural   NdInO3
_chemical_formula_sum   'Nd4 In4 O12'
_cell_volume   285.39557591
_cell_formula_units_Z   4
loop_
 _symmetry_equiv_pos_site_id
 _symmetry_equiv_pos_as_xyz
  1  'x, y, z'
loop_
 _atom_site_type_symbol
 _atom_site_label
 _atom_site_symmetry_multiplicity
 _atom_site_fract_x
 _atom_site_fract_y
 _atom_site_fract_z
 _atom_site_occupancy
  Nd  Nd0  1  0.01447300  0.44545001  0.25000001  1
  Nd  Nd1  1  0.98552703  0.55455001  0.75000003  1
  Nd  Nd2  1  0.51447301  0.05455000  0.75000003  1
  Nd  Nd3  1  0.48552701  0.94545002  0.25000001  1
  In  In4  1  0.00000000  0.00000000  0.00000000  1
  In  In5  1  0.50000001  0.50000001  0.00000000  1
  In  In6  1  0.00000000  0.00000000  0.50000002  1
  In  In7  1  0.50000001  0.50000001  0.50000002  1
  O  O8  1  0.31121901  0.19107700  0.06499900  1
  O  O9  1  0.68878102  0.80892302  0.93500103  1
  O  O10  1  0.81121902  0.30892301  0.93500103  1
  O  O11  1  0.68878102  0.80892302  0.56499902  1
  O  O12  1  0.18878101  0.69107701  0.06499900  1
  O  O13  1  0.31121901  0.19107700  0.43500101  1
  O  O14  1  0.18878101  0.69107701  0.43500101  1
  O  O15  1  0.81121902  0.30892301  0.56499902  1
  O  O16  1  0.62397002  0.55409701  0.25000001  1
  O  O17  1  0.37603001  0.44590301  0.75000003  1
  O  O18  1  0.12397000  0.94590302  0.75000003  1
  O  O19  1  0.87603002  0.05409700  0.25000001  1
