# generated using pymatgen
data_Cs2Nb2TeWO12
_symmetry_space_group_name_H-M   'P 1'
_cell_length_a   7.46038580
_cell_length_b   7.48925591
_cell_length_c   7.48925591
_cell_angle_alpha   60.33505249
_cell_angle_beta   60.12743759
_cell_angle_gamma   60.12743759
_symmetry_Int_Tables_number   1
_chemical_formula_structural   Cs2Nb2TeWO12
_chemical_formula_sum   'Cs2 Nb2 Te1 W1 O12'
_cell_volume   297.20039851
_cell_formula_units_Z   1
loop_
 _symmetry_equiv_pos_site_id
 _symmetry_equiv_pos_as_xyz
  1  'x, y, z'
loop_
 _atom_site_type_symbol
 _atom_site_label
 _atom_site_symmetry_multiplicity
 _atom_site_fract_x
 _atom_site_fract_y
 _atom_site_fract_z
 _atom_site_occupancy
  Cs  Cs0  1  0.48502802  0.48166501  0.98166502  1
  Cs  Cs1  1  0.94835803  0.51833501  0.01833502  1
  Nb  Nb2  1  0.00234001  0.50000001  0.50000000  1
  Nb  Nb3  1  0.00234000  0.00000000  1.00000002  1
  Te  Te4  1  0.00160300  0.00033800  0.50033901  1
  W  W5  1  0.50228103  0.99966101  0.49966100  1
  O  O6  1  0.93326502  0.31458700  0.81458704  1
  O  O7  1  0.30603603  0.94416501  0.44416599  1
  O  O8  1  0.31579903  0.93902801  0.80461800  1
  O  O9  1  0.93956002  0.30422100  0.44138703  1
  O  O10  1  0.93956004  0.94138701  0.80422102  1
  O  O11  1  0.31579901  0.30461800  0.43902801  1
  O  O12  1  0.06243902  0.68541301  0.18541299  1
  O  O13  1  0.69436801  0.05583400  0.55583403  1
  O  O14  1  0.68516801  0.05861300  0.19577902  1
  O  O15  1  0.05944502  0.69538201  0.56097199  1
  O  O16  1  0.05944500  0.06097200  0.19538200  1
  O  O17  1  0.68516803  0.69577901  0.55861301  1
