# generated using pymatgen
data_Rb4Cu5AgSeS7
_symmetry_space_group_name_H-M   'P 1'
_cell_length_a   6.40020657
_cell_length_b   7.55484438
_cell_length_c   11.91783714
_cell_angle_alpha   101.96889496
_cell_angle_beta   97.99987793
_cell_angle_gamma   114.08419800
_symmetry_Int_Tables_number   1
_chemical_formula_structural   Rb4Cu5AgSeS7
_chemical_formula_sum   'Rb4 Cu5 Ag1 Se1 S7'
_cell_volume   498.23529494
_cell_formula_units_Z   1
loop_
 _symmetry_equiv_pos_site_id
 _symmetry_equiv_pos_as_xyz
  1  'x, y, z'
loop_
 _atom_site_type_symbol
 _atom_site_label
 _atom_site_symmetry_multiplicity
 _atom_site_fract_x
 _atom_site_fract_y
 _atom_site_fract_z
 _atom_site_occupancy
  Rb  Rb0  1  0.44180501  0.19180501  0.38360999  1
  Rb  Rb1  1  0.18826904  0.93826904  0.87653801  1
  Rb  Rb2  1  0.55819504  0.80819503  0.61639000  1
  Rb  Rb3  1  0.81173101  0.06173100  0.12346197  1
  Cu  Cu4  1  0.06546401  0.31546401  0.63092800  1
  Cu  Cu5  1  0.21756002  0.46756002  0.93512000  1
  Ag  Ag6  1  0.78244003  0.53244002  0.06487998  1
  Cu  Cu7  1  0.93453603  0.68453603  0.36907198  1
  Cu  Cu8  1  0.37318803  0.62318803  0.24637600  1
  Cu  Cu9  1  0.62681202  0.37681202  0.75362399  1
  S  S10  1  0.14223202  0.48360602  0.36162800  1
  Se  Se11  1  0.78099602  0.23335601  0.86763298  1
  S  S12  1  0.21900403  0.76664403  0.13236701  1
  S  S13  1  0.85776803  0.51639402  0.63837198  1
  S  S14  1  0.58663703  0.63427703  0.86763299  1
  S  S15  1  0.71939604  0.87802204  0.36162799  1
  S  S16  1  0.28060401  0.12197801  0.63837199  1
  S  S17  1  0.41336302  0.36572302  0.13236699  1
