# generated using pymatgen
data_CdIn(Ag3O2)2
_symmetry_space_group_name_H-M   'P 1'
_cell_length_a   5.57895279
_cell_length_b   5.57895279
_cell_length_c   10.23143387
_cell_angle_alpha   90.00000000
_cell_angle_beta   90.00000000
_cell_angle_gamma   90.00000000
_symmetry_Int_Tables_number   1
_chemical_formula_structural   CdIn(Ag3O2)2
_chemical_formula_sum   'Cd1 In1 Ag6 O4'
_cell_volume   318.45045527
_cell_formula_units_Z   1
loop_
 _symmetry_equiv_pos_site_id
 _symmetry_equiv_pos_as_xyz
  1  'x, y, z'
loop_
 _atom_site_type_symbol
 _atom_site_label
 _atom_site_symmetry_multiplicity
 _atom_site_fract_x
 _atom_site_fract_y
 _atom_site_fract_z
 _atom_site_occupancy
  In  In0  1  0.50000002  0.00000000  0.25000000  1
  Ag  Ag1  1  0.00000000  0.50000002  0.75000001  1
  Cd  Cd2  1  0.00000000  0.00000000  0.00000000  1
  Ag  Ag3  1  0.00000000  0.00000000  0.50000001  1
  Ag  Ag4  1  0.77181503  0.73236403  0.62540101  1
  Ag  Ag5  1  0.73236403  0.22818501  0.37459900  1
  Ag  Ag6  1  0.26763601  0.77181503  0.37459900  1
  Ag  Ag7  1  0.77181503  0.26763601  0.87459901  1
  O  O8  1  0.22818501  0.73236403  0.87459901  1
  O  O9  1  0.22818501  0.26763601  0.62540101  1
  O  O10  1  0.26763601  0.22818501  0.12540100  1
  O  O11  1  0.73236403  0.77181503  0.12540100  1
