# generated using pymatgen
data_In2Ga5TeSe8
_symmetry_space_group_name_H-M   'P 1'
_cell_length_a   5.22846413
_cell_length_b   8.39697266
_cell_length_c   11.90843487
_cell_angle_alpha   104.21108246
_cell_angle_beta   90.00000000
_cell_angle_gamma   90.00000000
_symmetry_Int_Tables_number   1
_chemical_formula_structural   In2Ga5TeSe8
_chemical_formula_sum   'In2 Ga5 Te1 Se8'
_cell_volume   506.81985956
_cell_formula_units_Z   1
loop_
 _symmetry_equiv_pos_site_id
 _symmetry_equiv_pos_as_xyz
  1  'x, y, z'
loop_
 _atom_site_type_symbol
 _atom_site_label
 _atom_site_symmetry_multiplicity
 _atom_site_fract_x
 _atom_site_fract_y
 _atom_site_fract_z
 _atom_site_occupancy
  In  In0  1  0.13023400  0.42990602  0.25089101  1
  Ga  Ga1  1  0.63023398  0.07009400  0.24910901  1
  Ga  Ga2  1  0.86976598  0.57009402  0.74910903  1
  Ga  Ga3  1  0.36976599  0.92990604  0.75089103  1
  In  In4  1  0.03035800  0.13249701  0.85380503  1
  Te  Te5  1  0.78816898  0.56168602  0.14962801  1
  Ga  Ga6  1  0.71183098  0.06168600  0.64962802  1
  Ga  Ga7  1  0.21183099  0.43831402  0.85037203  1
  Se  Se8  1  0.53035799  0.36750302  0.64619503  1
  Se  Se9  1  0.96964198  0.86750304  0.14619501  1
  Se  Se10  1  0.46964199  0.63249703  0.35380502  1
  Se  Se11  1  0.28816899  0.93831404  0.35037202  1
  Se  Se12  1  0.12363100  0.70565503  0.62114403  1
  Se  Se13  1  0.37636899  0.20565501  0.12114401  1
  Se  Se14  1  0.87636898  0.29434501  0.37885602  1
  Se  Se15  1  0.62363098  0.79434503  0.87885604  1
