# generated using pymatgen
data_Rb2CO3
_symmetry_space_group_name_H-M   'P 1'
_cell_length_a   5.50409222
_cell_length_b   7.07053614
_cell_length_c   7.49179077
_cell_angle_alpha   64.03382874
_cell_angle_beta   68.44824219
_cell_angle_gamma   67.09356689
_symmetry_Int_Tables_number   1
_chemical_formula_structural   Rb2CO3
_chemical_formula_sum   'Rb4 C2 O6'
_cell_volume   234.52910268
_cell_formula_units_Z   2
loop_
 _symmetry_equiv_pos_site_id
 _symmetry_equiv_pos_as_xyz
  1  'x, y, z'
loop_
 _atom_site_type_symbol
 _atom_site_label
 _atom_site_symmetry_multiplicity
 _atom_site_fract_x
 _atom_site_fract_y
 _atom_site_fract_z
 _atom_site_occupancy
  Rb  Rb0  1  0.09470899  0.11783901  0.69274299  1
  Rb  Rb1  1  0.90529093  0.88216104  0.30725697  1
  Rb  Rb2  1  0.63875195  0.49436802  0.22812798  1
  Rb  Rb3  1  0.36124796  0.50563202  0.77187198  1
  C  C4  1  0.66496194  0.86459604  0.80547997  1
  C  C5  1  0.33503798  0.13540401  0.19451999  1
  O  O6  1  0.66687898  0.02968000  0.63656198  1
  O  O7  1  0.33312094  0.97032004  0.36343798  1
  O  O8  1  0.45813095  0.78015703  0.89312897  1
  O  O9  1  0.13141698  0.21984301  0.10687099  1
  O  O10  1  0.54186897  0.21984301  0.10687099  1
  O  O11  1  0.86858293  0.78015703  0.89312897  1
