# generated using pymatgen
data_Na4Nb2O7
_symmetry_space_group_name_H-M   'P 1'
_cell_length_a   6.09411192
_cell_length_b   6.09411240
_cell_length_c   7.93614197
_cell_angle_alpha   90.00000000
_cell_angle_beta   90.00000000
_cell_angle_gamma   120.00000000
_symmetry_Int_Tables_number   1
_chemical_formula_structural   Na4Nb2O7
_chemical_formula_sum   'Na4 Nb2 O7'
_cell_volume   255.24717585
_cell_formula_units_Z   1
loop_
 _symmetry_equiv_pos_site_id
 _symmetry_equiv_pos_as_xyz
  1  'x, y, z'
loop_
 _atom_site_type_symbol
 _atom_site_label
 _atom_site_symmetry_multiplicity
 _atom_site_fract_x
 _atom_site_fract_y
 _atom_site_fract_z
 _atom_site_occupancy
  Na  Na0  1  0.33333335  0.66666665  0.07528300  1
  Na  Na1  1  0.66666668  0.33333332  0.92471700  1
  Na  Na2  1  0.33333335  0.66666665  0.59158900  1
  Na  Na3  1  0.66666668  0.33333332  0.40841100  1
  Nb  Nb4  1  0.00000000  0.00000000  0.26926400  1
  Nb  Nb5  1  0.00000000  0.00000000  0.73073600  1
  O  O6  1  0.15506901  0.31013799  0.79982200  1
  O  O7  1  0.15506902  0.84493198  0.79982200  1
  O  O8  1  0.68986302  0.84493198  0.79982200  1
  O  O9  1  0.31013701  0.15506800  0.20017800  1
  O  O10  1  0.84493101  0.15506800  0.20017800  1
  O  O11  1  0.84493102  0.68986198  0.20017800  1
  O  O12  1  0.00000000  0.00000000  0.50000000  1
