# generated using pymatgen
data_Rb3AgCl5
_symmetry_space_group_name_H-M   'P 1'
_cell_length_a   9.93582153
_cell_length_b   10.44902515
_cell_length_c   9.93582153
_cell_angle_alpha   61.61183548
_cell_angle_beta   90.00000000
_cell_angle_gamma   118.38816833
_symmetry_Int_Tables_number   1
_chemical_formula_structural   Rb3AgCl5
_chemical_formula_sum   'Rb6 Ag2 Cl10'
_cell_volume   763.55000472
_cell_formula_units_Z   2
loop_
 _symmetry_equiv_pos_site_id
 _symmetry_equiv_pos_as_xyz
  1  'x, y, z'
loop_
 _atom_site_type_symbol
 _atom_site_label
 _atom_site_symmetry_multiplicity
 _atom_site_fract_x
 _atom_site_fract_y
 _atom_site_fract_z
 _atom_site_occupancy
  Rb  Rb0  1  0.16466801  0.00000000  0.33533202  1
  Rb  Rb1  1  0.83533204  0.00000000  0.66466803  1
  Rb  Rb2  1  0.66466803  0.00000100  0.16466701  1
  Rb  Rb3  1  0.33533206  0.99999905  0.83533306  1
  Rb  Rb4  1  0.75000006  0.50000002  0.25000002  1
  Rb  Rb5  1  0.25000003  0.50000002  0.75000005  1
  Ag  Ag6  1  0.75000006  0.50000002  0.75000005  1
  Ag  Ag7  1  0.25000003  0.50000002  0.25000002  1
  Cl  Cl8  1  0.00000000  0.00000000  0.00000000  1
  Cl  Cl9  1  0.50000002  0.00000000  0.50000002  1
  Cl  Cl10  1  0.20504704  0.68781103  0.29495303  1
  Cl  Cl11  1  0.48276405  0.68781103  0.01723601  1
  Cl  Cl12  1  0.70504706  0.68781103  0.51723604  1
  Cl  Cl13  1  0.98276407  0.68781103  0.79495305  1
  Cl  Cl14  1  0.79495305  0.31218902  0.70504704  1
  Cl  Cl15  1  0.51723604  0.31218902  0.98276405  1
  Cl  Cl16  1  0.29495303  0.31218902  0.48276403  1
  Cl  Cl17  1  0.01723601  0.31218902  0.20504702  1
