# generated using pymatgen
data_Li2Co2O5
_symmetry_space_group_name_H-M   'P 1'
_cell_length_a   3.66570401
_cell_length_b   5.82317305
_cell_length_c   6.23413038
_cell_angle_alpha   98.57010651
_cell_angle_beta   107.09775543
_cell_angle_gamma   90.00000000
_symmetry_Int_Tables_number   1
_chemical_formula_structural   Li2Co2O5
_chemical_formula_sum   'Li2 Co2 O5'
_cell_volume   125.63725773
_cell_formula_units_Z   1
loop_
 _symmetry_equiv_pos_site_id
 _symmetry_equiv_pos_as_xyz
  1  'x, y, z'
loop_
 _atom_site_type_symbol
 _atom_site_label
 _atom_site_symmetry_multiplicity
 _atom_site_fract_x
 _atom_site_fract_y
 _atom_site_fract_z
 _atom_site_occupancy
  Li  Li0  1  0.59993400  0.35452900  0.19986799  1
  Li  Li1  1  0.40006599  0.64547100  0.80013196  1
  Co  Co2  1  0.14519999  0.90051299  0.29039995  1
  Co  Co3  1  0.85480001  0.09948700  0.70960000  1
  O  O4  1  0.12455999  0.60067700  0.24911997  1
  O  O5  1  0.67908701  0.01295300  0.35817401  1
  O  O6  1  0.32091299  0.98704699  0.64182594  1
  O  O7  1  0.87544000  0.39932300  0.75087998  1
  O  O8  1  0.00000000  0.00000000  0.00000000  1
