# generated using pymatgen
data_NaLi2Co2AsO6
_symmetry_space_group_name_H-M   'P 1'
_cell_length_a   5.55213404
_cell_length_b   5.95756912
_cell_length_c   6.27997255
_cell_angle_alpha   118.31578064
_cell_angle_beta   116.23480225
_cell_angle_gamma   90.00000000
_symmetry_Int_Tables_number   1
_chemical_formula_structural   NaLi2Co2AsO6
_chemical_formula_sum   'Na1 Li2 Co2 As1 O6'
_cell_volume   158.14356624
_cell_formula_units_Z   1
loop_
 _symmetry_equiv_pos_site_id
 _symmetry_equiv_pos_as_xyz
  1  'x, y, z'
loop_
 _atom_site_type_symbol
 _atom_site_label
 _atom_site_symmetry_multiplicity
 _atom_site_fract_x
 _atom_site_fract_y
 _atom_site_fract_z
 _atom_site_occupancy
  Na  Na0  1  0.24999996  0.49999997  -0.00000005  1
  Li  Li1  1  0.74999995  0.49999997  -0.00000007  1
  Li  Li2  1  0.00000000  0.00000000  0.00000000  1
  Co  Co3  1  0.49999999  0.00000000  -0.00000002  1
  Co  Co4  1  -0.00000003  0.49999997  0.49999996  1
  As  As5  1  0.49999995  0.49999997  0.49999994  1
  O  O6  1  0.49999999  0.00000000  0.49999998  1
  O  O7  1  0.00000000  0.00000000  0.50000000  1
  O  O8  1  0.38102995  0.62592996  0.76205993  1
  O  O9  1  0.88102997  0.13612999  0.76205995  1
  O  O10  1  0.11896994  0.86386995  0.23793992  1
  O  O11  1  0.61896996  0.37406998  0.23793994  1
