# generated using pymatgen
data_Li7MnCoO10
_symmetry_space_group_name_H-M   'P 1'
_cell_length_a   5.92455292
_cell_length_b   6.01374340
_cell_length_c   6.07725286
_cell_angle_alpha   98.30200195
_cell_angle_beta   97.22342682
_cell_angle_gamma   97.68312073
_symmetry_Int_Tables_number   1
_chemical_formula_structural   Li7MnCoO10
_chemical_formula_sum   'Li7 Mn1 Co1 O10'
_cell_volume   209.99701056
_cell_formula_units_Z   1
loop_
 _symmetry_equiv_pos_site_id
 _symmetry_equiv_pos_as_xyz
  1  'x, y, z'
loop_
 _atom_site_type_symbol
 _atom_site_label
 _atom_site_symmetry_multiplicity
 _atom_site_fract_x
 _atom_site_fract_y
 _atom_site_fract_z
 _atom_site_occupancy
  Li  Li0  1  0.99047198  0.97463003  0.00410194  1
  Li  Li1  1  0.75345900  0.39284201  0.92252194  1
  Li  Li2  1  0.86131499  0.71149402  0.39800794  1
  Li  Li3  1  0.59334500  0.12001400  0.27794498  1
  Li  Li4  1  0.39962198  0.88193802  0.69886293  1
  Li  Li5  1  0.12801599  0.33605701  0.59361096  1
  Li  Li6  1  0.28659298  0.59317202  0.08894697  1
  Mn  Mn7  1  0.35627899  0.59120702  0.79321794  1
  O  O8  1  0.07913797  0.89120302  0.67698694  1
  O  O9  1  0.31913697  0.92449103  0.10784495  1
  Co  Co10  1  0.20459498  0.56991502  0.37766696  1
  O  O11  1  0.08419799  0.29324501  0.93452796  1
  O  O12  1  0.59798598  0.83956902  0.45210594  1
  O  O13  1  0.39750300  0.18153700  0.58794397  1
  O  O14  1  0.92180599  0.67613802  0.07971495  1
  O  O15  1  0.53529699  0.40182901  0.15045297  1
  O  O16  1  0.85401400  0.45877901  0.61002395  1
  O  O17  1  0.67944201  0.03094700  0.90258796  1
  O  O18  1  0.95778401  0.13099600  0.34292597  1
