# generated using pymatgen
data_K2SrBiClO13
_symmetry_space_group_name_H-M   'P 1'
_cell_length_a   6.91041994
_cell_length_b   6.91041994
_cell_length_c   9.53067303
_cell_angle_alpha   90.00000000
_cell_angle_beta   90.00000000
_cell_angle_gamma   90.00000000
_symmetry_Int_Tables_number   1
_chemical_formula_structural   K2SrBiClO13
_chemical_formula_sum   'K2 Sr1 Bi1 Cl1 O13'
_cell_volume   455.12684250
_cell_formula_units_Z   1
loop_
 _symmetry_equiv_pos_site_id
 _symmetry_equiv_pos_as_xyz
  1  'x, y, z'
loop_
 _atom_site_type_symbol
 _atom_site_label
 _atom_site_symmetry_multiplicity
 _atom_site_fract_x
 _atom_site_fract_y
 _atom_site_fract_z
 _atom_site_occupancy
  K  K0  1  0.00000000  0.00000000  0.75000000  1
  K  K1  1  0.00000000  0.00000000  0.25000000  1
  Sr  Sr2  1  0.65699101  0.05493400  0.00000000  1
  O  O3  1  0.34300900  0.94506601  0.00000000  1
  O  O4  1  0.05493400  0.34300900  0.50000000  1
  Bi  Bi5  1  0.94506601  0.65699101  0.50000000  1
  Cl  Cl6  1  0.20326700  0.30567200  0.68088100  1
  O  O7  1  0.69432801  0.20326700  0.18088100  1
  O  O8  1  0.15846500  0.17688600  0.00000000  1
  O  O9  1  0.82311401  0.15846500  0.50000000  1
  O  O10  1  0.17688600  0.84153501  0.50000000  1
  O  O11  1  0.84153501  0.82311401  0.00000000  1
  O  O12  1  0.20326700  0.30567200  0.31911900  1
  O  O13  1  0.69432801  0.20326700  0.81911900  1
  O  O14  1  0.30567200  0.79673301  0.81911900  1
  O  O15  1  0.79673301  0.69432801  0.31911900  1
  O  O16  1  0.79673301  0.69432801  0.68088100  1
  O  O17  1  0.30567200  0.79673301  0.18088100  1
