# generated using pymatgen
data_Rb3Na(PO4)2
_symmetry_space_group_name_H-M   'P 1'
_cell_length_a   5.84364796
_cell_length_b   5.84364748
_cell_length_c   7.59933615
_cell_angle_alpha   90.00000000
_cell_angle_beta   90.00000000
_cell_angle_gamma   120.00000000
_symmetry_Int_Tables_number   1
_chemical_formula_structural   Rb3Na(PO4)2
_chemical_formula_sum   'Rb3 Na1 P2 O8'
_cell_volume   224.73687660
_cell_formula_units_Z   1
loop_
 _symmetry_equiv_pos_site_id
 _symmetry_equiv_pos_as_xyz
  1  'x, y, z'
loop_
 _atom_site_type_symbol
 _atom_site_label
 _atom_site_symmetry_multiplicity
 _atom_site_fract_x
 _atom_site_fract_y
 _atom_site_fract_z
 _atom_site_occupancy
  Rb  Rb0  1  0.66666665  0.33333332  0.81910698  1
  Rb  Rb1  1  0.00000000  0.00000000  0.49999999  1
  Rb  Rb2  1  0.33333329  0.66666664  0.18089300  1
  Na  Na3  1  0.00000000  0.00000000  0.00000000  1
  P  P4  1  0.66666665  0.33333332  0.25834799  1
  P  P5  1  0.33333329  0.66666664  0.74165199  1
  O  O6  1  0.62632595  0.81316297  0.81739698  1
  O  O7  1  0.37367399  0.18683699  0.18260300  1
  O  O8  1  0.18683698  0.37367399  0.81739698  1
  O  O9  1  0.18683695  0.81316297  0.81739698  1
  O  O10  1  0.66666665  0.33333332  0.45976299  1
  O  O11  1  0.33333329  0.66666664  0.54023699  1
  O  O12  1  0.81316297  0.62632598  0.18260300  1
  O  O13  1  0.81316299  0.18683699  0.18260300  1
