# generated using pymatgen
data_Na2PbO4
_symmetry_space_group_name_H-M   'P 1'
_cell_length_a   3.58163190
_cell_length_b   6.24234200
_cell_length_c   11.56174755
_cell_angle_alpha   90.00000000
_cell_angle_beta   90.00000000
_cell_angle_gamma   106.67137909
_symmetry_Int_Tables_number   1
_chemical_formula_structural   Na2PbO4
_chemical_formula_sum   'Na4 Pb2 O8'
_cell_volume   247.62931107
_cell_formula_units_Z   2
loop_
 _symmetry_equiv_pos_site_id
 _symmetry_equiv_pos_as_xyz
  1  'x, y, z'
loop_
 _atom_site_type_symbol
 _atom_site_label
 _atom_site_symmetry_multiplicity
 _atom_site_fract_x
 _atom_site_fract_y
 _atom_site_fract_z
 _atom_site_occupancy
  Na  Na0  1  0.11146799  0.22293600  0.75000003  1
  Na  Na1  1  0.88853197  0.77706401  0.25000001  1
  Na  Na2  1  0.36794296  0.73588601  0.57453802  1
  Na  Na3  1  0.36794296  0.73588601  0.92546204  1
  Pb  Pb4  1  0.63205700  0.26411400  0.42546202  1
  Pb  Pb5  1  0.63205700  0.26411400  0.07453800  1
  O  O6  1  0.00000000  0.00000000  0.00000000  1
  O  O7  1  0.00000000  0.00000000  0.50000002  1
  O  O8  1  0.46978694  0.93957402  0.75000003  1
  O  O9  1  0.26524397  0.53048801  0.38949802  1
  O  O10  1  0.26524397  0.53048801  0.11050200  1
  O  O11  1  0.53021301  0.06042600  0.25000001  1
  O  O12  1  0.73475599  0.46951201  0.61050202  1
  O  O13  1  0.73475599  0.46951201  0.88949803  1
