# generated using pymatgen
data_TeAs3IrRu5RhSe
_symmetry_space_group_name_H-M   'P 1'
_cell_length_a   6.24606419
_cell_length_b   6.24606419
_cell_length_c   6.24606419
_cell_angle_alpha   90.00000000
_cell_angle_beta   90.00000000
_cell_angle_gamma   90.00000000
_symmetry_Int_Tables_number   1
_chemical_formula_structural   TeAs3IrRu5RhSe
_chemical_formula_sum   'Te1 As3 Ru5 Ir1 Rh1 Se1'
_cell_volume   243.67968720
_cell_formula_units_Z   1
loop_
 _symmetry_equiv_pos_site_id
 _symmetry_equiv_pos_as_xyz
  1  'x, y, z'
loop_
 _atom_site_type_symbol
 _atom_site_label
 _atom_site_symmetry_multiplicity
 _atom_site_fract_x
 _atom_site_fract_y
 _atom_site_fract_z
 _atom_site_occupancy
  As  As0  1  0.12483700  0.62483698  0.87516297  1
  Te  Te1  1  0.62483698  0.87516297  0.12483700  1
  As  As2  1  0.87516297  0.12483700  0.62483698  1
  Ru  Ru3  1  0.37516299  0.37516299  0.37516299  1
  Ru  Ru4  1  0.49308399  0.99308397  0.50691598  1
  Ru  Ru5  1  0.99308397  0.50691598  0.49308399  1
  Ir  Ir6  1  0.50691598  0.49308399  0.99308397  1
  Rh  Rh7  1  0.00691600  0.00691600  0.00691600  1
  Se  Se8  1  0.87708697  0.37708699  0.12291300  1
  Ru  Ru9  1  0.37708699  0.12291300  0.87708697  1
  Ru  Ru10  1  0.12291300  0.87708697  0.37708699  1
  As  As11  1  0.62291298  0.62291298  0.62291298  1
