# generated using pymatgen
data_K2BiPO8
_symmetry_space_group_name_H-M   'P 1'
_cell_length_a   5.03005028
_cell_length_b   5.03005028
_cell_length_c   9.23854637
_cell_angle_alpha   74.20288849
_cell_angle_beta   74.20288849
_cell_angle_gamma   59.99999619
_symmetry_Int_Tables_number   1
_chemical_formula_structural   K2BiPO8
_chemical_formula_sum   'K2 Bi1 P1 O8'
_cell_volume   192.17029268
_cell_formula_units_Z   1
loop_
 _symmetry_equiv_pos_site_id
 _symmetry_equiv_pos_as_xyz
  1  'x, y, z'
loop_
 _atom_site_type_symbol
 _atom_site_label
 _atom_site_symmetry_multiplicity
 _atom_site_fract_x
 _atom_site_fract_y
 _atom_site_fract_z
 _atom_site_occupancy
  K  K0  1  0.00000000  0.00000000  0.00000000  1
  K  K1  1  0.49999998  0.50000000  0.50000002  1
  Bi  Bi2  1  0.25937599  0.25937600  0.22187201  1
  P  P3  1  0.74062396  0.74062400  0.77812802  1
  O  O4  1  0.43415797  0.73263400  0.83581302  1
  O  O5  1  0.99739497  0.43415800  0.83581302  1
  O  O6  1  0.00260499  0.26736600  0.16418700  1
  O  O7  1  0.73263396  0.99739499  0.83581303  1
  O  O8  1  0.26736598  0.56584200  0.16418702  1
  O  O9  1  0.56584199  0.00260500  0.16418701  1
  O  O10  1  0.20364399  0.20364400  0.38906800  1
  O  O11  1  0.79635596  0.79635600  0.61093203  1
