# generated using pymatgen
data_NaAlO2
_symmetry_space_group_name_H-M   'P 1'
_cell_length_a   5.49228811
_cell_length_b   5.68636417
_cell_length_c   6.95430183
_cell_angle_alpha   90.00000000
_cell_angle_beta   90.00000000
_cell_angle_gamma   90.00000000
_symmetry_Int_Tables_number   1
_chemical_formula_structural   NaAlO2
_chemical_formula_sum   'Na4 Al4 O8'
_cell_volume   217.19084620
_cell_formula_units_Z   4
loop_
 _symmetry_equiv_pos_site_id
 _symmetry_equiv_pos_as_xyz
  1  'x, y, z'
loop_
 _atom_site_type_symbol
 _atom_site_label
 _atom_site_symmetry_multiplicity
 _atom_site_fract_x
 _atom_site_fract_y
 _atom_site_fract_z
 _atom_site_occupancy
  Na  Na0  1  0.99758598  0.58026198  0.87612202  1
  Na  Na1  1  0.49758599  0.41973799  0.12387800  1
  Na  Na2  1  0.49758599  0.91973797  0.37612201  1
  Na  Na3  1  0.99758598  0.08026200  0.62387801  1
  Al  Al4  1  0.00017300  0.56609598  0.37457101  1
  Al  Al5  1  0.50017299  0.43390399  0.62542901  1
  Al  Al6  1  0.50017299  0.93390397  0.87457102  1
  Al  Al7  1  0.00017300  0.06609600  0.12542900  1
  O  O8  1  0.34029699  0.54788298  0.40709301  1
  O  O9  1  0.84029598  0.45211699  0.59290701  1
  O  O10  1  0.84029598  0.95211697  0.90709302  1
  O  O11  1  0.34029699  0.04788300  0.09290700  1
  O  O12  1  0.41194399  0.61462098  0.84277302  1
  O  O13  1  0.91194398  0.38537899  0.15722700  1
  O  O14  1  0.91194398  0.88537897  0.34277301  1
  O  O15  1  0.41194399  0.11462100  0.65722702  1
