# generated using pymatgen
data_LiCoO2
_symmetry_space_group_name_H-M   'P 1'
_cell_length_a   3.05908632
_cell_length_b   6.04572821
_cell_length_c   8.08655548
_cell_angle_alpha   90.47277832
_cell_angle_beta   91.31820679
_cell_angle_gamma   96.24719238
_symmetry_Int_Tables_number   1
_chemical_formula_structural   LiCoO2
_chemical_formula_sum   'Li4 Co4 O8'
_cell_volume   148.61986651
_cell_formula_units_Z   4
loop_
 _symmetry_equiv_pos_site_id
 _symmetry_equiv_pos_as_xyz
  1  'x, y, z'
loop_
 _atom_site_type_symbol
 _atom_site_label
 _atom_site_symmetry_multiplicity
 _atom_site_fract_x
 _atom_site_fract_y
 _atom_site_fract_z
 _atom_site_occupancy
  Li  Li0  1  0.00046195  0.49831299  0.00258101  1
  Li  Li1  1  0.49951693  0.75208999  0.24742100  1
  Li  Li2  1  0.50062698  0.24890900  0.75261196  1
  Li  Li3  1  0.99945101  0.00089200  0.49735596  1
  Co  Co4  1  0.99994996  0.49685599  0.49744197  1
  Co  Co5  1  0.49880693  0.75356499  0.75223397  1
  Co  Co6  1  0.50095698  0.24726700  0.24848299  1
  Co  Co7  1  0.99911901  0.00263900  0.00184099  1
  O  O8  1  0.52414293  0.76432899  0.99325395  1
  O  O9  1  0.97629696  0.48513599  0.25787799  1
  O  O10  1  0.02171900  0.01420400  0.23645699  1
  O  O11  1  0.47763298  0.23580400  0.01392600  1
  O  O12  1  0.02710795  0.50628399  0.74069297  1
  O  O13  1  0.47331993  0.74367199  0.50882998  1
  O  O14  1  0.52458698  0.25408200  0.48496497  1
  O  O15  1  0.97630191  0.99595799  0.76402597  1
