# generated using pymatgen
data_Li6BiPBr7
_symmetry_space_group_name_H-M   'P 1'
_cell_length_a   7.71168804
_cell_length_b   7.71168804
_cell_length_c   7.71168804
_cell_angle_alpha   60.00000000
_cell_angle_beta   60.00000000
_cell_angle_gamma   60.00000000
_symmetry_Int_Tables_number   1
_chemical_formula_structural   Li6BiPBr7
_chemical_formula_sum   'Li6 Bi1 P1 Br7'
_cell_volume   324.28985372
_cell_formula_units_Z   1
loop_
 _symmetry_equiv_pos_site_id
 _symmetry_equiv_pos_as_xyz
  1  'x, y, z'
loop_
 _atom_site_type_symbol
 _atom_site_label
 _atom_site_symmetry_multiplicity
 _atom_site_fract_x
 _atom_site_fract_y
 _atom_site_fract_z
 _atom_site_occupancy
  Li  Li0  1  0.50000001  0.00000000  0.50000001  1
  Li  Li1  1  -0.00000000  0.50000001  0.50000001  1
  Li  Li2  1  0.50000001  0.50000001  0.00000000  1
  Li  Li3  1  0.00000000  0.00000000  0.50000001  1
  Li  Li4  1  0.50000001  0.00000000  0.00000000  1
  Li  Li5  1  -0.00000000  0.50000001  0.00000000  1
  P  P6  1  0.00000000  0.00000000  0.00000000  1
  Bi  Bi7  1  0.20095400  0.79904601  0.20095400  1
  Br  Br8  1  0.75000001  0.75000001  0.75000001  1
  Br  Br9  1  0.20095400  0.79904601  0.79904601  1
  Br  Br10  1  0.20095400  0.20095400  0.79904601  1
  Br  Br11  1  0.79904601  0.79904601  0.20095400  1
  Br  Br12  1  0.79904601  0.20095400  0.20095400  1
  Br  Br13  1  0.25000000  0.25000000  0.25000000  1
  Br  Br14  1  0.79904601  0.20095400  0.79904601  1
