# generated using pymatgen
data_SrLiMgP2
_symmetry_space_group_name_H-M   'P 1'
_cell_length_a   4.04793596
_cell_length_b   4.04793549
_cell_length_c   6.84461212
_cell_angle_alpha   90.00000000
_cell_angle_beta   90.00000000
_cell_angle_gamma   120.00000000
_symmetry_Int_Tables_number   1
_chemical_formula_structural   SrLiMgP2
_chemical_formula_sum   'Sr1 Li1 Mg1 P2'
_cell_volume   97.12850173
_cell_formula_units_Z   1
loop_
 _symmetry_equiv_pos_site_id
 _symmetry_equiv_pos_as_xyz
  1  'x, y, z'
loop_
 _atom_site_type_symbol
 _atom_site_label
 _atom_site_symmetry_multiplicity
 _atom_site_fract_x
 _atom_site_fract_y
 _atom_site_fract_z
 _atom_site_occupancy
  Sr  Sr0  1  0.00000000  0.00000000  0.00000000  1
  Li  Li1  1  0.66666665  0.33333334  0.36671099  1
  Mg  Mg2  1  0.33333330  0.66666667  0.63328899  1
  P  P3  1  0.33333330  0.66666667  0.26189200  1
  P  P4  1  0.66666665  0.33333334  0.73810799  1
