# generated using pymatgen
data_Na2Li2P2S3O7
_symmetry_space_group_name_H-M   'P 1'
_cell_length_a   5.65129900
_cell_length_b   6.74580622
_cell_length_c   6.87825775
_cell_angle_alpha   106.28649139
_cell_angle_beta   108.87105560
_cell_angle_gamma   100.50624084
_symmetry_Int_Tables_number   1
_chemical_formula_structural   Na2Li2P2S3O7
_chemical_formula_sum   'Na2 Li2 P2 S3 O7'
_cell_volume   227.14886515
_cell_formula_units_Z   1
loop_
 _symmetry_equiv_pos_site_id
 _symmetry_equiv_pos_as_xyz
  1  'x, y, z'
loop_
 _atom_site_type_symbol
 _atom_site_label
 _atom_site_symmetry_multiplicity
 _atom_site_fract_x
 _atom_site_fract_y
 _atom_site_fract_z
 _atom_site_occupancy
  Li  Li0  1  0.78059197  0.49021498  0.90503193  1
  Na  Na1  1  0.57804296  0.81370097  0.24976794  1
  Na  Na2  1  0.24749697  0.60519298  0.65476995  1
  Li  Li3  1  0.02359000  0.00258500  0.00347300  1
  P  P4  1  0.24566199  0.06905200  0.58682697  1
  P  P5  1  0.63379898  0.38241099  0.33285995  1
  S  S6  1  0.35983798  0.30900299  0.74467996  1
  S  S7  1  0.46170996  0.96171596  0.57454793  1
  O  O8  1  0.17075697  0.71993997  0.98355294  1
  S  S9  1  0.05497400  0.05172500  0.35615599  1
  O  O10  1  0.80173297  0.49204698  0.23062595  1
  O  O11  1  0.65644296  0.75352297  0.93461592  1
  O  O12  1  0.80564497  0.41257798  0.57304194  1
  O  O13  1  0.50236699  0.13361499  0.19118097  1
  O  O14  1  0.40629798  0.48579998  0.32705796  1
  O  O15  1  0.06745296  0.92731696  0.66390794  1
