# generated using pymatgen
data_Li2GeO5
_symmetry_space_group_name_H-M   'P 1'
_cell_length_a   4.65361977
_cell_length_b   6.38286209
_cell_length_c   6.48222017
_cell_angle_alpha   90.00000000
_cell_angle_beta   92.43652344
_cell_angle_gamma   90.00000000
_symmetry_Int_Tables_number   1
_chemical_formula_structural   Li2GeO5
_chemical_formula_sum   'Li4 Ge2 O10'
_cell_volume   192.36999152
_cell_formula_units_Z   2
loop_
 _symmetry_equiv_pos_site_id
 _symmetry_equiv_pos_as_xyz
  1  'x, y, z'
loop_
 _atom_site_type_symbol
 _atom_site_label
 _atom_site_symmetry_multiplicity
 _atom_site_fract_x
 _atom_site_fract_y
 _atom_site_fract_z
 _atom_site_occupancy
  Li  Li0  1  0.00030200  0.25792500  0.49190201  1
  Li  Li1  1  0.00030200  0.74207499  0.49190201  1
  Li  Li2  1  0.38931902  0.00000000  0.24420199  1
  Li  Li3  1  0.61119203  0.49999999  0.76314200  1
  Ge  Ge4  1  0.49848002  0.49999999  0.25953599  1
  Ge  Ge5  1  0.50079502  0.00000000  0.74625000  1
  O  O6  1  0.66834103  0.49999999  0.04128198  1
  O  O7  1  0.73983604  0.00000000  0.26941298  1
  O  O8  1  0.29409901  0.71049799  0.27013900  1
  O  O9  1  0.29409901  0.28950200  0.27013900  1
  O  O10  1  0.73619804  0.49999999  0.45343099  1
  O  O11  1  0.24826301  0.00000000  0.53491601  1
  O  O12  1  0.73022504  0.22082000  0.73449999  1
  O  O13  1  0.73022504  0.77917999  0.73449999  1
  O  O14  1  0.26133701  0.49999999  0.72488401  1
  O  O15  1  0.29698501  0.00000000  0.96986502  1
