# generated using pymatgen
data_Na2Sb2Se3S
_symmetry_space_group_name_H-M   'P 1'
_cell_length_a   3.79201007
_cell_length_b   5.30453777
_cell_length_c   9.79152012
_cell_angle_alpha   90.00000000
_cell_angle_beta   101.16513824
_cell_angle_gamma   90.00000000
_symmetry_Int_Tables_number   1
_chemical_formula_structural   Na2Sb2Se3S
_chemical_formula_sum   'Na2 Sb2 Se3 S1'
_cell_volume   193.22732498
_cell_formula_units_Z   1
loop_
 _symmetry_equiv_pos_site_id
 _symmetry_equiv_pos_as_xyz
  1  'x, y, z'
loop_
 _atom_site_type_symbol
 _atom_site_label
 _atom_site_symmetry_multiplicity
 _atom_site_fract_x
 _atom_site_fract_y
 _atom_site_fract_z
 _atom_site_occupancy
  Na  Na0  1  0.21427300  0.75000003  0.42854602  1
  Na  Na1  1  0.78572699  0.25000001  0.57145403  1
  Sb  Sb2  1  0.60096399  0.25000001  0.20192801  1
  Sb  Sb3  1  0.39903599  0.75000003  0.79807204  1
  Se  Se4  1  0.03985800  0.75000003  0.07971600  1
  Se  Se5  1  0.96014198  0.25000001  0.92028405  1
  Se  Se6  1  0.19292400  0.25000001  0.38584802  1
  S  S7  1  0.80707599  0.75000003  0.61415203  1
