# generated using pymatgen
data_RbBiF6
_symmetry_space_group_name_H-M   'P 1'
_cell_length_a   5.55234909
_cell_length_b   5.55234909
_cell_length_c   5.55235004
_cell_angle_alpha   95.94963074
_cell_angle_beta   95.94963074
_cell_angle_gamma   95.94963074
_symmetry_Int_Tables_number   1
_chemical_formula_structural   RbBiF6
_chemical_formula_sum   'Rb1 Bi1 F6'
_cell_volume   168.19594624
_cell_formula_units_Z   1
loop_
 _symmetry_equiv_pos_site_id
 _symmetry_equiv_pos_as_xyz
  1  'x, y, z'
loop_
 _atom_site_type_symbol
 _atom_site_label
 _atom_site_symmetry_multiplicity
 _atom_site_fract_x
 _atom_site_fract_y
 _atom_site_fract_z
 _atom_site_occupancy
  Rb  Rb0  1  0.49999998  0.49999999  0.49999992  1
  Bi  Bi1  1  0.00000000  0.00000000  0.00000000  1
  F  F2  1  0.91505198  0.21676800  0.29384592  1
  F  F3  1  0.29384598  0.91505098  0.21676792  1
  F  F4  1  0.78323198  0.70615399  0.08494791  1
  F  F5  1  0.70615399  0.08494800  0.78323193  1
  F  F6  1  0.08494799  0.78323199  0.70615392  1
  F  F7  1  0.21676799  0.29384599  0.91505194  1
