# generated using pymatgen
data_CaNd4Mg(RuO6)2
_symmetry_space_group_name_H-M   'P 1'
_cell_length_a   5.53560877
_cell_length_b   5.75698519
_cell_length_c   7.99318171
_cell_angle_alpha   90.00000000
_cell_angle_beta   89.82608795
_cell_angle_gamma   90.00000000
_symmetry_Int_Tables_number   1
_chemical_formula_structural   CaNd4Mg(RuO6)2
_chemical_formula_sum   'Ca1 Nd4 Mg1 Ru2 O12'
_cell_volume   254.72887977
_cell_formula_units_Z   1
loop_
 _symmetry_equiv_pos_site_id
 _symmetry_equiv_pos_as_xyz
  1  'x, y, z'
loop_
 _atom_site_type_symbol
 _atom_site_label
 _atom_site_symmetry_multiplicity
 _atom_site_fract_x
 _atom_site_fract_y
 _atom_site_fract_z
 _atom_site_occupancy
  Nd  Nd0  1  0.01469400  0.44538199  0.24891800  1
  Nd  Nd1  1  0.48530602  0.94538197  0.25108200  1
  Nd  Nd2  1  0.98530604  0.55461798  0.75108201  1
  Nd  Nd3  1  0.51469402  0.05461800  0.74891801  1
  Mg  Mg4  1  0.50000002  0.49999998  0.50000001  1
  Ca  Ca5  1  0.00000000  0.00000000  0.00000000  1
  Ru  Ru6  1  0.50000002  0.49999998  0.00000000  1
  Ru  Ru7  1  0.00000000  0.00000000  0.50000001  1
  O  O8  1  0.31739801  0.21112099  0.05284000  1
  O  O9  1  0.18260201  0.71112098  0.44716001  1
  O  O10  1  0.68260203  0.78887897  0.94716002  1
  O  O11  1  0.81739803  0.28887899  0.55284001  1
  O  O12  1  0.79146203  0.30455599  0.94367402  1
  O  O13  1  0.70853803  0.80455597  0.55632601  1
  O  O14  1  0.20853801  0.69544398  0.05632600  1
  O  O15  1  0.29146201  0.19544399  0.44367401  1
  O  O16  1  0.89240104  0.04037800  0.25773801  1
  O  O17  1  0.60759903  0.54037798  0.24226201  1
  O  O18  1  0.39240102  0.45962199  0.75773801  1
  O  O19  1  0.10759900  0.95962197  0.74226201  1
