# generated using pymatgen
data_Na2EuCl5
_symmetry_space_group_name_H-M   'P 1'
_cell_length_a   4.25950623
_cell_length_b   7.53579378
_cell_length_c   7.53579473
_cell_angle_alpha   120.00000000
_cell_angle_beta   90.00000000
_cell_angle_gamma   90.00000000
_symmetry_Int_Tables_number   1
_chemical_formula_structural   Na2EuCl5
_chemical_formula_sum   'Na2 Eu1 Cl5'
_cell_volume   209.48259963
_cell_formula_units_Z   1
loop_
 _symmetry_equiv_pos_site_id
 _symmetry_equiv_pos_as_xyz
  1  'x, y, z'
loop_
 _atom_site_type_symbol
 _atom_site_label
 _atom_site_symmetry_multiplicity
 _atom_site_fract_x
 _atom_site_fract_y
 _atom_site_fract_z
 _atom_site_occupancy
  Na  Na0  1  0.24999999  0.33333336  0.66666670  1
  Eu  Eu1  1  0.74999996  0.66666671  0.33333339  1
  Na  Na2  1  0.24999999  0.39179803  0.08685703  1
  Cl  Cl3  1  0.74999996  0.08685701  0.69505902  1
  Cl  Cl4  1  0.74999996  0.60820204  0.91314306  1
  Cl  Cl5  1  0.24999999  0.91314306  0.30494107  1
  Cl  Cl6  1  0.24999999  0.69505905  0.60820206  1
  Cl  Cl7  1  0.74999996  0.30494102  0.39179803  1
