# generated using pymatgen
data_Li4Si4PO7
_symmetry_space_group_name_H-M   'P 1'
_cell_length_a   4.78148079
_cell_length_b   5.23136997
_cell_length_c   6.42681694
_cell_angle_alpha   90.00000000
_cell_angle_beta   90.00000000
_cell_angle_gamma   90.00000000
_symmetry_Int_Tables_number   1
_chemical_formula_structural   Li4Si4PO7
_chemical_formula_sum   'Li4 Si4 P1 O7'
_cell_volume   160.75843892
_cell_formula_units_Z   1
loop_
 _symmetry_equiv_pos_site_id
 _symmetry_equiv_pos_as_xyz
  1  'x, y, z'
loop_
 _atom_site_type_symbol
 _atom_site_label
 _atom_site_symmetry_multiplicity
 _atom_site_fract_x
 _atom_site_fract_y
 _atom_site_fract_z
 _atom_site_occupancy
  Li  Li0  1  0.99913404  0.59715300  0.38571900  1
  Li  Li1  1  0.49913402  0.40284700  0.61428101  1
  Li  Li2  1  0.49913402  0.90284700  0.38571900  1
  Li  Li3  1  0.99913404  0.09715300  0.61428101  1
  Si  Si4  1  0.51173902  0.41905000  0.12006600  1
  Si  Si5  1  0.51173902  0.91905000  0.87993401  1
  Si  Si6  1  0.01173900  0.08095000  0.12006600  1
  Si  Si7  1  0.01173900  0.58095000  0.87993401  1
  P  P8  1  0.14789001  0.39063400  0.08443600  1
  O  O9  1  0.64789003  0.60936600  0.91556401  1
  O  O10  1  0.64789003  0.10936600  0.08443600  1
  O  O11  1  0.14789001  0.89063400  0.91556401  1
  O  O12  1  0.59123603  0.03844600  0.65559901  1
  O  O13  1  0.09123600  0.46155400  0.65559901  1
  O  O14  1  0.09123600  0.96155401  0.34440100  1
  O  O15  1  0.59123603  0.53844600  0.34440100  1
