# generated using pymatgen
data_Li4MnFeCo2(SO)2
_symmetry_space_group_name_H-M   'P 1'
_cell_length_a   5.39729261
_cell_length_b   5.39780521
_cell_length_c   5.39780474
_cell_angle_alpha   119.92492676
_cell_angle_beta   99.69098663
_cell_angle_gamma   99.69098663
_symmetry_Int_Tables_number   1
_chemical_formula_structural   Li4MnFeCo2(SO)2
_chemical_formula_sum   'Li4 Mn1 Fe1 Co2 S2 O2'
_cell_volume   128.35388920
_cell_formula_units_Z   1
loop_
 _symmetry_equiv_pos_site_id
 _symmetry_equiv_pos_as_xyz
  1  'x, y, z'
loop_
 _atom_site_type_symbol
 _atom_site_label
 _atom_site_symmetry_multiplicity
 _atom_site_fract_x
 _atom_site_fract_y
 _atom_site_fract_z
 _atom_site_occupancy
  Li  Li0  1  0.49999999  0.83688198  0.16311802  1
  Li  Li1  1  0.49999999  0.16311800  0.83688199  1
  Li  Li2  1  0.49999999  0.49999999  0.50000000  1
  Li  Li3  1  0.00000000  0.00000000  0.00000000  1
  Mn  Mn4  1  -0.00000000  0.33185699  0.66814299  1
  Fe  Fe5  1  -0.00000000  0.66814298  0.33185701  1
  S  S6  1  0.23488799  0.42475199  0.07838101  1
  S  S7  1  0.76511198  0.92161898  0.57524801  1
  Co  Co8  1  0.76511198  0.57524799  0.92161899  1
  Co  Co9  1  0.23488800  0.07838100  0.42475199  1
  O  O10  1  0.24002199  0.73379498  0.73379500  1
  O  O11  1  0.75997799  0.26620499  0.26620500  1
