# generated using pymatgen
data_Ce2ZrTi5O12
_symmetry_space_group_name_H-M   'P 1'
_cell_length_a   5.31255722
_cell_length_b   5.35841322
_cell_length_c   7.53108406
_cell_angle_alpha   90.00000000
_cell_angle_beta   90.00000000
_cell_angle_gamma   90.00000000
_symmetry_Int_Tables_number   1
_chemical_formula_structural   Ce2ZrTi5O12
_chemical_formula_sum   'Ce2 Zr1 Ti5 O12'
_cell_volume   214.38644242
_cell_formula_units_Z   1
loop_
 _symmetry_equiv_pos_site_id
 _symmetry_equiv_pos_as_xyz
  1  'x, y, z'
loop_
 _atom_site_type_symbol
 _atom_site_label
 _atom_site_symmetry_multiplicity
 _atom_site_fract_x
 _atom_site_fract_y
 _atom_site_fract_z
 _atom_site_occupancy
  Ti  Ti0  1  0.49194998  0.00659200  0.25000000  1
  Ce  Ce1  1  0.00805000  0.50659198  0.74999999  1
  Zr  Zr2  1  0.99194996  0.49340798  0.25000000  1
  Ce  Ce3  1  0.50804998  0.99340796  0.74999999  1
  Ti  Ti4  1  0.00000000  0.00000000  0.00000000  1
  Ti  Ti5  1  0.49999998  0.49999998  0.00000000  1
  Ti  Ti6  1  0.49999998  0.49999998  0.50000000  1
  Ti  Ti7  1  0.00000000  0.00000000  0.50000000  1
  O  O8  1  0.24199599  0.25771699  0.03768900  1
  O  O9  1  0.25800399  0.75771697  0.96231099  1
  O  O10  1  0.74199597  0.24228299  0.46231100  1
  O  O11  1  0.75800397  0.74228297  0.53768900  1
  O  O12  1  0.75800397  0.74228297  0.96231099  1
  O  O13  1  0.74199597  0.24228299  0.03768900  1
  O  O14  1  0.25800399  0.75771697  0.53768900  1
  O  O15  1  0.24199599  0.25771699  0.46231100  1
  O  O16  1  0.00310000  0.92984596  0.25000000  1
  O  O17  1  0.49689998  0.42984598  0.74999999  1
  O  O18  1  0.50309998  0.57015398  0.25000000  1
  O  O19  1  0.99689996  0.07015400  0.74999999  1
