# generated using pymatgen
data_AgBrF2
_symmetry_space_group_name_H-M   'P 1'
_cell_length_a   3.65497851
_cell_length_b   3.71586180
_cell_length_c   7.57485771
_cell_angle_alpha   75.98760986
_cell_angle_beta   76.29693604
_cell_angle_gamma   89.98646545
_symmetry_Int_Tables_number   1
_chemical_formula_structural   AgBrF2
_chemical_formula_sum   'Ag1 Br1 F2'
_cell_volume   96.79652467
_cell_formula_units_Z   1
loop_
 _symmetry_equiv_pos_site_id
 _symmetry_equiv_pos_as_xyz
  1  'x, y, z'
loop_
 _atom_site_type_symbol
 _atom_site_label
 _atom_site_symmetry_multiplicity
 _atom_site_fract_x
 _atom_site_fract_y
 _atom_site_fract_z
 _atom_site_occupancy
  Ag  Ag0  1  0.00000002  0.99999901  -0.00000003  1
  Br  Br1  1  0.87654503  0.37569100  0.25207297  1
  F  F2  1  0.12345701  0.62431001  0.74792599  1
  F  F3  1  0.50000002  0.00000100  1.00000001  1
