# generated using pymatgen
data_LiZn2Fe2CoPS9
_symmetry_space_group_name_H-M   'P 1'
_cell_length_a   6.44933510
_cell_length_b   6.44933414
_cell_length_c   6.44933510
_cell_angle_alpha   90.06198120
_cell_angle_beta   119.96422577
_cell_angle_gamma   119.96422577
_symmetry_Int_Tables_number   1
_chemical_formula_structural   LiZn2Fe2CoPS9
_chemical_formula_sum   'Li1 Zn2 Fe2 Co1 P1 S9'
_cell_volume   189.78602739
_cell_formula_units_Z   1
loop_
 _symmetry_equiv_pos_site_id
 _symmetry_equiv_pos_as_xyz
  1  'x, y, z'
loop_
 _atom_site_type_symbol
 _atom_site_label
 _atom_site_symmetry_multiplicity
 _atom_site_fract_x
 _atom_site_fract_y
 _atom_site_fract_z
 _atom_site_occupancy
  Li  Li0  1  0.25000004  0.37500002  0.62500003  1
  Zn  Zn1  1  0.75000003  0.37500002  0.12500000  1
  Fe  Fe2  1  0.25000009  0.87500005  0.62500006  1
  Fe  Fe3  1  0.75000003  0.37500002  0.62500001  1
  Co  Co4  1  0.25000009  0.87500005  0.12500006  1
  Zn  Zn5  1  0.75000009  0.87500005  0.62500005  1
  P  P6  1  0.25000004  0.37500002  0.12500002  1
  S  S7  1  0.75000009  0.87500005  0.12500004  1
  S  S8  1  0.24013401  0.11941301  0.88056501  1
  S  S9  1  0.75986706  0.64043104  0.87928003  1
  S  S10  1  0.73884906  0.62928003  0.36941303  1
  S  S11  1  0.25986607  0.63058703  0.36943504  1
  S  S12  1  0.26115207  0.63056503  0.89043105  1
  S  S13  1  0.74013301  0.10956901  0.37071999  1
  S  S14  1  0.76115101  0.12072001  0.88058699  1
  S  S15  1  0.23884801  0.11943501  0.35956900  1
