# generated using pymatgen
data_Li2Mn2Te3O11
_symmetry_space_group_name_H-M   'P 1'
_cell_length_a   4.80734301
_cell_length_b   5.80720139
_cell_length_c   8.07526398
_cell_angle_alpha   92.59653473
_cell_angle_beta   90.64274597
_cell_angle_gamma   90.16236115
_symmetry_Int_Tables_number   1
_chemical_formula_structural   Li2Mn2Te3O11
_chemical_formula_sum   'Li2 Mn2 Te3 O11'
_cell_volume   225.19194579
_cell_formula_units_Z   1
loop_
 _symmetry_equiv_pos_site_id
 _symmetry_equiv_pos_as_xyz
  1  'x, y, z'
loop_
 _atom_site_type_symbol
 _atom_site_label
 _atom_site_symmetry_multiplicity
 _atom_site_fract_x
 _atom_site_fract_y
 _atom_site_fract_z
 _atom_site_occupancy
  Li  Li0  1  0.50423501  0.83800299  0.32869102  1
  Li  Li1  1  0.49399200  0.48415100  0.99795402  1
  Mn  Mn2  1  0.46244800  0.17759800  0.68228101  1
  Mn  Mn3  1  0.01625700  0.33178900  0.35218702  1
  Te  Te4  1  0.01446601  0.65532799  0.66300703  1
  Te  Te5  1  0.00537500  0.01188600  0.98875302  1
  Te  Te6  1  0.20607200  0.36357300  0.55433102  1
  O  O7  1  0.31069600  0.19347100  0.89382101  1
  O  O8  1  0.18950000  0.04242100  0.24601300  1
  O  O9  1  0.19739801  0.69657399  0.90023803  1
  O  O10  1  0.28858600  0.53395900  0.23489102  1
  O  O11  1  0.30814201  0.87806799  0.56787503  1
  O  O12  1  0.70207600  0.13989800  0.43845900  1
  O  O13  1  0.70373600  0.45647500  0.75771401  1
  O  O14  1  0.70077301  0.80077499  0.09579701  1
  O  O15  1  0.78755101  0.96378999  0.75194303  1
  O  O16  1  0.80233701  0.62636099  0.42101501  1
  O  O17  1  0.80636000  0.30588200  0.12502399  1
