# generated using pymatgen
data_K2UB2HNO7F2
_symmetry_space_group_name_H-M   'P 1'
_cell_length_a   5.97839308
_cell_length_b   5.97839308
_cell_length_c   5.97839260
_cell_angle_alpha   77.44763184
_cell_angle_beta   77.44763184
_cell_angle_gamma   77.44762421
_symmetry_Int_Tables_number   1
_chemical_formula_structural   K2UB2HNO7F2
_chemical_formula_sum   'K2 U1 B2 H1 N1 O7 F2'
_cell_volume   200.31158540
_cell_formula_units_Z   1
loop_
 _symmetry_equiv_pos_site_id
 _symmetry_equiv_pos_as_xyz
  1  'x, y, z'
loop_
 _atom_site_type_symbol
 _atom_site_label
 _atom_site_symmetry_multiplicity
 _atom_site_fract_x
 _atom_site_fract_y
 _atom_site_fract_z
 _atom_site_occupancy
  K  K0  1  0.00000000  0.00000000  0.00000000  1
  K  K1  1  0.50000003  0.50000000  0.50000000  1
  U  U2  1  0.56203305  0.75000000  0.93796700  1
  H  H3  1  0.75000006  0.93796699  0.56203300  1
  B  B4  1  0.25000001  0.06203300  0.43796700  1
  B  B5  1  0.06203303  0.43796700  0.25000000  1
  N  N6  1  0.93796704  0.56203300  0.75000000  1
  O  O7  1  0.43796702  0.25000000  0.06203300  1
  O  O8  1  0.25000006  0.92815499  0.57184500  1
  F  F9  1  0.07184503  0.42815500  0.75000000  1
  O  O10  1  0.75000001  0.07184500  0.42815500  1
  O  O11  1  0.42815505  0.75000000  0.07184500  1
  O  O12  1  0.75000005  0.75000000  0.75000000  1
  O  O13  1  0.25000002  0.25000000  0.25000000  1
  O  O14  1  0.57184502  0.25000000  0.92815500  1
  F  F15  1  0.92815504  0.57184500  0.25000000  1
