# generated using pymatgen
data_Ba2CoMoO6
_symmetry_space_group_name_H-M   'P 1'
_cell_length_a   5.51795578
_cell_length_b   5.51795578
_cell_length_c   5.51795626
_cell_angle_alpha   60.75349808
_cell_angle_beta   60.75349808
_cell_angle_gamma   60.75349045
_symmetry_Int_Tables_number   1
_chemical_formula_structural   Ba2CoMoO6
_chemical_formula_sum   'Ba2 Co1 Mo1 O6'
_cell_volume   120.82056105
_cell_formula_units_Z   1
loop_
 _symmetry_equiv_pos_site_id
 _symmetry_equiv_pos_as_xyz
  1  'x, y, z'
loop_
 _atom_site_type_symbol
 _atom_site_label
 _atom_site_symmetry_multiplicity
 _atom_site_fract_x
 _atom_site_fract_y
 _atom_site_fract_z
 _atom_site_occupancy
  Ba  Ba0  1  0.25058298  0.25058299  0.25058301  1
  Ba  Ba1  1  0.74941693  0.74941698  0.74941703  1
  Co  Co2  1  0.00000000  0.00000000  0.00000000  1
  Mo  Mo3  1  0.49999995  0.49999999  0.50000002  1
  O  O4  1  0.73648296  0.19338799  0.32490102  1
  O  O5  1  0.19338797  0.32490099  0.73648300  1
  O  O6  1  0.32490095  0.73648298  0.19338803  1
  O  O7  1  0.67509896  0.26351699  0.80661201  1
  O  O8  1  0.80661193  0.67509898  0.26351704  1
  O  O9  1  0.26351695  0.80661198  0.67509902  1
