# generated using pymatgen
data_HfTaO4
_symmetry_space_group_name_H-M   'P 1'
_cell_length_a   3.79168892
_cell_length_b   4.35139465
_cell_length_c   5.52984047
_cell_angle_alpha   110.99842834
_cell_angle_beta   109.36715698
_cell_angle_gamma   90.92372131
_symmetry_Int_Tables_number   1
_chemical_formula_structural   HfTaO4
_chemical_formula_sum   'Hf1 Ta1 O4'
_cell_volume   79.40958268
_cell_formula_units_Z   1
loop_
 _symmetry_equiv_pos_site_id
 _symmetry_equiv_pos_as_xyz
  1  'x, y, z'
loop_
 _atom_site_type_symbol
 _atom_site_label
 _atom_site_symmetry_multiplicity
 _atom_site_fract_x
 _atom_site_fract_y
 _atom_site_fract_z
 _atom_site_occupancy
  Ta  Ta0  1  0.86316802  0.61709197  0.23143399  1
  Hf  Hf1  1  0.13683200  0.38290798  0.76856602  1
  O  O2  1  0.33183900  0.63029496  0.16413698  1
  O  O3  1  0.66816101  0.36970498  0.83586302  1
  O  O4  1  0.94407902  0.18674199  0.35831101  1
  O  O5  1  0.05592100  0.81325795  0.64168899  1
