# generated using pymatgen
data_LiMnCo4O11
_symmetry_space_group_name_H-M   'P 1'
_cell_length_a   5.15159512
_cell_length_b   5.34609747
_cell_length_c   7.47610426
_cell_angle_alpha   86.99340057
_cell_angle_beta   89.81333160
_cell_angle_gamma   89.51372528
_symmetry_Int_Tables_number   1
_chemical_formula_structural   LiMnCo4O11
_chemical_formula_sum   'Li1 Mn1 Co4 O11'
_cell_volume   205.60722043
_cell_formula_units_Z   1
loop_
 _symmetry_equiv_pos_site_id
 _symmetry_equiv_pos_as_xyz
  1  'x, y, z'
loop_
 _atom_site_type_symbol
 _atom_site_label
 _atom_site_symmetry_multiplicity
 _atom_site_fract_x
 _atom_site_fract_y
 _atom_site_fract_z
 _atom_site_occupancy
  Mn  Mn0  1  0.00099797  0.47470301  0.22695699  1
  Li  Li1  1  0.00651400  0.03616800  0.02911700  1
  Co  Co2  1  0.49781196  0.50151901  0.49657900  1
  Co  Co3  1  0.50210796  0.53587401  0.98861301  1
  Co  Co4  1  0.00390294  0.99777302  0.52676298  1
  Co  Co5  1  0.69483797  0.20121500  0.55559301  1
  O  O6  1  0.91033598  0.00845500  0.25261901  1
  O  O7  1  0.70484294  0.80568601  0.95260800  1
  O  O8  1  0.79991594  0.69880101  0.55328599  1
  O  O9  1  0.19535096  0.69871101  0.05609298  1
  O  O10  1  0.61975096  0.49969001  0.25265799  1
  O  O11  1  0.39187396  0.50201501  0.74508500  1
  O  O12  1  0.79510497  0.29881300  0.96590902  1
  O  O13  1  0.19058798  0.31058701  0.43953900  1
  O  O14  1  0.28552398  0.21008400  0.05240199  1
  O  O15  1  0.10077400  0.00204200  0.75547702  1
  O  O16  1  0.29976395  0.80346901  0.44350298  1
