# generated using pymatgen
data_MgZn2(MoO4)3
_symmetry_space_group_name_H-M   'P 1'
_cell_length_a   4.72179985
_cell_length_b   4.72179985
_cell_length_c   9.06898022
_cell_angle_alpha   90.00000000
_cell_angle_beta   90.00000000
_cell_angle_gamma   90.00000000
_symmetry_Int_Tables_number   1
_chemical_formula_structural   MgZn2(MoO4)3
_chemical_formula_sum   'Mg1 Zn2 Mo3 O12'
_cell_volume   202.19648555
_cell_formula_units_Z   1
loop_
 _symmetry_equiv_pos_site_id
 _symmetry_equiv_pos_as_xyz
  1  'x, y, z'
loop_
 _atom_site_type_symbol
 _atom_site_label
 _atom_site_symmetry_multiplicity
 _atom_site_fract_x
 _atom_site_fract_y
 _atom_site_fract_z
 _atom_site_occupancy
  Zn  Zn0  1  0.00000000  0.00000000  0.33839499  1
  Mg  Mg1  1  0.50000002  0.50000002  0.83839498  1
  Zn  Zn2  1  0.50000002  0.50000002  0.16160500  1
  Mo  Mo3  1  0.00000000  0.00000000  0.66160498  1
  Mo  Mo4  1  0.00000000  0.00000000  0.00000000  1
  Mo  Mo5  1  0.50000002  0.50000002  0.49999999  1
  O  O6  1  0.21516801  0.78483202  0.49999999  1
  O  O7  1  0.69264702  0.69264702  0.65311398  1
  O  O8  1  0.28483201  0.28483201  0.00000000  1
  O  O9  1  0.71516802  0.71516802  0.00000000  1
  O  O10  1  0.78483202  0.21516801  0.49999999  1
  O  O11  1  0.19264701  0.80735303  0.84688598  1
  O  O12  1  0.30735301  0.30735301  0.34688599  1
  O  O13  1  0.69264702  0.69264702  0.34688599  1
  O  O14  1  0.80735303  0.19264701  0.84688598  1
  O  O15  1  0.80735303  0.19264701  0.15311400  1
  O  O16  1  0.19264701  0.80735303  0.15311400  1
  O  O17  1  0.30735301  0.30735301  0.65311398  1
