# generated using pymatgen
data_Ba2La3Ta(RuO5)2
_symmetry_space_group_name_H-M   'P 1'
_cell_length_a   4.49577999
_cell_length_b   7.36290646
_cell_length_c   9.97323513
_cell_angle_alpha   98.73278809
_cell_angle_beta   101.30300903
_cell_angle_gamma   92.60599518
_symmetry_Int_Tables_number   1
_chemical_formula_structural   Ba2La3Ta(RuO5)2
_chemical_formula_sum   'Ba2 La3 Ta1 Ru2 O10'
_cell_volume   319.01279583
_cell_formula_units_Z   1
loop_
 _symmetry_equiv_pos_site_id
 _symmetry_equiv_pos_as_xyz
  1  'x, y, z'
loop_
 _atom_site_type_symbol
 _atom_site_label
 _atom_site_symmetry_multiplicity
 _atom_site_fract_x
 _atom_site_fract_y
 _atom_site_fract_z
 _atom_site_occupancy
  Ba  Ba0  1  0.40062599  0.25414200  0.05344898  1
  Ba  Ba1  1  0.59937398  0.74585801  0.94655094  1
  La  La2  1  0.36151698  0.78879001  0.26811295  1
  La  La3  1  0.63848299  0.21121000  0.73188697  1
  La  La4  1  0.98022698  0.72566100  0.63358694  1
  Ta  Ta5  1  0.01977300  0.27433900  0.36641298  1
  Ru  Ru6  1  0.90826199  0.43870800  0.61226095  1
  Ru  Ru7  1  0.09173799  0.56129200  0.38773897  1
  O  O8  1  0.05472899  0.73493500  0.85498095  1
  O  O9  1  0.94527099  0.26506500  0.14501897  1
  O  O10  1  0.89711198  0.78951001  0.17616094  1
  O  O11  1  0.10288800  0.21049000  0.82383898  1
  O  O12  1  0.61295999  0.04268600  0.89198497  1
  O  O13  1  0.38703998  0.95731401  0.10801495  1
  O  O14  1  0.53053499  0.30895800  0.30536397  1
  O  O15  1  0.46946498  0.69104200  0.69463595  1
  O  O16  1  0.63707299  0.42480600  0.89850995  1
  O  O17  1  0.36292699  0.57519400  0.10148996  1
