# generated using pymatgen
data_BaPbO3
_symmetry_space_group_name_H-M   'P 1'
_cell_length_a   4.68513918
_cell_length_b   4.94802666
_cell_length_c   17.83619499
_cell_angle_alpha   89.01064301
_cell_angle_beta   84.79331970
_cell_angle_gamma   89.91413879
_symmetry_Int_Tables_number   1
_chemical_formula_structural   BaPbO3
_chemical_formula_sum   'Ba4 Pb4 O12'
_cell_volume   411.71463617
_cell_formula_units_Z   4
loop_
 _symmetry_equiv_pos_site_id
 _symmetry_equiv_pos_as_xyz
  1  'x, y, z'
loop_
 _atom_site_type_symbol
 _atom_site_label
 _atom_site_symmetry_multiplicity
 _atom_site_fract_x
 _atom_site_fract_y
 _atom_site_fract_z
 _atom_site_occupancy
  Ba  Ba0  1  0.18291700  0.19078500  0.67882698  1
  Ba  Ba1  1  0.32247000  0.67304699  0.81594998  1
  Ba  Ba2  1  0.81708298  0.80921498  0.32117299  1
  Ba  Ba3  1  0.67752998  0.32695299  0.18404999  1
  Pb  Pb4  1  0.24381300  0.82203898  0.07207800  1
  Pb  Pb5  1  0.74892898  0.70856299  0.56697498  1
  Pb  Pb6  1  0.25107100  0.29143699  0.43302499  1
  Pb  Pb7  1  0.75618698  0.17796100  0.92792197  1
  O  O8  1  0.78175497  0.18011600  0.80375997  1
  O  O9  1  0.21824501  0.81988398  0.19624000  1
  O  O10  1  0.76085298  0.66637999  0.91464397  1
  O  O11  1  0.25689199  0.15644300  0.89603297  1
  O  O12  1  0.29199999  0.31109299  0.30963699  1
  O  O13  1  0.70799999  0.68890699  0.69036298  1
  O  O14  1  0.74250298  0.19640300  0.58177998  1
  O  O15  1  0.76279798  0.30499499  0.40140998  1
  O  O16  1  0.23914700  0.33361999  0.08535600  1
  O  O17  1  0.23720200  0.69500499  0.59858998  1
  O  O18  1  0.74310799  0.84355698  0.10396700  1
  O  O19  1  0.25749700  0.80359698  0.41821999  1
