# generated using pymatgen
data_Li5CoO7
_symmetry_space_group_name_H-M   'P 1'
_cell_length_a   4.93153381
_cell_length_b   5.82497978
_cell_length_c   6.20025921
_cell_angle_alpha   61.98278427
_cell_angle_beta   72.89553833
_cell_angle_gamma   90.00000000
_symmetry_Int_Tables_number   1
_chemical_formula_structural   Li5CoO7
_chemical_formula_sum   'Li5 Co1 O7'
_cell_volume   148.25315852
_cell_formula_units_Z   1
loop_
 _symmetry_equiv_pos_site_id
 _symmetry_equiv_pos_as_xyz
  1  'x, y, z'
loop_
 _atom_site_type_symbol
 _atom_site_label
 _atom_site_symmetry_multiplicity
 _atom_site_fract_x
 _atom_site_fract_y
 _atom_site_fract_z
 _atom_site_occupancy
  Li  Li0  1  0.33735001  0.27826401  0.44347199  1
  Li  Li1  1  0.66265002  0.72173603  0.55652798  1
  Li  Li2  1  0.50000001  0.00000000  0.00000001  1
  Li  Li3  1  1.00000003  0.74743804  -0.00000000  1
  Li  Li4  1  0.00000000  0.25256201  -0.00000001  1
  Co  Co5  1  0.96191902  0.60069503  0.79860998  1
  O  O6  1  0.03808100  0.39930502  0.20138999  1
  O  O7  1  0.90001002  0.09384300  0.81231399  1
  O  O8  1  0.09999000  0.90615704  0.18768598  1
  O  O9  1  0.61172102  0.12142001  0.19904600  1
  O  O10  1  0.61172102  0.67953403  0.19904599  1
  O  O11  1  0.38827901  0.32046602  0.80095398  1
  O  O12  1  0.38827901  0.87858004  0.80095397  1
