# generated using pymatgen
data_KNa2TlO6
_symmetry_space_group_name_H-M   'P 1'
_cell_length_a   4.00859690
_cell_length_b   4.00859690
_cell_length_c   8.02223301
_cell_angle_alpha   90.00000000
_cell_angle_beta   90.00000000
_cell_angle_gamma   90.00000000
_symmetry_Int_Tables_number   1
_chemical_formula_structural   KNa2TlO6
_chemical_formula_sum   'K1 Na2 Tl1 O6'
_cell_volume   128.90805154
_cell_formula_units_Z   1
loop_
 _symmetry_equiv_pos_site_id
 _symmetry_equiv_pos_as_xyz
  1  'x, y, z'
loop_
 _atom_site_type_symbol
 _atom_site_label
 _atom_site_symmetry_multiplicity
 _atom_site_fract_x
 _atom_site_fract_y
 _atom_site_fract_z
 _atom_site_occupancy
  Na  Na0  1  0.50000001  0.50000001  0.50000000  1
  K  K1  1  0.50000001  0.50000001  -0.00000000  1
  Na  Na2  1  0.00000000  0.00000000  0.74998700  1
  Tl  Tl3  1  0.00000000  0.00000000  0.25001300  1
  O  O4  1  0.50000001  0.00000000  -0.00000000  1
  O  O5  1  0.50000001  0.00000000  0.50000000  1
  O  O6  1  0.50000001  0.50000001  0.74852300  1
  O  O7  1  0.50000001  0.50000001  0.25147700  1
  O  O8  1  0.00000000  0.50000001  -0.00000000  1
  O  O9  1  0.00000000  0.50000001  0.50000000  1
