# generated using pymatgen
data_K4Na2AlGaO10
_symmetry_space_group_name_H-M   'P 1'
_cell_length_a   6.85739517
_cell_length_b   6.85739517
_cell_length_c   7.47921658
_cell_angle_alpha   117.18917084
_cell_angle_beta   117.18916321
_cell_angle_gamma   90.18750763
_symmetry_Int_Tables_number   1
_chemical_formula_structural   K4Na2AlGaO10
_chemical_formula_sum   'K4 Na2 Al1 Ga1 O10'
_cell_volume   268.09109593
_cell_formula_units_Z   1
loop_
 _symmetry_equiv_pos_site_id
 _symmetry_equiv_pos_as_xyz
  1  'x, y, z'
loop_
 _atom_site_type_symbol
 _atom_site_label
 _atom_site_symmetry_multiplicity
 _atom_site_fract_x
 _atom_site_fract_y
 _atom_site_fract_z
 _atom_site_occupancy
  K  K0  1  0.24999998  0.24999999  0.49999999  1
  K  K1  1  0.74999995  0.74999998  0.49999997  1
  K  K2  1  0.82554898  0.32554899  0.99999999  1
  K  K3  1  0.17445096  0.67445099  -0.00000003  1
  Na  Na4  1  0.67888995  0.82110998  -0.00000003  1
  Na  Na5  1  0.32110999  0.17889000  -0.00000001  1
  Al  Al6  1  0.75229699  0.25229699  0.50459399  1
  Ga  Ga7  1  0.24770295  0.74770298  0.49540597  1
  O  O8  1  0.49999997  0.49999999  -0.00000002  1
  O  O9  1  0.00000000  0.00000000  0.00000000  1
  O  O10  1  0.21715795  0.71715798  0.71572197  1
  O  O11  1  0.49856394  0.99856398  0.71572196  1
  O  O12  1  0.00391999  0.20635700  0.71027699  1
  O  O13  1  0.70635597  0.50392099  0.71027698  1
  O  O14  1  0.78284199  0.28284199  0.28427799  1
  O  O15  1  0.50143600  0.00143600  0.28427800  1
  O  O16  1  0.99607995  0.79364298  0.28972297  1
  O  O17  1  0.29364397  0.49607899  0.28972298  1
