# generated using pymatgen
data_RbBaNdPbS4
_symmetry_space_group_name_H-M   'P 1'
_cell_length_a   4.25109386
_cell_length_b   4.25109386
_cell_length_c   16.14580727
_cell_angle_alpha   90.00000000
_cell_angle_beta   90.00000000
_cell_angle_gamma   120.00000000
_symmetry_Int_Tables_number   1
_chemical_formula_structural   RbBaNdPbS4
_chemical_formula_sum   'Rb1 Ba1 Nd1 Pb1 S4'
_cell_volume   252.69216964
_cell_formula_units_Z   1
loop_
 _symmetry_equiv_pos_site_id
 _symmetry_equiv_pos_as_xyz
  1  'x, y, z'
loop_
 _atom_site_type_symbol
 _atom_site_label
 _atom_site_symmetry_multiplicity
 _atom_site_fract_x
 _atom_site_fract_y
 _atom_site_fract_z
 _atom_site_occupancy
  Ba  Ba0  1  0.66666667  0.33333331  0.74999999  1
  Rb  Rb1  1  0.33333331  0.66666662  0.25000000  1
  Nd  Nd2  1  0.00000000  0.00000000  0.49999999  1
  Pb  Pb3  1  0.00000000  0.00000000  0.00000000  1
  S  S4  1  0.66666667  0.33333331  0.09359200  1
  S  S5  1  0.33333331  0.66666662  0.90640799  1
  S  S6  1  0.33333331  0.66666662  0.59359199  1
  S  S7  1  0.66666667  0.33333331  0.40640799  1
