# generated using pymatgen
data_NbB3(CS6)2
_symmetry_space_group_name_H-M   'P 1'
_cell_length_a   7.32216072
_cell_length_b   7.32216072
_cell_length_c   7.32355404
_cell_angle_alpha   60.57940292
_cell_angle_beta   60.57940292
_cell_angle_gamma   60.61150360
_symmetry_Int_Tables_number   1
_chemical_formula_structural   NbB3(CS6)2
_chemical_formula_sum   'Nb1 B3 C2 S12'
_cell_volume   281.34262198
_cell_formula_units_Z   1
loop_
 _symmetry_equiv_pos_site_id
 _symmetry_equiv_pos_as_xyz
  1  'x, y, z'
loop_
 _atom_site_type_symbol
 _atom_site_label
 _atom_site_symmetry_multiplicity
 _atom_site_fract_x
 _atom_site_fract_y
 _atom_site_fract_z
 _atom_site_occupancy
  Nb  Nb0  1  0.10643299  0.17777200  0.60948102  1
  B  B1  1  0.82222797  0.89356700  0.39051902  1
  B  B2  1  0.49860898  0.50139100  0.00000000  1
  B  B3  1  0.49793199  0.00155800  0.99991603  1
  C  C4  1  0.99844198  0.50206800  0.00008401  1
  C  C5  1  0.49811198  0.50188800  0.50000002  1
  S  S6  1  0.81227997  0.81311900  0.93907804  1
  S  S7  1  0.44027898  0.43774900  0.31444001  1
  S  S8  1  0.44070797  0.81398800  0.93781603  1
  S  S9  1  0.81227698  0.43926300  0.31291901  1
  S  S10  1  0.81385398  0.43967700  0.93924703  1
  S  S11  1  0.43978697  0.81314500  0.31297702  1
  S  S12  1  0.18688099  0.18772000  0.06092200  1
  S  S13  1  0.56225098  0.55972100  0.68556003  1
  S  S14  1  0.56032299  0.18614600  0.06075300  1
  S  S15  1  0.18685498  0.56021300  0.68702303  1
  S  S16  1  0.18601198  0.55929200  0.06218401  1
  S  S17  1  0.56073699  0.18772300  0.68708102  1
