# generated using pymatgen
data_La6TiTeS7O5
_symmetry_space_group_name_H-M   'P 1'
_cell_length_a   4.11218977
_cell_length_b   4.11218977
_cell_length_c   26.22118568
_cell_angle_alpha   90.00000000
_cell_angle_beta   90.00000000
_cell_angle_gamma   90.00000000
_symmetry_Int_Tables_number   1
_chemical_formula_structural   La6TiTeS7O5
_chemical_formula_sum   'La6 Ti1 Te1 S7 O5'
_cell_volume   443.40299534
_cell_formula_units_Z   1
loop_
 _symmetry_equiv_pos_site_id
 _symmetry_equiv_pos_as_xyz
  1  'x, y, z'
loop_
 _atom_site_type_symbol
 _atom_site_label
 _atom_site_symmetry_multiplicity
 _atom_site_fract_x
 _atom_site_fract_y
 _atom_site_fract_z
 _atom_site_occupancy
  La  La0  1  0.50000003  0.50000003  0.07781200  1
  La  La1  1  0.00000000  0.00000000  0.32918500  1
  Ti  Ti2  1  0.50000003  0.50000003  0.57918001  1
  La  La3  1  0.00000000  0.00000000  0.82949901  1
  La  La4  1  0.00000000  0.00000000  0.17050100  1
  Te  Te5  1  0.50000003  0.50000003  0.42082001  1
  La  La6  1  0.00000000  0.00000000  0.67081501  1
  La  La7  1  0.50000003  0.50000003  0.92218801  1
  S  S8  1  0.50000003  0.50000003  0.24997700  1
  S  S9  1  0.00000000  0.00000000  0.50000001  1
  S  S10  1  0.50000003  0.50000003  0.75002301  1
  S  S11  1  0.00000000  0.00000000  0.00000000  1
  O  O12  1  0.50000003  0.00000000  0.12441300  1
  S  S13  1  0.00000000  0.50000003  0.37500400  1
  S  S14  1  0.50000003  0.00000000  0.62499601  1
  O  O15  1  0.00000000  0.50000003  0.87558701  1
  O  O16  1  0.00000000  0.50000003  0.12441300  1
  O  O17  1  0.50000003  0.00000000  0.37500400  1
  S  S18  1  0.00000000  0.50000003  0.62499601  1
  O  O19  1  0.50000003  0.00000000  0.87558701  1
