# generated using pymatgen
data_Na2TiAlH4N2O5
_symmetry_space_group_name_H-M   'P 1'
_cell_length_a   5.37605381
_cell_length_b   5.37605381
_cell_length_c   7.78592587
_cell_angle_alpha   90.00000000
_cell_angle_beta   90.00000000
_cell_angle_gamma   90.00000000
_symmetry_Int_Tables_number   1
_chemical_formula_structural   Na2TiAlH4N2O5
_chemical_formula_sum   'Na2 Ti1 Al1 H4 N2 O5'
_cell_volume   225.02847564
_cell_formula_units_Z   1
loop_
 _symmetry_equiv_pos_site_id
 _symmetry_equiv_pos_as_xyz
  1  'x, y, z'
loop_
 _atom_site_type_symbol
 _atom_site_label
 _atom_site_symmetry_multiplicity
 _atom_site_fract_x
 _atom_site_fract_y
 _atom_site_fract_z
 _atom_site_occupancy
  Na  Na0  1  0.00000000  0.00000000  0.00000000  1
  Na  Na1  1  0.00000000  0.50000002  0.25820500  1
  Al  Al2  1  0.50000002  0.00000000  0.74179501  1
  Ti  Ti3  1  0.26132701  0.22712501  0.75949401  1
  H  H4  1  0.73867303  0.77287503  0.75949401  1
  H  H5  1  0.22712501  0.73867303  0.24050600  1
  H  H6  1  0.77287503  0.26132701  0.24050600  1
  O  O7  1  0.00000000  0.50000002  0.47937701  1
  O  O8  1  0.50000002  0.00000000  0.52062301  1
  O  O9  1  0.00000000  0.50000002  0.02282400  1
  O  O10  1  0.50000002  0.00000000  0.97717602  1
  O  O11  1  0.22712501  0.26132701  0.24050600  1
  N  N12  1  0.77287503  0.73867303  0.24050600  1
  N  N13  1  0.26132701  0.77287503  0.75949401  1
  H  H14  1  0.73867303  0.22712501  0.75949401  1
