# generated using pymatgen
data_RbZnCl3
_symmetry_space_group_name_H-M   'P 1'
_cell_length_a   6.31259966
_cell_length_b   7.10133219
_cell_length_c   7.13548565
_cell_angle_alpha   60.15821075
_cell_angle_beta   88.02101898
_cell_angle_gamma   90.00000000
_symmetry_Int_Tables_number   1
_chemical_formula_structural   RbZnCl3
_chemical_formula_sum   'Rb2 Zn2 Cl6'
_cell_volume   277.23493814
_cell_formula_units_Z   2
loop_
 _symmetry_equiv_pos_site_id
 _symmetry_equiv_pos_as_xyz
  1  'x, y, z'
loop_
 _atom_site_type_symbol
 _atom_site_label
 _atom_site_symmetry_multiplicity
 _atom_site_fract_x
 _atom_site_fract_y
 _atom_site_fract_z
 _atom_site_occupancy
  Rb  Rb0  1  0.75480600  0.33417899  0.33164202  1
  Rb  Rb1  1  0.24519400  0.66582098  0.66835804  1
  Zn  Zn2  1  0.50000000  0.00000000  0.00000000  1
  Zn  Zn3  1  0.00000000  0.00000000  0.00000000  1
  Cl  Cl4  1  0.21984800  0.68230497  0.16010902  1
  Cl  Cl5  1  0.21984800  0.15758599  0.16010901  1
  Cl  Cl6  1  0.30954500  0.16321199  0.67357603  1
  Cl  Cl7  1  0.78015200  0.31769499  0.83989104  1
  Cl  Cl8  1  0.78015200  0.84241397  0.83989105  1
  Cl  Cl9  1  0.69045500  0.83678797  0.32642403  1
