# generated using pymatgen
data_HoTm3(ZnS4)2
_symmetry_space_group_name_H-M   'P 1'
_cell_length_a   8.08740234
_cell_length_b   8.08740234
_cell_length_c   8.08740234
_cell_angle_alpha   60.00000000
_cell_angle_beta   60.00000000
_cell_angle_gamma   60.00000000
_symmetry_Int_Tables_number   1
_chemical_formula_structural   HoTm3(ZnS4)2
_chemical_formula_sum   'Ho1 Tm3 Zn2 S8'
_cell_volume   374.03492077
_cell_formula_units_Z   1
loop_
 _symmetry_equiv_pos_site_id
 _symmetry_equiv_pos_as_xyz
  1  'x, y, z'
loop_
 _atom_site_type_symbol
 _atom_site_label
 _atom_site_symmetry_multiplicity
 _atom_site_fract_x
 _atom_site_fract_y
 _atom_site_fract_z
 _atom_site_occupancy
  Tm  Tm0  1  0.37500000  0.37500000  0.37500000  1
  Tm  Tm1  1  0.37500000  0.87499999  0.37500000  1
  Tm  Tm2  1  0.37500000  0.37500000  0.87499999  1
  Ho  Ho3  1  0.87499999  0.37500000  0.37500000  1
  Zn  Zn4  1  0.00000000  0.00000000  0.00000000  1
  Zn  Zn5  1  0.75000000  0.75000000  0.75000000  1
  S  S6  1  0.13323800  0.62225400  0.62225400  1
  S  S7  1  0.62225400  0.62225400  0.13323800  1
  S  S8  1  0.62225400  0.62225400  0.62225400  1
  S  S9  1  0.62225400  0.13323800  0.62225400  1
  S  S10  1  0.12774600  0.61676200  0.12774600  1
  S  S11  1  0.12774600  0.12774600  0.12774600  1
  S  S12  1  0.12774600  0.12774600  0.61676200  1
  S  S13  1  0.61676200  0.12774600  0.12774600  1
