# generated using pymatgen
data_CsBaTiCoRu3WS4
_symmetry_space_group_name_H-M   'P 1'
_cell_length_a   5.55818176
_cell_length_b   7.76227283
_cell_length_c   8.83039665
_cell_angle_alpha   110.20336151
_cell_angle_beta   90.00000000
_cell_angle_gamma   90.00000000
_symmetry_Int_Tables_number   1
_chemical_formula_structural   CsBaTiCoRu3WS4
_chemical_formula_sum   'Cs1 Ba1 Ti1 Co1 Ru3 W1 S4'
_cell_volume   357.53909225
_cell_formula_units_Z   1
loop_
 _symmetry_equiv_pos_site_id
 _symmetry_equiv_pos_as_xyz
  1  'x, y, z'
loop_
 _atom_site_type_symbol
 _atom_site_label
 _atom_site_symmetry_multiplicity
 _atom_site_fract_x
 _atom_site_fract_y
 _atom_site_fract_z
 _atom_site_occupancy
  Cs  Cs0  1  0.25000001  0.67196302  0.36586103  1
  Ba  Ba1  1  0.75000003  0.32803701  0.63413902  1
  Co  Co2  1  0.50413402  0.88567803  0.85321405  1
  Ti  Ti3  1  0.99586604  0.88567803  0.85321405  1
  Ru  Ru4  1  0.00413400  0.11432200  0.14678601  1
  Ru  Ru5  1  0.49586602  0.11432200  0.14678601  1
  W  W6  1  0.75000003  0.80553703  0.08167303  1
  Ru  Ru7  1  0.25000001  0.19446301  0.91832702  1
  S  S8  1  0.75000003  0.86878903  0.62795004  1
  S  S9  1  0.75000003  0.37588001  0.25327802  1
  S  S10  1  0.25000001  0.13121100  0.37205001  1
  S  S11  1  0.25000001  0.62412002  0.74672203  1
