# generated using pymatgen
data_LiMn3O5
_symmetry_space_group_name_H-M   'P 1'
_cell_length_a   4.73163223
_cell_length_b   5.62311935
_cell_length_c   7.71405268
_cell_angle_alpha   84.83666992
_cell_angle_beta   87.13339233
_cell_angle_gamma   86.21360016
_symmetry_Int_Tables_number   1
_chemical_formula_structural   LiMn3O5
_chemical_formula_sum   'Li2 Mn6 O10'
_cell_volume   203.76452269
_cell_formula_units_Z   2
loop_
 _symmetry_equiv_pos_site_id
 _symmetry_equiv_pos_as_xyz
  1  'x, y, z'
loop_
 _atom_site_type_symbol
 _atom_site_label
 _atom_site_symmetry_multiplicity
 _atom_site_fract_x
 _atom_site_fract_y
 _atom_site_fract_z
 _atom_site_occupancy
  Li  Li0  1  0.49999996  0.50000000  0.49999995  1
  Li  Li1  1  0.45299197  0.13447900  0.81854695  1
  Mn  Mn2  1  0.54700794  0.86552100  0.18145294  1
  Mn  Mn3  1  0.00000000  0.00000000  0.49999999  1
  Mn  Mn4  1  0.99364794  0.33028500  0.16317994  1
  Mn  Mn5  1  0.00635197  0.66971500  0.83681995  1
  Mn  Mn6  1  0.80232396  0.03894700  0.26804396  1
  Mn  Mn7  1  0.69060893  0.87016100  0.93611191  1
  O  O8  1  0.69269096  0.19737300  0.60482495  1
  O  O9  1  0.70167695  0.54310300  0.26513295  1
  O  O10  1  0.30730895  0.80262700  0.39517495  1
  O  O11  1  0.30939098  0.12983900  0.06388798  1
  O  O12  1  0.29832297  0.45689700  0.73486695  1
  O  O13  1  0.19767595  0.96105300  0.73195594  1
  O  O14  1  0.80252895  0.36987100  0.93192793  1
  O  O15  1  0.80458094  0.69942800  0.60351193  1
  O  O16  1  0.19747097  0.63012900  0.06807197  1
  O  O17  1  0.19541898  0.30057200  0.39648797  1
