# generated using pymatgen
data_Li5Co(PO4)2
_symmetry_space_group_name_H-M   'P 1'
_cell_length_a   5.05725384
_cell_length_b   5.41768122
_cell_length_c   6.17562294
_cell_angle_alpha   90.00000000
_cell_angle_beta   90.00020599
_cell_angle_gamma   90.00000000
_symmetry_Int_Tables_number   1
_chemical_formula_structural   Li5Co(PO4)2
_chemical_formula_sum   'Li5 Co1 P2 O8'
_cell_volume   169.20335553
_cell_formula_units_Z   1
loop_
 _symmetry_equiv_pos_site_id
 _symmetry_equiv_pos_as_xyz
  1  'x, y, z'
loop_
 _atom_site_type_symbol
 _atom_site_label
 _atom_site_symmetry_multiplicity
 _atom_site_fract_x
 _atom_site_fract_y
 _atom_site_fract_z
 _atom_site_occupancy
  Li  Li0  1  0.50023302  0.67138597  0.25298302  1
  Li  Li1  1  0.00115700  0.84796897  0.50010000  1
  Li  Li2  1  0.50115702  0.15203099  0.00010001  1
  Li  Li3  1  0.00023300  0.32861399  0.75298301  1
  Li  Li4  1  0.00889100  0.34395499  0.24482200  1
  Co  Co5  1  0.50889102  0.65604497  0.74482202  1
  P  P6  1  0.00464700  0.82946897  0.00007900  1
  P  P7  1  0.50464702  0.17053099  0.50007902  1
  O  O8  1  0.89089403  0.70335797  0.20861803  1
  O  O9  1  0.39089401  0.29664199  0.70861802  1
  O  O10  1  0.41571501  0.31432899  0.29247901  1
  O  O11  1  0.91571503  0.68567097  0.79247903  1
  O  O12  1  0.89640703  0.09875700  0.98987403  1
  O  O13  1  0.81215603  0.16993899  0.50974403  1
  O  O14  1  0.39640701  0.90124296  0.48987402  1
  O  O15  1  0.31215601  0.83006097  0.00974401  1
