# generated using pymatgen
data_BaSr(GeO3)2
_symmetry_space_group_name_H-M   'P 1'
_cell_length_a   5.64890194
_cell_length_b   5.68478298
_cell_length_c   5.64890194
_cell_angle_alpha   60.20857239
_cell_angle_beta   90.00000000
_cell_angle_gamma   119.79142761
_symmetry_Int_Tables_number   1
_chemical_formula_structural   BaSr(GeO3)2
_chemical_formula_sum   'Ba1 Sr1 Ge2 O6'
_cell_volume   129.07508594
_cell_formula_units_Z   1
loop_
 _symmetry_equiv_pos_site_id
 _symmetry_equiv_pos_as_xyz
  1  'x, y, z'
loop_
 _atom_site_type_symbol
 _atom_site_label
 _atom_site_symmetry_multiplicity
 _atom_site_fract_x
 _atom_site_fract_y
 _atom_site_fract_z
 _atom_site_occupancy
  Ba  Ba0  1  0.75000000  0.49999999  0.75000001  1
  Sr  Sr1  1  0.25000000  0.49999999  0.25000001  1
  Ge  Ge2  1  0.00000000  0.00000000  0.00000000  1
  Ge  Ge3  1  0.50000001  0.00000000  0.50000001  1
  O  O4  1  0.74170400  0.48340799  0.25829601  1
  O  O5  1  0.25829600  0.51659198  0.74170401  1
  O  O6  1  0.70109501  0.00000100  0.78129001  1
  O  O7  1  0.78129101  0.00000000  0.29890500  1
  O  O8  1  0.29890499  0.99999897  0.21871001  1
  O  O9  1  0.21870900  0.00000000  0.70109501  1
