# generated using pymatgen
data_KAg6AsO10
_symmetry_space_group_name_H-M   'P 1'
_cell_length_a   4.96775198
_cell_length_b   7.46189880
_cell_length_c   7.46189880
_cell_angle_alpha   90.00000000
_cell_angle_beta   90.00000000
_cell_angle_gamma   90.00000000
_symmetry_Int_Tables_number   1
_chemical_formula_structural   KAg6AsO10
_chemical_formula_sum   'K1 Ag6 As1 O10'
_cell_volume   276.60410116
_cell_formula_units_Z   1
loop_
 _symmetry_equiv_pos_site_id
 _symmetry_equiv_pos_as_xyz
  1  'x, y, z'
loop_
 _atom_site_type_symbol
 _atom_site_label
 _atom_site_symmetry_multiplicity
 _atom_site_fract_x
 _atom_site_fract_y
 _atom_site_fract_z
 _atom_site_occupancy
  K  K0  1  0.50000000  0.00000000  0.00000000  1
  As  As1  1  0.00000000  0.50000001  0.50000001  1
  Ag  Ag2  1  0.95379700  0.31891201  0.88677402  1
  Ag  Ag3  1  0.54620300  0.81891202  0.38677401  1
  Ag  Ag4  1  0.54620300  0.18108800  0.61322602  1
  Ag  Ag5  1  0.45379700  0.38677401  0.18108800  1
  Ag  Ag6  1  0.45379700  0.61322602  0.81891202  1
  Ag  Ag7  1  0.04620300  0.11322600  0.31891201  1
  O  O8  1  0.95379700  0.68108802  0.11322600  1
  O  O9  1  0.04620300  0.88677402  0.68108802  1
  O  O10  1  0.18929500  0.56146701  0.32771101  1
  O  O11  1  0.68929500  0.17228900  0.06146700  1
  O  O12  1  0.81070500  0.67228902  0.56146701  1
  O  O13  1  0.31070500  0.93853302  0.17228900  1
  O  O14  1  0.68929500  0.82771102  0.93853302  1
  O  O15  1  0.18929500  0.43853301  0.67228902  1
  O  O16  1  0.81070500  0.32771101  0.43853301  1
  O  O17  1  0.31070500  0.06146700  0.82771102  1
