# generated using pymatgen
data_Li4P2SO9
_symmetry_space_group_name_H-M   'P 1'
_cell_length_a   5.50007296
_cell_length_b   5.50007296
_cell_length_c   7.05434990
_cell_angle_alpha   103.20558167
_cell_angle_beta   103.20558167
_cell_angle_gamma   106.16784668
_symmetry_Int_Tables_number   1
_chemical_formula_structural   Li4P2SO9
_chemical_formula_sum   'Li4 P2 S1 O9'
_cell_volume   189.55689225
_cell_formula_units_Z   1
loop_
 _symmetry_equiv_pos_site_id
 _symmetry_equiv_pos_as_xyz
  1  'x, y, z'
loop_
 _atom_site_type_symbol
 _atom_site_label
 _atom_site_symmetry_multiplicity
 _atom_site_fract_x
 _atom_site_fract_y
 _atom_site_fract_z
 _atom_site_occupancy
  Li  Li0  1  0.33723700  0.66276298  0.74999998  1
  Li  Li1  1  0.66276299  0.33723699  0.24999999  1
  Li  Li2  1  0.00000000  0.00000000  0.49999999  1
  Li  Li3  1  0.00000000  0.00000000  0.00000000  1
  P  P4  1  0.67914198  0.32085799  0.74999998  1
  P  P5  1  0.32085800  0.67914198  0.24999999  1
  O  O6  1  0.40217199  0.25867799  0.59346199  1
  S  S7  1  0.59782800  0.74132198  0.40653798  1
  O  O8  1  0.74132199  0.59782798  0.90653798  1
  O  O9  1  0.25867800  0.40217199  0.09346199  1
  O  O10  1  0.67279898  0.11151900  0.86756298  1
  O  O11  1  0.32720101  0.88848098  0.13243699  1
  O  O12  1  0.88848098  0.32720099  0.63243698  1
  O  O13  1  0.11151901  0.67279898  0.36756299  1
  O  O14  1  0.08344402  0.91655598  0.74999998  1
  O  O15  1  0.91655597  0.08344400  0.24999999  1
