# generated using pymatgen
data_Mg3AlN6
_symmetry_space_group_name_H-M   'P 1'
_cell_length_a   3.15143991
_cell_length_b   3.15143991
_cell_length_c   11.88515472
_cell_angle_alpha   90.00000000
_cell_angle_beta   90.00000000
_cell_angle_gamma   120.00000000
_symmetry_Int_Tables_number   1
_chemical_formula_structural   Mg3AlN6
_chemical_formula_sum   'Mg3 Al1 N6'
_cell_volume   102.22415552
_cell_formula_units_Z   1
loop_
 _symmetry_equiv_pos_site_id
 _symmetry_equiv_pos_as_xyz
  1  'x, y, z'
loop_
 _atom_site_type_symbol
 _atom_site_label
 _atom_site_symmetry_multiplicity
 _atom_site_fract_x
 _atom_site_fract_y
 _atom_site_fract_z
 _atom_site_occupancy
  Mg  Mg0  1  0.66666668  0.33333333  0.75000002  1
  Al  Al1  1  0.33333333  0.66666666  0.25000001  1
  Mg  Mg2  1  0.00000000  0.00000000  0.00000000  1
  Mg  Mg3  1  0.00000000  0.00000000  0.50000001  1
  N  N4  1  0.66666668  0.33333333  0.91382802  1
  N  N5  1  0.00000000  0.00000000  0.75000002  1
  N  N6  1  0.66666668  0.33333333  0.58617201  1
  N  N7  1  0.00000000  0.00000000  0.25000001  1
  N  N8  1  0.33333333  0.66666666  0.41382801  1
  N  N9  1  0.33333333  0.66666666  0.08617200  1
