# generated using pymatgen
data_Li3SiS6
_symmetry_space_group_name_H-M   'P 1'
_cell_length_a   4.00750208
_cell_length_b   5.82405186
_cell_length_c   5.82408190
_cell_angle_alpha   90.00000000
_cell_angle_beta   90.00000000
_cell_angle_gamma   90.00000000
_symmetry_Int_Tables_number   1
_chemical_formula_structural   Li3SiS6
_chemical_formula_sum   'Li3 Si1 S6'
_cell_volume   135.93348865
_cell_formula_units_Z   1
loop_
 _symmetry_equiv_pos_site_id
 _symmetry_equiv_pos_as_xyz
  1  'x, y, z'
loop_
 _atom_site_type_symbol
 _atom_site_label
 _atom_site_symmetry_multiplicity
 _atom_site_fract_x
 _atom_site_fract_y
 _atom_site_fract_z
 _atom_site_occupancy
  Li  Li0  1  0.49999999  0.76484102  0.51882101  1
  Li  Li1  1  0.49999999  0.23515901  0.01882100  1
  Li  Li2  1  0.00000000  0.73295502  0.01727000  1
  Si  Si3  1  0.00000000  0.26704501  0.51727001  1
  S  S4  1  0.00000000  0.48839901  0.75865701  1
  S  S5  1  0.00000000  0.51160101  0.25865700  1
  S  S6  1  0.49999999  0.76952802  0.98850502  1
  S  S7  1  0.00000000  0.98274102  0.71678801  1
  S  S8  1  0.00000000  0.01725900  0.21678800  1
  S  S9  1  0.49999999  0.23047201  0.48850501  1
