# generated using pymatgen
data_NdFeO3
_symmetry_space_group_name_H-M   'P 1'
_cell_length_a   5.35539103
_cell_length_b   5.88530397
_cell_length_c   7.77385712
_cell_angle_alpha   90.00000000
_cell_angle_beta   90.00000000
_cell_angle_gamma   90.00000000
_symmetry_Int_Tables_number   1
_chemical_formula_structural   NdFeO3
_chemical_formula_sum   'Nd4 Fe4 O12'
_cell_volume   245.01723775
_cell_formula_units_Z   4
loop_
 _symmetry_equiv_pos_site_id
 _symmetry_equiv_pos_as_xyz
  1  'x, y, z'
loop_
 _atom_site_type_symbol
 _atom_site_label
 _atom_site_symmetry_multiplicity
 _atom_site_fract_x
 _atom_site_fract_y
 _atom_site_fract_z
 _atom_site_occupancy
  Nd  Nd0  1  0.47115200  0.58215500  0.74999999  1
  Nd  Nd1  1  0.97115200  0.91784500  0.25000000  1
  Nd  Nd2  1  0.02884800  0.08215500  0.74999999  1
  Nd  Nd3  1  0.52884800  0.41784500  0.25000000  1
  Fe  Fe4  1  0.50000000  0.00000000  0.49999999  1
  Fe  Fe5  1  0.00000000  0.50000000  0.49999999  1
  Fe  Fe6  1  0.00000000  0.50000000  0.00000000  1
  Fe  Fe7  1  0.50000000  0.00000000  0.00000000  1
  O  O8  1  0.81997400  0.19308100  0.44183899  1
  O  O9  1  0.31997400  0.30691900  0.55816099  1
  O  O10  1  0.68002600  0.69308100  0.05816100  1
  O  O11  1  0.18002600  0.80691900  0.94183899  1
  O  O12  1  0.18002600  0.80691900  0.55816099  1
  O  O13  1  0.68002600  0.69308100  0.44183899  1
  O  O14  1  0.31997400  0.30691900  0.94183899  1
  O  O15  1  0.81997400  0.19308100  0.05816100  1
  O  O16  1  0.37642600  0.04366700  0.25000000  1
  O  O17  1  0.87642600  0.45633300  0.74999999  1
  O  O18  1  0.12357400  0.54366700  0.25000000  1
  O  O19  1  0.62357400  0.95633300  0.74999999  1
