# generated using pymatgen
data_Tl2BrO
_symmetry_space_group_name_H-M   'P 1'
_cell_length_a   4.05573177
_cell_length_b   4.05573177
_cell_length_c   7.88843203
_cell_angle_alpha   75.10381317
_cell_angle_beta   75.10381317
_cell_angle_gamma   60.00000381
_symmetry_Int_Tables_number   1
_chemical_formula_structural   Tl2BrO
_chemical_formula_sum   'Tl2 Br1 O1'
_cell_volume   107.30759748
_cell_formula_units_Z   1
loop_
 _symmetry_equiv_pos_site_id
 _symmetry_equiv_pos_as_xyz
  1  'x, y, z'
loop_
 _atom_site_type_symbol
 _atom_site_label
 _atom_site_symmetry_multiplicity
 _atom_site_fract_x
 _atom_site_fract_y
 _atom_site_fract_z
 _atom_site_occupancy
  Tl  Tl0  1  0.00000000  0.00000000  0.00000000  1
  Tl  Tl1  1  0.50000004  0.50000000  0.49999998  1
  Br  Br2  1  0.73271605  0.73271601  0.80185198  1
  O  O3  1  0.26728402  0.26728400  0.19814799  1
