# generated using pymatgen
data_La3YCuS7
_symmetry_space_group_name_H-M   'P 1'
_cell_length_a   3.84991598
_cell_length_b   6.66016960
_cell_length_c   11.62039280
_cell_angle_alpha   104.32601929
_cell_angle_beta   90.00000000
_cell_angle_gamma   106.79961395
_symmetry_Int_Tables_number   1
_chemical_formula_structural   La3YCuS7
_chemical_formula_sum   'La3 Y1 Cu1 S7'
_cell_volume   275.55031538
_cell_formula_units_Z   1
loop_
 _symmetry_equiv_pos_site_id
 _symmetry_equiv_pos_as_xyz
  1  'x, y, z'
loop_
 _atom_site_type_symbol
 _atom_site_label
 _atom_site_symmetry_multiplicity
 _atom_site_fract_x
 _atom_site_fract_y
 _atom_site_fract_z
 _atom_site_occupancy
  La  La0  1  0.30681196  0.61362398  0.19977800  1
  La  La1  1  0.69286698  0.38573399  0.80388400  1
  La  La2  1  0.99991994  0.99983997  0.00250900  1
  Y  Y3  1  0.88505096  0.77010198  0.57133400  1
  Cu  Cu4  1  0.11526099  0.23052199  0.42090000  1
  S  S5  1  0.25841797  0.51683598  0.64709800  1
  S  S6  1  0.74173297  0.48346598  0.35128000  1
  S  S7  1  0.65938198  0.31876399  0.04978000  1
  S  S8  1  0.34026096  0.68052198  0.94833000  1
  S  S9  1  0.96119495  0.92238997  0.21780400  1
  S  S10  1  0.03927200  0.07854400  0.78537300  1
  S  S11  1  0.49982594  0.99965197  0.50193000  1
