# generated using pymatgen
data_Tl2Hg3Se4
_symmetry_space_group_name_H-M   'P 1'
_cell_length_a   7.04352617
_cell_length_b   7.20076799
_cell_length_c   12.89278793
_cell_angle_alpha   82.04404449
_cell_angle_beta   74.14775085
_cell_angle_gamma   60.71976471
_symmetry_Int_Tables_number   1
_chemical_formula_structural   Tl2Hg3Se4
_chemical_formula_sum   'Tl4 Hg6 Se8'
_cell_volume   548.66198496
_cell_formula_units_Z   2
loop_
 _symmetry_equiv_pos_site_id
 _symmetry_equiv_pos_as_xyz
  1  'x, y, z'
loop_
 _atom_site_type_symbol
 _atom_site_label
 _atom_site_symmetry_multiplicity
 _atom_site_fract_x
 _atom_site_fract_y
 _atom_site_fract_z
 _atom_site_occupancy
  Tl  Tl0  1  0.25387798  0.70965103  0.94818699  1
  Tl  Tl1  1  0.91171596  0.79034903  0.55181298  1
  Tl  Tl2  1  0.74612198  0.29034901  0.05181299  1
  Tl  Tl3  1  0.08828399  0.20965101  0.44818700  1
  Hg  Hg4  1  0.86701097  0.75000003  0.24999998  1
  Hg  Hg5  1  0.13298899  0.25000001  0.75000000  1
  Hg  Hg6  1  0.32210897  0.96850904  0.15254597  1
  Hg  Hg7  1  0.44316398  0.53149102  0.34745399  1
  Hg  Hg8  1  0.67789098  0.03149100  0.84745401  1
  Hg  Hg9  1  0.55683598  0.46850902  0.65254599  1
  Se  Se10  1  0.92150298  0.10110400  0.25990900  1
  Se  Se11  1  0.28251599  0.39889602  0.24009099  1
  Se  Se12  1  0.07849698  0.89889604  0.74009098  1
  Se  Se13  1  0.71748397  0.60110402  0.75990899  1
  Se  Se14  1  0.54706397  0.75897503  0.43004198  1
  Se  Se15  1  0.73608097  0.74102503  0.06995798  1
  Se  Se16  1  0.45293598  0.24102501  0.56995800  1
  Se  Se17  1  0.26391899  0.25897501  0.93004200  1
