# generated using pymatgen
data_K2SiAs2
_symmetry_space_group_name_H-M   'P 1'
_cell_length_a   6.48521185
_cell_length_b   7.40398598
_cell_length_c   8.55762005
_cell_angle_alpha   115.63243103
_cell_angle_beta   112.26645660
_cell_angle_gamma   90.00000000
_symmetry_Int_Tables_number   1
_chemical_formula_structural   K2SiAs2
_chemical_formula_sum   'K4 Si2 As4'
_cell_volume   336.16161016
_cell_formula_units_Z   2
loop_
 _symmetry_equiv_pos_site_id
 _symmetry_equiv_pos_as_xyz
  1  'x, y, z'
loop_
 _atom_site_type_symbol
 _atom_site_label
 _atom_site_symmetry_multiplicity
 _atom_site_fract_x
 _atom_site_fract_y
 _atom_site_fract_z
 _atom_site_occupancy
  K  K0  1  0.35627800  0.02270900  0.71255596  1
  K  K1  1  0.64372199  0.97729102  0.28744399  1
  K  K2  1  0.14372200  0.31015301  0.28744399  1
  K  K3  1  0.85627800  0.68984701  0.71255596  1
  Si  Si4  1  0.75000000  0.50000001  -0.00000001  1
  Si  Si5  1  0.25000000  0.50000001  0.00000001  1
  As  As6  1  0.59664300  0.43879801  0.19328598  1
  As  As7  1  0.40335700  0.56120201  0.80671397  1
  As  As8  1  0.09664299  0.75448801  0.19328601  1
  As  As9  1  0.90335700  0.24551200  0.80671394  1
