# generated using pymatgen
data_CaYbS4
_symmetry_space_group_name_H-M   'P 1'
_cell_length_a   4.15802097
_cell_length_b   6.38917685
_cell_length_c   6.38917685
_cell_angle_alpha   90.00000000
_cell_angle_beta   90.00000000
_cell_angle_gamma   90.00000000
_symmetry_Int_Tables_number   1
_chemical_formula_structural   CaYbS4
_chemical_formula_sum   'Ca1 Yb1 S4'
_cell_volume   169.73698897
_cell_formula_units_Z   1
loop_
 _symmetry_equiv_pos_site_id
 _symmetry_equiv_pos_as_xyz
  1  'x, y, z'
loop_
 _atom_site_type_symbol
 _atom_site_label
 _atom_site_symmetry_multiplicity
 _atom_site_fract_x
 _atom_site_fract_y
 _atom_site_fract_z
 _atom_site_occupancy
  Yb  Yb0  1  0.00000000  0.00000000  0.00000000  1
  Ca  Ca1  1  0.50000000  0.50000001  0.50000001  1
  S  S2  1  0.00000000  0.30327501  0.30327501  1
  S  S3  1  1.00000001  0.69672502  0.69672502  1
  S  S4  1  0.50000000  0.19672500  0.80327502  1
  S  S5  1  0.50000000  0.80327502  0.19672500  1
