# generated using pymatgen
data_K4InGaF8
_symmetry_space_group_name_H-M   'P 1'
_cell_length_a   5.99539995
_cell_length_b   6.00486803
_cell_length_c   7.35162544
_cell_angle_alpha   90.00000000
_cell_angle_beta   114.06420898
_cell_angle_gamma   90.00000000
_symmetry_Int_Tables_number   1
_chemical_formula_structural   K4InGaF8
_chemical_formula_sum   'K4 In1 Ga1 F8'
_cell_volume   241.66744151
_cell_formula_units_Z   1
loop_
 _symmetry_equiv_pos_site_id
 _symmetry_equiv_pos_as_xyz
  1  'x, y, z'
loop_
 _atom_site_type_symbol
 _atom_site_label
 _atom_site_symmetry_multiplicity
 _atom_site_fract_x
 _atom_site_fract_y
 _atom_site_fract_z
 _atom_site_occupancy
  K  K0  1  0.35429700  0.99999999  0.70859402  1
  K  K1  1  0.85485901  0.50000000  0.70971802  1
  K  K2  1  0.14514100  0.50000000  0.29028201  1
  K  K3  1  0.64570301  0.99999999  0.29140601  1
  In  In4  1  0.00000000  0.00000000  0.00000000  1
  Ga  Ga5  1  0.50000001  0.50000000  0.00000000  1
  F  F6  1  0.26133900  0.73605900  0.00000000  1
  F  F7  1  0.73866101  0.26394100  0.00000000  1
  F  F8  1  0.73866101  0.73605900  0.00000000  1
  F  F9  1  0.26133900  0.26394100  0.00000000  1
  F  F10  1  0.15969900  0.00000000  0.31939801  1
  F  F11  1  0.65267701  0.50000000  0.30535401  1
  F  F12  1  0.34732300  0.50000000  0.69464602  1
  F  F13  1  0.84030101  0.99999999  0.68060202  1
