# generated using pymatgen
data_LiY3(BiO3)4
_symmetry_space_group_name_H-M   'P 1'
_cell_length_a   5.47916889
_cell_length_b   5.79150200
_cell_length_c   8.02201939
_cell_angle_alpha   90.00000000
_cell_angle_beta   90.57548523
_cell_angle_gamma   90.00000000
_symmetry_Int_Tables_number   1
_chemical_formula_structural   LiY3(BiO3)4
_chemical_formula_sum   'Li1 Y3 Bi4 O12'
_cell_volume   254.54683307
_cell_formula_units_Z   1
loop_
 _symmetry_equiv_pos_site_id
 _symmetry_equiv_pos_as_xyz
  1  'x, y, z'
loop_
 _atom_site_type_symbol
 _atom_site_label
 _atom_site_symmetry_multiplicity
 _atom_site_fract_x
 _atom_site_fract_y
 _atom_site_fract_z
 _atom_site_occupancy
  Li  Li0  1  0.48726801  0.30446100  0.75076301  1
  Y  Y1  1  0.98726802  0.69553900  0.25076298  1
  Y  Y2  1  0.02325800  0.81523600  0.74897702  1
  Y  Y3  1  0.52325801  0.18476400  0.24897700  1
  Bi  Bi4  1  0.00053100  0.25192500  0.00002400  1
  Bi  Bi5  1  0.00149700  0.25279200  0.50047502  1
  Bi  Bi6  1  0.50053101  0.74807500  0.50002400  1
  Bi  Bi7  1  0.50149701  0.74720800  0.00047499  1
  O  O8  1  0.13477000  0.30156900  0.25486400  1
  O  O9  1  0.19111800  0.56545200  0.93513103  1
  O  O10  1  0.17433500  0.55958100  0.56233401  1
  O  O11  1  0.30694001  0.03988400  0.93409002  1
  O  O12  1  0.29362301  0.05064200  0.56350201  1
  O  O13  1  0.38602701  0.81233400  0.24594300  1
  O  O14  1  0.63477001  0.69843100  0.75486401  1
  O  O15  1  0.69111801  0.43454800  0.43513100  1
  O  O16  1  0.67433501  0.44041900  0.06233399  1
  O  O17  1  0.79362302  0.94935800  0.06350198  1
  O  O18  1  0.80694002  0.96011600  0.43408999  1
  O  O19  1  0.88602702  0.18766600  0.74594300  1
