# generated using pymatgen
data_NaLiZn2O4
_symmetry_space_group_name_H-M   'P 1'
_cell_length_a   3.90162206
_cell_length_b   3.90162206
_cell_length_c   7.76092196
_cell_angle_alpha   90.00000000
_cell_angle_beta   90.00000000
_cell_angle_gamma   90.00000000
_symmetry_Int_Tables_number   1
_chemical_formula_structural   NaLiZn2O4
_chemical_formula_sum   'Na1 Li1 Zn2 O4'
_cell_volume   118.14183489
_cell_formula_units_Z   1
loop_
 _symmetry_equiv_pos_site_id
 _symmetry_equiv_pos_as_xyz
  1  'x, y, z'
loop_
 _atom_site_type_symbol
 _atom_site_label
 _atom_site_symmetry_multiplicity
 _atom_site_fract_x
 _atom_site_fract_y
 _atom_site_fract_z
 _atom_site_occupancy
  Li  Li0  1  0.00000000  0.49999999  0.16158500  1
  Na  Na1  1  0.49999999  0.00000000  0.83841500  1
  Zn  Zn2  1  0.49999999  0.00000000  0.41362700  1
  Zn  Zn3  1  0.00000000  0.49999999  0.58637300  1
  O  O4  1  0.00000000  0.49999999  0.82362600  1
  O  O5  1  0.49999999  0.00000000  0.17637400  1
  O  O6  1  0.00000000  0.00000000  0.50000000  1
  O  O7  1  0.49999999  0.49999999  0.50000000  1
