# generated using pymatgen
data_Na3Li3FeNF10
_symmetry_space_group_name_H-M   'P 1'
_cell_length_a   5.43081617
_cell_length_b   5.64915991
_cell_length_c   8.33177471
_cell_angle_alpha   109.81675720
_cell_angle_beta   109.02071381
_cell_angle_gamma   90.00000000
_symmetry_Int_Tables_number   1
_chemical_formula_structural   Na3Li3FeNF10
_chemical_formula_sum   'Na3 Li3 Fe1 N1 F10'
_cell_volume   225.58706268
_cell_formula_units_Z   1
loop_
 _symmetry_equiv_pos_site_id
 _symmetry_equiv_pos_as_xyz
  1  'x, y, z'
loop_
 _atom_site_type_symbol
 _atom_site_label
 _atom_site_symmetry_multiplicity
 _atom_site_fract_x
 _atom_site_fract_y
 _atom_site_fract_z
 _atom_site_occupancy
  Li  Li0  1  0.37665003  0.86394904  0.78477402  1
  Na  Na1  1  0.59187699  0.13605101  0.21522701  1
  Na  Na2  1  0.87665000  0.42082402  0.78477401  1
  Na  Na3  1  0.09187702  0.57917603  0.21522702  1
  Li  Li4  1  0.20358800  0.17946701  0.50000099  1
  Li  Li5  1  0.70358702  0.82053304  0.50000004  1
  Fe  Fe6  1  0.49763301  0.50000002  0.00000004  1
  F  F7  1  0.99763302  1.00000004  0.00000008  1
  F  F8  1  0.23110600  0.23984701  0.96986897  1
  F  F9  1  0.26123602  0.76015303  0.03013005  1
  F  F10  1  0.73110599  0.23002301  0.96986898  1
  F  F11  1  0.76123601  0.76997703  0.03013006  1
  N  N12  1  0.35359203  0.87368504  0.50000003  1
  F  F13  1  0.85359199  0.12631501  0.50000000  1
  F  F14  1  0.67547501  0.56855203  0.28353103  1
  F  F15  1  0.39194401  0.43144802  0.71646900  1
  F  F16  1  0.89194401  0.78502103  0.71646903  1
  F  F17  1  0.17547500  0.21497901  0.28353100  1
