# generated using pymatgen
data_KU(BiO2)2
_symmetry_space_group_name_H-M   'P 1'
_cell_length_a   5.61475182
_cell_length_b   5.61866570
_cell_length_c   5.61866570
_cell_angle_alpha   91.54106140
_cell_angle_beta   90.00000000
_cell_angle_gamma   90.00000000
_symmetry_Int_Tables_number   1
_chemical_formula_structural   KU(BiO2)2
_chemical_formula_sum   'K1 U1 Bi2 O4'
_cell_volume   177.19025810
_cell_formula_units_Z   1
loop_
 _symmetry_equiv_pos_site_id
 _symmetry_equiv_pos_as_xyz
  1  'x, y, z'
loop_
 _atom_site_type_symbol
 _atom_site_label
 _atom_site_symmetry_multiplicity
 _atom_site_fract_x
 _atom_site_fract_y
 _atom_site_fract_z
 _atom_site_occupancy
  K  K0  1  0.00241000  0.00000000  -0.00000000  1
  Bi  Bi1  1  0.98505203  0.00000000  0.50000002  1
  Bi  Bi2  1  0.98505203  0.50000002  -0.00000002  1
  U  U3  1  0.50772502  0.00000000  -0.00000000  1
  O  O4  1  0.25161601  0.74210303  0.74210300  1
  O  O5  1  0.25161601  0.25789701  0.25789700  1
  O  O6  1  0.75826502  0.76493503  0.23506498  1
  O  O7  1  0.75826502  0.23506501  0.76493502  1
