# generated using pymatgen
data_Li4CuS6N
_symmetry_space_group_name_H-M   'P 1'
_cell_length_a   5.38568163
_cell_length_b   5.71780777
_cell_length_c   6.86255407
_cell_angle_alpha   112.14255524
_cell_angle_beta   110.50363159
_cell_angle_gamma   95.80415344
_symmetry_Int_Tables_number   1
_chemical_formula_structural   Li4CuS6N
_chemical_formula_sum   'Li4 Cu1 S6 N1'
_cell_volume   176.59715094
_cell_formula_units_Z   1
loop_
 _symmetry_equiv_pos_site_id
 _symmetry_equiv_pos_as_xyz
  1  'x, y, z'
loop_
 _atom_site_type_symbol
 _atom_site_label
 _atom_site_symmetry_multiplicity
 _atom_site_fract_x
 _atom_site_fract_y
 _atom_site_fract_z
 _atom_site_occupancy
  Li  Li0  1  0.88655498  0.13655500  0.27311005  1
  Li  Li1  1  0.11344497  0.86344499  0.72689003  1
  Li  Li2  1  0.34960898  0.59960899  0.19921803  1
  Li  Li3  1  0.65039098  0.40039100  0.80078204  1
  S  S4  1  0.71730496  0.88366199  0.43179406  1
  S  S5  1  0.78551098  0.45186800  0.56820605  1
  Cu  Cu6  1  0.48446197  0.71331399  0.94561704  1
  S  S7  1  0.03884498  0.76769699  0.05438302  1
  S  S8  1  0.96115498  0.23230300  0.94561706  1
  S  S9  1  0.51553798  0.28668600  0.05438303  1
  N  N10  1  0.21448898  0.54813199  0.43179402  1
  S  S11  1  0.28269499  0.11633800  0.56820602  1
