# generated using pymatgen
data_Li5Co3O8
_symmetry_space_group_name_H-M   'P 1'
_cell_length_a   5.07750463
_cell_length_b   5.85155678
_cell_length_c   5.91571140
_cell_angle_alpha   60.35804749
_cell_angle_beta   73.41685486
_cell_angle_gamma   90.00106812
_symmetry_Int_Tables_number   1
_chemical_formula_structural   Li5Co3O8
_chemical_formula_sum   'Li5 Co3 O8'
_cell_volume   144.28997684
_cell_formula_units_Z   1
loop_
 _symmetry_equiv_pos_site_id
 _symmetry_equiv_pos_as_xyz
  1  'x, y, z'
loop_
 _atom_site_type_symbol
 _atom_site_label
 _atom_site_symmetry_multiplicity
 _atom_site_fract_x
 _atom_site_fract_y
 _atom_site_fract_z
 _atom_site_occupancy
  Li  Li0  1  0.99983394  0.99974895  0.00028310  1
  Li  Li1  1  0.00016598  0.50003797  0.99969906  1
  Li  Li2  1  0.50106696  0.75066596  0.99933310  1
  Li  Li3  1  0.49897198  0.25001899  0.00067204  1
  Co  Co4  1  -0.00000005  0.99928695  0.49998107  1
  Li  Li5  1  0.49998798  0.24923099  0.50003006  1
  Co  Co6  1  0.99999596  0.49810997  0.49996109  1
  Co  Co7  1  0.50001496  0.75368596  0.49996608  1
  O  O8  1  0.24534396  0.89003195  0.72156208  1
  O  O9  1  0.75463398  0.11158499  0.27847305  1
  O  O10  1  0.74107796  0.61502397  0.27234308  1
  O  O11  1  0.25887598  0.38739498  0.72766406  1
  O  O12  1  0.76575796  0.64842497  0.71961810  1
  O  O13  1  0.76515598  0.12864399  0.72143307  1
  O  O14  1  0.23425796  0.86803496  0.28040006  1
  O  O15  1  0.23485998  0.35007398  0.27858304  1
