# generated using pymatgen
data_Li3YMn4O12
_symmetry_space_group_name_H-M   'P 1'
_cell_length_a   5.18106174
_cell_length_b   5.32837725
_cell_length_c   7.78690577
_cell_angle_alpha   90.01113892
_cell_angle_beta   90.27091980
_cell_angle_gamma   89.96698761
_symmetry_Int_Tables_number   1
_chemical_formula_structural   Li3YMn4O12
_chemical_formula_sum   'Li3 Y1 Mn4 O12'
_cell_volume   214.96795105
_cell_formula_units_Z   1
loop_
 _symmetry_equiv_pos_site_id
 _symmetry_equiv_pos_as_xyz
  1  'x, y, z'
loop_
 _atom_site_type_symbol
 _atom_site_label
 _atom_site_symmetry_multiplicity
 _atom_site_fract_x
 _atom_site_fract_y
 _atom_site_fract_z
 _atom_site_occupancy
  Li  Li0  1  0.00566600  0.04808600  0.73062000  1
  Li  Li1  1  0.49382702  0.54847302  0.76946102  1
  Y  Y2  1  0.99433004  0.95191503  0.26937904  1
  Li  Li3  1  0.50617802  0.45152402  0.23053602  1
  Mn  Mn4  1  0.99999904  0.49999902  0.49999904  1
  Mn  Mn5  1  0.50000102  0.00000100  1.00000001  1
  Mn  Mn6  1  0.49999902  0.00000000  0.49999902  1
  Mn  Mn7  1  0.00000100  0.50000002  0.00000200  1
  O  O8  1  0.33297501  0.30039201  0.59153901  1
  O  O9  1  0.16671301  0.80016703  0.90830000  1
  O  O10  1  0.66702003  0.69960302  0.40846003  1
  O  O11  1  0.83328603  0.19983501  0.09170403  1
  O  O12  1  0.81677703  0.17756001  0.45057303  1
  O  O13  1  0.68309403  0.67779702  0.04939403  1
  O  O14  1  0.18322001  0.82244003  0.54942701  1
  O  O15  1  0.31691101  0.32220801  0.95060801  1
  O  O16  1  0.86846904  0.41294101  0.76957403  1
  O  O17  1  0.63140303  0.91300103  0.73065502  1
  O  O18  1  0.36859301  0.08700000  0.26934401  1
  O  O19  1  0.13153401  0.58705902  0.23042700  1
