# generated using pymatgen
data_NbBiSe3O
_symmetry_space_group_name_H-M   'P 1'
_cell_length_a   5.74384689
_cell_length_b   6.46751785
_cell_length_c   6.46751881
_cell_angle_alpha   60.00000381
_cell_angle_beta   90.00000000
_cell_angle_gamma   90.00000000
_symmetry_Int_Tables_number   1
_chemical_formula_structural   NbBiSe3O
_chemical_formula_sum   'Nb1 Bi1 Se3 O1'
_cell_volume   208.06969942
_cell_formula_units_Z   1
loop_
 _symmetry_equiv_pos_site_id
 _symmetry_equiv_pos_as_xyz
  1  'x, y, z'
loop_
 _atom_site_type_symbol
 _atom_site_label
 _atom_site_symmetry_multiplicity
 _atom_site_fract_x
 _atom_site_fract_y
 _atom_site_fract_z
 _atom_site_occupancy
  Bi  Bi0  1  0.50000001  0.00000000  0.00000000  1
  Nb  Nb1  1  0.00000000  0.50000002  0.50000000  1
  O  O2  1  0.00000000  0.00000000  0.50000001  1
  Se  Se3  1  0.00000000  0.50000002  -0.00000001  1
  Se  Se4  1  0.28268501  0.33333334  0.33333333  1
  Se  Se5  1  0.71731501  0.66666669  0.66666667  1
