# generated using pymatgen
data_Ba3MgTaTiO9
_symmetry_space_group_name_H-M   'P 1'
_cell_length_a   5.85220003
_cell_length_b   5.85220003
_cell_length_c   7.18502903
_cell_angle_alpha   90.00000000
_cell_angle_beta   90.00000000
_cell_angle_gamma   120.00000000
_symmetry_Int_Tables_number   1
_chemical_formula_structural   Ba3MgTaTiO9
_chemical_formula_sum   'Ba3 Mg1 Ta1 Ti1 O9'
_cell_volume   213.10688603
_cell_formula_units_Z   1
loop_
 _symmetry_equiv_pos_site_id
 _symmetry_equiv_pos_as_xyz
  1  'x, y, z'
loop_
 _atom_site_type_symbol
 _atom_site_label
 _atom_site_symmetry_multiplicity
 _atom_site_fract_x
 _atom_site_fract_y
 _atom_site_fract_z
 _atom_site_occupancy
  Ba  Ba0  1  0.66666667  0.33333334  0.33777500  1
  Ba  Ba1  1  0.33333334  0.66666668  0.66222500  1
  Ba  Ba2  1  0.00000000  0.00000000  0.00000000  1
  Ta  Ta3  1  0.66666667  0.33333334  0.82498000  1
  Ti  Ti4  1  0.33333334  0.66666668  0.17502000  1
  Mg  Mg5  1  0.00000000  0.00000000  0.50000000  1
  O  O6  1  0.82722100  0.65444201  0.67714900  1
  O  O7  1  0.17277900  0.34555801  0.32285100  1
  O  O8  1  0.82722100  0.17277800  0.67714900  1
  O  O9  1  0.17277901  0.82722202  0.32285100  1
  O  O10  1  0.34555700  0.17277800  0.67714900  1
  O  O11  1  0.65444301  0.82722202  0.32285100  1
  O  O12  1  0.50000000  0.50000001  -0.00000000  1
  O  O13  1  0.00000001  0.50000001  -0.00000000  1
  O  O14  1  0.50000000  0.00000000  0.00000000  1
