# generated using pymatgen
data_NaEuIClO2
_symmetry_space_group_name_H-M   'P 1'
_cell_length_a   3.86626577
_cell_length_b   3.86626577
_cell_length_c   10.34657288
_cell_angle_alpha   79.23168945
_cell_angle_beta   79.23168945
_cell_angle_gamma   60.00000381
_symmetry_Int_Tables_number   1
_chemical_formula_structural   NaEuIClO2
_chemical_formula_sum   'Na1 Eu1 I1 Cl1 O2'
_cell_volume   130.78585444
_cell_formula_units_Z   1
loop_
 _symmetry_equiv_pos_site_id
 _symmetry_equiv_pos_as_xyz
  1  'x, y, z'
loop_
 _atom_site_type_symbol
 _atom_site_label
 _atom_site_symmetry_multiplicity
 _atom_site_fract_x
 _atom_site_fract_y
 _atom_site_fract_z
 _atom_site_occupancy
  Eu  Eu0  1  0.28609502  0.28609500  0.14171499  1
  Na  Na1  1  0.71390506  0.71390501  0.85828500  1
  I  I2  1  0.11116501  0.11116500  0.66650502  1
  Cl  Cl3  1  0.88883508  0.88883501  0.33349497  1
  O  O4  1  0.36181803  0.36181801  0.91454602  1
  O  O5  1  0.63818206  0.63818201  0.08545397  1
