# generated using pymatgen
data_Eu2ZrTaF14
_symmetry_space_group_name_H-M   'P 1'
_cell_length_a   5.86897612
_cell_length_b   6.31900358
_cell_length_c   8.52141571
_cell_angle_alpha   101.64828491
_cell_angle_beta   90.00000000
_cell_angle_gamma   90.00000000
_symmetry_Int_Tables_number   1
_chemical_formula_structural   Eu2ZrTaF14
_chemical_formula_sum   'Eu2 Zr1 Ta1 F14'
_cell_volume   309.51750177
_cell_formula_units_Z   1
loop_
 _symmetry_equiv_pos_site_id
 _symmetry_equiv_pos_as_xyz
  1  'x, y, z'
loop_
 _atom_site_type_symbol
 _atom_site_label
 _atom_site_symmetry_multiplicity
 _atom_site_fract_x
 _atom_site_fract_y
 _atom_site_fract_z
 _atom_site_occupancy
  Eu  Eu0  1  0.69908799  0.65713000  0.68681398  1
  Eu  Eu1  1  0.19908800  0.34287000  0.31318599  1
  Zr  Zr2  1  0.70836499  0.81158200  0.22404197  1
  Ta  Ta3  1  0.20836500  0.18841800  0.77595800  1
  F  F4  1  0.88575398  0.44992300  0.47444699  1
  F  F5  1  0.38575399  0.55007700  0.52555298  1
  F  F6  1  0.42214399  0.93109200  0.76896997  1
  F  F7  1  0.92214398  0.06890800  0.23103000  1
  F  F8  1  0.94749598  0.96842900  0.76082297  1
  F  F9  1  0.44749599  0.03157100  0.23917600  1
  F  F10  1  0.99869698  0.44977100  0.78626499  1
  F  F11  1  0.49869699  0.55022900  0.21373498  1
  F  F12  1  0.70496799  0.75619600  0.97992698  1
  F  F13  1  0.20496800  0.24380400  0.02007299  1
  F  F14  1  0.71289099  0.85797700  0.46851297  1
  F  F15  1  0.21289100  0.14202300  0.53148700  1
  F  F16  1  0.49695699  0.37504400  0.78295599  1
  F  F17  1  0.99695698  0.62495600  0.21704397  1
