# generated using pymatgen
data_NdFeO3
_symmetry_space_group_name_H-M   'P 1'
_cell_length_a   5.55403423
_cell_length_b   5.67787313
_cell_length_c   8.03568840
_cell_angle_alpha   90.00000000
_cell_angle_beta   90.00000000
_cell_angle_gamma   90.00000000
_symmetry_Int_Tables_number   1
_chemical_formula_structural   NdFeO3
_chemical_formula_sum   'Nd4 Fe4 O12'
_cell_volume   253.40625142
_cell_formula_units_Z   4
loop_
 _symmetry_equiv_pos_site_id
 _symmetry_equiv_pos_as_xyz
  1  'x, y, z'
loop_
 _atom_site_type_symbol
 _atom_site_label
 _atom_site_symmetry_multiplicity
 _atom_site_fract_x
 _atom_site_fract_y
 _atom_site_fract_z
 _atom_site_occupancy
  Nd  Nd0  1  0.01211000  0.95265698  0.74999996  1
  Nd  Nd1  1  0.48788998  0.45265699  0.74999996  1
  Nd  Nd2  1  0.51210998  0.54734299  0.24999999  1
  Nd  Nd3  1  0.98788996  0.04734300  0.24999999  1
  Fe  Fe4  1  0.00000000  0.49999999  -0.00000000  1
  Fe  Fe5  1  0.00000000  0.49999999  0.49999998  1
  Fe  Fe6  1  0.49999998  0.00000000  0.00000000  1
  Fe  Fe7  1  0.49999998  0.00000000  0.49999998  1
  O  O8  1  0.11354500  0.44925399  0.24999999  1
  O  O9  1  0.19419499  0.19726800  0.56122197  1
  O  O10  1  0.19419499  0.19726800  0.93877795  1
  O  O11  1  0.30580499  0.69726798  0.56122197  1
  O  O12  1  0.30580499  0.69726798  0.93877795  1
  O  O13  1  0.38645498  0.94925398  0.24999999  1
  O  O14  1  0.61354497  0.05074600  0.74999996  1
  O  O15  1  0.69419497  0.30273199  0.06122200  1
  O  O16  1  0.69419497  0.30273199  0.43877798  1
  O  O17  1  0.80580497  0.80273198  0.06122200  1
  O  O18  1  0.80580497  0.80273198  0.43877798  1
  O  O19  1  0.88645496  0.55074599  0.74999996  1
