# generated using pymatgen
data_KNaF2
_symmetry_space_group_name_H-M   'P 1'
_cell_length_a   4.25160885
_cell_length_b   7.17399216
_cell_length_c   13.08780861
_cell_angle_alpha   90.00000000
_cell_angle_beta   90.00000000
_cell_angle_gamma   90.00000000
_symmetry_Int_Tables_number   1
_chemical_formula_structural   KNaF2
_chemical_formula_sum   'K4 Na4 F8'
_cell_volume   399.19136208
_cell_formula_units_Z   4
loop_
 _symmetry_equiv_pos_site_id
 _symmetry_equiv_pos_as_xyz
  1  'x, y, z'
loop_
 _atom_site_type_symbol
 _atom_site_label
 _atom_site_symmetry_multiplicity
 _atom_site_fract_x
 _atom_site_fract_y
 _atom_site_fract_z
 _atom_site_occupancy
  Na  Na0  1  0.50000002  0.75124998  0.45761101  1
  K  K1  1  0.50000002  0.25124999  0.04238900  1
  K  K2  1  0.50000002  0.24874999  0.54238902  1
  K  K3  1  0.50000002  0.74874998  0.95761103  1
  Na  Na4  1  0.00000000  0.60632999  0.23674201  1
  K  K5  1  0.00000000  0.10633000  0.26325801  1
  Na  Na6  1  0.00000000  0.39366999  0.76325802  1
  Na  Na7  1  0.00000000  0.89366998  0.73674202  1
  F  F8  1  -0.00000000  0.83220498  0.38876601  1
  F  F9  1  0.00000000  0.66779499  0.88876603  1
  F  F10  1  0.00000000  0.16779500  0.61123402  1
  F  F11  1  0.00000000  0.33220499  0.11123400  1
  F  F12  1  0.50000002  0.85344898  0.11931300  1
  F  F13  1  0.50000002  0.35344899  0.38068701  1
  F  F14  1  0.50000002  0.14655100  0.88068703  1
  F  F15  1  0.50000002  0.64655099  0.61931302  1
