# generated using pymatgen
data_LiMnCo2(SiO6)2
_symmetry_space_group_name_H-M   'P 1'
_cell_length_a   5.88451862
_cell_length_b   6.83820248
_cell_length_c   6.83820248
_cell_angle_alpha   84.12546539
_cell_angle_beta   74.81025696
_cell_angle_gamma   74.81025696
_symmetry_Int_Tables_number   1
_chemical_formula_structural   LiMnCo2(SiO6)2
_chemical_formula_sum   'Li1 Mn1 Co2 Si2 O12'
_cell_volume   256.10738371
_cell_formula_units_Z   1
loop_
 _symmetry_equiv_pos_site_id
 _symmetry_equiv_pos_as_xyz
  1  'x, y, z'
loop_
 _atom_site_type_symbol
 _atom_site_label
 _atom_site_symmetry_multiplicity
 _atom_site_fract_x
 _atom_site_fract_y
 _atom_site_fract_z
 _atom_site_occupancy
  Mn  Mn0  1  1.00000000  0.08522400  0.91477606  1
  Co  Co1  1  0.48322002  0.39060901  0.20586001  1
  Li  Li2  1  0.98687900  0.20623200  0.38786104  1
  Co  Co3  1  0.51678004  0.79414002  0.60939101  1
  Si  Si4  1  0.01312103  0.61213901  0.79376800  1
  Si  Si5  1  0.50000004  0.91160502  0.08839499  1
  O  O6  1  0.59773300  0.19822300  0.03676902  1
  O  O7  1  0.45760403  0.62233701  0.09087000  1
  O  O8  1  0.11133100  0.03532900  0.19937401  1
  O  O9  1  0.69503101  0.35667001  0.36001602  1
  O  O10  1  0.54239604  0.90913002  0.37766300  1
  O  O11  1  0.19393502  0.36464901  0.36093701  1
  O  O12  1  0.30496903  0.63998401  0.64333001  1
  O  O13  1  0.95734700  0.08772400  0.61691605  1
  O  O14  1  0.80606503  0.63906301  0.63535103  1
  O  O15  1  0.40226705  0.96323102  0.80177701  1
  O  O16  1  0.04265302  0.38308401  0.91227602  1
  O  O17  1  0.88866903  0.80062602  0.96467103  1
