# generated using pymatgen
data_Nb3VMoO9
_symmetry_space_group_name_H-M   'P 1'
_cell_length_a   5.54971361
_cell_length_b   5.54971361
_cell_length_c   7.89884758
_cell_angle_alpha   99.49282074
_cell_angle_beta   110.33405304
_cell_angle_gamma   105.70487213
_symmetry_Int_Tables_number   1
_chemical_formula_structural   Nb3VMoO9
_chemical_formula_sum   'Nb3 V1 Mo1 O9'
_cell_volume   210.37024097
_cell_formula_units_Z   1
loop_
 _symmetry_equiv_pos_site_id
 _symmetry_equiv_pos_as_xyz
  1  'x, y, z'
loop_
 _atom_site_type_symbol
 _atom_site_label
 _atom_site_symmetry_multiplicity
 _atom_site_fract_x
 _atom_site_fract_y
 _atom_site_fract_z
 _atom_site_occupancy
  V  V0  1  0.25443299  0.50443300  0.74999999  1
  Nb  Nb1  1  0.74556701  0.49556700  0.24999999  1
  Nb  Nb2  1  0.50000002  0.00000000  0.50000002  1
  Nb  Nb3  1  0.00000000  0.00000000  0.00000000  1
  O  O4  1  0.13676496  0.88676500  0.24999996  1
  Mo  Mo5  1  0.86323503  0.11323500  0.75000002  1
  O  O6  1  0.91886302  0.30007800  0.14282501  1
  O  O7  1  0.65725299  0.77603800  0.35717498  1
  O  O8  1  0.73581701  0.32499800  0.45448900  1
  O  O9  1  0.37050900  0.28132800  0.04551099  1
  O  O10  1  0.26418298  0.67500200  0.54551098  1
  O  O11  1  0.62949099  0.71867200  0.95448899  1
  O  O12  1  0.34274700  0.22396200  0.64282500  1
  O  O13  1  0.08113697  0.69992200  0.85717497  1
