# generated using pymatgen
data_CaBN
_symmetry_space_group_name_H-M   'P 1'
_cell_length_a   3.71668172
_cell_length_b   3.71668172
_cell_length_c   6.87768078
_cell_angle_alpha   74.32389832
_cell_angle_beta   74.32389832
_cell_angle_gamma   60.00000381
_symmetry_Int_Tables_number   1
_chemical_formula_structural   CaBN
_chemical_formula_sum   'Ca1 B1 N1'
_cell_volume   78.17082998
_cell_formula_units_Z   1
loop_
 _symmetry_equiv_pos_site_id
 _symmetry_equiv_pos_as_xyz
  1  'x, y, z'
loop_
 _atom_site_type_symbol
 _atom_site_label
 _atom_site_symmetry_multiplicity
 _atom_site_fract_x
 _atom_site_fract_y
 _atom_site_fract_z
 _atom_site_occupancy
  Ca  Ca0  1  0.00000000  0.00000000  0.00000000  1
  B  B1  1  0.73721899  0.73721901  0.78834303  1
  N  N2  1  0.26278100  0.26278100  0.21165701  1
