# generated using pymatgen
data_MnO2
_symmetry_space_group_name_H-M   'P 1'
_cell_length_a   5.01090384
_cell_length_b   6.41517448
_cell_length_c   6.41517448
_cell_angle_alpha   60.00824738
_cell_angle_beta   70.02589417
_cell_angle_gamma   70.02589417
_symmetry_Int_Tables_number   1
_chemical_formula_structural   MnO2
_chemical_formula_sum   'Mn4 O8'
_cell_volume   164.12503358
_cell_formula_units_Z   4
loop_
 _symmetry_equiv_pos_site_id
 _symmetry_equiv_pos_as_xyz
  1  'x, y, z'
loop_
 _atom_site_type_symbol
 _atom_site_label
 _atom_site_symmetry_multiplicity
 _atom_site_fract_x
 _atom_site_fract_y
 _atom_site_fract_z
 _atom_site_occupancy
  Mn  Mn0  1  0.74999998  0.33172699  0.66827296  1
  Mn  Mn1  1  0.24999999  0.66827298  0.33172698  1
  Mn  Mn2  1  -0.00000001  0.49999999  -0.00000000  1
  Mn  Mn3  1  0.49999999  0.00000000  0.49999997  1
  O  O4  1  0.83772598  0.27234299  0.97975995  1
  O  O5  1  0.33772598  0.97975997  0.27234298  1
  O  O6  1  0.82121697  0.71424198  0.50663196  1
  O  O7  1  0.32121699  0.50663199  0.71424197  1
  O  O8  1  0.17878299  0.28575799  0.49336798  1
  O  O9  1  0.67878298  0.49336799  0.28575798  1
  O  O10  1  0.16227399  0.72765698  0.02023999  1
  O  O11  1  0.66227399  0.02024000  0.72765696  1
