# generated using pymatgen
data_RbAuI3
_symmetry_space_group_name_H-M   'P 1'
_cell_length_a   6.09914303
_cell_length_b   6.09914303
_cell_length_c   6.09914303
_cell_angle_alpha   88.46020508
_cell_angle_beta   88.46020508
_cell_angle_gamma   88.46019745
_symmetry_Int_Tables_number   1
_chemical_formula_structural   RbAuI3
_chemical_formula_sum   'Rb1 Au1 I3'
_cell_volume   226.64388385
_cell_formula_units_Z   1
loop_
 _symmetry_equiv_pos_site_id
 _symmetry_equiv_pos_as_xyz
  1  'x, y, z'
loop_
 _atom_site_type_symbol
 _atom_site_label
 _atom_site_symmetry_multiplicity
 _atom_site_fract_x
 _atom_site_fract_y
 _atom_site_fract_z
 _atom_site_occupancy
  Rb  Rb0  1  0.99997501  0.99997499  0.99997502  1
  Au  Au1  1  0.53157400  0.53157399  0.53157401  1
  I  I2  1  0.49577701  0.98889699  0.49577700  1
  I  I3  1  0.49577700  0.49577700  0.98889703  1
  I  I4  1  0.98889700  0.49577700  0.49577700  1
