# generated using pymatgen
data_CeAg2TeSe4(SN3)2
_symmetry_space_group_name_H-M   'P 1'
_cell_length_a   6.94247913
_cell_length_b   6.94247913
_cell_length_c   6.94247913
_cell_angle_alpha   60.00000000
_cell_angle_beta   60.00000000
_cell_angle_gamma   60.00000000
_symmetry_Int_Tables_number   1
_chemical_formula_structural   CeAg2TeSe4(SN3)2
_chemical_formula_sum   'Ce1 Ag2 Te1 Se4 S2 N6'
_cell_volume   236.60763330
_cell_formula_units_Z   1
loop_
 _symmetry_equiv_pos_site_id
 _symmetry_equiv_pos_as_xyz
  1  'x, y, z'
loop_
 _atom_site_type_symbol
 _atom_site_label
 _atom_site_symmetry_multiplicity
 _atom_site_fract_x
 _atom_site_fract_y
 _atom_site_fract_z
 _atom_site_occupancy
  Ag  Ag0  1  0.49999999  0.49999999  0.49999999  1
  Ce  Ce1  1  0.00000000  0.00000000  0.00000000  1
  Te  Te2  1  0.49999999  0.00000000  0.49999999  1
  Ag  Ag3  1  -0.00000000  0.49999999  0.00000000  1
  N  N4  1  0.49999999  0.00000000  -0.00000000  1
  Se  Se5  1  -0.00000000  0.49999999  0.49999999  1
  Se  Se6  1  0.49999999  0.49999999  -0.00000000  1
  S  S7  1  -0.00000000  0.00000000  0.49999999  1
  N  N8  1  0.42734099  0.85755299  0.85755299  1
  S  S9  1  0.57265899  0.14244700  0.14244700  1
  Se  Se10  1  0.85755299  0.42734099  0.85755299  1
  N  N11  1  0.85755299  0.85755299  0.85755299  1
  Se  Se12  1  0.14244700  0.57265899  0.14244700  1
  N  N13  1  0.14244700  0.14244700  0.14244700  1
  N  N14  1  0.85755299  0.85755299  0.42734099  1
  N  N15  1  0.14244700  0.14244700  0.57265899  1
