# generated using pymatgen
data_EuThTeSe
_symmetry_space_group_name_H-M   'P 1'
_cell_length_a   4.44287825
_cell_length_b   4.44287825
_cell_length_c   8.00625515
_cell_angle_alpha   73.89115143
_cell_angle_beta   73.89115143
_cell_angle_gamma   59.99999237
_symmetry_Int_Tables_number   1
_chemical_formula_structural   EuThTeSe
_chemical_formula_sum   'Eu1 Th1 Te1 Se1'
_cell_volume   129.64935312
_cell_formula_units_Z   1
loop_
 _symmetry_equiv_pos_site_id
 _symmetry_equiv_pos_as_xyz
  1  'x, y, z'
loop_
 _atom_site_type_symbol
 _atom_site_label
 _atom_site_symmetry_multiplicity
 _atom_site_fract_x
 _atom_site_fract_y
 _atom_site_fract_z
 _atom_site_occupancy
  Eu  Eu0  1  0.00000000  0.00000000  0.00000000  1
  Th  Th1  1  0.50000002  0.50000003  0.49999996  1
  Te  Te2  1  0.24368801  0.24368801  0.26893598  1
  Se  Se3  1  0.75631203  0.75631204  0.73106394  1
