# generated using pymatgen
data_Ca2LaNdAlCoO8
_symmetry_space_group_name_H-M   'P 1'
_cell_length_a   5.27292585
_cell_length_b   5.47460794
_cell_length_c   6.56193256
_cell_angle_alpha   90.00000000
_cell_angle_beta   113.68959808
_cell_angle_gamma   90.00000000
_symmetry_Int_Tables_number   1
_chemical_formula_structural   Ca2LaNdAlCoO8
_chemical_formula_sum   'Ca2 La1 Nd1 Al1 Co1 O8'
_cell_volume   173.46286912
_cell_formula_units_Z   1
loop_
 _symmetry_equiv_pos_site_id
 _symmetry_equiv_pos_as_xyz
  1  'x, y, z'
loop_
 _atom_site_type_symbol
 _atom_site_label
 _atom_site_symmetry_multiplicity
 _atom_site_fract_x
 _atom_site_fract_y
 _atom_site_fract_z
 _atom_site_occupancy
  Ca  Ca0  1  0.89396504  0.51400601  0.78793003  1
  Ca  Ca1  1  0.10603501  0.01400600  0.21207000  1
  Nd  Nd2  1  0.61169403  0.48050700  0.22338702  1
  La  La3  1  0.38830702  0.98050701  0.77661401  1
  Co  Co4  1  0.24875301  0.49941101  0.49750601  1
  Al  Al5  1  0.75124704  0.99941101  0.50249403  1
  O  O6  1  0.98421105  0.74899901  0.46952804  1
  O  O7  1  0.01578900  0.24899900  0.53047199  1
  O  O8  1  0.51468303  0.24899900  0.53047202  1
  O  O9  1  0.48531702  0.74899901  0.46952802  1
  O  O10  1  0.08119500  0.45424500  0.16239000  1
  O  O11  1  0.42474902  0.55383201  0.84949801  1
  O  O12  1  0.91880505  0.95424501  0.83761003  1
  O  O13  1  0.57525103  0.05383200  0.15050202  1
