# generated using pymatgen
data_Ba4Sn(TeSe4)3
_symmetry_space_group_name_H-M   'P 1'
_cell_length_a   4.46979380
_cell_length_b   10.13981342
_cell_length_c   11.55934525
_cell_angle_alpha   90.00000000
_cell_angle_beta   90.00000000
_cell_angle_gamma   90.00000000
_symmetry_Int_Tables_number   1
_chemical_formula_structural   Ba4Sn(TeSe4)3
_chemical_formula_sum   'Ba4 Sn1 Te3 Se12'
_cell_volume   523.90276122
_cell_formula_units_Z   1
loop_
 _symmetry_equiv_pos_site_id
 _symmetry_equiv_pos_as_xyz
  1  'x, y, z'
loop_
 _atom_site_type_symbol
 _atom_site_label
 _atom_site_symmetry_multiplicity
 _atom_site_fract_x
 _atom_site_fract_y
 _atom_site_fract_z
 _atom_site_occupancy
  Ba  Ba0  1  0.75000003  0.25779999  0.67814799  1
  Ba  Ba1  1  0.25000001  0.74219997  0.32185199  1
  Ba  Ba2  1  0.75000003  0.75779997  0.82185198  1
  Ba  Ba3  1  0.25000001  0.24219999  0.17814800  1
  Sn  Sn4  1  0.25000001  0.57457498  0.04417200  1
  Te  Te5  1  0.75000003  0.42542498  0.95582798  1
  Te  Te6  1  0.75000003  0.92542496  0.54417199  1
  Te  Te7  1  0.25000001  0.07457500  0.45582799  1
  Se  Se8  1  0.75000003  0.44362298  0.38716999  1
  Se  Se9  1  0.25000001  0.55637698  0.61282999  1
  Se  Se10  1  0.75000003  0.94362296  0.11283000  1
  Se  Se11  1  0.25000001  0.05637700  0.88716998  1
  Se  Se12  1  0.25000001  0.33955999  0.46229099  1
  Se  Se13  1  0.75000003  0.66043997  0.53770899  1
  Se  Se14  1  0.75000003  0.16043999  0.96229098  1
  Se  Se15  1  0.25000001  0.83955996  0.03770900  1
  Se  Se16  1  0.75000003  0.02317400  0.33025399  1
  Se  Se17  1  0.25000001  0.97682596  0.66974599  1
  Se  Se18  1  0.75000003  0.52317398  0.16974600  1
  Se  Se19  1  0.25000001  0.47682598  0.83025398  1
