# generated using pymatgen
data_KCaSnF7
_symmetry_space_group_name_H-M   'P 1'
_cell_length_a   6.63360167
_cell_length_b   6.63360167
_cell_length_c   8.61232758
_cell_angle_alpha   90.00000000
_cell_angle_beta   90.00000000
_cell_angle_gamma   116.91493988
_symmetry_Int_Tables_number   1
_chemical_formula_structural   KCaSnF7
_chemical_formula_sum   'K2 Ca2 Sn2 F14'
_cell_volume   337.93106292
_cell_formula_units_Z   2
loop_
 _symmetry_equiv_pos_site_id
 _symmetry_equiv_pos_as_xyz
  1  'x, y, z'
loop_
 _atom_site_type_symbol
 _atom_site_label
 _atom_site_symmetry_multiplicity
 _atom_site_fract_x
 _atom_site_fract_y
 _atom_site_fract_z
 _atom_site_occupancy
  K  K0  1  0.00000000  0.00000000  0.00000000  1
  K  K1  1  0.00000000  0.00000000  0.50000002  1
  Ca  Ca2  1  0.69069403  0.30930601  0.25000001  1
  Ca  Ca3  1  0.30930602  0.69069403  0.75000004  1
  Sn  Sn4  1  0.30666502  0.69333503  0.25000001  1
  Sn  Sn5  1  0.69333503  0.30666501  0.75000004  1
  F  F6  1  0.06628501  0.35113901  0.25000001  1
  F  F7  1  0.93371504  0.64886103  0.75000004  1
  F  F8  1  0.64886104  0.93371504  0.25000001  1
  F  F9  1  0.35113901  0.06628500  0.75000004  1
  F  F10  1  0.48771103  0.51228902  0.25000001  1
  F  F11  1  0.51228903  0.48771102  0.75000004  1
  F  F12  1  0.29707302  0.70292703  0.01583300  1
  F  F13  1  0.70292703  0.29707301  0.98416705  1
  F  F14  1  0.70292703  0.29707301  0.51583303  1
  F  F15  1  0.29707302  0.70292703  0.48416702  1
  F  F16  1  0.97952404  0.67120503  0.25000001  1
  F  F17  1  0.02047601  0.32879501  0.75000004  1
  F  F18  1  0.32879501  0.02047600  0.25000001  1
  F  F19  1  0.67120504  0.97952404  0.75000004  1
