# generated using pymatgen
data_ErCrO4
_symmetry_space_group_name_H-M   'P 1'
_cell_length_a   5.99283695
_cell_length_b   5.99283695
_cell_length_c   5.99283695
_cell_angle_alpha   105.98812866
_cell_angle_beta   105.98812866
_cell_angle_gamma   116.68746948
_symmetry_Int_Tables_number   1
_chemical_formula_structural   ErCrO4
_chemical_formula_sum   'Er2 Cr2 O8'
_cell_volume   163.68727099
_cell_formula_units_Z   2
loop_
 _symmetry_equiv_pos_site_id
 _symmetry_equiv_pos_as_xyz
  1  'x, y, z'
loop_
 _atom_site_type_symbol
 _atom_site_label
 _atom_site_symmetry_multiplicity
 _atom_site_fract_x
 _atom_site_fract_y
 _atom_site_fract_z
 _atom_site_occupancy
  Er  Er0  1  0.24999999  0.74999998  0.49999997  1
  Er  Er1  1  0.49999998  0.49999998  0.99999996  1
  Cr  Cr2  1  0.74999998  0.24999999  0.49999997  1
  Cr  Cr3  1  0.00000000  0.00000000  0.00000000  1
  O  O4  1  0.17474899  0.35881499  0.18406598  1
  O  O5  1  0.10881599  0.42474999  0.68406697  1
  O  O6  1  0.74068298  0.42474899  0.31593397  1
  O  O7  1  0.17474898  0.99068297  0.81593296  1
  O  O8  1  0.64118397  0.82524997  0.81593295  1
  O  O9  1  0.57525098  0.89118497  0.31593396  1
  O  O10  1  0.57525098  0.25931699  0.68406697  1
  O  O11  1  0.00931699  0.82525097  0.18406598  1
