# generated using pymatgen
data_MnPF10
_symmetry_space_group_name_H-M   'P 1'
_cell_length_a   4.93159866
_cell_length_b   4.93159866
_cell_length_c   7.91944695
_cell_angle_alpha   84.36394501
_cell_angle_beta   84.36394501
_cell_angle_gamma   71.09893036
_symmetry_Int_Tables_number   1
_chemical_formula_structural   MnPF10
_chemical_formula_sum   'Mn1 P1 F10'
_cell_volume   180.88838633
_cell_formula_units_Z   1
loop_
 _symmetry_equiv_pos_site_id
 _symmetry_equiv_pos_as_xyz
  1  'x, y, z'
loop_
 _atom_site_type_symbol
 _atom_site_label
 _atom_site_symmetry_multiplicity
 _atom_site_fract_x
 _atom_site_fract_y
 _atom_site_fract_z
 _atom_site_occupancy
  Mn  Mn0  1  0.07421899  0.92578099  0.24999998  1
  P  P1  1  0.92578098  0.07421900  0.74999998  1
  F  F2  1  0.49999999  0.00000000  0.49999999  1
  F  F3  1  -0.00000001  0.49999999  -0.00000001  1
  F  F4  1  0.20192899  0.74334499  0.09391898  1
  F  F5  1  0.25665499  0.79807099  0.40608098  1
  F  F6  1  0.79807098  0.25665500  0.90608097  1
  F  F7  1  0.74334498  0.20192900  0.59391898  1
  F  F8  1  0.09301200  0.23505800  0.21164099  1
  F  F9  1  0.76494197  0.90698799  0.28835897  1
  F  F10  1  0.90698797  0.76494199  0.78835896  1
  F  F11  1  0.23505799  0.09301200  0.71164099  1
