# generated using pymatgen
data_TlI3
_symmetry_space_group_name_H-M   'P 1'
_cell_length_a   7.41638470
_cell_length_b   7.61748362
_cell_length_c   7.61748362
_cell_angle_alpha   62.60501099
_cell_angle_beta   79.24666595
_cell_angle_gamma   100.75333405
_symmetry_Int_Tables_number   1
_chemical_formula_structural   TlI3
_chemical_formula_sum   'Tl2 I6'
_cell_volume   356.59527257
_cell_formula_units_Z   2
loop_
 _symmetry_equiv_pos_site_id
 _symmetry_equiv_pos_as_xyz
  1  'x, y, z'
loop_
 _atom_site_type_symbol
 _atom_site_label
 _atom_site_symmetry_multiplicity
 _atom_site_fract_x
 _atom_site_fract_y
 _atom_site_fract_z
 _atom_site_occupancy
  Tl  Tl0  1  0.50000010  0.84552503  0.84552492  1
  Tl  Tl1  1  0.00000000  0.00094300  0.00094300  1
  I  I2  1  0.23532908  0.76582403  0.22603194  1
  I  I3  1  0.76467105  0.22603201  0.76582394  1
  I  I4  1  0.74513509  0.61601002  0.06323393  1
  I  I5  1  0.75757912  0.92373304  0.39269891  1
  I  I6  1  0.24242105  0.39269902  0.92373296  1
  I  I7  1  0.25486501  0.06323400  0.61600998  1
