# generated using pymatgen
data_KF
_symmetry_space_group_name_H-M   'P 1'
_cell_length_a   6.35092878
_cell_length_b   6.47709227
_cell_length_c   7.02992487
_cell_angle_alpha   65.99754333
_cell_angle_beta   69.24993134
_cell_angle_gamma   88.80567932
_symmetry_Int_Tables_number   1
_chemical_formula_structural   KF
_chemical_formula_sum   'K4 F4'
_cell_volume   244.45256771
_cell_formula_units_Z   4
loop_
 _symmetry_equiv_pos_site_id
 _symmetry_equiv_pos_as_xyz
  1  'x, y, z'
loop_
 _atom_site_type_symbol
 _atom_site_label
 _atom_site_symmetry_multiplicity
 _atom_site_fract_x
 _atom_site_fract_y
 _atom_site_fract_z
 _atom_site_occupancy
  K  K0  1  0.87064405  0.61401899  0.74367495  1
  K  K1  1  0.12935601  0.38598100  0.25632498  1
  K  K2  1  0.40930202  0.08577400  0.75109797  1
  K  K3  1  0.59069804  0.91422599  0.24890195  1
  F  F4  1  0.78230304  0.09191900  0.79031396  1
  F  F5  1  0.21769702  0.90808099  0.20968597  1
  F  F6  1  0.37114202  0.72112499  0.73002996  1
  F  F7  1  0.62885803  0.27887500  0.26996997  1
