# generated using pymatgen
data_Li3MnCo3O11
_symmetry_space_group_name_H-M   'P 1'
_cell_length_a   5.60694456
_cell_length_b   5.60694456
_cell_length_c   7.54967451
_cell_angle_alpha   70.01634979
_cell_angle_beta   70.01634979
_cell_angle_gamma   69.76867676
_symmetry_Int_Tables_number   1
_chemical_formula_structural   Li3MnCo3O11
_chemical_formula_sum   'Li3 Mn1 Co3 O11'
_cell_volume   202.45481718
_cell_formula_units_Z   1
loop_
 _symmetry_equiv_pos_site_id
 _symmetry_equiv_pos_as_xyz
  1  'x, y, z'
loop_
 _atom_site_type_symbol
 _atom_site_label
 _atom_site_symmetry_multiplicity
 _atom_site_fract_x
 _atom_site_fract_y
 _atom_site_fract_z
 _atom_site_occupancy
  Li  Li0  1  0.32110002  0.32110000  0.14444201  1
  Li  Li1  1  0.66632104  0.66632100  0.33684702  1
  Mn  Mn2  1  0.33793702  0.33793700  0.67710401  1
  Li  Li3  1  0.65526604  0.65526600  0.80793402  1
  Co  Co4  1  0.00199600  0.00199600  0.50394600  1
  Co  Co5  1  0.00495600  0.00495600  0.00373400  1
  O  O6  1  0.97428703  0.36691600  0.33165002  1
  Co  Co7  1  0.63498501  0.02616800  0.67137501  1
  O  O8  1  0.23218501  0.23218500  0.97120101  1
  O  O9  1  0.56866604  0.56866600  0.63307002  1
  O  O10  1  0.69346202  0.30726900  0.00117601  1
  O  O11  1  0.36691606  0.97428700  0.33165001  1
  O  O12  1  0.02616803  0.63498500  0.67137501  1
  O  O13  1  0.30726904  0.69346200  0.00117601  1
  O  O14  1  0.77072105  0.77072100  0.03638102  1
  O  O15  1  0.43352503  0.43352500  0.37133401  1
  O  O16  1  0.10363001  0.10363000  0.70543101  1
  O  O17  1  0.90060906  0.90060900  0.30017102  1
