# generated using pymatgen
data_K4BiSb2Cl2O11
_symmetry_space_group_name_H-M   'P 1'
_cell_length_a   6.32322741
_cell_length_b   6.59434605
_cell_length_c   10.98849487
_cell_angle_alpha   72.53898621
_cell_angle_beta   86.22925568
_cell_angle_gamma   90.00000000
_symmetry_Int_Tables_number   1
_chemical_formula_structural   K4BiSb2Cl2O11
_chemical_formula_sum   'K4 Bi1 Sb2 Cl2 O11'
_cell_volume   436.04044536
_cell_formula_units_Z   1
loop_
 _symmetry_equiv_pos_site_id
 _symmetry_equiv_pos_as_xyz
  1  'x, y, z'
loop_
 _atom_site_type_symbol
 _atom_site_label
 _atom_site_symmetry_multiplicity
 _atom_site_fract_x
 _atom_site_fract_y
 _atom_site_fract_z
 _atom_site_occupancy
  K  K0  1  0.25000002  0.73168799  1.00000005  1
  K  K1  1  0.75000004  0.26831199  -0.00000002  1
  K  K2  1  0.71201904  0.58668199  0.32091500  1
  K  K3  1  0.21201901  0.09240300  0.32091501  1
  Bi  Bi4  1  0.28798102  0.41331799  0.67908502  1
  Sb  Sb5  1  0.78798105  0.90759698  0.67908502  1
  Cl  Cl6  1  0.02996900  0.02441100  0.74515303  1
  Sb  Sb7  1  0.93275005  0.63495199  0.69310601  1
  O  O8  1  0.97003106  0.97558898  0.25484700  1
  Cl  Cl9  1  0.20689201  0.36024099  0.86741703  1
  O  O10  1  0.79310804  0.63975899  0.13258299  1
  O  O11  1  0.56725003  0.32805799  0.30689400  1
  O  O12  1  0.47003103  0.76956398  0.25484701  1
  O  O13  1  0.29310802  0.22765800  0.13258300  1
  O  O14  1  0.43275003  0.67194199  0.69310603  1
  O  O15  1  0.50000003  0.49999999  0.50000001  1
  O  O16  1  0.70689204  0.77234198  0.86741703  1
  O  O17  1  0.52996903  0.23043600  0.74515301  1
  O  O18  1  0.00000000  0.00000000  0.50000002  1
  O  O19  1  0.06725001  0.36504799  0.30689402  1
