# generated using pymatgen
data_LiB2(HO2)3
_symmetry_space_group_name_H-M   'P 1'
_cell_length_a   4.39788818
_cell_length_b   4.66271400
_cell_length_c   7.63104439
_cell_angle_alpha   100.78297424
_cell_angle_beta   90.00000000
_cell_angle_gamma   90.00000000
_symmetry_Int_Tables_number   1
_chemical_formula_structural   LiB2(HO2)3
_chemical_formula_sum   'Li1 B2 H3 O6'
_cell_volume   153.71988350
_cell_formula_units_Z   1
loop_
 _symmetry_equiv_pos_site_id
 _symmetry_equiv_pos_as_xyz
  1  'x, y, z'
loop_
 _atom_site_type_symbol
 _atom_site_label
 _atom_site_symmetry_multiplicity
 _atom_site_fract_x
 _atom_site_fract_y
 _atom_site_fract_z
 _atom_site_occupancy
  Li  Li0  1  -0.00000000  0.15361700  0.07752399  1
  B  B1  1  0.99999996  0.96831399  0.58745596  1
  H  H2  1  0.99999996  0.38718400  0.40151498  1
  B  B3  1  0.49999998  0.06717300  0.84851898  1
  O  O4  1  0.72087797  0.22544800  0.84070798  1
  O  O5  1  0.27912199  0.22544800  0.84070798  1
  H  H6  1  0.23048799  0.24046100  0.36126199  1
  H  H7  1  0.76951197  0.24046100  0.36126199  1
  O  O8  1  -0.00000000  0.47322299  0.56330798  1
  O  O9  1  -0.00000000  0.59270599  0.32084298  1
  O  O10  1  0.49999998  0.97167199  0.98881695  1
  O  O11  1  0.49999998  0.85831199  0.72408896  1
