# generated using pymatgen
data_In5GaSbAs2Rh3
_symmetry_space_group_name_H-M   'P 1'
_cell_length_a   6.60424519
_cell_length_b   6.60424519
_cell_length_c   6.60424519
_cell_angle_alpha   90.00000000
_cell_angle_beta   90.00000000
_cell_angle_gamma   90.00000000
_symmetry_Int_Tables_number   1
_chemical_formula_structural   In5GaSbAs2Rh3
_chemical_formula_sum   'In5 Ga1 Sb1 As2 Rh3'
_cell_volume   288.05111779
_cell_formula_units_Z   1
loop_
 _symmetry_equiv_pos_site_id
 _symmetry_equiv_pos_as_xyz
  1  'x, y, z'
loop_
 _atom_site_type_symbol
 _atom_site_label
 _atom_site_symmetry_multiplicity
 _atom_site_fract_x
 _atom_site_fract_y
 _atom_site_fract_z
 _atom_site_occupancy
  In  In0  1  0.13019900  0.86980098  0.36980099  1
  Ga  Ga1  1  0.86980098  0.36980099  0.13019900  1
  In  In2  1  0.36980099  0.13019900  0.86980098  1
  In  In3  1  0.63019898  0.63019898  0.63019898  1
  In  In4  1  0.87254798  0.12745200  0.62745198  1
  In  In5  1  0.12745200  0.62745198  0.87254798  1
  As  As6  1  0.62745198  0.87254798  0.12745200  1
  As  As7  1  0.37254799  0.37254799  0.37254799  1
  Sb  Sb8  1  0.49410599  0.50589399  0.00589400  1
  Rh  Rh9  1  0.50589399  0.00589400  0.49410599  1
  Rh  Rh10  1  0.00589400  0.49410599  0.50589399  1
  Rh  Rh11  1  0.99410597  0.99410597  0.99410597  1
