# generated using pymatgen
data_MnPO3
_symmetry_space_group_name_H-M   'P 1'
_cell_length_a   4.35494900
_cell_length_b   6.50973797
_cell_length_c   8.76764202
_cell_angle_alpha   90.00000000
_cell_angle_beta   90.00000000
_cell_angle_gamma   92.66468048
_symmetry_Int_Tables_number   1
_chemical_formula_structural   MnPO3
_chemical_formula_sum   'Mn4 P4 O12'
_cell_volume   248.29018026
_cell_formula_units_Z   4
loop_
 _symmetry_equiv_pos_site_id
 _symmetry_equiv_pos_as_xyz
  1  'x, y, z'
loop_
 _atom_site_type_symbol
 _atom_site_label
 _atom_site_symmetry_multiplicity
 _atom_site_fract_x
 _atom_site_fract_y
 _atom_site_fract_z
 _atom_site_occupancy
  Mn  Mn0  1  0.23557604  0.97476198  0.77566300  1
  Mn  Mn1  1  0.23557602  0.47476199  0.72433700  1
  Mn  Mn2  1  0.76442402  0.52523799  0.27566300  1
  Mn  Mn3  1  0.76442400  0.02523800  0.22433700  1
  P  P4  1  0.25570703  0.78642898  0.42640700  1
  P  P5  1  0.25570701  0.28642899  0.07359300  1
  P  P6  1  0.74429303  0.71357098  0.92640700  1
  P  P7  1  0.74429301  0.21357100  0.57359300  1
  O  O8  1  0.08988403  0.69276099  0.88388900  1
  O  O9  1  0.08988401  0.19276100  0.61611100  1
  O  O10  1  0.25104503  0.74953198  0.60128600  1
  O  O11  1  0.31462902  0.57488199  0.35506800  1
  O  O12  1  0.25104501  0.24953199  0.89871400  1
  O  O13  1  0.31462900  0.07488200  0.14493200  1
  O  O14  1  0.68537104  0.92511798  0.85506800  1
  O  O15  1  0.74895503  0.75046798  0.10128600  1
  O  O16  1  0.68537102  0.42511799  0.64493200  1
  O  O17  1  0.74895501  0.25046799  0.39871400  1
  O  O18  1  0.91011603  0.80723898  0.38388900  1
  O  O19  1  0.91011601  0.30723899  0.11611100  1
