# generated using pymatgen
data_Na2HoCd3SO5
_symmetry_space_group_name_H-M   'P 1'
_cell_length_a   3.99359012
_cell_length_b   3.99359012
_cell_length_c   11.23716736
_cell_angle_alpha   90.00000000
_cell_angle_beta   90.00000000
_cell_angle_gamma   90.00000000
_symmetry_Int_Tables_number   1
_chemical_formula_structural   Na2HoCd3SO5
_chemical_formula_sum   'Na2 Ho1 Cd3 S1 O5'
_cell_volume   179.21890796
_cell_formula_units_Z   1
loop_
 _symmetry_equiv_pos_site_id
 _symmetry_equiv_pos_as_xyz
  1  'x, y, z'
loop_
 _atom_site_type_symbol
 _atom_site_label
 _atom_site_symmetry_multiplicity
 _atom_site_fract_x
 _atom_site_fract_y
 _atom_site_fract_z
 _atom_site_occupancy
  Cd  Cd0  1  0.49965599  0.16020700  0.33452299  1
  Na  Na1  1  0.00034400  0.66020698  0.41547699  1
  Na  Na2  1  0.33979299  0.99965597  0.08452300  1
  Ho  Ho3  1  0.50034399  0.83979298  0.83452297  1
  Cd  Cd4  1  0.83979298  0.50034399  0.16547699  1
  Cd  Cd5  1  0.99965597  0.33979299  0.91547697  1
  S  S6  1  0.66020698  0.00034400  0.58452298  1
  O  O7  1  0.16020700  0.49965599  0.66547698  1
  O  O8  1  0.99714097  0.00285900  0.74999998  1
  O  O9  1  0.50285899  0.50285899  -0.00000000  1
  O  O10  1  0.49714099  0.49714099  0.49999998  1
  O  O11  1  0.00285900  0.99714097  0.24999999  1
