# generated using pymatgen
data_AlSi(BP)2
_symmetry_space_group_name_H-M   'P 1'
_cell_length_a   4.07508183
_cell_length_b   4.07508183
_cell_length_c   9.83491898
_cell_angle_alpha   78.04319763
_cell_angle_beta   78.04319763
_cell_angle_gamma   60.00000763
_symmetry_Int_Tables_number   1
_chemical_formula_structural   AlSi(BP)2
_chemical_formula_sum   'Al1 Si1 B2 P2'
_cell_volume   137.33379265
_cell_formula_units_Z   1
loop_
 _symmetry_equiv_pos_site_id
 _symmetry_equiv_pos_as_xyz
  1  'x, y, z'
loop_
 _atom_site_type_symbol
 _atom_site_label
 _atom_site_symmetry_multiplicity
 _atom_site_fract_x
 _atom_site_fract_y
 _atom_site_fract_z
 _atom_site_occupancy
  Al  Al0  1  0.25299899  0.25299898  0.24100300  1
  B  B1  1  0.74700098  0.74700095  0.75899700  1
  Si  Si2  1  0.49999999  0.49999997  0.50000000  1
  P  P3  1  0.00000000  0.00000000  0.00000000  1
  B  B4  1  0.43638799  0.43638797  0.69083600  1
  P  P5  1  0.56361199  0.56361196  0.30916401  1
