# generated using pymatgen
data_AlSi3H4O9
_symmetry_space_group_name_H-M   'P 1'
_cell_length_a   5.23861790
_cell_length_b   5.23861742
_cell_length_c   7.29663038
_cell_angle_alpha   89.60490417
_cell_angle_beta   89.60490417
_cell_angle_gamma   119.58273315
_symmetry_Int_Tables_number   1
_chemical_formula_structural   AlSi3H4O9
_chemical_formula_sum   'Al1 Si3 H4 O9'
_cell_volume   174.12307995
_cell_formula_units_Z   1
loop_
 _symmetry_equiv_pos_site_id
 _symmetry_equiv_pos_as_xyz
  1  'x, y, z'
loop_
 _atom_site_type_symbol
 _atom_site_label
 _atom_site_symmetry_multiplicity
 _atom_site_fract_x
 _atom_site_fract_y
 _atom_site_fract_z
 _atom_site_occupancy
  Si  Si0  1  0.33253701  0.99998404  0.51841197  1
  Al  Al1  1  0.99998404  0.33253701  0.51841198  1
  Si  Si2  1  0.32202101  0.66428803  0.14408397  1
  Si  Si3  1  0.66428802  0.32202101  0.14408398  1
  H  H4  1  0.65871102  0.99994904  0.77300497  1
  H  H5  1  0.99994904  0.65871103  0.77300497  1
  H  H6  1  0.34124201  0.34124201  0.77153599  1
  H  H7  1  0.00371600  0.00371600  0.24764500  1
  O  O8  1  0.28734801  0.67392003  0.36319298  1
  O  O9  1  0.67392002  0.28734801  0.36319298  1
  O  O10  1  0.49991401  0.99452504  0.05052896  1
  O  O11  1  0.99452504  0.49991402  0.05052896  1
  O  O12  1  0.49526602  0.49526602  0.07076197  1
  O  O13  1  0.66448203  0.05803900  0.64640899  1
  O  O14  1  0.05803900  0.66448203  0.64640899  1
  O  O15  1  0.27134401  0.27134401  0.65004500  1
  O  O16  1  0.06601700  0.06601700  0.37114600  1
