# generated using pymatgen
data_Rb6YScF12
_symmetry_space_group_name_H-M   'P 1'
_cell_length_a   6.58136511
_cell_length_b   6.75063181
_cell_length_c   9.36725998
_cell_angle_alpha   90.00000000
_cell_angle_beta   89.73479462
_cell_angle_gamma   90.00000000
_symmetry_Int_Tables_number   1
_chemical_formula_structural   Rb6YScF12
_chemical_formula_sum   'Rb6 Y1 Sc1 F12'
_cell_volume   416.16765884
_cell_formula_units_Z   1
loop_
 _symmetry_equiv_pos_site_id
 _symmetry_equiv_pos_as_xyz
  1  'x, y, z'
loop_
 _atom_site_type_symbol
 _atom_site_label
 _atom_site_symmetry_multiplicity
 _atom_site_fract_x
 _atom_site_fract_y
 _atom_site_fract_z
 _atom_site_occupancy
  Rb  Rb0  1  -0.00000000  1.00000003  0.50000002  1
  Rb  Rb1  1  0.49999999  0.50000001  -0.00000001  1
  Rb  Rb2  1  0.51080099  0.95622103  0.75186202  1
  Rb  Rb3  1  0.01080100  0.54377902  0.25186201  1
  Rb  Rb4  1  0.98919898  0.45622101  0.74813802  1
  Rb  Rb5  1  0.48919899  0.04377900  0.24813800  1
  Sc  Sc6  1  0.00000000  0.00000000  0.00000000  1
  Y  Y7  1  0.49999999  0.50000001  0.50000001  1
  F  F8  1  0.17678200  0.26711101  0.05383100  1
  F  F9  1  0.32321799  0.76711102  0.44616901  1
  F  F10  1  0.82321799  0.73288902  0.94616903  1
  F  F11  1  0.67678199  0.23288901  0.55383101  1
  F  F12  1  0.72903899  0.18185501  0.95888503  1
  F  F13  1  0.77096099  0.68185502  0.54111501  1
  F  F14  1  0.27096100  0.81814502  0.04111500  1
  F  F15  1  0.22903900  0.31814501  0.45888502  1
  F  F16  1  0.58962599  0.46118701  0.27506700  1
  F  F17  1  0.91037399  0.96118703  0.22493300  1
  F  F18  1  0.41037399  0.53881302  0.72493302  1
  F  F19  1  0.08962600  0.03881300  0.77506703  1
