# generated using pymatgen
data_Ba4Zr3TaS12
_symmetry_space_group_name_H-M   'P 1'
_cell_length_a   7.08830786
_cell_length_b   7.15496016
_cell_length_c   10.07677746
_cell_angle_alpha   90.00000000
_cell_angle_beta   90.00000000
_cell_angle_gamma   90.00000000
_symmetry_Int_Tables_number   1
_chemical_formula_structural   Ba4Zr3TaS12
_chemical_formula_sum   'Ba4 Zr3 Ta1 S12'
_cell_volume   511.05949149
_cell_formula_units_Z   1
loop_
 _symmetry_equiv_pos_site_id
 _symmetry_equiv_pos_as_xyz
  1  'x, y, z'
loop_
 _atom_site_type_symbol
 _atom_site_label
 _atom_site_symmetry_multiplicity
 _atom_site_fract_x
 _atom_site_fract_y
 _atom_site_fract_z
 _atom_site_occupancy
  Ba  Ba0  1  0.00860300  0.04274100  0.24999999  1
  Ba  Ba1  1  0.50860301  0.45725899  0.74999997  1
  Ba  Ba2  1  0.49139701  0.54274099  0.24999999  1
  Ba  Ba3  1  0.99139702  0.95725898  0.74999997  1
  Ta  Ta4  1  0.50000001  0.00000000  0.00000000  1
  Zr  Zr5  1  0.00000000  0.49999999  0.00000000  1
  Zr  Zr6  1  0.00000000  0.49999999  0.49999998  1
  Zr  Zr7  1  0.50000001  0.00000000  0.49999998  1
  S  S8  1  0.56090801  0.99382898  0.24999999  1
  S  S9  1  0.06090800  0.50617099  0.74999997  1
  S  S10  1  0.93909202  0.49382899  0.24999999  1
  S  S11  1  0.43909201  0.00617100  0.74999997  1
  S  S12  1  0.78662302  0.21318300  0.96821096  1
  S  S13  1  0.28662301  0.28681699  0.03178900  1
  S  S14  1  0.71337701  0.71318298  0.53178898  1
  S  S15  1  0.21337700  0.78681698  0.46821098  1
  S  S16  1  0.21337700  0.78681698  0.03178900  1
  S  S17  1  0.71337701  0.71318298  0.96821096  1
  S  S18  1  0.28662301  0.28681699  0.46821098  1
  S  S19  1  0.78662302  0.21318300  0.53178898  1
