# generated using pymatgen
data_NaGd2Nb(PbO4)2
_symmetry_space_group_name_H-M   'P 1'
_cell_length_a   3.40759206
_cell_length_b   5.86264181
_cell_length_c   11.39980984
_cell_angle_alpha   90.00000000
_cell_angle_beta   90.00000000
_cell_angle_gamma   106.89502716
_symmetry_Int_Tables_number   1
_chemical_formula_structural   NaGd2Nb(PbO4)2
_chemical_formula_sum   'Na1 Gd2 Nb1 Pb2 O8'
_cell_volume   217.91009400
_cell_formula_units_Z   1
loop_
 _symmetry_equiv_pos_site_id
 _symmetry_equiv_pos_as_xyz
  1  'x, y, z'
loop_
 _atom_site_type_symbol
 _atom_site_label
 _atom_site_symmetry_multiplicity
 _atom_site_fract_x
 _atom_site_fract_y
 _atom_site_fract_z
 _atom_site_occupancy
  Na  Na0  1  0.11063799  0.22127599  0.75000001  1
  Nb  Nb1  1  0.88936196  0.77872397  0.25000000  1
  Gd  Gd2  1  0.36462697  0.72925397  0.57027301  1
  Gd  Gd3  1  0.36462697  0.72925397  0.92972701  1
  Pb  Pb4  1  0.63537298  0.27074599  0.42972701  1
  Pb  Pb5  1  0.63537298  0.27074599  0.07027300  1
  O  O6  1  0.00000000  0.00000000  0.00000000  1
  O  O7  1  0.00000000  0.00000000  0.50000001  1
  O  O8  1  0.43327697  0.86655397  0.75000001  1
  O  O9  1  0.25998498  0.51996998  0.39935801  1
  O  O10  1  0.25998498  0.51996998  0.10064200  1
  O  O11  1  0.56672299  0.13344599  0.25000000  1
  O  O12  1  0.74001497  0.48002998  0.60064201  1
  O  O13  1  0.74001497  0.48002998  0.89935801  1
