# generated using pymatgen
data_Ca2TaZnWO12
_symmetry_space_group_name_H-M   'P 1'
_cell_length_a   5.57615423
_cell_length_b   5.60465813
_cell_length_c   7.90657806
_cell_angle_alpha   90.00000000
_cell_angle_beta   90.00000000
_cell_angle_gamma   90.00000000
_symmetry_Int_Tables_number   1
_chemical_formula_structural   Ca2TaZnWO12
_chemical_formula_sum   'Ca2 Ta1 Zn1 W1 O12'
_cell_volume   247.09984179
_cell_formula_units_Z   1
loop_
 _symmetry_equiv_pos_site_id
 _symmetry_equiv_pos_as_xyz
  1  'x, y, z'
loop_
 _atom_site_type_symbol
 _atom_site_label
 _atom_site_symmetry_multiplicity
 _atom_site_fract_x
 _atom_site_fract_y
 _atom_site_fract_z
 _atom_site_occupancy
  Ca  Ca0  1  0.75670697  0.49999999  -0.00000000  1
  Ca  Ca1  1  0.25540799  0.49999999  0.25900600  1
  Ta  Ta2  1  0.75488097  0.00000000  0.25883800  1
  Zn  Zn3  1  0.75488097  0.00000000  0.74116199  1
  W  W4  1  0.25540799  0.49999999  0.74099399  1
  O  O5  1  0.51322598  0.26705699  0.19759800  1
  O  O6  1  0.51322598  0.73294298  0.19759800  1
  O  O7  1  0.51322598  0.26705699  0.80240199  1
  O  O8  1  0.51322598  0.73294298  0.80240199  1
  O  O9  1  0.99156296  0.25748399  0.26376600  1
  O  O10  1  0.99156296  0.74251598  0.26376600  1
  O  O11  1  0.99156296  0.25748399  0.73623399  1
  O  O12  1  0.99156296  0.74251598  0.73623399  1
  O  O13  1  0.16770299  0.49999999  -0.00000000  1
  O  O14  1  0.80262597  0.00000000  -0.00000000  1
  O  O15  1  0.30995599  0.49999999  0.50000000  1
  O  O16  1  0.67957297  0.00000000  0.50000000  1
