# generated using pymatgen
data_NaNbF3
_symmetry_space_group_name_H-M   'P 1'
_cell_length_a   4.35918903
_cell_length_b   6.18021631
_cell_length_c   6.18021631
_cell_angle_alpha   90.00000000
_cell_angle_beta   90.00000000
_cell_angle_gamma   90.00000000
_symmetry_Int_Tables_number   1
_chemical_formula_structural   NaNbF3
_chemical_formula_sum   'Na2 Nb2 F6'
_cell_volume   166.49954627
_cell_formula_units_Z   2
loop_
 _symmetry_equiv_pos_site_id
 _symmetry_equiv_pos_as_xyz
  1  'x, y, z'
loop_
 _atom_site_type_symbol
 _atom_site_label
 _atom_site_symmetry_multiplicity
 _atom_site_fract_x
 _atom_site_fract_y
 _atom_site_fract_z
 _atom_site_occupancy
  Na  Na0  1  0.50000000  0.50000002  -0.00000000  1
  Na  Na1  1  0.50000000  0.00000000  0.50000002  1
  Nb  Nb2  1  0.00000000  0.00000000  0.00000000  1
  Nb  Nb3  1  -0.00000000  0.50000002  0.50000002  1
  F  F4  1  0.00000000  0.25761801  0.25761801  1
  F  F5  1  -0.00000000  0.74238202  0.74238202  1
  F  F6  1  0.00000000  0.25761801  0.74238202  1
  F  F7  1  -0.00000000  0.74238202  0.25761801  1
  F  F8  1  0.50000000  0.00000000  -0.00000000  1
  F  F9  1  0.50000000  0.50000002  0.50000002  1
