# generated using pymatgen
data_Li4PtPb3O10
_symmetry_space_group_name_H-M   'P 1'
_cell_length_a   3.71437693
_cell_length_b   8.33687210
_cell_length_c   9.67269516
_cell_angle_alpha   108.44912720
_cell_angle_beta   90.00000000
_cell_angle_gamma   102.87166595
_symmetry_Int_Tables_number   1
_chemical_formula_structural   Li4PtPb3O10
_chemical_formula_sum   'Li4 Pt1 Pb3 O10'
_cell_volume   276.18734229
_cell_formula_units_Z   1
loop_
 _symmetry_equiv_pos_site_id
 _symmetry_equiv_pos_as_xyz
  1  'x, y, z'
loop_
 _atom_site_type_symbol
 _atom_site_label
 _atom_site_symmetry_multiplicity
 _atom_site_fract_x
 _atom_site_fract_y
 _atom_site_fract_z
 _atom_site_occupancy
  Li  Li0  1  0.59808500  0.19616900  0.84179602  1
  Li  Li1  1  0.40191495  0.80383101  0.15820397  1
  Li  Li2  1  0.83509697  0.67019401  0.36121198  1
  Li  Li3  1  0.16490298  0.32980601  0.63878700  1
  Pb  Pb4  1  0.87521997  0.75044101  0.77216499  1
  Pb  Pb5  1  0.12477999  0.24955900  0.22783500  1
  Pb  Pb6  1  0.66239099  0.32478101  0.69572601  1
  Pt  Pt7  1  0.33760896  0.67521901  0.30427498  1
  O  O8  1  0.89254197  0.78508401  0.20738797  1
  O  O9  1  0.10745799  0.21491600  0.79261201  1
  O  O10  1  0.65194699  0.30389400  0.02066399  1
  O  O11  1  0.34805296  0.69610601  0.97933600  1
  O  O12  1  0.10198999  0.20398000  0.46406900  1
  O  O13  1  0.89800996  0.79602001  0.53593198  1
  O  O14  1  0.48883694  0.97767402  0.81771998  1
  O  O15  1  0.72800198  0.45600401  0.35215299  1
  O  O16  1  0.27199797  0.54399501  0.64784699  1
  O  O17  1  0.51116301  0.02232600  0.18227900  1
