# generated using pymatgen
data_BaLaNdNbO7
_symmetry_space_group_name_H-M   'P 1'
_cell_length_a   3.91004205
_cell_length_b   3.91004205
_cell_length_c   11.28787899
_cell_angle_alpha   99.97372437
_cell_angle_beta   99.97372437
_cell_angle_gamma   90.00000000
_symmetry_Int_Tables_number   1
_chemical_formula_structural   BaLaNdNbO7
_chemical_formula_sum   'Ba1 La1 Nd1 Nb1 O7'
_cell_volume   167.31716435
_cell_formula_units_Z   1
loop_
 _symmetry_equiv_pos_site_id
 _symmetry_equiv_pos_as_xyz
  1  'x, y, z'
loop_
 _atom_site_type_symbol
 _atom_site_label
 _atom_site_symmetry_multiplicity
 _atom_site_fract_x
 _atom_site_fract_y
 _atom_site_fract_z
 _atom_site_occupancy
  Ba  Ba0  1  0.00000000  0.00000000  0.00000000  1
  La  La1  1  0.60421200  0.60421200  0.20842401  1
  Nb  Nb2  1  0.39578800  0.39578800  0.79157599  1
  Nd  Nd3  1  0.25000001  0.75000000  0.50000000  1
  O  O4  1  0.41510401  0.91510400  0.83020799  1
  O  O5  1  0.91584100  0.41584100  0.83168199  1
  O  O6  1  0.58415900  0.08415900  0.16831800  1
  O  O7  1  0.08489601  0.58489600  0.16979200  1
  O  O8  1  0.68709601  0.68709600  0.37419201  1
  O  O9  1  0.31290400  0.31290400  0.62580799  1
  O  O10  1  0.50000000  0.50000000  0.00000001  1
