# generated using pymatgen
data_CeTiO4
_symmetry_space_group_name_H-M   'P 1'
_cell_length_a   5.14825010
_cell_length_b   5.48134422
_cell_length_c   6.68019629
_cell_angle_alpha   111.93791962
_cell_angle_beta   110.26104736
_cell_angle_gamma   95.46019745
_symmetry_Int_Tables_number   1
_chemical_formula_structural   CeTiO4
_chemical_formula_sum   'Ce2 Ti2 O8'
_cell_volume   158.48618890
_cell_formula_units_Z   2
loop_
 _symmetry_equiv_pos_site_id
 _symmetry_equiv_pos_as_xyz
  1  'x, y, z'
loop_
 _atom_site_type_symbol
 _atom_site_label
 _atom_site_symmetry_multiplicity
 _atom_site_fract_x
 _atom_site_fract_y
 _atom_site_fract_z
 _atom_site_occupancy
  Ce  Ce0  1  0.11851997  0.36851998  0.73703997  1
  Ce  Ce1  1  0.88147992  0.63147997  0.26295997  1
  Ti  Ti2  1  0.64980191  0.89980196  0.79960395  1
  Ti  Ti3  1  0.35019798  0.10019800  0.20039599  1
  O  O4  1  0.93298091  0.72827097  0.93646194  1
  O  O5  1  0.50348097  0.20819099  0.93646196  1
  O  O6  1  0.06701898  0.27172899  0.06353799  1
  O  O7  1  0.49651892  0.79180896  0.06353798  1
  O  O8  1  0.78667590  0.94555196  0.58601095  1
  O  O9  1  0.29933494  0.64045897  0.58601096  1
  O  O10  1  0.21332399  0.05444800  0.41398898  1
  O  O11  1  0.70066495  0.35954098  0.41398897  1
