# generated using pymatgen
data_Nd4Mg2ZnFeO12
_symmetry_space_group_name_H-M   'P 1'
_cell_length_a   5.46903801
_cell_length_b   5.78272009
_cell_length_c   7.89418268
_cell_angle_alpha   90.00000000
_cell_angle_beta   89.70502472
_cell_angle_gamma   90.00000000
_symmetry_Int_Tables_number   1
_chemical_formula_structural   Nd4Mg2ZnFeO12
_chemical_formula_sum   'Nd4 Mg2 Zn1 Fe1 O12'
_cell_volume   249.65744951
_cell_formula_units_Z   1
loop_
 _symmetry_equiv_pos_site_id
 _symmetry_equiv_pos_as_xyz
  1  'x, y, z'
loop_
 _atom_site_type_symbol
 _atom_site_label
 _atom_site_symmetry_multiplicity
 _atom_site_fract_x
 _atom_site_fract_y
 _atom_site_fract_z
 _atom_site_occupancy
  Nd  Nd0  1  0.98189300  0.93520599  0.74792796  1
  Nd  Nd1  1  0.51810700  0.43520599  0.75207198  1
  Nd  Nd2  1  0.01810700  0.06479400  0.25207200  1
  Nd  Nd3  1  0.48189300  0.56479399  0.24792798  1
  Mg  Mg4  1  0.50000000  0.00000000  0.49999998  1
  Mg  Mg5  1  0.00000000  0.49999999  -0.00000000  1
  Zn  Zn6  1  0.00000000  0.49999999  0.50000000  1
  Fe  Fe7  1  0.50000000  0.00000000  -0.00000002  1
  O  O8  1  0.11311700  0.54359999  0.76261299  1
  O  O9  1  0.38688300  0.04360000  0.73738698  1
  O  O10  1  0.88688300  0.45639999  0.23738697  1
  O  O11  1  0.61311700  0.95639999  0.26261298  1
  O  O12  1  0.20723300  0.81583399  0.44594499  1
  O  O13  1  0.29276700  0.31583400  0.05405499  1
  O  O14  1  0.79276700  0.18416600  0.55405497  1
  O  O15  1  0.70723300  0.68416599  0.94594497  1
  O  O16  1  0.81938300  0.21085500  0.93678397  1
  O  O17  1  0.68061700  0.71085499  0.56321597  1
  O  O18  1  0.18061700  0.78914499  0.06321599  1
  O  O19  1  0.31938300  0.28914500  0.43678399  1
