# generated using pymatgen
data_SrCa(CoO3)2
_symmetry_space_group_name_H-M   'P 1'
_cell_length_a   5.46883821
_cell_length_b   5.50869036
_cell_length_c   7.76219797
_cell_angle_alpha   90.00000000
_cell_angle_beta   90.00000000
_cell_angle_gamma   89.87431335
_symmetry_Int_Tables_number   1
_chemical_formula_structural   SrCa(CoO3)2
_chemical_formula_sum   'Sr2 Ca2 Co4 O12'
_cell_volume   233.84447174
_cell_formula_units_Z   2
loop_
 _symmetry_equiv_pos_site_id
 _symmetry_equiv_pos_as_xyz
  1  'x, y, z'
loop_
 _atom_site_type_symbol
 _atom_site_label
 _atom_site_symmetry_multiplicity
 _atom_site_fract_x
 _atom_site_fract_y
 _atom_site_fract_z
 _atom_site_occupancy
  Sr  Sr0  1  0.49538397  0.52278999  0.50000000  1
  Sr  Sr1  1  0.00500700  0.03405400  0.50000000  1
  Ca  Ca2  1  0.50569297  0.46383399  0.00000000  1
  Ca  Ca3  1  0.99846794  0.97014398  1.00000000  1
  Co  Co4  1  0.00232299  0.50235499  0.24779100  1
  Co  Co5  1  0.50210196  0.99880198  0.75251900  1
  Co  Co6  1  0.00232299  0.50235499  0.75220900  1
  Co  Co7  1  0.50210196  0.99880198  0.24748100  1
  O  O8  1  0.20846998  0.78995498  0.28571500  1
  O  O9  1  0.28002398  0.28125199  0.72634100  1
  O  O10  1  0.78274397  0.21534900  0.78895100  1
  O  O11  1  0.71081396  0.71190699  0.21241500  1
  O  O12  1  0.78274397  0.21534900  0.21104900  1
  O  O13  1  0.71081396  0.71190699  0.78758500  1
  O  O14  1  0.20846998  0.78995498  0.71428500  1
  O  O15  1  0.28002398  0.28125199  0.27365900  1
  O  O16  1  0.56939696  0.99697998  0.50000000  1
  O  O17  1  0.94928995  0.48046199  0.50000000  1
  O  O18  1  0.43105998  0.00921000  1.00000000  1
  O  O19  1  0.07274999  0.52328499  1.00000000  1
