# generated using pymatgen
data_Mn4CoO12
_symmetry_space_group_name_H-M   'P 1'
_cell_length_a   5.11805296
_cell_length_b   5.33546400
_cell_length_c   7.40074396
_cell_angle_alpha   86.59333801
_cell_angle_beta   90.14710236
_cell_angle_gamma   90.00675201
_symmetry_Int_Tables_number   1
_chemical_formula_structural   Mn4CoO12
_chemical_formula_sum   'Mn4 Co1 O12'
_cell_volume   201.73572235
_cell_formula_units_Z   1
loop_
 _symmetry_equiv_pos_site_id
 _symmetry_equiv_pos_as_xyz
  1  'x, y, z'
loop_
 _atom_site_type_symbol
 _atom_site_label
 _atom_site_symmetry_multiplicity
 _atom_site_fract_x
 _atom_site_fract_y
 _atom_site_fract_z
 _atom_site_occupancy
  Mn  Mn0  1  0.50217796  0.92411101  0.21112399  1
  Mn  Mn1  1  0.00048300  0.00344200  0.99425900  1
  Mn  Mn2  1  0.99812401  0.00589000  0.50313798  1
  Mn  Mn3  1  0.50079198  0.49891200  0.99795499  1
  Co  Co4  1  0.49936898  0.50047200  0.50560499  1
  O  O5  1  0.66914497  0.82260801  0.95251899  1
  O  O6  1  0.31460596  0.81914101  0.43629499  1
  O  O7  1  0.81136697  0.69074501  0.57099098  1
  O  O8  1  0.20228897  0.69420801  0.07231099  1
  O  O9  1  0.36264198  0.50462600  0.75032099  1
  O  O10  1  0.62452698  0.52038300  0.25500699  1
  O  O11  1  0.81501699  0.32816500  0.93783798  1
  O  O12  1  0.18772299  0.31774000  0.43287900  1
  O  O13  1  0.68205700  0.18799500  0.56875799  1
  O  O14  1  0.31987999  0.19116800  0.06860699  1
  O  O15  1  0.13350200  0.00419100  0.74354200  1
  O  O16  1  0.87089901  0.00775600  0.25607298  1
