# generated using pymatgen
data_K2Cd2O3
_symmetry_space_group_name_H-M   'P 1'
_cell_length_a   6.57101822
_cell_length_b   6.72235584
_cell_length_c   6.89927101
_cell_angle_alpha   90.00000000
_cell_angle_beta   61.81937027
_cell_angle_gamma   90.00000000
_symmetry_Int_Tables_number   1
_chemical_formula_structural   K2Cd2O3
_chemical_formula_sum   'K4 Cd4 O6'
_cell_volume   268.63434691
_cell_formula_units_Z   2
loop_
 _symmetry_equiv_pos_site_id
 _symmetry_equiv_pos_as_xyz
  1  'x, y, z'
loop_
 _atom_site_type_symbol
 _atom_site_label
 _atom_site_symmetry_multiplicity
 _atom_site_fract_x
 _atom_site_fract_y
 _atom_site_fract_z
 _atom_site_occupancy
  K  K0  1  0.15537199  0.65275002  0.08902700  1
  K  K1  1  0.15537199  0.84725002  0.58902699  1
  K  K2  1  0.84462796  0.34725001  0.91097299  1
  K  K3  1  0.84462796  0.15275000  0.41097300  1
  Cd  Cd4  1  0.66032397  0.87639402  0.07953601  1
  Cd  Cd5  1  0.66032397  0.62360601  0.57953600  1
  Cd  Cd6  1  0.33967599  0.12360600  0.92046398  1
  Cd  Cd7  1  0.33967599  0.37639401  0.42046399  1
  O  O8  1  0.00000000  0.50000001  0.49999999  1
  O  O9  1  0.36786998  0.40038401  0.73690499  1
  O  O10  1  0.63212997  0.90038402  0.76309499  1
  O  O11  1  0.63212997  0.59961601  0.26309500  1
  O  O12  1  0.00000000  0.00000000  0.00000000  1
  O  O13  1  0.36786998  0.09961600  0.23690500  1
