# generated using pymatgen
data_KRb3Ca2S2O7
_symmetry_space_group_name_H-M   'P 1'
_cell_length_a   4.21978712
_cell_length_b   8.31534004
_cell_length_c   9.69501495
_cell_angle_alpha   101.99036407
_cell_angle_beta   102.11269379
_cell_angle_gamma   91.92773437
_symmetry_Int_Tables_number   1
_chemical_formula_structural   KRb3Ca2S2O7
_chemical_formula_sum   'Rb3 K1 Ca2 S2 O7'
_cell_volume   324.29501372
_cell_formula_units_Z   1
loop_
 _symmetry_equiv_pos_site_id
 _symmetry_equiv_pos_as_xyz
  1  'x, y, z'
loop_
 _atom_site_type_symbol
 _atom_site_label
 _atom_site_symmetry_multiplicity
 _atom_site_fract_x
 _atom_site_fract_y
 _atom_site_fract_z
 _atom_site_occupancy
  Rb  Rb0  1  0.18371006  0.58877100  0.36953098  1
  Rb  Rb1  1  0.19082300  0.09213400  0.37177999  1
  Rb  Rb2  1  0.81353902  0.40636300  0.63187198  1
  K  K3  1  0.81850407  0.90452400  0.62695297  1
  Ca  Ca4  1  0.48981603  0.36002600  0.99962596  1
  Ca  Ca5  1  0.75953206  0.79189700  0.00032600  1
  S  S6  1  0.37617406  0.70814500  0.78959796  1
  S  S7  1  0.44143501  0.17087600  0.78893997  1
  O  O8  1  0.65215301  0.27760400  0.21132799  1
  O  O9  1  0.58477707  0.81299200  0.21028499  1
  O  O10  1  0.95354103  0.53242500  0.99985396  1
  O  O11  1  0.75412505  0.62239600  0.49865898  1
  O  O12  1  0.75684399  0.12623600  0.50113199  1
  O  O13  1  0.25622503  0.37641400  0.50376298  1
  O  O14  1  0.25480208  0.87219800  0.49635297  1
