# generated using pymatgen
data_Li6Mn2FeO7
_symmetry_space_group_name_H-M   'P 1'
_cell_length_a   5.52410221
_cell_length_b   5.54989910
_cell_length_c   6.44915009
_cell_angle_alpha   90.00000000
_cell_angle_beta   90.00000000
_cell_angle_gamma   91.30254364
_symmetry_Int_Tables_number   1
_chemical_formula_structural   Li6Mn2FeO7
_chemical_formula_sum   'Li6 Mn2 Fe1 O7'
_cell_volume   197.66830650
_cell_formula_units_Z   1
loop_
 _symmetry_equiv_pos_site_id
 _symmetry_equiv_pos_as_xyz
  1  'x, y, z'
loop_
 _atom_site_type_symbol
 _atom_site_label
 _atom_site_symmetry_multiplicity
 _atom_site_fract_x
 _atom_site_fract_y
 _atom_site_fract_z
 _atom_site_occupancy
  Li  Li0  1  0.59413096  0.32408100  0.86721099  1
  Li  Li1  1  0.90586893  0.67591900  0.36721100  1
  Li  Li2  1  0.40586895  0.67591900  0.13278900  1
  Li  Li3  1  0.09413098  0.32408100  0.63278899  1
  Li  Li4  1  0.58429797  0.16749000  0.36269000  1
  Li  Li5  1  0.91570193  0.83251000  0.86268999  1
  Mn  Mn6  1  0.41570194  0.83251000  0.63730999  1
  Mn  Mn7  1  0.08429799  0.16749000  0.13731000  1
  O  O8  1  0.92355496  0.17805300  0.87818899  1
  Fe  Fe9  1  0.57644494  0.82194700  0.37818899  1
  O  O10  1  0.07644496  0.82194700  0.12181100  1
  O  O11  1  0.42355498  0.17805300  0.62181099  1
  O  O12  1  0.89897195  0.29740500  0.35285700  1
  O  O13  1  0.60102794  0.70259500  0.85285699  1
  O  O14  1  0.10102796  0.70259500  0.64714299  1
  O  O15  1  0.39897197  0.29740500  0.14714300  1
