# generated using pymatgen
data_BeB2PCl4O
_symmetry_space_group_name_H-M   'P 1'
_cell_length_a   3.92658210
_cell_length_b   3.92658210
_cell_length_c   9.55756378
_cell_angle_alpha   90.00000000
_cell_angle_beta   90.00000000
_cell_angle_gamma   120.00000000
_symmetry_Int_Tables_number   1
_chemical_formula_structural   BeB2PCl4O
_chemical_formula_sum   'Be1 B2 P1 Cl4 O1'
_cell_volume   127.61660918
_cell_formula_units_Z   1
loop_
 _symmetry_equiv_pos_site_id
 _symmetry_equiv_pos_as_xyz
  1  'x, y, z'
loop_
 _atom_site_type_symbol
 _atom_site_label
 _atom_site_symmetry_multiplicity
 _atom_site_fract_x
 _atom_site_fract_y
 _atom_site_fract_z
 _atom_site_occupancy
  B  B0  1  0.00000000  0.00000000  0.50000001  1
  Be  Be1  1  0.66666666  0.33333335  0.15985500  1
  P  P2  1  0.33333335  0.66666670  0.84014502  1
  B  B3  1  0.00000000  0.00000000  0.29010501  1
  O  O4  1  0.00000000  0.00000000  0.70989502  1
  Cl  Cl5  1  0.66666666  0.33333335  0.91489602  1
  Cl  Cl6  1  0.33333335  0.66666670  0.55286901  1
  Cl  Cl7  1  0.66666666  0.33333335  0.44713101  1
  Cl  Cl8  1  0.33333335  0.66666670  0.08510400  1
