# generated using pymatgen
data_Na3P
_symmetry_space_group_name_H-M   'P 1'
_cell_length_a   4.65769720
_cell_length_b   7.34159088
_cell_length_c   7.83682299
_cell_angle_alpha   90.00000000
_cell_angle_beta   90.00000000
_cell_angle_gamma   90.00000000
_symmetry_Int_Tables_number   1
_chemical_formula_structural   Na3P
_chemical_formula_sum   'Na9 P3'
_cell_volume   267.97943553
_cell_formula_units_Z   3
loop_
 _symmetry_equiv_pos_site_id
 _symmetry_equiv_pos_as_xyz
  1  'x, y, z'
loop_
 _atom_site_type_symbol
 _atom_site_label
 _atom_site_symmetry_multiplicity
 _atom_site_fract_x
 _atom_site_fract_y
 _atom_site_fract_z
 _atom_site_occupancy
  Na  Na0  1  0.24999999  0.51354501  0.19843600  1
  Na  Na1  1  0.74999997  0.48645501  0.80156400  1
  Na  Na2  1  0.24999999  0.01354500  0.30156400  1
  Na  Na3  1  0.74999997  0.98645502  0.69843600  1
  Na  Na4  1  0.24999999  0.18568700  0.90851700  1
  Na  Na5  1  0.74999997  0.31431301  0.40851700  1
  Na  Na6  1  0.24999999  0.68568701  0.59148300  1
  Na  Na7  1  0.74999997  0.81431301  0.09148300  1
  P  P8  1  0.74999997  0.21378200  0.07699200  1
  Na  Na9  1  0.24999999  0.28621800  0.57699200  1
  P  P10  1  0.74999997  0.71378201  0.42300800  1
  P  P11  1  0.24999999  0.78621801  0.92300800  1
