# generated using pymatgen
data_Cs2AlHO4
_symmetry_space_group_name_H-M   'P 1'
_cell_length_a   6.11921692
_cell_length_b   7.06248760
_cell_length_c   8.30817986
_cell_angle_alpha   89.13437653
_cell_angle_beta   88.00154877
_cell_angle_gamma   64.32794189
_symmetry_Int_Tables_number   1
_chemical_formula_structural   Cs2AlHO4
_chemical_formula_sum   'Cs4 Al2 H2 O8'
_cell_volume   323.41412753
_cell_formula_units_Z   2
loop_
 _symmetry_equiv_pos_site_id
 _symmetry_equiv_pos_as_xyz
  1  'x, y, z'
loop_
 _atom_site_type_symbol
 _atom_site_label
 _atom_site_symmetry_multiplicity
 _atom_site_fract_x
 _atom_site_fract_y
 _atom_site_fract_z
 _atom_site_occupancy
  Cs  Cs0  1  0.66608699  0.17471200  0.43033202  1
  Cs  Cs1  1  0.15920000  0.17471200  0.06966800  1
  Cs  Cs2  1  0.33391299  0.82528798  0.56966801  1
  Cs  Cs3  1  0.84079999  0.82528798  0.93033203  1
  Al  Al4  1  0.95502099  0.59188699  0.35635601  1
  H  H5  1  0.45309099  0.59188699  0.14364399  1
  Al  Al6  1  0.04497900  0.40811299  0.64364402  1
  H  H7  1  0.54690899  0.40811299  0.85635603  1
  O  O8  1  0.59763499  0.30711199  0.07409900  1
  O  O9  1  0.09525300  0.30711199  0.42590101  1
  O  O10  1  0.40236499  0.69288798  0.92590103  1
  O  O11  1  0.90474799  0.69288798  0.57409901  1
  O  O12  1  0.15292300  0.69415398  0.25000000  1
  O  O13  1  0.84707699  0.30584599  0.75000003  1
  O  O14  1  0.67085699  0.65828498  0.25000000  1
  O  O15  1  0.32914300  0.34171499  0.75000003  1
