# generated using pymatgen
data_Tl2InSb3Br14
_symmetry_space_group_name_H-M   'P 1'
_cell_length_a   7.40389395
_cell_length_b   7.40389395
_cell_length_c   13.24503422
_cell_angle_alpha   90.00000000
_cell_angle_beta   90.00000000
_cell_angle_gamma   120.00000000
_symmetry_Int_Tables_number   1
_chemical_formula_structural   Tl2InSb3Br14
_chemical_formula_sum   'Tl2 In1 Sb3 Br14'
_cell_volume   628.78778299
_cell_formula_units_Z   1
loop_
 _symmetry_equiv_pos_site_id
 _symmetry_equiv_pos_as_xyz
  1  'x, y, z'
loop_
 _atom_site_type_symbol
 _atom_site_label
 _atom_site_symmetry_multiplicity
 _atom_site_fract_x
 _atom_site_fract_y
 _atom_site_fract_z
 _atom_site_occupancy
  Sb  Sb0  1  0.33333332  0.66666664  0.53841699  1
  Tl  Tl1  1  0.33333332  0.66666664  0.96158298  1
  Tl  Tl2  1  0.66666666  0.33333332  0.46158299  1
  Br  Br3  1  0.66666666  0.33333332  0.03841700  1
  Sb  Sb4  1  0.00000000  0.00000000  0.25000000  1
  In  In5  1  0.00000000  0.00000000  0.74999999  1
  Br  Br6  1  0.33333332  0.66666664  0.25000000  1
  Sb  Sb7  1  0.66666666  0.33333332  0.74999999  1
  Br  Br8  1  0.63192298  0.95131296  0.13053900  1
  Br  Br9  1  0.04868699  0.36807699  0.36946099  1
  Br  Br10  1  0.63192299  0.68060997  0.36946099  1
  Br  Br11  1  0.31938998  0.95131296  0.36946099  1
  Br  Br12  1  0.04868698  0.68060997  0.13053900  1
  Br  Br13  1  0.31938999  0.36807699  0.13053900  1
  Br  Br14  1  0.68061000  0.04868700  0.63053899  1
  Br  Br15  1  0.36807700  0.31938999  0.63053899  1
  Br  Br16  1  0.95131299  0.63192298  0.63053899  1
  Br  Br17  1  0.36807700  0.04868700  0.86946099  1
  Br  Br18  1  0.95131300  0.31938999  0.86946099  1
  Br  Br19  1  0.68060999  0.63192298  0.86946099  1
