# generated using pymatgen
data_NaSr2CaMo2O13
_symmetry_space_group_name_H-M   'P 1'
_cell_length_a   5.60215521
_cell_length_b   5.60215521
_cell_length_c   9.36623478
_cell_angle_alpha   72.59877014
_cell_angle_beta   72.59877014
_cell_angle_gamma   60.00000763
_symmetry_Int_Tables_number   1
_chemical_formula_structural   NaSr2CaMo2O13
_chemical_formula_sum   'Na1 Sr2 Ca1 Mo2 O13'
_cell_volume   238.90885904
_cell_formula_units_Z   1
loop_
 _symmetry_equiv_pos_site_id
 _symmetry_equiv_pos_as_xyz
  1  'x, y, z'
loop_
 _atom_site_type_symbol
 _atom_site_label
 _atom_site_symmetry_multiplicity
 _atom_site_fract_x
 _atom_site_fract_y
 _atom_site_fract_z
 _atom_site_occupancy
  Na  Na0  1  0.13425601  0.13425600  0.59723202  1
  Sr  Sr1  1  0.86574404  0.86574402  0.40276799  1
  Sr  Sr2  1  0.28739001  0.28739001  0.13783000  1
  Ca  Ca3  1  0.71261003  0.71261002  0.86217001  1
  O  O4  1  0.00000000  0.00000000  0.00000000  1
  Mo  Mo5  1  0.42437702  0.42437701  0.72686901  1
  Mo  Mo6  1  0.57562302  0.57562302  0.27313099  1
  O  O7  1  0.55253602  0.69752602  0.63335600  1
  O  O8  1  0.11658201  0.55253602  0.63335601  1
  O  O9  1  0.69752602  0.11658200  0.63335601  1
  O  O10  1  0.44746402  0.30247401  0.36664400  1
  O  O11  1  0.88341803  0.44746401  0.36664399  1
  O  O12  1  0.30247402  0.88341803  0.36664399  1
  O  O13  1  0.72845803  0.85668002  0.12370598  1
  O  O14  1  0.14332001  0.70884402  0.87629402  1
  O  O15  1  0.70884403  0.27154201  0.87629401  1
  O  O16  1  0.27154201  0.14332000  0.87629402  1
  O  O17  1  0.85668003  0.29115601  0.12370599  1
  O  O18  1  0.29115602  0.72845802  0.12370599  1
