# generated using pymatgen
data_CdP2
_symmetry_space_group_name_H-M   'P 1'
_cell_length_a   3.32778740
_cell_length_b   3.32778740
_cell_length_c   7.60921764
_cell_angle_alpha   77.36917877
_cell_angle_beta   77.36917877
_cell_angle_gamma   60.00001144
_symmetry_Int_Tables_number   1
_chemical_formula_structural   CdP2
_chemical_formula_sum   'Cd1 P2'
_cell_volume   70.61171092
_cell_formula_units_Z   1
loop_
 _symmetry_equiv_pos_site_id
 _symmetry_equiv_pos_as_xyz
  1  'x, y, z'
loop_
 _atom_site_type_symbol
 _atom_site_label
 _atom_site_symmetry_multiplicity
 _atom_site_fract_x
 _atom_site_fract_y
 _atom_site_fract_z
 _atom_site_occupancy
  Cd  Cd0  1  0.66677598  0.66677600  0.99967199  1
  P  P1  1  0.40917999  0.40918000  0.77246000  1
  P  P2  1  0.25771099  0.25771100  0.22686700  1
