# generated using pymatgen
data_Li5Mn3(CoO5)2
_symmetry_space_group_name_H-M   'P 1'
_cell_length_a   5.23982096
_cell_length_b   5.25062847
_cell_length_c   7.71986628
_cell_angle_alpha   104.54293060
_cell_angle_beta   107.95901489
_cell_angle_gamma   99.37397766
_symmetry_Int_Tables_number   1
_chemical_formula_structural   Li5Mn3(CoO5)2
_chemical_formula_sum   'Li5 Mn3 Co2 O10'
_cell_volume   188.79265359
_cell_formula_units_Z   1
loop_
 _symmetry_equiv_pos_site_id
 _symmetry_equiv_pos_as_xyz
  1  'x, y, z'
loop_
 _atom_site_type_symbol
 _atom_site_label
 _atom_site_symmetry_multiplicity
 _atom_site_fract_x
 _atom_site_fract_y
 _atom_site_fract_z
 _atom_site_occupancy
  Li  Li0  1  0.09025403  0.78429401  0.58834397  1
  Li  Li1  1  0.72069504  0.60555601  0.21774100  1
  Li  Li2  1  0.50000003  0.50000001  0.49999999  1
  Li  Li3  1  0.27930502  0.39444401  0.78225899  1
  Li  Li4  1  0.90974603  0.21570600  0.41165602  1
  Mn  Mn5  1  0.50000001  0.00000000  0.00000001  1
  Mn  Mn6  1  0.10702001  0.30447701  0.10374399  1
  Mn  Mn7  1  0.89298004  0.69552301  0.89625599  1
  Co  Co8  1  0.29286504  0.90588502  0.31498697  1
  Co  Co9  1  0.70713502  0.09411500  0.68501301  1
  O  O10  1  0.90655805  0.92750302  0.14497899  1
  O  O11  1  0.28386003  0.68305501  0.04776298  1
  O  O12  1  0.68872104  0.86857402  0.45672798  1
  O  O13  1  0.52701204  0.76069501  0.77091598  1
  O  O14  1  0.11067402  0.54453001  0.33702198  1
  O  O15  1  0.88932603  0.45547001  0.66297800  1
  O  O16  1  0.47298802  0.23930500  0.22908400  1
  O  O17  1  0.31127901  0.13142600  0.54327200  1
  O  O18  1  0.71614003  0.31694501  0.95223700  1
  O  O19  1  0.09344200  0.07249700  0.85502099  1
