# generated using pymatgen
data_P7Os4N
_symmetry_space_group_name_H-M   'P 1'
_cell_length_a   5.65582180
_cell_length_b   5.65582180
_cell_length_c   5.65582180
_cell_angle_alpha   90.00000000
_cell_angle_beta   90.00000000
_cell_angle_gamma   90.00000000
_symmetry_Int_Tables_number   1
_chemical_formula_structural   P7Os4N
_chemical_formula_sum   'P7 Os4 N1'
_cell_volume   180.92023894
_cell_formula_units_Z   1
loop_
 _symmetry_equiv_pos_site_id
 _symmetry_equiv_pos_as_xyz
  1  'x, y, z'
loop_
 _atom_site_type_symbol
 _atom_site_label
 _atom_site_symmetry_multiplicity
 _atom_site_fract_x
 _atom_site_fract_y
 _atom_site_fract_z
 _atom_site_occupancy
  P  P0  1  0.00000000  0.50000002  0.50000002  1
  P  P1  1  0.50000002  0.50000002  0.00000000  1
  P  P2  1  0.50000002  0.00000000  0.50000002  1
  P  P3  1  0.00000000  0.00000000  0.00000000  1
  P  P4  1  0.38719901  0.11280100  0.88719903  1
  N  N5  1  0.11280100  0.88719903  0.38719901  1
  Os  Os6  1  0.88719903  0.38719901  0.11280100  1
  P  P7  1  0.61280102  0.61280102  0.61280102  1
  P  P8  1  0.38719901  0.38719901  0.38719901  1
  Os  Os9  1  0.11280100  0.61280102  0.88719903  1
  Os  Os10  1  0.88719903  0.11280100  0.61280102  1
  Os  Os11  1  0.61280102  0.88719903  0.11280100  1
