# generated using pymatgen
data_Rb4H2BrO5
_symmetry_space_group_name_H-M   'P 1'
_cell_length_a   6.38663483
_cell_length_b   6.38663483
_cell_length_c   8.24346542
_cell_angle_alpha   90.00000000
_cell_angle_beta   90.00000000
_cell_angle_gamma   90.00000000
_symmetry_Int_Tables_number   1
_chemical_formula_structural   Rb4H2BrO5
_chemical_formula_sum   'Rb4 H2 Br1 O5'
_cell_volume   336.24357186
_cell_formula_units_Z   1
loop_
 _symmetry_equiv_pos_site_id
 _symmetry_equiv_pos_as_xyz
  1  'x, y, z'
loop_
 _atom_site_type_symbol
 _atom_site_label
 _atom_site_symmetry_multiplicity
 _atom_site_fract_x
 _atom_site_fract_y
 _atom_site_fract_z
 _atom_site_occupancy
  Rb  Rb0  1  0.00000000  0.00000000  0.26331599  1
  Rb  Rb1  1  0.00000000  0.00000000  0.73668396  1
  Rb  Rb2  1  0.50000001  0.50000001  0.73668396  1
  Rb  Rb3  1  0.50000001  0.50000001  0.26331599  1
  O  O4  1  0.50000001  0.00000000  0.00000000  1
  O  O5  1  0.00000000  0.50000001  0.00000000  1
  O  O6  1  0.86837902  0.36837901  0.49999997  1
  O  O7  1  0.63162102  0.86837902  0.49999997  1
  Br  Br8  1  0.36837901  0.13162100  0.49999997  1
  O  O9  1  0.13162100  0.63162102  0.49999997  1
  H  H10  1  0.00000000  0.50000001  0.49999997  1
  H  H11  1  0.50000001  0.00000000  0.49999997  1
