# generated using pymatgen
data_TaPb3(WO3)4
_symmetry_space_group_name_H-M   'P 1'
_cell_length_a   5.96119881
_cell_length_b   7.28053188
_cell_length_c   7.65430832
_cell_angle_alpha   92.99034119
_cell_angle_beta   90.00000000
_cell_angle_gamma   90.00000000
_symmetry_Int_Tables_number   1
_chemical_formula_structural   TaPb3(WO3)4
_chemical_formula_sum   'Ta1 Pb3 W4 O12'
_cell_volume   331.74997803
_cell_formula_units_Z   1
loop_
 _symmetry_equiv_pos_site_id
 _symmetry_equiv_pos_as_xyz
  1  'x, y, z'
loop_
 _atom_site_type_symbol
 _atom_site_label
 _atom_site_symmetry_multiplicity
 _atom_site_fract_x
 _atom_site_fract_y
 _atom_site_fract_z
 _atom_site_occupancy
  Ta  Ta0  1  0.53316002  0.75000001  0.75000002  1
  W  W1  1  0.46684002  0.25000000  0.25000001  1
  Pb  Pb2  1  0.85487203  0.75000001  0.25000000  1
  Pb  Pb3  1  0.14512800  0.25000000  0.75000002  1
  W  W4  1  0.00823200  0.71759201  0.07666900  1
  W  W5  1  0.99176803  0.28240800  0.92333103  1
  Pb  Pb6  1  0.00823200  0.78240801  0.42333101  1
  W  W7  1  0.99176803  0.21759200  0.57666902  1
  O  O8  1  0.52427602  0.71610001  0.99695203  1
  O  O9  1  0.29433801  0.93198401  0.78141602  1
  O  O10  1  0.29433801  0.56801601  0.71858402  1
  O  O11  1  0.47572402  0.28390000  0.00304800  1
  O  O12  1  0.75314602  0.56266001  0.71484202  1
  O  O13  1  0.52427602  0.78390001  0.50304801  1
  O  O14  1  0.70566202  0.43198401  0.28141601  1
  O  O15  1  0.24685401  0.06266000  0.21484201  1
  O  O16  1  0.47572402  0.21610000  0.49695201  1
  O  O17  1  0.75314602  0.93734001  0.78515802  1
  O  O18  1  0.70566202  0.06801600  0.21858401  1
  O  O19  1  0.24685401  0.43734001  0.28515801  1
