# generated using pymatgen
data_Ba3Nd(PS3)4
_symmetry_space_group_name_H-M   'P 1'
_cell_length_a   6.91199780
_cell_length_b   7.75592709
_cell_length_c   10.35507965
_cell_angle_alpha   90.00000000
_cell_angle_beta   88.99944305
_cell_angle_gamma   90.00000000
_symmetry_Int_Tables_number   1
_chemical_formula_structural   Ba3Nd(PS3)4
_chemical_formula_sum   'Ba3 Nd1 P4 S12'
_cell_volume   555.04031432
_cell_formula_units_Z   1
loop_
 _symmetry_equiv_pos_site_id
 _symmetry_equiv_pos_as_xyz
  1  'x, y, z'
loop_
 _atom_site_type_symbol
 _atom_site_label
 _atom_site_symmetry_multiplicity
 _atom_site_fract_x
 _atom_site_fract_y
 _atom_site_fract_z
 _atom_site_occupancy
  Nd  Nd0  1  0.71345502  0.50216799  0.49756003  1
  Ba  Ba1  1  0.28654501  0.00216800  0.50244002  1
  Ba  Ba2  1  0.18769001  0.78351899  0.00650400  1
  Ba  Ba3  1  0.81231002  0.28351900  0.99349604  1
  P  P4  1  0.69193402  0.77579199  0.20182602  1
  P  P5  1  0.30806601  0.27579200  0.79817402  1
  P  P6  1  0.81155802  0.99317299  0.32285802  1
  P  P7  1  0.18844201  0.49317299  0.67714202  1
  S  S8  1  0.90296403  0.56871399  0.23045002  1
  S  S9  1  0.09703600  0.06871400  0.76955002  1
  S  S10  1  0.91152503  0.58898099  0.75690703  1
  S  S11  1  0.08847500  0.08898100  0.24309301  1
  S  S12  1  0.65618402  0.86748199  0.00690501  1
  S  S13  1  0.34381601  0.36748200  0.99309503  1
  S  S14  1  0.43210601  0.69402099  0.32179502  1
  S  S15  1  0.56789402  0.19402100  0.67820503  1
  S  S16  1  0.86358403  0.87337399  0.51650303  1
  S  S17  1  0.13641600  0.37337400  0.48349701  1
  S  S18  1  0.57647702  0.19086700  0.32537602  1
  S  S19  1  0.42352301  0.69086699  0.67462402  1
