# generated using pymatgen
data_Na2EuCl5
_symmetry_space_group_name_H-M   'P 1'
_cell_length_a   4.56520891
_cell_length_b   7.75418615
_cell_length_c   7.75418663
_cell_angle_alpha   120.00000000
_cell_angle_beta   90.00000000
_cell_angle_gamma   90.00000000
_symmetry_Int_Tables_number   1
_chemical_formula_structural   Na2EuCl5
_chemical_formula_sum   'Na2 Eu1 Cl5'
_cell_volume   237.71892654
_cell_formula_units_Z   1
loop_
 _symmetry_equiv_pos_site_id
 _symmetry_equiv_pos_as_xyz
  1  'x, y, z'
loop_
 _atom_site_type_symbol
 _atom_site_label
 _atom_site_symmetry_multiplicity
 _atom_site_fract_x
 _atom_site_fract_y
 _atom_site_fract_z
 _atom_site_occupancy
  Na  Na0  1  0.25000000  0.33333334  0.66666671  1
  Eu  Eu1  1  0.75000001  0.66666668  0.33333339  1
  Na  Na2  1  0.25000000  0.39204701  0.08659803  1
  Cl  Cl3  1  0.75000001  0.08659700  0.69455002  1
  Cl  Cl4  1  0.75000001  0.60795301  0.91340206  1
  Cl  Cl5  1  0.25000000  0.91340301  0.30545007  1
  Cl  Cl6  1  0.25000000  0.69455101  0.60795406  1
  Cl  Cl7  1  0.75000001  0.30544900  0.39204603  1
