# generated using pymatgen
data_La2ScO3
_symmetry_space_group_name_H-M   'P 1'
_cell_length_a   4.76447392
_cell_length_b   7.57352686
_cell_length_c   7.57352686
_cell_angle_alpha   84.32184601
_cell_angle_beta   71.66647339
_cell_angle_gamma   71.66647339
_symmetry_Int_Tables_number   1
_chemical_formula_structural   La2ScO3
_chemical_formula_sum   'La4 Sc2 O6'
_cell_volume   246.24351557
_cell_formula_units_Z   2
loop_
 _symmetry_equiv_pos_site_id
 _symmetry_equiv_pos_as_xyz
  1  'x, y, z'
loop_
 _atom_site_type_symbol
 _atom_site_label
 _atom_site_symmetry_multiplicity
 _atom_site_fract_x
 _atom_site_fract_y
 _atom_site_fract_z
 _atom_site_occupancy
  La  La0  1  0.84408795  0.65591199  0.65591200  1
  La  La1  1  0.49999994  0.65591199  0.34408802  1
  La  La2  1  0.49999998  0.34408800  0.65591199  1
  La  La3  1  0.15591197  0.34408800  0.34408801  1
  Sc  Sc4  1  0.14516589  0.99999999  0.70966804  1
  Sc  Sc5  1  0.14516592  0.70966799  1.00000002  1
  O  O6  1  0.85483400  0.29033200  0.99999997  1
  O  O7  1  0.85483391  0.99999999  0.29033203  1
  O  O8  1  0.29794593  0.70205399  0.70205402  1
  O  O9  1  -0.00000008  0.70205399  0.29794604  1
  O  O10  1  -0.00000003  0.29794600  0.70205400  1
  O  O11  1  0.70205399  0.29794600  0.29794599  1
