# generated using pymatgen
data_RbI
_symmetry_space_group_name_H-M   'P 1'
_cell_length_a   4.41835594
_cell_length_b   8.11462021
_cell_length_c   11.03965282
_cell_angle_alpha   105.68202972
_cell_angle_beta   90.00000000
_cell_angle_gamma   105.79799652
_symmetry_Int_Tables_number   1
_chemical_formula_structural   RbI
_chemical_formula_sum   'Rb4 I4'
_cell_volume   365.52167284
_cell_formula_units_Z   4
loop_
 _symmetry_equiv_pos_site_id
 _symmetry_equiv_pos_as_xyz
  1  'x, y, z'
loop_
 _atom_site_type_symbol
 _atom_site_label
 _atom_site_symmetry_multiplicity
 _atom_site_fract_x
 _atom_site_fract_y
 _atom_site_fract_z
 _atom_site_occupancy
  Rb  Rb0  1  0.18032198  0.36064400  0.98833598  1
  Rb  Rb1  1  0.80072698  0.60145400  0.72462997  1
  Rb  Rb2  1  0.19927298  0.39854600  0.27536998  1
  Rb  Rb3  1  0.81967798  0.63935600  0.01166397  1
  I  I4  1  0.44877496  0.89755000  0.78065495  1
  I  I5  1  0.55122500  0.10245000  0.21934499  1
  I  I6  1  0.84654998  0.69310000  0.37094396  1
  I  I7  1  0.15344999  0.30690000  0.62905598  1
