# generated using pymatgen
data_VCu2Se3O14
_symmetry_space_group_name_H-M   'P 1'
_cell_length_a   6.19673300
_cell_length_b   7.09177923
_cell_length_c   7.62052631
_cell_angle_alpha   90.00000000
_cell_angle_beta   71.53807831
_cell_angle_gamma   90.00000000
_symmetry_Int_Tables_number   1
_chemical_formula_structural   VCu2Se3O14
_chemical_formula_sum   'V1 Cu2 Se3 O14'
_cell_volume   317.65522946
_cell_formula_units_Z   1
loop_
 _symmetry_equiv_pos_site_id
 _symmetry_equiv_pos_as_xyz
  1  'x, y, z'
loop_
 _atom_site_type_symbol
 _atom_site_label
 _atom_site_symmetry_multiplicity
 _atom_site_fract_x
 _atom_site_fract_y
 _atom_site_fract_z
 _atom_site_occupancy
  V  V0  1  0.88277601  0.84383697  0.66335200  1
  Cu  Cu1  1  0.11722400  0.34383699  0.33664801  1
  Cu  Cu2  1  0.09912900  0.86520197  0.21114200  1
  Se  Se3  1  0.90087101  0.36520199  0.78885800  1
  Se  Se4  1  0.65170401  0.32139899  0.21725199  1
  Se  Se5  1  0.34829600  0.82139897  0.78274801  1
  O  O6  1  0.40090700  0.64408198  0.64920001  1
  O  O7  1  0.59909301  0.14408200  0.35080000  1
  O  O8  1  0.94415301  0.25268099  0.58678899  1
  O  O9  1  0.05584700  0.75268098  0.41321101  1
  O  O10  1  0.58010901  0.95865897  0.73104800  1
  O  O11  1  0.41989100  0.45865898  0.26895200  1
  O  O12  1  0.80737101  0.58094898  0.77377100  1
  O  O13  1  0.19262900  0.08094900  0.22622900  1
  O  O14  1  0.12148300  0.93589097  0.76356702  1
  O  O15  1  0.87851701  0.43589099  0.23643299  1
  O  O16  1  0.28622400  0.74414198  0.01677699  1
  O  O17  1  0.71377601  0.24414199  0.98322301  1
  O  O18  1  0.86231801  0.87821397  0.17070799  1
  O  O19  1  0.13768200  0.37821399  0.82929202  1
