# generated using pymatgen
data_NdVCuAgO8
_symmetry_space_group_name_H-M   'P 1'
_cell_length_a   6.09269810
_cell_length_b   6.09269810
_cell_length_c   6.09269810
_cell_angle_alpha   106.20952606
_cell_angle_beta   106.20952606
_cell_angle_gamma   116.21229553
_symmetry_Int_Tables_number   1
_chemical_formula_structural   NdVCuAgO8
_chemical_formula_sum   'Nd1 V1 Cu1 Ag1 O8'
_cell_volume   172.27523741
_cell_formula_units_Z   1
loop_
 _symmetry_equiv_pos_site_id
 _symmetry_equiv_pos_as_xyz
  1  'x, y, z'
loop_
 _atom_site_type_symbol
 _atom_site_label
 _atom_site_symmetry_multiplicity
 _atom_site_fract_x
 _atom_site_fract_y
 _atom_site_fract_z
 _atom_site_occupancy
  Nd  Nd0  1  0.74999995  0.24999998  0.49999996  1
  V  V1  1  0.24999992  0.74999994  0.49999994  1
  Cu  Cu2  1  0.49999994  0.49999996  -0.00000004  1
  Ag  Ag3  1  0.00000000  0.00000000  0.00000000  1
  O  O4  1  0.07314192  0.75340394  0.68026194  1
  O  O5  1  0.51608695  0.32994697  0.18613997  1
  O  O6  1  0.14380696  0.32994697  0.81385996  1
  O  O7  1  0.07314196  0.39287997  0.31973797  1
  O  O8  1  0.67005293  0.48391296  0.81385994  1
  O  O9  1  0.24659590  0.92685792  0.31973793  1
  O  O10  1  0.60711989  0.92685792  0.68026192  1
  O  O11  1  0.67005289  0.85619293  0.18613993  1
