# generated using pymatgen
data_Rb2PSeO3
_symmetry_space_group_name_H-M   'P 1'
_cell_length_a   5.66924667
_cell_length_b   5.66924667
_cell_length_c   5.66924667
_cell_angle_alpha   92.88304901
_cell_angle_beta   118.34967041
_cell_angle_gamma   118.34967041
_symmetry_Int_Tables_number   1
_chemical_formula_structural   Rb2PSeO3
_chemical_formula_sum   'Rb2 P1 Se1 O3'
_cell_volume   131.87641424
_cell_formula_units_Z   1
loop_
 _symmetry_equiv_pos_site_id
 _symmetry_equiv_pos_as_xyz
  1  'x, y, z'
loop_
 _atom_site_type_symbol
 _atom_site_label
 _atom_site_symmetry_multiplicity
 _atom_site_fract_x
 _atom_site_fract_y
 _atom_site_fract_z
 _atom_site_occupancy
  Rb  Rb0  1  0.50000006  0.25000002  0.75000007  1
  Rb  Rb1  1  0.50000013  0.75000007  0.25000011  1
  Se  Se2  1  0.00000012  0.79703707  0.20296309  1
  O  O3  1  0.59407514  0.79703807  0.79703813  1
  O  O4  1  0.00000003  0.20296302  0.79703704  1
  O  O5  1  0.40592505  0.20296202  0.20296205  1
  P  P6  1  0.00000000  0.00000000  0.00000000  1
