# generated using pymatgen
data_CdGeSe2
_symmetry_space_group_name_H-M   'P 1'
_cell_length_a   4.09993601
_cell_length_b   4.42535114
_cell_length_c   11.70174313
_cell_angle_alpha   90.00000000
_cell_angle_beta   90.00000000
_cell_angle_gamma   90.00000000
_symmetry_Int_Tables_number   1
_chemical_formula_structural   CdGeSe2
_chemical_formula_sum   'Cd2 Ge2 Se4'
_cell_volume   212.31240774
_cell_formula_units_Z   2
loop_
 _symmetry_equiv_pos_site_id
 _symmetry_equiv_pos_as_xyz
  1  'x, y, z'
loop_
 _atom_site_type_symbol
 _atom_site_label
 _atom_site_symmetry_multiplicity
 _atom_site_fract_x
 _atom_site_fract_y
 _atom_site_fract_z
 _atom_site_occupancy
  Ge  Ge0  1  0.50000000  0.37013999  0.37296700  1
  Cd  Cd1  1  0.50000000  0.62985998  0.87296699  1
  Cd  Cd2  1  -0.00000000  0.13994100  0.61751699  1
  Ge  Ge3  1  0.00000000  0.86005897  0.11751700  1
  Se  Se4  1  0.00000000  0.24198799  0.85543599  1
  Se  Se5  1  -0.00000000  0.75801198  0.35543600  1
  Se  Se6  1  0.50000000  0.28633499  0.15408100  1
  Se  Se7  1  0.50000000  0.71366498  0.65408099  1
