# generated using pymatgen
data_Cs
_symmetry_space_group_name_H-M   'P 1'
_cell_length_a   3.14788795
_cell_length_b   3.52260971
_cell_length_c   3.52260971
_cell_angle_alpha   78.48403931
_cell_angle_beta   63.46067810
_cell_angle_gamma   63.46067810
_symmetry_Int_Tables_number   1
_chemical_formula_structural   Cs
_chemical_formula_sum   Cs2
_cell_volume   31.26318514
_cell_formula_units_Z   2
loop_
 _symmetry_equiv_pos_site_id
 _symmetry_equiv_pos_as_xyz
  1  'x, y, z'
loop_
 _atom_site_type_symbol
 _atom_site_label
 _atom_site_symmetry_multiplicity
 _atom_site_fract_x
 _atom_site_fract_y
 _atom_site_fract_z
 _atom_site_occupancy
  Cs  Cs0  1  0.88084201  0.00000000  1.00000002  1
  Cs  Cs1  1  0.11915804  1.00000000  0.99999998  1
