# generated using pymatgen
data_CeDy3F12
_symmetry_space_group_name_H-M   'P 1'
_cell_length_a   4.78586817
_cell_length_b   6.23510122
_cell_length_c   6.90562010
_cell_angle_alpha   90.00000000
_cell_angle_beta   90.00000000
_cell_angle_gamma   90.00000000
_symmetry_Int_Tables_number   1
_chemical_formula_structural   CeDy3F12
_chemical_formula_sum   'Ce1 Dy3 F12'
_cell_volume   206.06627584
_cell_formula_units_Z   1
loop_
 _symmetry_equiv_pos_site_id
 _symmetry_equiv_pos_as_xyz
  1  'x, y, z'
loop_
 _atom_site_type_symbol
 _atom_site_label
 _atom_site_symmetry_multiplicity
 _atom_site_fract_x
 _atom_site_fract_y
 _atom_site_fract_z
 _atom_site_occupancy
  Dy  Dy0  1  0.46021198  0.36567199  0.25000000  1
  Dy  Dy1  1  0.53978798  0.63432798  0.74999999  1
  Ce  Ce2  1  0.96021197  0.13432800  0.74999999  1
  Dy  Dy3  1  0.03978800  0.86567197  0.25000000  1
  F  F4  1  0.63295398  0.03833000  0.25000000  1
  F  F5  1  0.36704599  0.96166997  0.74999999  1
  F  F6  1  0.13295400  0.46166998  0.74999999  1
  F  F7  1  0.86704597  0.53832998  0.25000000  1
  F  F8  1  0.15200999  0.16098899  0.06323200  1
  F  F9  1  0.84798997  0.83901097  0.93676799  1
  F  F10  1  0.65200998  0.33901099  0.93676799  1
  F  F11  1  0.84798997  0.83901097  0.56323199  1
  F  F12  1  0.34798999  0.66098898  0.06323200  1
  F  F13  1  0.15200999  0.16098899  0.43676799  1
  F  F14  1  0.34798999  0.66098898  0.43676799  1
  F  F15  1  0.65200998  0.33901099  0.56323199  1
