# generated using pymatgen
data_LiBO3
_symmetry_space_group_name_H-M   'P 1'
_cell_length_a   4.80128050
_cell_length_b   4.80128050
_cell_length_c   5.85526848
_cell_angle_alpha   65.79537964
_cell_angle_beta   65.79537964
_cell_angle_gamma   59.99999237
_symmetry_Int_Tables_number   1
_chemical_formula_structural   LiBO3
_chemical_formula_sum   'Li2 B2 O6'
_cell_volume   102.96418013
_cell_formula_units_Z   2
loop_
 _symmetry_equiv_pos_site_id
 _symmetry_equiv_pos_as_xyz
  1  'x, y, z'
loop_
 _atom_site_type_symbol
 _atom_site_label
 _atom_site_symmetry_multiplicity
 _atom_site_fract_x
 _atom_site_fract_y
 _atom_site_fract_z
 _atom_site_occupancy
  Li  Li0  1  0.00000000  0.00000000  0.00000000  1
  Li  Li1  1  0.50000004  0.50000001  0.49999993  1
  B  B2  1  0.25000002  0.25000001  0.24999996  1
  B  B3  1  0.75000006  0.75000002  0.74999989  1
  O  O4  1  0.25000003  0.53904801  0.24999995  1
  O  O5  1  0.96095205  0.25000001  0.24999993  1
  O  O6  1  0.46095202  0.03904800  0.74999995  1
  O  O7  1  0.75000005  0.46095201  0.74999991  1
  O  O8  1  0.03904803  0.75000002  0.74999993  1
  O  O9  1  0.53904806  0.96095202  0.24999990  1
