# generated using pymatgen
data_GeBi2RuO2
_symmetry_space_group_name_H-M   'P 1'
_cell_length_a   4.10565186
_cell_length_b   6.55375957
_cell_length_c   6.55375957
_cell_angle_alpha   84.36952209
_cell_angle_beta   71.74607849
_cell_angle_gamma   71.74607849
_symmetry_Int_Tables_number   1
_chemical_formula_structural   GeBi2RuO2
_chemical_formula_sum   'Ge1 Bi2 Ru1 O2'
_cell_volume   159.04338177
_cell_formula_units_Z   1
loop_
 _symmetry_equiv_pos_site_id
 _symmetry_equiv_pos_as_xyz
  1  'x, y, z'
loop_
 _atom_site_type_symbol
 _atom_site_label
 _atom_site_symmetry_multiplicity
 _atom_site_fract_x
 _atom_site_fract_y
 _atom_site_fract_z
 _atom_site_occupancy
  Ge  Ge0  1  0.98557905  0.00000000  -0.00000004  1
  Ru  Ru1  1  0.57381803  0.00000000  1.00000001  1
  Bi  Bi2  1  0.32133196  0.68230503  0.81778200  1
  Bi  Bi3  1  0.00363793  0.81778104  0.31769499  1
  O  O4  1  0.13911399  0.18221901  0.68230401  1
  O  O5  1  0.82141902  0.31769501  0.18221897  1
