# generated using pymatgen
data_BaSrTi2O6
_symmetry_space_group_name_H-M   'P 1'
_cell_length_a   4.93206787
_cell_length_b   5.80473280
_cell_length_c   10.05227661
_cell_angle_alpha   90.00022888
_cell_angle_beta   89.99999237
_cell_angle_gamma   90.00000000
_symmetry_Int_Tables_number   1
_chemical_formula_structural   BaSrTi2O6
_chemical_formula_sum   'Ba2 Sr2 Ti4 O12'
_cell_volume   287.79000608
_cell_formula_units_Z   2
loop_
 _symmetry_equiv_pos_site_id
 _symmetry_equiv_pos_as_xyz
  1  'x, y, z'
loop_
 _atom_site_type_symbol
 _atom_site_label
 _atom_site_symmetry_multiplicity
 _atom_site_fract_x
 _atom_site_fract_y
 _atom_site_fract_z
 _atom_site_occupancy
  Ba  Ba0  1  0.26780001  0.00000300  0.33333332  1
  Ba  Ba1  1  0.26779901  0.50000300  0.83332598  1
  Sr  Sr2  1  0.76780202  0.49999700  0.16667499  1
  Sr  Sr3  1  0.76780002  0.99999701  0.66666665  1
  Ti  Ti4  1  0.53359301  0.49999900  0.50000099  1
  Ti  Ti5  1  0.03359700  0.00000200  0.99999797  1
  Ti  Ti6  1  0.53357401  0.99999901  0.00000301  1
  Ti  Ti7  1  0.03358000  0.50000200  0.49999700  1
  O  O8  1  0.28420201  0.49999700  0.35146200  1
  O  O9  1  0.28421001  0.99999701  0.85146099  1
  O  O10  1  0.28420801  0.77721101  0.07427701  1
  O  O11  1  0.28420301  0.27720800  0.57427898  1
  O  O12  1  0.28421001  0.22278700  0.07427800  1
  O  O13  1  0.28420501  0.72279001  0.57427999  1
  O  O14  1  0.78420002  0.00000300  0.14853898  1
  O  O15  1  0.78420702  0.50000300  0.64853898  1
  O  O16  1  0.78420702  0.72278901  0.42572299  1
  O  O17  1  0.78420002  0.22279300  0.92572097  1
  O  O18  1  0.78420902  0.27721300  0.42572198  1
  O  O19  1  0.78420202  0.77720901  0.92571898  1
