# generated using pymatgen
data_CsTlHCS3O
_symmetry_space_group_name_H-M   'P 1'
_cell_length_a   6.25028801
_cell_length_b   6.25028801
_cell_length_c   6.25028801
_cell_angle_alpha   81.65217590
_cell_angle_beta   64.69676208
_cell_angle_gamma   115.30323792
_symmetry_Int_Tables_number   1
_chemical_formula_structural   CsTlHCS3O
_chemical_formula_sum   'Cs1 Tl1 H1 C1 S3 O1'
_cell_volume   182.80852491
_cell_formula_units_Z   1
loop_
 _symmetry_equiv_pos_site_id
 _symmetry_equiv_pos_as_xyz
  1  'x, y, z'
loop_
 _atom_site_type_symbol
 _atom_site_label
 _atom_site_symmetry_multiplicity
 _atom_site_fract_x
 _atom_site_fract_y
 _atom_site_fract_z
 _atom_site_occupancy
  Cs  Cs0  1  -0.00000000  0.25000000  0.75000000  1
  Tl  Tl1  1  1.00000000  0.75000001  0.25000000  1
  C  C2  1  0.50000000  0.50000001  -0.00000001  1
  S  S3  1  0.50000000  0.37417800  0.87417801  1
  S  S4  1  0.75164400  0.12582200  0.37417801  1
  S  S5  1  0.24835599  0.87417801  0.62582198  1
  O  O6  1  0.50000000  0.62582201  0.12582199  1
  H  H7  1  0.50000000  0.00000000  0.50000002  1
