# generated using pymatgen
data_Ba2Ca2O3
_symmetry_space_group_name_H-M   'P 1'
_cell_length_a   7.13227510
_cell_length_b   7.15990114
_cell_length_c   7.16104031
_cell_angle_alpha   90.00000000
_cell_angle_beta   61.26945496
_cell_angle_gamma   90.00000000
_symmetry_Int_Tables_number   1
_chemical_formula_structural   Ba2Ca2O3
_chemical_formula_sum   'Ba4 Ca4 O6'
_cell_volume   320.66854481
_cell_formula_units_Z   2
loop_
 _symmetry_equiv_pos_site_id
 _symmetry_equiv_pos_as_xyz
  1  'x, y, z'
loop_
 _atom_site_type_symbol
 _atom_site_label
 _atom_site_symmetry_multiplicity
 _atom_site_fract_x
 _atom_site_fract_y
 _atom_site_fract_z
 _atom_site_occupancy
  Ba  Ba0  1  0.90705299  0.65365299  0.87302001  1
  Ba  Ba1  1  0.40705300  0.84634698  0.87302002  1
  Ba  Ba2  1  0.59294699  0.15365300  0.12698000  1
  Ba  Ba3  1  0.09294700  0.34634699  0.12698000  1
  Ca  Ca4  1  0.57581299  0.37659399  0.66163701  1
  Ca  Ca5  1  0.92418699  0.87659398  0.33836300  1
  Ca  Ca6  1  0.07581300  0.12340600  0.66163702  1
  Ca  Ca7  1  0.42418700  0.62340599  0.33836301  1
  O  O8  1  0.49999999  0.49999999  -0.00000000  1
  O  O9  1  0.00000000  0.00000000  0.00000000  1
  O  O10  1  0.73930099  0.07820400  0.64813601  1
  O  O11  1  0.76069899  0.57820399  0.35186400  1
  O  O12  1  0.23930100  0.42179599  0.64813601  1
  O  O13  1  0.26069900  0.92179598  0.35186401  1
