# generated using pymatgen
data_BaAg(TeO4)2
_symmetry_space_group_name_H-M   'P 1'
_cell_length_a   5.43406391
_cell_length_b   5.43406391
_cell_length_c   7.01632214
_cell_angle_alpha   112.78314972
_cell_angle_beta   112.78314972
_cell_angle_gamma   90.00000000
_symmetry_Int_Tables_number   1
_chemical_formula_structural   BaAg(TeO4)2
_chemical_formula_sum   'Ba1 Ag1 Te2 O8'
_cell_volume   173.35401852
_cell_formula_units_Z   1
loop_
 _symmetry_equiv_pos_site_id
 _symmetry_equiv_pos_as_xyz
  1  'x, y, z'
loop_
 _atom_site_type_symbol
 _atom_site_label
 _atom_site_symmetry_multiplicity
 _atom_site_fract_x
 _atom_site_fract_y
 _atom_site_fract_z
 _atom_site_occupancy
  Ba  Ba0  1  0.00000000  0.00000000  0.00000000  1
  Ag  Ag1  1  0.24999998  0.75000000  0.49999997  1
  Te  Te2  1  0.75000000  0.25000000  0.49999997  1
  Te  Te3  1  0.49999999  0.50000000  0.99999996  1
  O  O4  1  0.98544399  0.57410800  0.66637895  1
  O  O5  1  0.68093500  0.09227100  0.66637898  1
  O  O6  1  0.82557199  0.44383800  0.17441697  1
  O  O7  1  0.34884498  0.73057900  0.17441697  1
  O  O8  1  0.26942100  0.17442800  0.82558298  1
  O  O9  1  0.55616198  0.65115500  0.82558296  1
  O  O10  1  0.42589199  0.31906500  0.33362098  1
  O  O11  1  0.90772900  0.01455600  0.33362098  1
