# generated using pymatgen
data_Rb2CuSe3
_symmetry_space_group_name_H-M   'P 1'
_cell_length_a   5.64079809
_cell_length_b   8.82324600
_cell_length_c   8.82324600
_cell_angle_alpha   102.88287354
_cell_angle_beta   90.00000000
_cell_angle_gamma   90.00000000
_symmetry_Int_Tables_number   1
_chemical_formula_structural   Rb2CuSe3
_chemical_formula_sum   'Rb4 Cu2 Se6'
_cell_volume   428.08033087
_cell_formula_units_Z   2
loop_
 _symmetry_equiv_pos_site_id
 _symmetry_equiv_pos_as_xyz
  1  'x, y, z'
loop_
 _atom_site_type_symbol
 _atom_site_label
 _atom_site_symmetry_multiplicity
 _atom_site_fract_x
 _atom_site_fract_y
 _atom_site_fract_z
 _atom_site_occupancy
  Rb  Rb0  1  0.25000000  0.68407403  0.31592600  1
  Rb  Rb1  1  0.74999999  0.31592601  0.68407403  1
  Rb  Rb2  1  0.49999999  0.84060604  0.84060602  1
  Rb  Rb3  1  0.99999998  0.84060604  0.84060602  1
  Cu  Cu4  1  0.49999999  0.15939401  0.15939400  1
  Cu  Cu5  1  0.99999998  0.15939401  0.15939400  1
  Se  Se6  1  0.74999999  0.83656804  0.58763001  1
  Se  Se7  1  0.25000000  0.58763003  0.83656803  1
  Se  Se8  1  0.25000000  0.16343201  0.41237002  1
  Se  Se9  1  0.74999999  0.41237002  0.16343200  1
  Se  Se10  1  0.25000000  0.11243101  0.88756904  1
  Se  Se11  1  0.74999999  0.88756904  0.11243098  1
