# generated using pymatgen
data_Ag2Au2S3Cl5
_symmetry_space_group_name_H-M   'P 1'
_cell_length_a   3.84414291
_cell_length_b   7.36875248
_cell_length_c   7.40434408
_cell_angle_alpha   85.19582367
_cell_angle_beta   75.17054749
_cell_angle_gamma   75.81307983
_symmetry_Int_Tables_number   1
_chemical_formula_structural   Ag2Au2S3Cl5
_chemical_formula_sum   'Ag2 Au2 S3 Cl5'
_cell_volume   196.52025128
_cell_formula_units_Z   1
loop_
 _symmetry_equiv_pos_site_id
 _symmetry_equiv_pos_as_xyz
  1  'x, y, z'
loop_
 _atom_site_type_symbol
 _atom_site_label
 _atom_site_symmetry_multiplicity
 _atom_site_fract_x
 _atom_site_fract_y
 _atom_site_fract_z
 _atom_site_occupancy
  Ag  Ag0  1  0.99582202  0.00186500  0.99918502  1
  Ag  Ag1  1  0.98813707  0.33733799  0.61499899  1
  Au  Au2  1  0.95089612  0.65726297  0.38818297  1
  Au  Au3  1  0.66032507  0.38359898  0.33758599  1
  S  S4  1  0.37769110  0.60923898  0.65801198  1
  S  S5  1  0.29937015  0.90843596  0.45860496  1
  Cl  Cl6  1  0.27224907  0.42193198  0.08612698  1
  Cl  Cl7  1  0.79297111  0.57734398  0.89251998  1
  Cl  Cl8  1  0.24471104  0.19813699  0.33645700  1
  Cl  Cl9  1  0.77575614  0.81850697  0.66087597  1
  Cl  Cl10  1  0.53864412  0.67159097  0.19141097  1
  S  S11  1  0.40842906  0.31974899  0.79704000  1
