# generated using pymatgen
data_BaPbO3
_symmetry_space_group_name_H-M   'P 1'
_cell_length_a   6.67787313
_cell_length_b   6.69644117
_cell_length_c   9.45696259
_cell_angle_alpha   90.00000000
_cell_angle_beta   90.00000000
_cell_angle_gamma   90.00000000
_symmetry_Int_Tables_number   1
_chemical_formula_structural   BaPbO3
_chemical_formula_sum   'Ba4 Pb4 O12'
_cell_volume   422.89630736
_cell_formula_units_Z   4
loop_
 _symmetry_equiv_pos_site_id
 _symmetry_equiv_pos_as_xyz
  1  'x, y, z'
loop_
 _atom_site_type_symbol
 _atom_site_label
 _atom_site_symmetry_multiplicity
 _atom_site_fract_x
 _atom_site_fract_y
 _atom_site_fract_z
 _atom_site_occupancy
  Ba  Ba0  1  0.23046000  0.76958198  0.97938304  1
  Ba  Ba1  1  0.73045999  0.73041798  0.52061702  1
  Ba  Ba2  1  0.26953999  0.26958199  0.02061700  1
  Ba  Ba3  1  0.76953998  0.23041799  0.47938302  1
  Pb  Pb4  1  0.23046000  0.76958198  0.52061702  1
  Pb  Pb5  1  0.73045999  0.73041798  0.97938304  1
  Pb  Pb6  1  0.26953999  0.26958199  0.47938302  1
  Pb  Pb7  1  0.76953998  0.23041799  0.02061700  1
  O  O8  1  0.50290799  0.04040900  0.75000003  1
  O  O9  1  0.00290800  0.45959099  0.75000003  1
  O  O10  1  0.99709198  0.54040899  0.25000001  1
  O  O11  1  0.49709199  0.95959098  0.25000001  1
  O  O12  1  0.99060098  0.99862597  0.75000003  1
  O  O13  1  0.49060099  0.50137399  0.75000003  1
  O  O14  1  0.50939899  0.49862599  0.25000001  1
  O  O15  1  0.00939900  0.00137400  0.25000001  1
  O  O16  1  0.00000000  0.49999999  0.50000002  1
  O  O17  1  0.49999999  0.00000000  0.00000000  1
  O  O18  1  0.49999999  0.00000000  0.50000002  1
  O  O19  1  0.00000000  0.49999999  0.00000000  1
