# generated using pymatgen
data_CsRb3(PbO2)2
_symmetry_space_group_name_H-M   'P 1'
_cell_length_a   7.74360418
_cell_length_b   8.00042915
_cell_length_c   10.64833546
_cell_angle_alpha   85.19107056
_cell_angle_beta   70.30174255
_cell_angle_gamma   61.31577301
_symmetry_Int_Tables_number   1
_chemical_formula_structural   CsRb3(PbO2)2
_chemical_formula_sum   'Cs2 Rb6 Pb4 O8'
_cell_volume   542.43046660
_cell_formula_units_Z   2
loop_
 _symmetry_equiv_pos_site_id
 _symmetry_equiv_pos_as_xyz
  1  'x, y, z'
loop_
 _atom_site_type_symbol
 _atom_site_label
 _atom_site_symmetry_multiplicity
 _atom_site_fract_x
 _atom_site_fract_y
 _atom_site_fract_z
 _atom_site_occupancy
  Cs  Cs0  1  0.92392097  0.06670800  0.82355106  1
  Cs  Cs1  1  0.07607901  0.93329198  0.17644900  1
  Rb  Rb2  1  0.76136798  0.73138398  0.50673303  1
  Rb  Rb3  1  0.23863199  0.26861599  0.49326702  1
  Rb  Rb4  1  0.39800799  0.56834699  0.85843604  1
  Rb  Rb5  1  0.60199198  0.43165299  0.14156402  1
  Rb  Rb6  1  0.93566797  0.54869299  0.83047205  1
  Rb  Rb7  1  0.06433200  0.45130699  0.16952800  1
  Pb  Pb8  1  0.40214099  0.05940800  0.87457105  1
  Pb  Pb9  1  0.59785899  0.94059198  0.12542901  1
  Pb  Pb10  1  0.30570700  0.70313898  0.47361102  1
  Pb  Pb11  1  0.69429298  0.29686099  0.52638904  1
  O  O12  1  0.07071100  0.21280799  0.97769904  1
  O  O13  1  0.92928898  0.78719198  0.02230102  1
  O  O14  1  0.50354698  0.19269500  0.99492805  1
  O  O15  1  0.49645299  0.80730498  0.00507200  1
  O  O16  1  0.19452600  0.59772999  0.35514501  1
  O  O17  1  0.80547398  0.40226999  0.64485504  1
  O  O18  1  0.65785798  0.51597499  0.37444803  1
  O  O19  1  0.34214199  0.48402499  0.62555203  1
