# generated using pymatgen
data_ZnAgSe2
_symmetry_space_group_name_H-M   'P 1'
_cell_length_a   5.94704390
_cell_length_b   5.94704390
_cell_length_c   7.29898119
_cell_angle_alpha   114.04090118
_cell_angle_beta   114.04090118
_cell_angle_gamma   90.00000000
_symmetry_Int_Tables_number   1
_chemical_formula_structural   ZnAgSe2
_chemical_formula_sum   'Zn2 Ag2 Se4'
_cell_volume   210.99645906
_cell_formula_units_Z   2
loop_
 _symmetry_equiv_pos_site_id
 _symmetry_equiv_pos_as_xyz
  1  'x, y, z'
loop_
 _atom_site_type_symbol
 _atom_site_label
 _atom_site_symmetry_multiplicity
 _atom_site_fract_x
 _atom_site_fract_y
 _atom_site_fract_z
 _atom_site_occupancy
  Zn  Zn0  1  0.75000005  0.25000001  0.50000006  1
  Zn  Zn1  1  0.00000000  0.00000000  0.00000000  1
  Ag  Ag2  1  0.25000006  0.75000004  0.50000008  1
  Ag  Ag3  1  0.50000005  0.50000003  0.00000006  1
  Se  Se4  1  0.10142904  0.62500003  0.75000006  1
  Se  Se5  1  0.64857104  0.12500001  0.75000005  1
  Se  Se6  1  0.87500009  0.89857105  0.25000012  1
  Se  Se7  1  0.37500004  0.35142902  0.25000005  1
