# generated using pymatgen
data_Na2FeCuMoO7
_symmetry_space_group_name_H-M   'P 1'
_cell_length_a   5.53616810
_cell_length_b   5.53616810
_cell_length_c   7.10849667
_cell_angle_alpha   112.91748047
_cell_angle_beta   112.91748047
_cell_angle_gamma   90.00000000
_symmetry_Int_Tables_number   1
_chemical_formula_structural   Na2FeCuMoO7
_chemical_formula_sum   'Na2 Fe1 Cu1 Mo1 O7'
_cell_volume   181.85606322
_cell_formula_units_Z   1
loop_
 _symmetry_equiv_pos_site_id
 _symmetry_equiv_pos_as_xyz
  1  'x, y, z'
loop_
 _atom_site_type_symbol
 _atom_site_label
 _atom_site_symmetry_multiplicity
 _atom_site_fract_x
 _atom_site_fract_y
 _atom_site_fract_z
 _atom_site_occupancy
  Na  Na0  1  0.74999999  0.25000000  0.50000002  1
  Na  Na1  1  0.00000000  0.00000000  0.00000000  1
  Fe  Fe2  1  0.25000000  0.74999999  0.50000002  1
  Mo  Mo3  1  0.50000000  0.49999999  0.00000001  1
  Cu  Cu4  1  0.42233900  0.32597300  0.16730901  1
  O  O5  1  0.07597201  0.99496899  0.66730803  1
  O  O6  1  0.59133600  0.67233899  0.66730803  1
  O  O7  1  0.74496900  0.84133499  0.16730702  1
  O  O8  1  0.00503100  0.40866499  0.33269301  1
  O  O9  1  0.15866400  0.57766099  0.83269203  1
  O  O10  1  0.67402799  0.25503100  0.83269203  1
  O  O11  1  0.32766100  0.92402699  0.33269102  1
