# generated using pymatgen
data_Mg2MnZn4S7
_symmetry_space_group_name_H-M   'P 1'
_cell_length_a   7.30226946
_cell_length_b   7.38659620
_cell_length_c   7.30237484
_cell_angle_alpha   119.61634064
_cell_angle_beta   119.99349213
_cell_angle_gamma   60.38219452
_symmetry_Int_Tables_number   1
_chemical_formula_structural   Mg2MnZn4S7
_chemical_formula_sum   'Mg2 Mn1 Zn4 S7'
_cell_volume   280.13186070
_cell_formula_units_Z   1
loop_
 _symmetry_equiv_pos_site_id
 _symmetry_equiv_pos_as_xyz
  1  'x, y, z'
loop_
 _atom_site_type_symbol
 _atom_site_label
 _atom_site_symmetry_multiplicity
 _atom_site_fract_x
 _atom_site_fract_y
 _atom_site_fract_z
 _atom_site_occupancy
  Mg  Mg0  1  0.12507100  0.62477797  0.87492698  1
  Mg  Mg1  1  0.87492801  0.37523998  0.12507997  1
  Mn  Mn2  1  0.50001001  0.00003300  0.00003499  1
  Zn  Zn3  1  0.49997901  0.00004400  0.50001699  1
  Zn  Zn4  1  0.00003399  0.99992896  0.50002897  1
  Zn  Zn5  1  0.49996701  0.49999698  0.49991898  1
  S  S6  1  0.26360300  0.20921399  0.73641899  1
  Zn  Zn7  1  0.74969601  0.21717599  0.71656098  1
  S  S8  1  0.28343900  0.21714799  0.25029999  1
  S  S9  1  0.74969901  0.21713899  0.25027198  1
  S  S10  1  0.71656801  0.78281897  0.74970297  1
  S  S11  1  0.25030300  0.78281997  0.74969097  1
  S  S12  1  0.73641001  0.79078897  0.26361096  1
  S  S13  1  0.25029800  0.78287497  0.28343897  1
