# generated using pymatgen
data_Y2S3
_symmetry_space_group_name_H-M   'P 1'
_cell_length_a   3.83776212
_cell_length_b   10.42032528
_cell_length_c   10.56962490
_cell_angle_alpha   90.00000000
_cell_angle_beta   90.00000000
_cell_angle_gamma   90.00000000
_symmetry_Int_Tables_number   1
_chemical_formula_structural   Y2S3
_chemical_formula_sum   'Y8 S12'
_cell_volume   422.68701146
_cell_formula_units_Z   4
loop_
 _symmetry_equiv_pos_site_id
 _symmetry_equiv_pos_as_xyz
  1  'x, y, z'
loop_
 _atom_site_type_symbol
 _atom_site_label
 _atom_site_symmetry_multiplicity
 _atom_site_fract_x
 _atom_site_fract_y
 _atom_site_fract_z
 _atom_site_occupancy
  Y  Y0  1  0.24999999  0.18767499  0.49209000  1
  Y  Y1  1  0.24999999  0.31232499  0.99209001  1
  Y  Y2  1  0.74999998  0.81232498  0.50791000  1
  Y  Y3  1  0.74999998  0.68767498  0.00791000  1
  Y  Y4  1  0.74999998  0.49525699  0.69156801  1
  Y  Y5  1  0.74999998  0.00474300  0.19156800  1
  Y  Y6  1  0.24999999  0.50474299  0.30843200  1
  Y  Y7  1  0.24999999  0.99525697  0.80843201  1
  S  S8  1  0.24999999  0.62662398  0.54480501  1
  S  S9  1  0.24999999  0.87337598  0.04480500  1
  S  S10  1  0.74999998  0.37337599  0.45519500  1
  S  S11  1  0.74999998  0.12662400  0.95519501  1
  S  S12  1  0.74999998  0.05414900  0.61939801  1
  S  S13  1  0.74999998  0.44585099  0.11939800  1
  S  S14  1  0.24999999  0.94585097  0.38060200  1
  S  S15  1  0.24999999  0.55414899  0.88060201  1
  S  S16  1  0.24999999  0.30376799  0.72956201  1
  S  S17  1  0.24999999  0.19623199  0.22956200  1
  S  S18  1  0.74999998  0.69623198  0.27043800  1
  S  S19  1  0.74999998  0.80376798  0.77043801  1
