# generated using pymatgen
data_LiSiPO
_symmetry_space_group_name_H-M   'P 1'
_cell_length_a   3.31133199
_cell_length_b   3.31133151
_cell_length_c   5.33678007
_cell_angle_alpha   90.00000000
_cell_angle_beta   90.00000000
_cell_angle_gamma   120.00000763
_symmetry_Int_Tables_number   1
_chemical_formula_structural   LiSiPO
_chemical_formula_sum   'Li1 Si1 P1 O1'
_cell_volume   50.67751262
_cell_formula_units_Z   1
loop_
 _symmetry_equiv_pos_site_id
 _symmetry_equiv_pos_as_xyz
  1  'x, y, z'
loop_
 _atom_site_type_symbol
 _atom_site_label
 _atom_site_symmetry_multiplicity
 _atom_site_fract_x
 _atom_site_fract_y
 _atom_site_fract_z
 _atom_site_occupancy
  Li  Li0  1  0.00000000  0.00000000  0.99711999  1
  P  P1  1  0.33333336  0.66666667  0.54961399  1
  Si  Si2  1  0.66666668  0.33333333  0.74042399  1
  O  O3  1  0.33333336  0.66666667  0.18287300  1
