# generated using pymatgen
data_ZrTi2FeO8
_symmetry_space_group_name_H-M   'P 1'
_cell_length_a   3.33277106
_cell_length_b   3.78041291
_cell_length_c   10.06008911
_cell_angle_alpha   90.00000000
_cell_angle_beta   90.00000000
_cell_angle_gamma   90.00000000
_symmetry_Int_Tables_number   1
_chemical_formula_structural   ZrTi2FeO8
_chemical_formula_sum   'Zr1 Ti2 Fe1 O8'
_cell_volume   126.74958538
_cell_formula_units_Z   1
loop_
 _symmetry_equiv_pos_site_id
 _symmetry_equiv_pos_as_xyz
  1  'x, y, z'
loop_
 _atom_site_type_symbol
 _atom_site_label
 _atom_site_symmetry_multiplicity
 _atom_site_fract_x
 _atom_site_fract_y
 _atom_site_fract_z
 _atom_site_occupancy
  Ti  Ti0  1  0.22969900  0.01467000  0.39943000  1
  Ti  Ti1  1  0.72969899  0.48533001  0.60056999  1
  Zr  Zr2  1  0.77030099  0.51467001  0.10057000  1
  Fe  Fe3  1  0.27030099  0.98533002  0.89942999  1
  O  O4  1  0.72782599  0.99363402  0.52042299  1
  O  O5  1  0.22782600  0.50636601  0.47957699  1
  O  O6  1  0.27217399  0.49363401  0.97957699  1
  O  O7  1  0.77217399  0.00636600  0.02042300  1
  O  O8  1  0.74392399  0.18533900  0.27709700  1
  O  O9  1  0.24392400  0.31466101  0.72290299  1
  O  O10  1  0.25607600  0.68533902  0.22290300  1
  O  O11  1  0.75607599  0.81466102  0.77709699  1
