# generated using pymatgen
data_LiCdAgS2
_symmetry_space_group_name_H-M   'P 1'
_cell_length_a   4.42511988
_cell_length_b   4.42511988
_cell_length_c   7.28096485
_cell_angle_alpha   90.00000000
_cell_angle_beta   90.00000000
_cell_angle_gamma   120.00000000
_symmetry_Int_Tables_number   1
_chemical_formula_structural   LiCdAgS2
_chemical_formula_sum   'Li1 Cd1 Ag1 S2'
_cell_volume   123.47233088
_cell_formula_units_Z   1
loop_
 _symmetry_equiv_pos_site_id
 _symmetry_equiv_pos_as_xyz
  1  'x, y, z'
loop_
 _atom_site_type_symbol
 _atom_site_label
 _atom_site_symmetry_multiplicity
 _atom_site_fract_x
 _atom_site_fract_y
 _atom_site_fract_z
 _atom_site_occupancy
  Li  Li0  1  0.00000000  0.00000000  0.00000000  1
  Cd  Cd1  1  0.33333331  0.66666663  0.62528501  1
  Ag  Ag2  1  0.66666667  0.33333331  0.37471501  1
  S  S3  1  0.33333331  0.66666663  0.25644101  1
  S  S4  1  0.66666667  0.33333331  0.74355902  1
