# generated using pymatgen
data_BaGeO3
_symmetry_space_group_name_H-M   'P 1'
_cell_length_a   4.49308014
_cell_length_b   5.59508610
_cell_length_c   6.74076462
_cell_angle_alpha   90.00000000
_cell_angle_beta   108.14676666
_cell_angle_gamma   90.00000000
_symmetry_Int_Tables_number   1
_chemical_formula_structural   BaGeO3
_chemical_formula_sum   'Ba2 Ge2 O6'
_cell_volume   161.02873684
_cell_formula_units_Z   2
loop_
 _symmetry_equiv_pos_site_id
 _symmetry_equiv_pos_as_xyz
  1  'x, y, z'
loop_
 _atom_site_type_symbol
 _atom_site_label
 _atom_site_symmetry_multiplicity
 _atom_site_fract_x
 _atom_site_fract_y
 _atom_site_fract_z
 _atom_site_occupancy
  Ba  Ba0  1  0.65403697  0.74999999  0.30443297  1
  Ba  Ba1  1  0.34596298  0.25000000  0.69556696  1
  Ge  Ge2  1  0.93544996  0.74999999  0.84211394  1
  Ge  Ge3  1  0.06455000  0.25000000  0.15788599  1
  O  O4  1  0.17324399  0.01118400  0.32964898  1
  O  O5  1  0.82675596  0.51118399  0.67035095  1
  O  O6  1  0.82675596  0.98881598  0.67035095  1
  O  O7  1  0.17324399  0.48881599  0.32964898  1
  O  O8  1  0.66321497  0.25000000  0.10105097  1
  O  O9  1  0.33678498  0.74999999  0.89894896  1
