# generated using pymatgen
data_Li5BeP2
_symmetry_space_group_name_H-M   'P 1'
_cell_length_a   5.11864090
_cell_length_b   5.11864090
_cell_length_c   5.11864090
_cell_angle_alpha   90.00000000
_cell_angle_beta   90.00000000
_cell_angle_gamma   90.00000000
_symmetry_Int_Tables_number   1
_chemical_formula_structural   Li5BeP2
_chemical_formula_sum   'Li5 Be1 P2'
_cell_volume   134.11087237
_cell_formula_units_Z   1
loop_
 _symmetry_equiv_pos_site_id
 _symmetry_equiv_pos_as_xyz
  1  'x, y, z'
loop_
 _atom_site_type_symbol
 _atom_site_label
 _atom_site_symmetry_multiplicity
 _atom_site_fract_x
 _atom_site_fract_y
 _atom_site_fract_z
 _atom_site_occupancy
  Li  Li0  1  0.50000001  0.50000001  0.50000001  1
  Li  Li1  1  0.00000000  0.00000000  0.50000001  1
  Li  Li2  1  0.00000000  0.50000001  0.00000000  1
  Li  Li3  1  0.50000001  0.00000000  0.00000000  1
  Li  Li4  1  0.00000000  0.00000000  0.00000000  1
  P  P5  1  0.50000001  0.50000001  0.00000000  1
  Be  Be6  1  0.50000001  0.00000000  0.50000001  1
  P  P7  1  0.00000000  0.50000001  0.50000001  1
