# generated using pymatgen
data_MgCd(SiP4)3
_symmetry_space_group_name_H-M   'P 1'
_cell_length_a   7.20562935
_cell_length_b   7.20562935
_cell_length_c   7.20562935
_cell_angle_alpha   109.47122192
_cell_angle_beta   109.47122192
_cell_angle_gamma   109.47122192
_symmetry_Int_Tables_number   1
_chemical_formula_structural   MgCd(SiP4)3
_chemical_formula_sum   'Mg1 Cd1 Si3 P12'
_cell_volume   288.00089966
_cell_formula_units_Z   1
loop_
 _symmetry_equiv_pos_site_id
 _symmetry_equiv_pos_as_xyz
  1  'x, y, z'
loop_
 _atom_site_type_symbol
 _atom_site_label
 _atom_site_symmetry_multiplicity
 _atom_site_fract_x
 _atom_site_fract_y
 _atom_site_fract_z
 _atom_site_occupancy
  Cd  Cd0  1  0.00000000  0.00000000  0.00000000  1
  Mg  Mg1  1  0.50000006  1.00000003  0.00000007  1
  Si  Si2  1  0.00000000  0.00000000  0.49999999  1
  Si  Si3  1  1.00000003  0.50000001  1.00000004  1
  Si  Si4  1  0.50000003  0.50000001  0.50000003  1
  P  P5  1  0.49809001  0.15624900  0.34184202  1
  P  P6  1  0.50191005  0.84375102  0.65815805  1
  P  P7  1  0.18559305  0.84375202  0.34184105  1
  P  P8  1  0.81440701  0.15624800  0.65815902  1
  P  P9  1  0.15624804  0.65815802  0.81440703  1
  P  P10  1  0.84375202  0.34184201  0.18559304  1
  P  P11  1  0.84375204  0.65815902  0.50191105  1
  P  P12  1  0.15624802  0.34184101  0.49808902  1
  P  P13  1  0.34184101  0.18559301  0.84375101  1
  P  P14  1  0.65815905  0.81440702  0.15624906  1
  P  P15  1  0.34184103  0.49808901  0.15624803  1
  P  P16  1  0.65815903  0.50191101  0.84375203  1
