# generated using pymatgen
data_Rb4Pb2Se2SO3
_symmetry_space_group_name_H-M   'P 1'
_cell_length_a   4.29101181
_cell_length_b   7.43546486
_cell_length_c   13.59534740
_cell_angle_alpha   90.00000000
_cell_angle_beta   90.00000000
_cell_angle_gamma   90.00000000
_symmetry_Int_Tables_number   1
_chemical_formula_structural   Rb4Pb2Se2SO3
_chemical_formula_sum   'Rb4 Pb2 Se2 S1 O3'
_cell_volume   433.76863418
_cell_formula_units_Z   1
loop_
 _symmetry_equiv_pos_site_id
 _symmetry_equiv_pos_as_xyz
  1  'x, y, z'
loop_
 _atom_site_type_symbol
 _atom_site_label
 _atom_site_symmetry_multiplicity
 _atom_site_fract_x
 _atom_site_fract_y
 _atom_site_fract_z
 _atom_site_occupancy
  Rb  Rb0  1  0.43760402  0.91316302  0.87039497  1
  Rb  Rb1  1  0.93760404  0.58683701  0.12960500  1
  Rb  Rb2  1  0.56239602  0.41316301  0.62960498  1
  Rb  Rb3  1  0.06239600  0.08683700  0.37039499  1
  Se  Se4  1  0.70913103  0.16941900  0.23548099  1
  Pb  Pb5  1  0.20913101  0.33058101  0.76451898  1
  Se  Se6  1  0.29086901  0.66941901  0.26451899  1
  Pb  Pb7  1  0.79086903  0.83058102  0.73548098  1
  O  O8  1  0.09518500  0.99012202  0.99817497  1
  S  S9  1  0.59518503  0.50987801  0.00182500  1
  O  O10  1  0.90481504  0.49012201  0.50182499  1
  O  O11  1  0.40481502  0.00987800  0.49817499  1
