# generated using pymatgen
data_RbTlI4
_symmetry_space_group_name_H-M   'P 1'
_cell_length_a   4.17631388
_cell_length_b   8.86229324
_cell_length_c   8.86229324
_cell_angle_alpha   90.00000000
_cell_angle_beta   90.00000000
_cell_angle_gamma   90.00000000
_symmetry_Int_Tables_number   1
_chemical_formula_structural   RbTlI4
_chemical_formula_sum   'Rb1 Tl1 I4'
_cell_volume   328.00870062
_cell_formula_units_Z   1
loop_
 _symmetry_equiv_pos_site_id
 _symmetry_equiv_pos_as_xyz
  1  'x, y, z'
loop_
 _atom_site_type_symbol
 _atom_site_label
 _atom_site_symmetry_multiplicity
 _atom_site_fract_x
 _atom_site_fract_y
 _atom_site_fract_z
 _atom_site_occupancy
  Rb  Rb0  1  0.00000000  0.00000000  0.00000000  1
  Tl  Tl1  1  0.50000001  0.49999999  0.49999999  1
  I  I2  1  1.00000003  0.32770699  0.32770699  1
  I  I3  1  1.00000003  0.67229298  0.67229298  1
  I  I4  1  0.50000001  0.17229300  0.82770698  1
  I  I5  1  0.50000001  0.82770698  0.17229300  1
