# generated using pymatgen
data_HoPbO4
_symmetry_space_group_name_H-M   'P 1'
_cell_length_a   3.88555551
_cell_length_b   3.88555551
_cell_length_c   6.85310936
_cell_angle_alpha   73.53147888
_cell_angle_beta   73.53147888
_cell_angle_gamma   60.00000763
_symmetry_Int_Tables_number   1
_chemical_formula_structural   HoPbO4
_chemical_formula_sum   'Ho1 Pb1 O4'
_cell_volume   84.66672498
_cell_formula_units_Z   1
loop_
 _symmetry_equiv_pos_site_id
 _symmetry_equiv_pos_as_xyz
  1  'x, y, z'
loop_
 _atom_site_type_symbol
 _atom_site_label
 _atom_site_symmetry_multiplicity
 _atom_site_fract_x
 _atom_site_fract_y
 _atom_site_fract_z
 _atom_site_occupancy
  Ho  Ho0  1  0.25910100  0.25910100  0.22269700  1
  Pb  Pb1  1  0.74089899  0.74089901  0.77730299  1
  O  O2  1  0.37785999  0.37786000  0.86642000  1
  O  O3  1  0.62213999  0.62214000  0.13357998  1
  O  O4  1  0.12964900  0.12964900  0.61105301  1
  O  O5  1  0.87035099  0.87035101  0.38894698  1
