# generated using pymatgen
data_Rb2Na2La2PbS3
_symmetry_space_group_name_H-M   'P 1'
_cell_length_a   6.02834415
_cell_length_b   8.43631268
_cell_length_c   8.43631268
_cell_angle_alpha   89.86112213
_cell_angle_beta   90.00000000
_cell_angle_gamma   90.00000000
_symmetry_Int_Tables_number   1
_chemical_formula_structural   Rb2Na2La2PbS3
_chemical_formula_sum   'Rb2 Na2 La2 Pb1 S3'
_cell_volume   429.04426133
_cell_formula_units_Z   1
loop_
 _symmetry_equiv_pos_site_id
 _symmetry_equiv_pos_as_xyz
  1  'x, y, z'
loop_
 _atom_site_type_symbol
 _atom_site_label
 _atom_site_symmetry_multiplicity
 _atom_site_fract_x
 _atom_site_fract_y
 _atom_site_fract_z
 _atom_site_occupancy
  Rb  Rb0  1  0.49999999  0.50109700  0.50109697  1
  Rb  Rb1  1  0.49999999  0.00022300  0.00022300  1
  Na  Na2  1  -0.00000000  0.49531400  0.99587597  1
  Na  Na3  1  -0.00000000  0.99587600  0.49531394  1
  La  La4  1  -0.00000000  0.78729800  0.20114996  1
  La  La5  1  0.49999999  0.97361600  0.47328795  1
  Pb  Pb6  1  0.49999999  0.47328800  0.97361597  1
  S  S7  1  -0.00000000  0.29262000  0.29261998  1
  S  S8  1  -0.00000000  0.70751800  0.70751796  1
  S  S9  1  0.99999997  0.20115000  0.78729799  1
