# generated using pymatgen
data_LiPRuS2
_symmetry_space_group_name_H-M   'P 1'
_cell_length_a   4.13810921
_cell_length_b   4.13810921
_cell_length_c   4.14673615
_cell_angle_alpha   90.00000000
_cell_angle_beta   90.00000000
_cell_angle_gamma   90.00000000
_symmetry_Int_Tables_number   1
_chemical_formula_structural   LiPRuS2
_chemical_formula_sum   'Li1 P1 Ru1 S2'
_cell_volume   71.00849333
_cell_formula_units_Z   1
loop_
 _symmetry_equiv_pos_site_id
 _symmetry_equiv_pos_as_xyz
  1  'x, y, z'
loop_
 _atom_site_type_symbol
 _atom_site_label
 _atom_site_symmetry_multiplicity
 _atom_site_fract_x
 _atom_site_fract_y
 _atom_site_fract_z
 _atom_site_occupancy
  Li  Li0  1  0.49999997  0.49999997  0.51481598  1
  P  P1  1  0.00000000  0.00000000  0.99281897  1
  Ru  Ru2  1  0.49999997  0.00000000  0.97521697  1
  S  S3  1  0.00000000  0.49999997  0.97521697  1
  S  S4  1  0.00000000  0.00000000  0.48593198  1
