# generated using pymatgen
data_BaSrCeHfO6
_symmetry_space_group_name_H-M   'P 1'
_cell_length_a   5.97360277
_cell_length_b   6.04685974
_cell_length_c   8.54402924
_cell_angle_alpha   89.72927856
_cell_angle_beta   90.24684143
_cell_angle_gamma   90.00041962
_symmetry_Int_Tables_number   1
_chemical_formula_structural   BaSrCeHfO6
_chemical_formula_sum   'Ba2 Sr2 Ce2 Hf2 O12'
_cell_volume   308.61716849
_cell_formula_units_Z   2
loop_
 _symmetry_equiv_pos_site_id
 _symmetry_equiv_pos_as_xyz
  1  'x, y, z'
loop_
 _atom_site_type_symbol
 _atom_site_label
 _atom_site_symmetry_multiplicity
 _atom_site_fract_x
 _atom_site_fract_y
 _atom_site_fract_z
 _atom_site_occupancy
  Ba  Ba0  1  0.49347274  0.53185458  0.74980734  1
  Ba  Ba1  1  0.50652730  0.46814544  0.25019272  1
  Sr  Sr2  1  0.00724136  0.03689098  0.74779008  1
  Sr  Sr3  1  0.99275867  0.96310903  0.25220999  1
  Ce  Ce4  1  0.00000002  0.50000001  1.00000002  1
  Ce  Ce5  1  0.50000000  0.00000000  0.50000002  1
  Hf  Hf6  1  0.50000000  0.00000000  1.00000002  1
  Hf  Hf7  1  0.00000002  0.50000001  0.50000002  1
  O  O8  1  0.78829417  0.19464193  0.06211681  1
  O  O9  1  0.71500202  0.70279372  0.47082939  1
  O  O10  1  0.21170587  0.80535808  0.93788325  1
  O  O11  1  0.28499801  0.29720629  0.52917067  1
  O  O12  1  0.70224900  0.71683295  0.03357890  1
  O  O13  1  0.80888839  0.20764297  0.44051081  1
  O  O14  1  0.29775103  0.28316706  0.96642116  1
  O  O15  1  0.19111164  0.79235704  0.55948925  1
  O  O16  1  0.60694194  0.00047928  0.75843526  1
  O  O17  1  0.93525843  0.43513654  0.74148434  1
  O  O18  1  0.39305809  0.99952073  0.24156480  1
  O  O19  1  0.06474161  0.56486348  0.25851573  1
