# generated using pymatgen
data_Li6FeH9
_symmetry_space_group_name_H-M   'P 1'
_cell_length_a   5.63326120
_cell_length_b   5.64441729
_cell_length_c   7.26416206
_cell_angle_alpha   103.98049164
_cell_angle_beta   103.76110077
_cell_angle_gamma   106.05738831
_symmetry_Int_Tables_number   1
_chemical_formula_structural   Li6FeH9
_chemical_formula_sum   'Li6 Fe1 H9'
_cell_volume   203.56601091
_cell_formula_units_Z   1
loop_
 _symmetry_equiv_pos_site_id
 _symmetry_equiv_pos_as_xyz
  1  'x, y, z'
loop_
 _atom_site_type_symbol
 _atom_site_label
 _atom_site_symmetry_multiplicity
 _atom_site_fract_x
 _atom_site_fract_y
 _atom_site_fract_z
 _atom_site_occupancy
  Li  Li0  1  0.83917596  0.16288200  0.24593998  1
  Li  Li1  1  0.16082399  0.83711799  0.75405999  1
  Li  Li2  1  0.81746296  0.18145100  0.74939897  1
  Li  Li3  1  0.18253699  0.81854899  0.25060100  1
  Li  Li4  1  0.49999998  0.49999999  0.49999998  1
  Li  Li5  1  0.49999998  0.49999999  -0.00000000  1
  Fe  Fe6  1  0.41108998  0.58977699  0.75062498  1
  H  H7  1  0.58890997  0.41022299  0.24937499  1
  H  H8  1  0.10587899  0.24184800  0.91289198  1
  H  H9  1  0.89412096  0.75815199  0.08710799  1
  H  H10  1  0.75977096  0.89242899  0.58862398  1
  H  H11  1  0.24022899  0.10757100  0.41137599  1
  H  H12  1  0.17676999  0.60257899  0.37064300  1
  H  H13  1  0.82322996  0.39742100  0.62935697  1
  H  H14  1  0.39931198  0.82434299  0.12992800  1
  H  H15  1  0.60068797  0.17565700  0.87007197  1
