# generated using pymatgen
data_Li3NdFe(BiO4)3
_symmetry_space_group_name_H-M   'P 1'
_cell_length_a   5.36842203
_cell_length_b   5.68220139
_cell_length_c   7.84876013
_cell_angle_alpha   90.00000000
_cell_angle_beta   90.00000000
_cell_angle_gamma   89.66086578
_symmetry_Int_Tables_number   1
_chemical_formula_structural   Li3NdFe(BiO4)3
_chemical_formula_sum   'Li3 Nd1 Fe1 Bi3 O12'
_cell_volume   239.41795693
_cell_formula_units_Z   1
loop_
 _symmetry_equiv_pos_site_id
 _symmetry_equiv_pos_as_xyz
  1  'x, y, z'
loop_
 _atom_site_type_symbol
 _atom_site_label
 _atom_site_symmetry_multiplicity
 _atom_site_fract_x
 _atom_site_fract_y
 _atom_site_fract_z
 _atom_site_occupancy
  Li  Li0  1  0.00000004  1.00000003  0.49999999  1
  Li  Li1  1  0.50000002  0.50000001  0.49999999  1
  Fe  Fe2  1  0.00000000  0.00000000  0.00000000  1
  Li  Li3  1  0.50000002  0.50000001  -0.00000000  1
  Nd  Nd4  1  0.53090803  0.93050503  0.74999999  1
  Bi  Bi5  1  0.46909200  0.06949500  0.25000000  1
  Bi  Bi6  1  0.02029602  0.55804602  0.25000000  1
  Bi  Bi7  1  0.97970401  0.44195401  0.74999999  1
  O  O8  1  0.67985300  0.18240600  0.56433599  1
  O  O9  1  0.32014703  0.81759402  0.43566399  1
  O  O10  1  0.20108701  0.29293401  0.42780599  1
  O  O11  1  0.79891302  0.70706602  0.57219399  1
  O  O12  1  0.32014703  0.81759402  0.06433600  1
  O  O13  1  0.67985300  0.18240600  0.93566398  1
  O  O14  1  0.79891302  0.70706602  0.92780598  1
  O  O15  1  0.20108701  0.29293401  0.07219400  1
  O  O16  1  0.15048300  0.03794000  0.74999999  1
  O  O17  1  0.84951703  0.96206003  0.25000000  1
  O  O18  1  0.38293002  0.57125002  0.74999999  1
  O  O19  1  0.61707001  0.42875001  0.25000000  1
