# generated using pymatgen
data_InAgS2
_symmetry_space_group_name_H-M   'P 1'
_cell_length_a   4.03672695
_cell_length_b   4.03672695
_cell_length_c   7.04685926
_cell_angle_alpha   73.35623169
_cell_angle_beta   73.35623169
_cell_angle_gamma   60.00001526
_symmetry_Int_Tables_number   1
_chemical_formula_structural   InAgS2
_chemical_formula_sum   'In1 Ag1 S2'
_cell_volume   93.84923516
_cell_formula_units_Z   1
loop_
 _symmetry_equiv_pos_site_id
 _symmetry_equiv_pos_as_xyz
  1  'x, y, z'
loop_
 _atom_site_type_symbol
 _atom_site_label
 _atom_site_symmetry_multiplicity
 _atom_site_fract_x
 _atom_site_fract_y
 _atom_site_fract_z
 _atom_site_occupancy
  In  In0  1  0.49913403  0.49913402  0.50259800  1
  Ag  Ag1  1  0.00286800  0.00286800  0.99139598  1
  S  S2  1  0.13131301  0.13131300  0.60606099  1
  S  S3  1  0.61668504  0.61668502  0.14994501  1
