# generated using pymatgen
data_La7YO12
_symmetry_space_group_name_H-M   'P 1'
_cell_length_a   6.96675968
_cell_length_b   6.96675968
_cell_length_c   6.96675968
_cell_angle_alpha   93.17897034
_cell_angle_beta   93.17897034
_cell_angle_gamma   93.17895508
_symmetry_Int_Tables_number   1
_chemical_formula_structural   La7YO12
_chemical_formula_sum   'La7 Y1 O12'
_cell_volume   336.51550393
_cell_formula_units_Z   1
loop_
 _symmetry_equiv_pos_site_id
 _symmetry_equiv_pos_as_xyz
  1  'x, y, z'
loop_
 _atom_site_type_symbol
 _atom_site_label
 _atom_site_symmetry_multiplicity
 _atom_site_fract_x
 _atom_site_fract_y
 _atom_site_fract_z
 _atom_site_occupancy
  La  La0  1  0.00000000  0.00000000  0.00000000  1
  Y  Y1  1  0.49999998  0.50000000  0.49999999  1
  La  La2  1  0.92850698  0.44589300  0.74936299  1
  La  La3  1  0.74936297  0.92850699  0.44589300  1
  La  La4  1  0.55410699  0.25063700  0.07149300  1
  La  La5  1  0.44589297  0.74936300  0.92850698  1
  La  La6  1  0.25063700  0.07149300  0.55410699  1
  La  La7  1  0.07149298  0.55410700  0.25063700  1
  O  O8  1  0.93343399  0.30441900  0.07160301  1
  O  O9  1  0.92839699  0.06656600  0.69558099  1
  O  O10  1  0.80604598  0.59750700  0.47151700  1
  O  O11  1  0.69558097  0.92839699  0.06656601  1
  O  O12  1  0.59750698  0.47151700  0.80604598  1
  O  O13  1  0.52848299  0.19395400  0.40249299  1
  O  O14  1  0.47151697  0.80604600  0.59750699  1
  O  O15  1  0.40249298  0.52848300  0.19395400  1
  O  O16  1  0.30441900  0.07160300  0.93343398  1
  O  O17  1  0.19395399  0.40249300  0.52848299  1
  O  O18  1  0.07160297  0.93343399  0.30441900  1
  O  O19  1  0.06656598  0.69558100  0.92839698  1
