# generated using pymatgen
data_EuTlSe2
_symmetry_space_group_name_H-M   'P 1'
_cell_length_a   4.51043797
_cell_length_b   4.51043797
_cell_length_c   8.06048012
_cell_angle_alpha   73.75249481
_cell_angle_beta   73.75249481
_cell_angle_gamma   59.99999619
_symmetry_Int_Tables_number   1
_chemical_formula_structural   EuTlSe2
_chemical_formula_sum   'Eu1 Tl1 Se2'
_cell_volume   134.39780557
_cell_formula_units_Z   1
loop_
 _symmetry_equiv_pos_site_id
 _symmetry_equiv_pos_as_xyz
  1  'x, y, z'
loop_
 _atom_site_type_symbol
 _atom_site_label
 _atom_site_symmetry_multiplicity
 _atom_site_fract_x
 _atom_site_fract_y
 _atom_site_fract_z
 _atom_site_occupancy
  Eu  Eu0  1  0.50000002  0.50000003  0.49999997  1
  Tl  Tl1  1  0.00000000  0.00000000  0.00000000  1
  Se  Se2  1  0.25422601  0.25422602  0.23732198  1
  Se  Se3  1  0.74577403  0.74577405  0.76267795  1
