# generated using pymatgen
data_LiMg(PS)2
_symmetry_space_group_name_H-M   'P 1'
_cell_length_a   3.89684653
_cell_length_b   3.89684653
_cell_length_c   6.34968472
_cell_angle_alpha   72.13027954
_cell_angle_beta   72.13027954
_cell_angle_gamma   59.99998856
_symmetry_Int_Tables_number   1
_chemical_formula_structural   LiMg(PS)2
_chemical_formula_sum   'Li1 Mg1 P2 S2'
_cell_volume   78.08685689
_cell_formula_units_Z   1
loop_
 _symmetry_equiv_pos_site_id
 _symmetry_equiv_pos_as_xyz
  1  'x, y, z'
loop_
 _atom_site_type_symbol
 _atom_site_label
 _atom_site_symmetry_multiplicity
 _atom_site_fract_x
 _atom_site_fract_y
 _atom_site_fract_z
 _atom_site_occupancy
  Li  Li0  1  0.49999999  0.50000001  0.50000002  1
  Mg  Mg1  1  0.00000000  0.00000000  0.00000000  1
  P  P2  1  0.63746899  0.63746902  0.08759300  1
  P  P3  1  0.36253099  0.36253101  0.91240703  1
  S  S4  1  0.11147700  0.11147700  0.66556902  1
  S  S5  1  0.88852298  0.88852302  0.33443101  1
