# generated using pymatgen
data_Rb9Ba3WO7
_symmetry_space_group_name_H-M   'P 1'
_cell_length_a   7.53670979
_cell_length_b   7.82170010
_cell_length_c   10.86420918
_cell_angle_alpha   90.00000000
_cell_angle_beta   90.00000000
_cell_angle_gamma   90.00000000
_symmetry_Int_Tables_number   1
_chemical_formula_structural   Rb9Ba3WO7
_chemical_formula_sum   'Rb9 Ba3 W1 O7'
_cell_volume   640.44386686
_cell_formula_units_Z   1
loop_
 _symmetry_equiv_pos_site_id
 _symmetry_equiv_pos_as_xyz
  1  'x, y, z'
loop_
 _atom_site_type_symbol
 _atom_site_label
 _atom_site_symmetry_multiplicity
 _atom_site_fract_x
 _atom_site_fract_y
 _atom_site_fract_z
 _atom_site_occupancy
  Ba  Ba0  1  0.07964800  0.47974799  0.25000000  1
  Ba  Ba1  1  0.20376901  0.20118400  0.54201599  1
  Rb  Rb2  1  0.20376901  0.20118400  0.95798398  1
  Ba  Ba3  1  0.29623101  0.70118399  0.54201599  1
  Rb  Rb4  1  0.29623101  0.70118399  0.95798398  1
  Rb  Rb5  1  0.42035201  0.97974799  0.25000000  1
  Rb  Rb6  1  0.57964802  0.02025200  0.74999999  1
  Rb  Rb7  1  0.70376902  0.29881600  0.04201600  1
  Rb  Rb8  1  0.70376902  0.29881600  0.45798399  1
  Rb  Rb9  1  0.79623102  0.79881599  0.04201600  1
  Rb  Rb10  1  0.79623102  0.79881599  0.45798399  1
  Rb  Rb11  1  0.92035203  0.52025199  0.74999999  1
  W  W12  1  0.01730900  0.94704799  0.74999999  1
  O  O13  1  0.48269101  0.44704799  0.74999999  1
  O  O14  1  0.51730901  0.55295199  0.25000000  1
  O  O15  1  0.98269103  0.05295200  0.25000000  1
  O  O16  1  0.00000000  0.49999999  -0.00000000  1
  O  O17  1  0.00000000  0.49999999  0.49999999  1
  O  O18  1  0.50000001  0.00000000  -0.00000000  1
  O  O19  1  0.50000001  0.00000000  0.49999999  1
