# generated using pymatgen
data_RbAuS
_symmetry_space_group_name_H-M   'P 1'
_cell_length_a   5.61209869
_cell_length_b   5.61209869
_cell_length_c   7.00507212
_cell_angle_alpha   90.00000000
_cell_angle_beta   90.00000000
_cell_angle_gamma   101.08374786
_symmetry_Int_Tables_number   1
_chemical_formula_structural   RbAuS
_chemical_formula_sum   'Rb2 Au2 S2'
_cell_volume   216.51396495
_cell_formula_units_Z   2
loop_
 _symmetry_equiv_pos_site_id
 _symmetry_equiv_pos_as_xyz
  1  'x, y, z'
loop_
 _atom_site_type_symbol
 _atom_site_label
 _atom_site_symmetry_multiplicity
 _atom_site_fract_x
 _atom_site_fract_y
 _atom_site_fract_z
 _atom_site_occupancy
  Rb  Rb0  1  0.36991602  0.63008400  0.25000000  1
  Rb  Rb1  1  0.63008401  0.36991600  0.74999999  1
  Au  Au2  1  0.00000000  0.00000000  0.00000000  1
  Au  Au3  1  0.00000000  0.00000000  0.49999999  1
  S  S4  1  0.82109500  0.17890500  0.25000000  1
  S  S5  1  0.17890502  0.82109500  0.74999999  1
