# generated using pymatgen
data_Ba2B(CO3)2
_symmetry_space_group_name_H-M   'P 1'
_cell_length_a   5.21356010
_cell_length_b   5.21356010
_cell_length_c   6.64587545
_cell_angle_alpha   66.90603638
_cell_angle_beta   66.90603638
_cell_angle_gamma   59.99999619
_symmetry_Int_Tables_number   1
_chemical_formula_structural   Ba2B(CO3)2
_chemical_formula_sum   'Ba2 B1 C2 O6'
_cell_volume   139.47547856
_cell_formula_units_Z   1
loop_
 _symmetry_equiv_pos_site_id
 _symmetry_equiv_pos_as_xyz
  1  'x, y, z'
loop_
 _atom_site_type_symbol
 _atom_site_label
 _atom_site_symmetry_multiplicity
 _atom_site_fract_x
 _atom_site_fract_y
 _atom_site_fract_z
 _atom_site_occupancy
  Ba  Ba0  1  0.78861000  0.78861002  0.63417005  1
  Ba  Ba1  1  0.21139000  0.21139001  0.36583002  1
  B  B2  1  0.00000000  0.00000000  0.00000000  1
  C  C3  1  0.59720900  0.59720902  0.20837303  1
  C  C4  1  0.40279100  0.40279101  0.79162703  1
  O  O5  1  0.69240501  0.26002901  0.78753703  1
  O  O6  1  0.26002900  0.26002901  0.78753702  1
  O  O7  1  0.26002899  0.69240502  0.78753704  1
  O  O8  1  0.73997101  0.30759501  0.21246303  1
  O  O9  1  0.73997100  0.73997102  0.21246304  1
  O  O10  1  0.30759499  0.73997102  0.21246303  1
