# generated using pymatgen
data_NaLi2VO8
_symmetry_space_group_name_H-M   'P 1'
_cell_length_a   5.09975195
_cell_length_b   5.09975195
_cell_length_c   6.42107773
_cell_angle_alpha   113.39765167
_cell_angle_beta   113.39765167
_cell_angle_gamma   90.00000000
_symmetry_Int_Tables_number   1
_chemical_formula_structural   NaLi2VO8
_chemical_formula_sum   'Na1 Li2 V1 O8'
_cell_volume   138.17410345
_cell_formula_units_Z   1
loop_
 _symmetry_equiv_pos_site_id
 _symmetry_equiv_pos_as_xyz
  1  'x, y, z'
loop_
 _atom_site_type_symbol
 _atom_site_label
 _atom_site_symmetry_multiplicity
 _atom_site_fract_x
 _atom_site_fract_y
 _atom_site_fract_z
 _atom_site_occupancy
  Na  Na0  1  0.24999999  0.75000000  0.49999997  1
  Li  Li1  1  0.75000000  0.25000000  0.49999998  1
  Li  Li2  1  0.49999999  0.50000000  -0.00000002  1
  V  V3  1  0.00000000  0.00000000  0.00000000  1
  O  O4  1  0.55025899  0.55025900  0.68437197  1
  O  O5  1  0.13411300  0.13411300  0.68437098  1
  O  O6  1  0.86588699  0.44974100  0.31562797  1
  O  O7  1  0.44974199  0.86588800  0.31562997  1
  O  O8  1  0.31284900  0.31284900  0.18001499  1
  O  O9  1  0.86716599  0.86716600  0.18001497  1
  O  O10  1  0.13283399  0.68715100  0.81998497  1
  O  O11  1  0.68715100  0.13283400  0.81998497  1
