# generated using pymatgen
data_RbBaNdPbS4
_symmetry_space_group_name_H-M   'P 1'
_cell_length_a   4.03038216
_cell_length_b   4.03038263
_cell_length_c   16.05792427
_cell_angle_alpha   90.00000000
_cell_angle_beta   90.00000000
_cell_angle_gamma   119.99999237
_symmetry_Int_Tables_number   1
_chemical_formula_structural   RbBaNdPbS4
_chemical_formula_sum   'Rb1 Ba1 Nd1 Pb1 S4'
_cell_volume   225.89809927
_cell_formula_units_Z   1
loop_
 _symmetry_equiv_pos_site_id
 _symmetry_equiv_pos_as_xyz
  1  'x, y, z'
loop_
 _atom_site_type_symbol
 _atom_site_label
 _atom_site_symmetry_multiplicity
 _atom_site_fract_x
 _atom_site_fract_y
 _atom_site_fract_z
 _atom_site_occupancy
  Ba  Ba0  1  0.66666663  0.33333333  0.74999999  1
  Rb  Rb1  1  0.33333329  0.66666666  0.25000000  1
  Nd  Nd2  1  0.00000000  0.00000000  0.49999999  1
  Pb  Pb3  1  0.00000000  0.00000000  0.00000000  1
  S  S4  1  0.66666663  0.33333333  0.08918200  1
  S  S5  1  0.33333329  0.66666666  0.91081798  1
  S  S6  1  0.33333329  0.66666666  0.58918199  1
  S  S7  1  0.66666663  0.33333333  0.41081799  1
