# generated using pymatgen
data_Co3OF5
_symmetry_space_group_name_H-M   'P 1'
_cell_length_a   4.70557308
_cell_length_b   5.63377619
_cell_length_c   7.76328373
_cell_angle_alpha   86.00598907
_cell_angle_beta   89.29604340
_cell_angle_gamma   89.14702606
_symmetry_Int_Tables_number   1
_chemical_formula_structural   Co3OF5
_chemical_formula_sum   'Co6 O2 F10'
_cell_volume   205.27014312
_cell_formula_units_Z   2
loop_
 _symmetry_equiv_pos_site_id
 _symmetry_equiv_pos_as_xyz
  1  'x, y, z'
loop_
 _atom_site_type_symbol
 _atom_site_label
 _atom_site_symmetry_multiplicity
 _atom_site_fract_x
 _atom_site_fract_y
 _atom_site_fract_z
 _atom_site_occupancy
  Co  Co0  1  0.48980599  0.33503201  0.67387302  1
  Co  Co1  1  0.51019398  0.66496801  0.32612702  1
  Co  Co2  1  0.49999999  0.00000000  -0.00000000  1
  Co  Co3  1  0.00073300  0.16867400  0.33595101  1
  Co  Co4  1  -0.00000001  0.50000001  0.00000002  1
  Co  Co5  1  0.99926697  0.83132601  0.66404903  1
  O  O6  1  0.69710698  0.70419901  0.09799902  1
  O  O7  1  0.30289299  0.29580100  0.90200103  1
  F  F8  1  0.79996198  0.20395900  0.10500600  1
  F  F9  1  0.80491097  0.86897101  0.43228603  1
  F  F10  1  0.80516698  0.53290301  0.76562803  1
  F  F11  1  0.69927199  0.03563900  0.76667402  1
  F  F12  1  0.69391198  0.36631901  0.43980402  1
  F  F13  1  0.30072798  0.96436101  0.23332603  1
  F  F14  1  0.30608798  0.63368101  0.56019603  1
  F  F15  1  0.20003798  0.79604101  0.89499405  1
  F  F16  1  0.19483299  0.46709701  0.23437202  1
  F  F17  1  0.19508899  0.13102900  0.56771402  1
