# generated using pymatgen
data_K2CdN4
_symmetry_space_group_name_H-M   'P 1'
_cell_length_a   5.86460924
_cell_length_b   5.86460924
_cell_length_c   10.09137630
_cell_angle_alpha   90.00000000
_cell_angle_beta   90.00000000
_cell_angle_gamma   117.98766327
_symmetry_Int_Tables_number   1
_chemical_formula_structural   K2CdN4
_chemical_formula_sum   'K4 Cd2 N8'
_cell_volume   306.48780340
_cell_formula_units_Z   2
loop_
 _symmetry_equiv_pos_site_id
 _symmetry_equiv_pos_as_xyz
  1  'x, y, z'
loop_
 _atom_site_type_symbol
 _atom_site_label
 _atom_site_symmetry_multiplicity
 _atom_site_fract_x
 _atom_site_fract_y
 _atom_site_fract_z
 _atom_site_occupancy
  K  K0  1  0.49999995  0.49999997  0.24999999  1
  K  K1  1  0.49999995  0.49999997  0.74999998  1
  K  K2  1  0.23542494  0.76903995  0.49999998  1
  K  K3  1  0.76457496  0.23095999  0.49999998  1
  Cd  Cd4  1  0.23095994  0.76457495  -0.00000000  1
  Cd  Cd5  1  0.76903996  0.23542499  -0.00000000  1
  N  N6  1  0.19580597  0.35293098  0.49999998  1
  N  N7  1  0.80419394  0.64706896  0.49999998  1
  N  N8  1  0.64706893  0.80419395  -0.00000000  1
  N  N9  1  0.35293098  0.19580599  -0.00000000  1
  N  N10  1  -0.00000003  0.49999997  0.17307299  1
  N  N11  1  0.49999999  0.00000000  0.32692699  1
  N  N12  1  -0.00000003  0.49999997  0.82692698  1
  N  N13  1  0.49999999  0.00000000  0.67307298  1
