# generated using pymatgen
data_CsRb(MoO4)2
_symmetry_space_group_name_H-M   'P 1'
_cell_length_a   5.90188217
_cell_length_b   5.90188217
_cell_length_c   7.65194416
_cell_angle_alpha   90.00000000
_cell_angle_beta   90.00000000
_cell_angle_gamma   120.00000000
_symmetry_Int_Tables_number   1
_chemical_formula_structural   CsRb(MoO4)2
_chemical_formula_sum   'Cs1 Rb1 Mo2 O8'
_cell_volume   230.82534500
_cell_formula_units_Z   1
loop_
 _symmetry_equiv_pos_site_id
 _symmetry_equiv_pos_as_xyz
  1  'x, y, z'
loop_
 _atom_site_type_symbol
 _atom_site_label
 _atom_site_symmetry_multiplicity
 _atom_site_fract_x
 _atom_site_fract_y
 _atom_site_fract_z
 _atom_site_occupancy
  Rb  Rb0  1  0.00000000  0.00000000  0.00000000  1
  Cs  Cs1  1  0.00000000  0.00000000  0.49999999  1
  Mo  Mo2  1  0.33333334  0.66666668  0.76115598  1
  Mo  Mo3  1  0.66666666  0.33333334  0.23884399  1
  O  O4  1  0.16509200  0.33018401  0.83538098  1
  O  O5  1  0.16509202  0.83490802  0.83538098  1
  O  O6  1  0.66981600  0.83490802  0.83538098  1
  O  O7  1  0.33018399  0.16509200  0.16461900  1
  O  O8  1  0.66666666  0.33333334  0.46762199  1
  O  O9  1  0.33333334  0.66666668  0.53237799  1
  O  O10  1  0.83490799  0.66981601  0.16461900  1
  O  O11  1  0.83490798  0.16509200  0.16461900  1
