# generated using pymatgen
data_Tl4In2SnTeI8
_symmetry_space_group_name_H-M   'P 1'
_cell_length_a   8.54806042
_cell_length_b   9.76328945
_cell_length_c   8.54806042
_cell_angle_alpha   64.03861237
_cell_angle_beta   90.00000000
_cell_angle_gamma   115.96138763
_symmetry_Int_Tables_number   1
_chemical_formula_structural   Tl4In2SnTeI8
_chemical_formula_sum   'Tl4 In2 Sn1 Te1 I8'
_cell_volume   560.24296240
_cell_formula_units_Z   1
loop_
 _symmetry_equiv_pos_site_id
 _symmetry_equiv_pos_as_xyz
  1  'x, y, z'
loop_
 _atom_site_type_symbol
 _atom_site_label
 _atom_site_symmetry_multiplicity
 _atom_site_fract_x
 _atom_site_fract_y
 _atom_site_fract_z
 _atom_site_occupancy
  Tl  Tl0  1  0.49999998  0.00000000  0.49999998  1
  Tl  Tl1  1  0.00000000  0.00000000  0.00000000  1
  Tl  Tl2  1  0.74999993  0.49999996  0.25000002  1
  Tl  Tl3  1  0.24999995  0.49999996  0.75000000  1
  In  In4  1  0.24999995  0.49999996  0.25000002  1
  In  In5  1  0.74999993  0.49999996  0.75000000  1
  Te  Te6  1  0.49999998  0.00000000  0.00000000  1
  Sn  Sn7  1  -0.00000007  0.99999992  0.50000005  1
  I  I8  1  0.31870096  0.26997998  0.54872099  1
  I  I9  1  0.81870094  0.26997998  0.68129899  1
  I  I10  1  0.45127896  0.26997998  0.04872102  1
  I  I11  1  0.18129894  0.73001994  0.31870104  1
  I  I12  1  0.54872092  0.73001994  0.95127901  1
  I  I13  1  0.04872094  0.73001994  0.81870101  1
  I  I14  1  0.68129891  0.73001994  0.45127903  1
  I  I15  1  0.95127893  0.26997998  0.18129901  1
