# generated using pymatgen
data_NaNb2MoO6
_symmetry_space_group_name_H-M   'P 1'
_cell_length_a   5.39321423
_cell_length_b   5.39321423
_cell_length_c   5.39321423
_cell_angle_alpha   60.22322464
_cell_angle_beta   60.22322464
_cell_angle_gamma   60.22321320
_symmetry_Int_Tables_number   1
_chemical_formula_structural   NaNb2MoO6
_chemical_formula_sum   'Na1 Nb2 Mo1 O6'
_cell_volume   111.48522841
_cell_formula_units_Z   1
loop_
 _symmetry_equiv_pos_site_id
 _symmetry_equiv_pos_as_xyz
  1  'x, y, z'
loop_
 _atom_site_type_symbol
 _atom_site_label
 _atom_site_symmetry_multiplicity
 _atom_site_fract_x
 _atom_site_fract_y
 _atom_site_fract_z
 _atom_site_occupancy
  Na  Na0  1  0.75000005  0.75000001  0.74999996  1
  Nb  Nb1  1  0.25000002  0.25000000  0.24999999  1
  Nb  Nb2  1  0.00000000  0.00000000  0.00000000  1
  Mo  Mo3  1  0.50000003  0.50000001  0.49999997  1
  O  O4  1  0.21078103  0.75000001  0.28921897  1
  O  O5  1  0.75000003  0.28921900  0.21078096  1
  O  O6  1  0.28921902  0.21078100  0.75000001  1
  O  O7  1  0.78921903  0.25000000  0.71078098  1
  O  O8  1  0.71078105  0.78921901  0.24999994  1
  O  O9  1  0.25000003  0.71078101  0.78921898  1
