# generated using pymatgen
data_NdYNiO4
_symmetry_space_group_name_H-M   'P 1'
_cell_length_a   3.69499207
_cell_length_b   3.69499207
_cell_length_c   6.52906084
_cell_angle_alpha   106.43724823
_cell_angle_beta   106.43724823
_cell_angle_gamma   90.00000000
_symmetry_Int_Tables_number   1
_chemical_formula_structural   NdYNiO4
_chemical_formula_sum   'Nd1 Y1 Ni1 O4'
_cell_volume   81.69238734
_cell_formula_units_Z   1
loop_
 _symmetry_equiv_pos_site_id
 _symmetry_equiv_pos_as_xyz
  1  'x, y, z'
loop_
 _atom_site_type_symbol
 _atom_site_label
 _atom_site_symmetry_multiplicity
 _atom_site_fract_x
 _atom_site_fract_y
 _atom_site_fract_z
 _atom_site_occupancy
  Nd  Nd0  1  0.64287099  0.64287099  0.28574201  1
  Y  Y1  1  0.35780500  0.35780499  0.71561000  1
  Ni  Ni2  1  0.00561800  0.00561800  0.01123600  1
  O  O3  1  0.83284199  0.83284199  0.66568401  1
  O  O4  1  0.16885500  0.16885500  0.33771000  1
  O  O5  1  0.49600400  0.99600399  0.99200801  1
  O  O6  1  0.99600399  0.49600399  0.99200801  1
