# generated using pymatgen
data_CsH11ClO7
_symmetry_space_group_name_H-M   'P 1'
_cell_length_a   4.64538193
_cell_length_b   4.64538193
_cell_length_c   11.87757301
_cell_angle_alpha   90.00000000
_cell_angle_beta   90.00000000
_cell_angle_gamma   90.00000000
_symmetry_Int_Tables_number   1
_chemical_formula_structural   CsH11ClO7
_chemical_formula_sum   'Cs1 H11 Cl1 O7'
_cell_volume   256.31295690
_cell_formula_units_Z   1
loop_
 _symmetry_equiv_pos_site_id
 _symmetry_equiv_pos_as_xyz
  1  'x, y, z'
loop_
 _atom_site_type_symbol
 _atom_site_label
 _atom_site_symmetry_multiplicity
 _atom_site_fract_x
 _atom_site_fract_y
 _atom_site_fract_z
 _atom_site_occupancy
  Cs  Cs0  1  0.00000000  0.50000001  0.81196300  1
  H  H1  1  0.50000001  0.00000000  0.18803700  1
  H  H2  1  0.17934700  0.00000000  0.62718700  1
  H  H3  1  0.82065301  0.00000000  0.62718700  1
  H  H4  1  0.50000001  0.67934701  0.62718700  1
  H  H5  1  0.50000001  0.32065301  0.62718700  1
  H  H6  1  0.32065301  0.50000001  0.37281300  1
  H  H7  1  0.67934701  0.50000001  0.37281300  1
  H  H8  1  0.00000000  0.82065301  0.37281300  1
  H  H9  1  0.00000000  0.17934700  0.37281300  1
  H  H10  1  0.50000001  0.00000000  0.48989700  1
  H  H11  1  0.00000000  0.50000001  0.51010300  1
  O  O12  1  0.50000001  0.00000000  0.90529900  1
  O  O13  1  0.00000000  0.50000001  0.09470100  1
  Cl  Cl14  1  0.00000000  0.00000000  0.67673900  1
  O  O15  1  0.50000001  0.50000001  0.67673900  1
  O  O16  1  0.50000001  0.50000001  0.32326100  1
  O  O17  1  0.00000000  0.00000000  0.32326100  1
  O  O18  1  0.50000001  0.00000000  0.57174000  1
  O  O19  1  0.00000000  0.50000001  0.42826000  1
