# generated using pymatgen
data_NdGdNb2O8
_symmetry_space_group_name_H-M   'P 1'
_cell_length_a   5.23516321
_cell_length_b   5.60712290
_cell_length_c   5.42793894
_cell_angle_alpha   90.00000000
_cell_angle_beta   83.19626617
_cell_angle_gamma   90.00000000
_symmetry_Int_Tables_number   1
_chemical_formula_structural   NdGdNb2O8
_chemical_formula_sum   'Nd1 Gd1 Nb2 O8'
_cell_volume   158.21076906
_cell_formula_units_Z   1
loop_
 _symmetry_equiv_pos_site_id
 _symmetry_equiv_pos_as_xyz
  1  'x, y, z'
loop_
 _atom_site_type_symbol
 _atom_site_label
 _atom_site_symmetry_multiplicity
 _atom_site_fract_x
 _atom_site_fract_y
 _atom_site_fract_z
 _atom_site_occupancy
  Nd  Nd0  1  0.00000000  0.23451600  0.24999999  1
  Gd  Gd1  1  0.00000000  0.76548401  0.74999997  1
  Nb  Nb2  1  0.49999998  0.31128601  0.75000000  1
  Nb  Nb3  1  0.49999998  0.68871401  0.25000002  1
  O  O4  1  0.72731297  0.43680501  0.99312100  1
  O  O5  1  0.27268699  0.43680501  0.50687899  1
  O  O6  1  0.27268699  0.56319501  0.00687901  1
  O  O7  1  0.72731297  0.56319501  0.49312102  1
  O  O8  1  0.25347699  0.90888602  0.39279300  1
  O  O9  1  0.74652297  0.90888602  0.10720703  1
  O  O10  1  0.74652297  0.09111400  0.60720701  1
  O  O11  1  0.25347699  0.09111400  0.89279298  1
