# generated using pymatgen
data_Sr3La2Y(MoO6)2
_symmetry_space_group_name_H-M   'P 1'
_cell_length_a   5.62044811
_cell_length_b   5.79273796
_cell_length_c   7.95569944
_cell_angle_alpha   90.00000000
_cell_angle_beta   91.08528900
_cell_angle_gamma   90.00000000
_symmetry_Int_Tables_number   1
_chemical_formula_structural   Sr3La2Y(MoO6)2
_chemical_formula_sum   'Sr3 La2 Y1 Mo2 O12'
_cell_volume   258.97347115
_cell_formula_units_Z   1
loop_
 _symmetry_equiv_pos_site_id
 _symmetry_equiv_pos_as_xyz
  1  'x, y, z'
loop_
 _atom_site_type_symbol
 _atom_site_label
 _atom_site_symmetry_multiplicity
 _atom_site_fract_x
 _atom_site_fract_y
 _atom_site_fract_z
 _atom_site_occupancy
  Sr  Sr0  1  0.99293400  0.54747000  0.26165600  1
  Sr  Sr1  1  0.00706600  0.45253000  0.73834402  1
  Sr  Sr2  1  0.50706600  0.04747000  0.23834400  1
  La  La3  1  0.49293400  0.95253001  0.76165601  1
  Y  Y4  1  0.00000000  0.00000000  0.50000001  1
  La  La5  1  0.50000000  0.50000000  -0.00000000  1
  Mo  Mo6  1  0.00000000  0.00000000  0.00000000  1
  Mo  Mo7  1  0.50000000  0.50000000  0.50000001  1
  O  O8  1  0.84146500  0.28595800  0.06746399  1
  O  O9  1  0.15853500  0.71404200  0.93253602  1
  O  O10  1  0.65853500  0.78595801  0.43253600  1
  O  O11  1  0.34146500  0.21404200  0.56746401  1
  O  O12  1  0.10129200  0.94057001  0.22505500  1
  O  O13  1  0.89870800  0.05943000  0.77494501  1
  O  O14  1  0.39870800  0.44057000  0.27494500  1
  O  O15  1  0.60129200  0.55943000  0.72505501  1
  O  O16  1  0.70305400  0.83261901  0.03995700  1
  O  O17  1  0.29694600  0.16738100  0.96004302  1
  O  O18  1  0.79694600  0.33261900  0.46004300  1
  O  O19  1  0.20305400  0.66738100  0.53995701  1
