# generated using pymatgen
data_Li6MnCoO8
_symmetry_space_group_name_H-M   'P 1'
_cell_length_a   4.99551201
_cell_length_b   6.10009336
_cell_length_c   6.87220049
_cell_angle_alpha   107.70017242
_cell_angle_beta   89.99899292
_cell_angle_gamma   114.17382812
_symmetry_Int_Tables_number   1
_chemical_formula_structural   Li6MnCoO8
_chemical_formula_sum   'Li6 Mn1 Co1 O8'
_cell_volume   180.13177857
_cell_formula_units_Z   1
loop_
 _symmetry_equiv_pos_site_id
 _symmetry_equiv_pos_as_xyz
  1  'x, y, z'
loop_
 _atom_site_type_symbol
 _atom_site_label
 _atom_site_symmetry_multiplicity
 _atom_site_fract_x
 _atom_site_fract_y
 _atom_site_fract_z
 _atom_site_occupancy
  Li  Li0  1  0.49999801  0.50000099  0.00000300  1
  Li  Li1  1  0.50000501  0.50000199  0.50000201  1
  Li  Li2  1  0.16205802  0.87706099  0.36889202  1
  Li  Li3  1  0.21499902  0.87705199  0.86887902  1
  Li  Li4  1  0.78496900  0.12293700  0.13112399  1
  Li  Li5  1  0.83794300  0.12292700  0.63110500  1
  Mn  Mn6  1  0.97806800  0.10057000  0.36694099  1
  Co  Co7  1  0.62251600  0.10059400  0.86695601  1
  O  O8  1  0.37749302  0.89940499  0.13303501  1
  O  O9  1  0.02192602  0.89943099  0.63305302  1
  O  O10  1  0.20850301  0.49996399  0.74993202  1
  O  O11  1  0.79150101  0.50003799  0.25006800  1
  O  O12  1  0.57973000  0.25348400  0.55054300  1
  O  O13  1  0.17376101  0.25356600  0.05061800  1
  O  O14  1  0.82624901  0.74644399  0.94938701  1
  O  O15  1  0.42028202  0.74652499  0.44946101  1
