# generated using pymatgen
data_Sm3EuTm4O12
_symmetry_space_group_name_H-M   'P 1'
_cell_length_a   5.74318123
_cell_length_b   6.00022697
_cell_length_c   8.42913914
_cell_angle_alpha   90.00000000
_cell_angle_beta   90.00000000
_cell_angle_gamma   90.00000000
_symmetry_Int_Tables_number   1
_chemical_formula_structural   Sm3EuTm4O12
_chemical_formula_sum   'Sm3 Eu1 Tm4 O12'
_cell_volume   290.47142985
_cell_formula_units_Z   1
loop_
 _symmetry_equiv_pos_site_id
 _symmetry_equiv_pos_as_xyz
  1  'x, y, z'
loop_
 _atom_site_type_symbol
 _atom_site_label
 _atom_site_symmetry_multiplicity
 _atom_site_fract_x
 _atom_site_fract_y
 _atom_site_fract_z
 _atom_site_occupancy
  Eu  Eu0  1  0.98237096  0.05218700  0.25000000  1
  Sm  Sm1  1  0.48237098  0.44781300  0.74999999  1
  Sm  Sm2  1  0.51762898  0.55218700  0.25000000  1
  Sm  Sm3  1  0.01762900  0.94781300  0.74999999  1
  Tm  Tm4  1  0.49999998  0.00000000  -0.00000000  1
  Tm  Tm5  1  0.49999998  0.00000000  0.49999999  1
  Tm  Tm6  1  0.00000000  0.50000000  -0.00000000  1
  Tm  Tm7  1  0.00000000  0.50000000  0.49999999  1
  O  O8  1  0.63982197  0.07181000  0.74999999  1
  O  O9  1  0.18731599  0.19034800  0.57381699  1
  O  O10  1  0.18731599  0.19034800  0.92618298  1
  O  O11  1  0.68731597  0.30965200  0.42618299  1
  O  O12  1  0.68731597  0.30965200  0.07381700  1
  O  O13  1  0.13982199  0.42819000  0.25000000  1
  O  O14  1  0.86017797  0.57181000  0.74999999  1
  O  O15  1  0.31268399  0.69034800  0.92618298  1
  O  O16  1  0.31268399  0.69034800  0.57381699  1
  O  O17  1  0.81268397  0.80965200  0.07381700  1
  O  O18  1  0.81268397  0.80965200  0.42618299  1
  O  O19  1  0.36017799  0.92819000  0.25000000  1
