# generated using pymatgen
data_Na5Li(CuO6)2
_symmetry_space_group_name_H-M   'P 1'
_cell_length_a   5.85587406
_cell_length_b   6.07368851
_cell_length_c   7.62562990
_cell_angle_alpha   90.00000000
_cell_angle_beta   90.00000000
_cell_angle_gamma   100.86724091
_symmetry_Int_Tables_number   1
_chemical_formula_structural   Na5Li(CuO6)2
_chemical_formula_sum   'Na5 Li1 Cu2 O12'
_cell_volume   266.35505165
_cell_formula_units_Z   1
loop_
 _symmetry_equiv_pos_site_id
 _symmetry_equiv_pos_as_xyz
  1  'x, y, z'
loop_
 _atom_site_type_symbol
 _atom_site_label
 _atom_site_symmetry_multiplicity
 _atom_site_fract_x
 _atom_site_fract_y
 _atom_site_fract_z
 _atom_site_occupancy
  Li  Li0  1  0.03352300  0.06976900  0.25000000  1
  Na  Na1  1  0.52436196  0.56051000  0.25000000  1
  Na  Na2  1  0.47563797  0.43949000  0.75000001  1
  Na  Na3  1  0.96647693  0.93023099  0.75000001  1
  Na  Na4  1  -0.00000003  0.50000000  -0.00000000  1
  Na  Na5  1  -0.00000003  0.50000000  0.50000001  1
  Cu  Cu6  1  0.49999999  0.00000000  0.00000000  1
  Cu  Cu7  1  0.49999993  0.99999999  0.50000001  1
  O  O8  1  0.82636398  0.18372900  0.54956501  1
  O  O9  1  0.26774497  0.35788100  0.44820701  1
  O  O10  1  0.17363595  0.81627099  0.45043501  1
  O  O11  1  0.73225495  0.64211900  0.94820701  1
  O  O12  1  0.10556296  0.54094000  0.75000001  1
  O  O13  1  0.73225495  0.64211900  0.55179301  1
  O  O14  1  0.26774497  0.35788100  0.05179300  1
  O  O15  1  0.82636398  0.18372900  0.95043501  1
  O  O16  1  0.62060693  0.94773699  0.25000000  1
  O  O17  1  0.17363595  0.81627099  0.04956500  1
  O  O18  1  0.37939299  0.05226300  0.75000001  1
  O  O19  1  0.89443696  0.45906000  0.25000000  1
