# generated using pymatgen
data_LaInGa2(Mo2S3)2
_symmetry_space_group_name_H-M   'P 1'
_cell_length_a   4.51605892
_cell_length_b   9.75069237
_cell_length_c   9.75069237
_cell_angle_alpha   120.00000000
_cell_angle_beta   90.00000000
_cell_angle_gamma   90.00000000
_symmetry_Int_Tables_number   1
_chemical_formula_structural   LaInGa2(Mo2S3)2
_chemical_formula_sum   'La1 In1 Ga2 Mo4 S6'
_cell_volume   371.84431046
_cell_formula_units_Z   1
loop_
 _symmetry_equiv_pos_site_id
 _symmetry_equiv_pos_as_xyz
  1  'x, y, z'
loop_
 _atom_site_type_symbol
 _atom_site_label
 _atom_site_symmetry_multiplicity
 _atom_site_fract_x
 _atom_site_fract_y
 _atom_site_fract_z
 _atom_site_occupancy
  Ga  Ga0  1  0.25000000  0.33333332  0.66666664  1
  La  La1  1  0.75000001  0.66666664  0.33333332  1
  Ga  Ga2  1  0.25000000  0.85160397  0.01890500  1
  In  In3  1  0.25000000  0.16730099  0.14839599  1
  Mo  Mo4  1  0.25000000  0.98109496  0.83269897  1
  Mo  Mo5  1  0.75000001  0.14839599  0.98109497  1
  Mo  Mo6  1  0.75000001  0.83269897  0.85160397  1
  Mo  Mo7  1  0.75000001  0.01890500  0.16730099  1
  S  S8  1  0.25000000  0.66886098  0.70819298  1
  S  S9  1  0.25000000  0.03933200  0.33113899  1
  S  S10  1  0.25000000  0.29180699  0.96066797  1
  S  S11  1  0.75000001  0.33113899  0.29180699  1
  S  S12  1  0.75000001  0.96066796  0.66886098  1
  S  S13  1  0.75000001  0.70819297  0.03933200  1
