# generated using pymatgen
data_Li2H2SO5
_symmetry_space_group_name_H-M   'P 1'
_cell_length_a   4.90398979
_cell_length_b   5.55589390
_cell_length_c   8.26964569
_cell_angle_alpha   107.10825348
_cell_angle_beta   90.00000000
_cell_angle_gamma   90.00000000
_symmetry_Int_Tables_number   1
_chemical_formula_structural   Li2H2SO5
_chemical_formula_sum   'Li4 H4 S2 O10'
_cell_volume   215.34510530
_cell_formula_units_Z   2
loop_
 _symmetry_equiv_pos_site_id
 _symmetry_equiv_pos_as_xyz
  1  'x, y, z'
loop_
 _atom_site_type_symbol
 _atom_site_label
 _atom_site_symmetry_multiplicity
 _atom_site_fract_x
 _atom_site_fract_y
 _atom_site_fract_z
 _atom_site_occupancy
  Li  Li0  1  0.48942402  0.43973400  0.60510198  1
  Li  Li1  1  0.99902904  0.30331400  0.99321197  1
  Li  Li2  1  0.98942404  0.56026601  0.39489798  1
  Li  Li3  1  0.49902902  0.69668601  0.00678799  1
  H  H4  1  0.13347201  0.00493900  0.44037199  1
  H  H5  1  0.88548404  0.96970901  0.30954198  1
  H  H6  1  0.63347203  0.99506101  0.55962797  1
  H  H7  1  0.38548402  0.03029100  0.69045798  1
  S  S8  1  0.00262800  0.70667701  0.79151397  1
  S  S9  1  0.50262802  0.29332300  0.20848599  1
  O  O10  1  0.11258100  0.56479501  0.62160998  1
  O  O11  1  0.61258103  0.43520500  0.37838998  1
  O  O12  1  0.46302202  0.08711300  0.59817599  1
  O  O13  1  0.62392303  0.39900900  0.07801699  1
  O  O14  1  0.70028903  0.67314301  0.79031497  1
  O  O15  1  0.20028901  0.32685700  0.20968499  1
  O  O16  1  0.12392301  0.60099101  0.92198297  1
  O  O17  1  0.96302204  0.91288701  0.40182398  1
  O  O18  1  0.07534900  0.97639401  0.82860897  1
  O  O19  1  0.57534902  0.02360600  0.17139100  1
