# generated using pymatgen
data_Mn2CoO6
_symmetry_space_group_name_H-M   'P 1'
_cell_length_a   4.61332893
_cell_length_b   4.61332893
_cell_length_c   9.46445847
_cell_angle_alpha   90.00000000
_cell_angle_beta   90.00000000
_cell_angle_gamma   90.00000000
_symmetry_Int_Tables_number   1
_chemical_formula_structural   Mn2CoO6
_chemical_formula_sum   'Mn4 Co2 O12'
_cell_volume   201.43021308
_cell_formula_units_Z   2
loop_
 _symmetry_equiv_pos_site_id
 _symmetry_equiv_pos_as_xyz
  1  'x, y, z'
loop_
 _atom_site_type_symbol
 _atom_site_label
 _atom_site_symmetry_multiplicity
 _atom_site_fract_x
 _atom_site_fract_y
 _atom_site_fract_z
 _atom_site_occupancy
  Mn  Mn0  1  0.50000001  0.50000001  0.16606499  1
  Mn  Mn1  1  0.00000000  0.00000000  0.66606497  1
  Mn  Mn2  1  0.50000001  0.50000001  0.83137996  1
  Mn  Mn3  1  0.00000000  0.00000000  0.33137998  1
  Co  Co4  1  0.50000001  0.50000001  0.49908798  1
  Co  Co5  1  0.00000000  0.00000000  0.99908795  1
  O  O6  1  0.19670500  0.80329501  0.17599699  1
  O  O7  1  0.20531600  0.79468401  0.49121998  1
  O  O8  1  0.21398100  0.78601901  0.83451696  1
  O  O9  1  0.80329501  0.19670500  0.17599699  1
  O  O10  1  0.79468401  0.20531600  0.49121998  1
  O  O11  1  0.78601901  0.21398100  0.83451696  1
  O  O12  1  0.29468400  0.29468400  0.99121995  1
  O  O13  1  0.28601900  0.28601900  0.33451698  1
  O  O14  1  0.30329500  0.30329500  0.67599697  1
  O  O15  1  0.71398101  0.71398101  0.33451698  1
  O  O16  1  0.69670501  0.69670501  0.67599697  1
  O  O17  1  0.70531601  0.70531601  0.99121995  1
