# generated using pymatgen
data_CuMo(SeO3)4
_symmetry_space_group_name_H-M   'P 1'
_cell_length_a   4.87599087
_cell_length_b   6.90407038
_cell_length_c   8.44663525
_cell_angle_alpha   90.00000000
_cell_angle_beta   90.00000000
_cell_angle_gamma   109.35457611
_symmetry_Int_Tables_number   1
_chemical_formula_structural   CuMo(SeO3)4
_chemical_formula_sum   'Cu1 Mo1 Se4 O12'
_cell_volume   268.27929393
_cell_formula_units_Z   1
loop_
 _symmetry_equiv_pos_site_id
 _symmetry_equiv_pos_as_xyz
  1  'x, y, z'
loop_
 _atom_site_type_symbol
 _atom_site_label
 _atom_site_symmetry_multiplicity
 _atom_site_fract_x
 _atom_site_fract_y
 _atom_site_fract_z
 _atom_site_occupancy
  Mo  Mo0  1  0.00000005  0.50000003  0.49999999  1
  Cu  Cu1  1  0.50000011  1.00000005  0.99999997  1
  Se  Se2  1  0.31980203  0.17947201  0.64015498  1
  Se  Se3  1  0.18019804  0.32052802  0.14015500  1
  Se  Se4  1  0.68019810  0.82052804  0.35984499  1
  Se  Se5  1  0.81980209  0.67947204  0.85984497  1
  O  O6  1  0.26394902  0.09624901  0.15316300  1
  O  O7  1  0.23605105  0.40375102  0.65316298  1
  O  O8  1  0.73605111  0.90375105  0.84683698  1
  O  O9  1  0.76394908  0.59624903  0.34683699  1
  O  O10  1  0.84429705  0.24404801  0.05131500  1
  O  O11  1  0.65570304  0.25595201  0.55131498  1
  O  O12  1  0.91426409  0.67028604  0.66190698  1
  O  O13  1  0.58573610  0.82971404  0.16190700  1
  O  O14  1  0.08573603  0.32971402  0.33809299  1
  O  O15  1  0.41426403  0.17028601  0.83809298  1
  O  O16  1  0.34429708  0.74404804  0.44868499  1
  O  O17  1  0.15570308  0.75595204  0.94868497  1
