# generated using pymatgen
data_Te4MoPbSe10IBrClO
_symmetry_space_group_name_H-M   'P 1'
_cell_length_a   8.17154408
_cell_length_b   8.57027817
_cell_length_c   9.98508358
_cell_angle_alpha   89.61958313
_cell_angle_beta   66.96642303
_cell_angle_gamma   71.44607544
_symmetry_Int_Tables_number   1
_chemical_formula_structural   Te4MoPbSe10IBrClO
_chemical_formula_sum   'Te4 Mo1 Pb1 Se10 I1 Br1 Cl1 O1'
_cell_volume   604.48942781
_cell_formula_units_Z   1
loop_
 _symmetry_equiv_pos_site_id
 _symmetry_equiv_pos_as_xyz
  1  'x, y, z'
loop_
 _atom_site_type_symbol
 _atom_site_label
 _atom_site_symmetry_multiplicity
 _atom_site_fract_x
 _atom_site_fract_y
 _atom_site_fract_z
 _atom_site_occupancy
  Mo  Mo0  1  0.17362595  0.65290504  0.61199007  1
  Te  Te1  1  0.82637396  0.34709502  0.38801005  1
  Te  Te2  1  0.50422498  0.24415602  0.78042006  1
  Te  Te3  1  0.49577494  0.75584405  0.21958006  1
  Te  Te4  1  0.77213498  0.15605301  0.80651606  1
  Pb  Pb5  1  0.12054295  0.76629905  0.84366408  1
  Se  Se6  1  0.39113896  0.49101603  0.37303505  1
  Se  Se7  1  0.67174995  0.61838304  0.99602809  1
  Se  Se8  1  0.56975793  0.98215406  0.18481607  1
  Se  Se9  1  0.29684694  0.87125606  0.51861308  1
  O  O10  1  0.81558795  0.61055004  0.29936906  1
  Se  Se11  1  0.43024199  0.01784600  0.81518404  1
  Se  Se12  1  0.22786494  0.84394706  0.19348406  1
  Se  Se13  1  0.32824997  0.38161703  0.00397203  1
  Se  Se14  1  0.70315298  0.12874401  0.48138704  1
  I  I15  1  0.87945697  0.23370102  0.15633603  1
  Se  Se16  1  0.60886096  0.50898403  0.62696507  1
  Se  Se17  1  0.18441197  0.38945003  0.70063106  1
  Cl  Cl18  1  0.95985794  0.71745405  0.60451208  1
  Br  Br19  1  0.04014198  0.28254602  0.39548803  1
