# generated using pymatgen
data_BaCaTe2
_symmetry_space_group_name_H-M   'P 1'
_cell_length_a   4.65500784
_cell_length_b   4.65500784
_cell_length_c   8.69158936
_cell_angle_alpha   74.46730804
_cell_angle_beta   74.46730804
_cell_angle_gamma   60.00000000
_symmetry_Int_Tables_number   1
_chemical_formula_structural   BaCaTe2
_chemical_formula_sum   'Ba1 Ca1 Te2'
_cell_volume   155.11277937
_cell_formula_units_Z   1
loop_
 _symmetry_equiv_pos_site_id
 _symmetry_equiv_pos_as_xyz
  1  'x, y, z'
loop_
 _atom_site_type_symbol
 _atom_site_label
 _atom_site_symmetry_multiplicity
 _atom_site_fract_x
 _atom_site_fract_y
 _atom_site_fract_z
 _atom_site_occupancy
  Ba  Ba0  1  0.50000004  0.50000002  0.49999996  1
  Ca  Ca1  1  0.00000000  0.00000000  0.00000000  1
  Te  Te2  1  0.26143402  0.26143401  0.21569798  1
  Te  Te3  1  0.73856605  0.73856603  0.78430194  1
