# generated using pymatgen
data_Li2O2
_symmetry_space_group_name_H-M   'P 1'
_cell_length_a   3.20364690
_cell_length_b   4.48906708
_cell_length_c   6.33540154
_cell_angle_alpha   89.99996948
_cell_angle_beta   90.00001526
_cell_angle_gamma   90.00000000
_symmetry_Int_Tables_number   1
_chemical_formula_structural   Li2O2
_chemical_formula_sum   'Li4 O4'
_cell_volume   91.11185380
_cell_formula_units_Z   2
loop_
 _symmetry_equiv_pos_site_id
 _symmetry_equiv_pos_as_xyz
  1  'x, y, z'
loop_
 _atom_site_type_symbol
 _atom_site_label
 _atom_site_symmetry_multiplicity
 _atom_site_fract_x
 _atom_site_fract_y
 _atom_site_fract_z
 _atom_site_occupancy
  Li  Li0  1  0.50000201  0.49999799  0.74417698  1
  Li  Li1  1  0.00000300  0.00000200  0.00582300  1
  Li  Li2  1  0.49999901  0.49999999  0.24417597  1
  Li  Li3  1  0.99999702  0.99999898  0.50582394  1
  O  O4  1  0.00000000  0.49999999  0.49590899  1
  O  O5  1  0.49999901  0.00000000  0.75409600  1
  O  O6  1  0.00000000  0.50000099  0.99590400  1
  O  O7  1  0.50000001  0.00000000  0.25409099  1
