# generated using pymatgen
data_MnV2O6
_symmetry_space_group_name_H-M   'P 1'
_cell_length_a   5.10137892
_cell_length_b   5.35242224
_cell_length_c   9.20584393
_cell_angle_alpha   90.00000000
_cell_angle_beta   90.00000000
_cell_angle_gamma   90.00000000
_symmetry_Int_Tables_number   1
_chemical_formula_structural   MnV2O6
_chemical_formula_sum   'Mn2 V4 O12'
_cell_volume   251.36311927
_cell_formula_units_Z   2
loop_
 _symmetry_equiv_pos_site_id
 _symmetry_equiv_pos_as_xyz
  1  'x, y, z'
loop_
 _atom_site_type_symbol
 _atom_site_label
 _atom_site_symmetry_multiplicity
 _atom_site_fract_x
 _atom_site_fract_y
 _atom_site_fract_z
 _atom_site_occupancy
  Mn  Mn0  1  0.50000001  0.49999998  0.52492900  1
  Mn  Mn1  1  0.00000000  0.00000000  0.47507100  1
  V  V2  1  0.00000000  0.49999998  0.25998100  1
  V  V3  1  0.50000001  0.00000000  0.74001901  1
  V  V4  1  0.00000000  0.49999998  0.80698101  1
  V  V5  1  0.50000001  0.00000000  0.19301900  1
  O  O6  1  0.22056000  0.32600799  0.39686000  1
  O  O7  1  0.77944001  0.67399197  0.39686000  1
  O  O8  1  0.73719001  0.67937597  0.70586301  1
  O  O9  1  0.27944000  0.82600796  0.60314000  1
  O  O10  1  0.65690201  0.78757297  0.07982900  1
  O  O11  1  0.84309801  0.28757299  0.92017101  1
  O  O12  1  0.26281000  0.32062399  0.70586301  1
  O  O13  1  0.72056001  0.17399199  0.60314000  1
  O  O14  1  0.23719000  0.82062396  0.29413700  1
  O  O15  1  0.76281001  0.17937599  0.29413700  1
  O  O16  1  0.15690200  0.71242697  0.92017101  1
  O  O17  1  0.34309801  0.21242699  0.07982900  1
