# generated using pymatgen
data_Yb2SO2
_symmetry_space_group_name_H-M   'P 1'
_cell_length_a   4.03717184
_cell_length_b   4.03717136
_cell_length_c   6.86415911
_cell_angle_alpha   90.00000000
_cell_angle_beta   90.00000000
_cell_angle_gamma   120.00000000
_symmetry_Int_Tables_number   1
_chemical_formula_structural   Yb2SO2
_chemical_formula_sum   'Yb2 S1 O2'
_cell_volume   96.88853580
_cell_formula_units_Z   1
loop_
 _symmetry_equiv_pos_site_id
 _symmetry_equiv_pos_as_xyz
  1  'x, y, z'
loop_
 _atom_site_type_symbol
 _atom_site_label
 _atom_site_symmetry_multiplicity
 _atom_site_fract_x
 _atom_site_fract_y
 _atom_site_fract_z
 _atom_site_occupancy
  Yb  Yb0  1  0.66666667  0.33333334  0.72298599  1
  Yb  Yb1  1  0.33333330  0.66666667  0.27576500  1
  S  S2  1  0.00000000  0.00000000  0.99141398  1
  O  O3  1  0.66666667  0.33333334  0.37823299  1
  O  O4  1  0.33333330  0.66666667  0.63160099  1
