# generated using pymatgen
data_BaSr(CO3)2
_symmetry_space_group_name_H-M   'P 1'
_cell_length_a   5.17417812
_cell_length_b   6.07244921
_cell_length_c   8.49990273
_cell_angle_alpha   90.00000000
_cell_angle_beta   90.00000000
_cell_angle_gamma   90.00000000
_symmetry_Int_Tables_number   1
_chemical_formula_structural   BaSr(CO3)2
_chemical_formula_sum   'Ba2 Sr2 C4 O12'
_cell_volume   267.06638131
_cell_formula_units_Z   2
loop_
 _symmetry_equiv_pos_site_id
 _symmetry_equiv_pos_as_xyz
  1  'x, y, z'
loop_
 _atom_site_type_symbol
 _atom_site_label
 _atom_site_symmetry_multiplicity
 _atom_site_fract_x
 _atom_site_fract_y
 _atom_site_fract_z
 _atom_site_occupancy
  Ba  Ba0  1  0.24999999  0.25567999  0.91619103  1
  Ba  Ba1  1  0.74999998  0.24431999  0.41619101  1
  Sr  Sr2  1  0.74999998  0.74431997  0.08380900  1
  Sr  Sr3  1  0.24999999  0.75567997  0.58380902  1
  C  C4  1  0.24999999  0.41342999  0.25930701  1
  C  C5  1  0.74999998  0.58656998  0.74069302  1
  C  C6  1  0.74999998  0.08657000  0.75930702  1
  C  C7  1  0.24999999  0.91342997  0.24069301  1
  O  O8  1  0.96804098  0.08688600  0.68223402  1
  O  O9  1  0.46804099  0.41311399  0.18223401  1
  O  O10  1  0.46804099  0.91311397  0.31776601  1
  O  O11  1  0.74999998  0.59814098  0.58786302  1
  O  O12  1  0.74999998  0.09814100  0.91213703  1
  O  O13  1  0.53195899  0.08688600  0.68223402  1
  O  O14  1  0.24999999  0.90185897  0.08786300  1
  O  O15  1  0.24999999  0.40185899  0.41213701  1
  O  O16  1  0.53195899  0.58688598  0.81776603  1
  O  O17  1  0.96804098  0.58688598  0.81776603  1
  O  O18  1  0.03195900  0.41311399  0.18223401  1
  O  O19  1  0.03195900  0.91311397  0.31776601  1
