# generated using pymatgen
data_RbCO3
_symmetry_space_group_name_H-M   'P 1'
_cell_length_a   4.99733114
_cell_length_b   5.64344883
_cell_length_c   5.88572216
_cell_angle_alpha   90.00000000
_cell_angle_beta   90.00000000
_cell_angle_gamma   90.00000000
_symmetry_Int_Tables_number   1
_chemical_formula_structural   RbCO3
_chemical_formula_sum   'Rb2 C2 O6'
_cell_volume   165.99021102
_cell_formula_units_Z   2
loop_
 _symmetry_equiv_pos_site_id
 _symmetry_equiv_pos_as_xyz
  1  'x, y, z'
loop_
 _atom_site_type_symbol
 _atom_site_label
 _atom_site_symmetry_multiplicity
 _atom_site_fract_x
 _atom_site_fract_y
 _atom_site_fract_z
 _atom_site_occupancy
  Rb  Rb0  1  0.60032898  0.50000002  0.00000000  1
  Rb  Rb1  1  0.39967099  0.00000000  0.49999999  1
  C  C2  1  0.01045100  0.00000000  0.00000000  1
  C  C3  1  0.98954897  0.50000002  0.49999999  1
  O  O4  1  0.88424997  0.00000000  0.18697399  1
  O  O5  1  0.88424997  0.00000000  0.81302598  1
  O  O6  1  0.73458598  0.50000002  0.49999999  1
  O  O7  1  0.26541399  0.00000000  0.00000000  1
  O  O8  1  0.11575000  0.50000002  0.31302599  1
  O  O9  1  0.11575000  0.50000002  0.68697398  1
