# generated using pymatgen
data_InBi3(PbO3)4
_symmetry_space_group_name_H-M   'P 1'
_cell_length_a   7.61769247
_cell_length_b   7.61769247
_cell_length_c   7.61769247
_cell_angle_alpha   60.00000000
_cell_angle_beta   60.00000000
_cell_angle_gamma   60.00000000
_symmetry_Int_Tables_number   1
_chemical_formula_structural   InBi3(PbO3)4
_chemical_formula_sum   'In1 Bi3 Pb4 O12'
_cell_volume   312.57577040
_cell_formula_units_Z   1
loop_
 _symmetry_equiv_pos_site_id
 _symmetry_equiv_pos_as_xyz
  1  'x, y, z'
loop_
 _atom_site_type_symbol
 _atom_site_label
 _atom_site_symmetry_multiplicity
 _atom_site_fract_x
 _atom_site_fract_y
 _atom_site_fract_z
 _atom_site_occupancy
  Bi  Bi0  1  0.37500000  0.87500000  0.87500000  1
  In  In1  1  0.87500000  0.87500000  0.37500000  1
  Pb  Pb2  1  0.87500000  0.87500000  0.87500000  1
  Bi  Bi3  1  0.87500000  0.37500000  0.87500000  1
  Pb  Pb4  1  0.37500000  0.87500000  0.37500000  1
  Pb  Pb5  1  0.87500000  0.37500000  0.37500000  1
  Bi  Bi6  1  0.37500000  0.37500000  0.37500000  1
  Pb  Pb7  1  0.37500000  0.37500000  0.87500000  1
  O  O8  1  0.93530100  0.56469900  0.93530100  1
  O  O9  1  0.81469900  0.81469900  0.18530100  1
  O  O10  1  0.18530100  0.81469900  0.18530100  1
  O  O11  1  0.93530100  0.56469900  0.56469900  1
  O  O12  1  0.56469900  0.93530100  0.93530100  1
  O  O13  1  0.56469900  0.56469900  0.93530100  1
  O  O14  1  0.18530100  0.18530100  0.81469900  1
  O  O15  1  0.18530100  0.81469900  0.81469900  1
  O  O16  1  0.81469900  0.18530100  0.18530100  1
  O  O17  1  0.56469900  0.93530100  0.56469900  1
  O  O18  1  0.93530100  0.93530100  0.56469900  1
  O  O19  1  0.81469900  0.18530100  0.81469900  1
