# generated using pymatgen
data_BaMoO8
_symmetry_space_group_name_H-M   'P 1'
_cell_length_a   4.84677315
_cell_length_b   4.84677315
_cell_length_c   15.09780121
_cell_angle_alpha   89.15518188
_cell_angle_beta   89.15518188
_cell_angle_gamma   65.27073669
_symmetry_Int_Tables_number   1
_chemical_formula_structural   BaMoO8
_chemical_formula_sum   'Ba2 Mo2 O16'
_cell_volume   322.09149870
_cell_formula_units_Z   2
loop_
 _symmetry_equiv_pos_site_id
 _symmetry_equiv_pos_as_xyz
  1  'x, y, z'
loop_
 _atom_site_type_symbol
 _atom_site_label
 _atom_site_symmetry_multiplicity
 _atom_site_fract_x
 _atom_site_fract_y
 _atom_site_fract_z
 _atom_site_occupancy
  Ba  Ba0  1  0.05966794  0.94033206  0.24999998  1
  Ba  Ba1  1  0.94033203  0.05966800  0.74999998  1
  Mo  Mo2  1  0.00000000  0.00000000  0.00000000  1
  Mo  Mo3  1  0.00000000  0.00000000  0.50000000  1
  O  O4  1  0.35681999  0.35726302  0.09362799  1
  O  O5  1  0.35726299  0.35682002  0.59362799  1
  O  O6  1  0.64273698  0.64318004  0.40637198  1
  O  O7  1  0.64317998  0.64273704  0.90637198  1
  O  O8  1  0.75095002  0.16044801  0.10574698  1
  O  O9  1  0.83955201  0.24905001  0.39425298  1
  O  O10  1  0.24904996  0.83955205  0.89425298  1
  O  O11  1  0.16044796  0.75095005  0.60574698  1
  O  O12  1  0.31835597  0.73463004  0.08178598  1
  O  O13  1  0.26536997  0.68164404  0.41821398  1
  O  O14  1  0.68164401  0.26537002  0.91821399  1
  O  O15  1  0.73463001  0.31835602  0.58178598  1
  O  O16  1  0.36419500  0.24181201  0.70051299  1
  O  O17  1  0.75818799  0.63580504  0.79948698  1
  O  O18  1  0.63580498  0.75818805  0.29948697  1
  O  O19  1  0.24181199  0.36419502  0.20051299  1
