# generated using pymatgen
data_CsCaNbTeMo4(PbO)2
_symmetry_space_group_name_H-M   'P 1'
_cell_length_a   7.57720280
_cell_length_b   7.83465052
_cell_length_c   8.12521362
_cell_angle_alpha   94.50718689
_cell_angle_beta   93.60379791
_cell_angle_gamma   101.10452271
_symmetry_Int_Tables_number   1
_chemical_formula_structural   CsCaNbTeMo4(PbO)2
_chemical_formula_sum   'Cs1 Ca1 Nb1 Te1 Mo4 Pb2 O2'
_cell_volume   470.35454535
_cell_formula_units_Z   1
loop_
 _symmetry_equiv_pos_site_id
 _symmetry_equiv_pos_as_xyz
  1  'x, y, z'
loop_
 _atom_site_type_symbol
 _atom_site_label
 _atom_site_symmetry_multiplicity
 _atom_site_fract_x
 _atom_site_fract_y
 _atom_site_fract_z
 _atom_site_occupancy
  Cs  Cs0  1  0.00000001  0.50000000  0.49999999  1
  Ca  Ca1  1  0.00000000  0.00000000  0.00000000  1
  Nb  Nb2  1  0.67853803  0.76220300  0.83669598  1
  Mo  Mo3  1  0.32146201  0.23779700  0.16330399  1
  Pb  Pb4  1  0.73085403  0.30700200  0.55917099  1
  Pb  Pb5  1  0.26914602  0.69299800  0.44082897  1
  Mo  Mo6  1  0.50962903  0.76374300  0.07483096  1
  Mo  Mo7  1  0.49037102  0.23625700  0.92516901  1
  Mo  Mo8  1  0.84995604  0.75707200  0.53882697  1
  Te  Te9  1  0.15004401  0.24292800  0.46117300  1
  O  O10  1  0.89618403  0.46750500  0.21445297  1
  O  O11  1  0.10381601  0.53249500  0.78554699  1
