# generated using pymatgen
data_Li3Al(PO4)2
_symmetry_space_group_name_H-M   'P 1'
_cell_length_a   4.93514776
_cell_length_b   4.93514776
_cell_length_c   7.54890919
_cell_angle_alpha   90.00000763
_cell_angle_beta   89.99999237
_cell_angle_gamma   90.00000000
_symmetry_Int_Tables_number   1
_chemical_formula_structural   Li3Al(PO4)2
_chemical_formula_sum   'Li3 Al1 P2 O8'
_cell_volume   183.85884245
_cell_formula_units_Z   1
loop_
 _symmetry_equiv_pos_site_id
 _symmetry_equiv_pos_as_xyz
  1  'x, y, z'
loop_
 _atom_site_type_symbol
 _atom_site_label
 _atom_site_symmetry_multiplicity
 _atom_site_fract_x
 _atom_site_fract_y
 _atom_site_fract_z
 _atom_site_occupancy
  Li  Li0  1  0.50000002  0.50000002  0.00000000  1
  Li  Li1  1  0.00000000  0.00000000  0.49999999  1
  Li  Li2  1  0.50000002  0.50000002  0.49999999  1
  Al  Al3  1  0.00000000  0.00000000  0.00000000  1
  P  P4  1  0.50000002  0.00000000  0.74999998  1
  P  P5  1  -0.00000000  0.50000002  0.24999999  1
  O  O6  1  0.67827903  0.81117804  0.86726298  1
  O  O7  1  0.17827901  0.31117801  0.36726299  1
  O  O8  1  0.68882103  0.17827901  0.63273698  1
  O  O9  1  0.18882101  0.67827903  0.13273700  1
  O  O10  1  0.32172102  0.18882101  0.86726298  1
  O  O11  1  0.82172104  0.68882103  0.36726299  1
  O  O12  1  0.31117801  0.82172104  0.63273698  1
  O  O13  1  0.81117804  0.32172102  0.13273700  1
