# generated using pymatgen
data_CoPtWO5
_symmetry_space_group_name_H-M   'P 1'
_cell_length_a   5.41013670
_cell_length_b   5.41013670
_cell_length_c   5.56924391
_cell_angle_alpha   60.94063950
_cell_angle_beta   60.94063950
_cell_angle_gamma   59.99999619
_symmetry_Int_Tables_number   1
_chemical_formula_structural   CoPtWO5
_chemical_formula_sum   'Co1 Pt1 W1 O5'
_cell_volume   116.87678305
_cell_formula_units_Z   1
loop_
 _symmetry_equiv_pos_site_id
 _symmetry_equiv_pos_as_xyz
  1  'x, y, z'
loop_
 _atom_site_type_symbol
 _atom_site_label
 _atom_site_symmetry_multiplicity
 _atom_site_fract_x
 _atom_site_fract_y
 _atom_site_fract_z
 _atom_site_occupancy
  Co  Co0  1  0.50000002  0.49999997  0.49999998  1
  Pt  Pt1  1  0.00000000  0.00000000  0.00000000  1
  W  W2  1  0.83996902  0.66081797  0.25111695  1
  O  O3  1  0.24809605  0.83996896  0.25111696  1
  O  O4  1  0.33918204  0.75190396  0.74888297  1
  O  O5  1  0.75190399  0.16003099  0.74888299  1
  O  O6  1  0.16003102  0.33918198  0.74888300  1
  O  O7  1  0.66081800  0.24809599  0.25111698  1
