# generated using pymatgen
data_CeMg5N8O
_symmetry_space_group_name_H-M   'P 1'
_cell_length_a   3.39182591
_cell_length_b   7.09097052
_cell_length_c   8.41996574
_cell_angle_alpha   100.16284180
_cell_angle_beta   90.00000000
_cell_angle_gamma   103.83727264
_symmetry_Int_Tables_number   1
_chemical_formula_structural   CeMg5N8O
_chemical_formula_sum   'Ce1 Mg5 N8 O1'
_cell_volume   193.36042908
_cell_formula_units_Z   1
loop_
 _symmetry_equiv_pos_site_id
 _symmetry_equiv_pos_as_xyz
  1  'x, y, z'
loop_
 _atom_site_type_symbol
 _atom_site_label
 _atom_site_symmetry_multiplicity
 _atom_site_fract_x
 _atom_site_fract_y
 _atom_site_fract_z
 _atom_site_occupancy
  Ce  Ce0  1  0.36479905  0.72959803  0.51235104  1
  Mg  Mg1  1  0.69175704  0.38351402  0.13715902  1
  Mg  Mg2  1  0.96820307  0.93640604  0.18539904  1
  Mg  Mg3  1  0.63520103  0.27040201  0.48764902  1
  Mg  Mg4  1  0.03179700  0.06359400  0.81460102  1
  Mg  Mg5  1  0.30824304  0.61648603  0.86284104  1
  N  N6  1  0.79257705  0.58515403  0.37765203  1
  N  N7  1  0.87275906  0.74551803  0.71910004  1
  N  N8  1  0.82575405  0.65150803  0.03176202  1
  N  N9  1  0.53040702  0.06081400  0.65755202  1
  N  N10  1  0.17424602  0.34849202  0.96823803  1
  N  N11  1  0.12724102  0.25448201  0.28090002  1
  N  N12  1  0.20742303  0.41484602  0.62234803  1
  N  N13  1  0.50000001  0.00000000  0.00000000  1
  O  O14  1  0.46959306  0.93918604  0.34244804  1
