# generated using pymatgen
data_Li6Cr2CuS9
_symmetry_space_group_name_H-M   'P 1'
_cell_length_a   6.12541723
_cell_length_b   6.12541723
_cell_length_c   11.25337982
_cell_angle_alpha   96.93346405
_cell_angle_beta   99.23600769
_cell_angle_gamma   118.90488434
_symmetry_Int_Tables_number   1
_chemical_formula_structural   Li6Cr2CuS9
_chemical_formula_sum   'Li6 Cr2 Cu1 S9'
_cell_volume   355.10510496
_cell_formula_units_Z   1
loop_
 _symmetry_equiv_pos_site_id
 _symmetry_equiv_pos_as_xyz
  1  'x, y, z'
loop_
 _atom_site_type_symbol
 _atom_site_label
 _atom_site_symmetry_multiplicity
 _atom_site_fract_x
 _atom_site_fract_y
 _atom_site_fract_z
 _atom_site_occupancy
  Li  Li0  1  0.73166403  0.17545901  0.17551603  1
  Li  Li1  1  0.50005702  0.44385201  0.67551605  1
  Li  Li2  1  0.49994302  0.55614802  0.32448404  1
  Li  Li3  1  0.26833601  0.82454103  0.82448405  1
  Li  Li4  1  0.98518703  0.75087503  0.05782505  1
  Li  Li5  1  0.19305000  0.92736203  0.44217504  1
  Cr  Cr6  1  0.80695003  0.07263800  0.55782504  1
  Cr  Cr7  1  0.01481300  0.24912501  0.94217503  1
  S  S8  1  0.17314701  0.28569501  0.46096703  1
  Cu  Cu9  1  0.67527203  0.28782001  0.96096706  1
  S  S10  1  0.54989002  0.02087400  0.36243703  1
  S  S11  1  0.89390803  0.64390802  0.25000005  1
  S  S12  1  0.15843701  0.18745301  0.13756301  1
  S  S13  1  0.84156303  0.81254703  0.86243707  1
  S  S14  1  0.10609200  0.35609201  0.75000003  1
  S  S15  1  0.45011001  0.97912603  0.63756306  1
  S  S16  1  0.32472801  0.71218002  0.03903303  1
  S  S17  1  0.82685303  0.71430502  0.53903306  1
