# generated using pymatgen
data_Tl2BrF3
_symmetry_space_group_name_H-M   'P 1'
_cell_length_a   4.10789394
_cell_length_b   4.10789394
_cell_length_c   15.34292698
_cell_angle_alpha   90.00000000
_cell_angle_beta   90.00000000
_cell_angle_gamma   90.00000000
_symmetry_Int_Tables_number   1
_chemical_formula_structural   Tl2BrF3
_chemical_formula_sum   'Tl4 Br2 F6'
_cell_volume   258.90871147
_cell_formula_units_Z   2
loop_
 _symmetry_equiv_pos_site_id
 _symmetry_equiv_pos_as_xyz
  1  'x, y, z'
loop_
 _atom_site_type_symbol
 _atom_site_label
 _atom_site_symmetry_multiplicity
 _atom_site_fract_x
 _atom_site_fract_y
 _atom_site_fract_z
 _atom_site_occupancy
  Tl  Tl0  1  0.50000001  0.50000001  0.57918600  1
  Tl  Tl1  1  0.00000000  0.00000000  0.41979600  1
  Tl  Tl2  1  0.00000000  0.00000000  0.92282800  1
  Tl  Tl3  1  0.50000001  0.50000001  0.07412700  1
  Br  Br4  1  0.50000001  0.50000001  0.31902500  1
  Br  Br5  1  0.50000001  0.50000001  0.82158100  1
  F  F6  1  0.00000000  0.00000000  0.17696900  1
  F  F7  1  0.00000000  0.00000000  0.68127200  1
  F  F8  1  0.50000001  0.00000000  0.00257800  1
  F  F9  1  0.50000001  0.00000000  0.50003000  1
  F  F10  1  -0.00000000  0.50000001  0.00257800  1
  F  F11  1  -0.00000000  0.50000001  0.50003000  1
