# generated using pymatgen
data_Li6PO8
_symmetry_space_group_name_H-M   'P 1'
_cell_length_a   5.05634689
_cell_length_b   5.33980417
_cell_length_c   6.43037033
_cell_angle_alpha   89.72222900
_cell_angle_beta   89.55685425
_cell_angle_gamma   89.38062286
_symmetry_Int_Tables_number   1
_chemical_formula_structural   Li6PO8
_chemical_formula_sum   'Li6 P1 O8'
_cell_volume   173.60206247
_cell_formula_units_Z   1
loop_
 _symmetry_equiv_pos_site_id
 _symmetry_equiv_pos_as_xyz
  1  'x, y, z'
loop_
 _atom_site_type_symbol
 _atom_site_label
 _atom_site_symmetry_multiplicity
 _atom_site_fract_x
 _atom_site_fract_y
 _atom_site_fract_z
 _atom_site_occupancy
  Li  Li0  1  0.49653101  0.17021299  0.99431499  1
  Li  Li1  1  0.99472201  0.81835097  0.50042401  1
  Li  Li2  1  0.00619000  0.34633199  0.24133302  1
  Li  Li3  1  0.99261001  0.82413597  0.98443001  1
  Li  Li4  1  0.49929801  0.17130899  0.49737399  1
  Li  Li5  1  0.99829902  0.32248499  0.74574399  1
  P  P6  1  0.48911100  0.68491498  0.24739302  1
  O  O7  1  0.10514000  0.18535199  0.96027201  1
  O  O8  1  0.67647101  0.26601999  0.73299799  1
  O  O9  1  0.05629199  0.61859398  0.74173903  1
  O  O10  1  0.12555900  0.18878599  0.52925301  1
  O  O11  1  0.59220300  0.83990597  0.45479902  1
  O  O12  1  0.59360701  0.38643099  0.26911100  1
  O  O13  1  0.16361499  0.68648398  0.24264803  1
  O  O14  1  0.61229100  0.82457697  0.04531402  1
