# generated using pymatgen
data_ErMgMoO9
_symmetry_space_group_name_H-M   'P 1'
_cell_length_a   5.75094032
_cell_length_b   5.75094032
_cell_length_c   5.75094032
_cell_angle_alpha   106.72123718
_cell_angle_beta   106.72123718
_cell_angle_gamma   115.12337494
_symmetry_Int_Tables_number   1
_chemical_formula_structural   ErMgMoO9
_chemical_formula_sum   'Er1 Mg1 Mo1 O9'
_cell_volume   145.33886015
_cell_formula_units_Z   1
loop_
 _symmetry_equiv_pos_site_id
 _symmetry_equiv_pos_as_xyz
  1  'x, y, z'
loop_
 _atom_site_type_symbol
 _atom_site_label
 _atom_site_symmetry_multiplicity
 _atom_site_fract_x
 _atom_site_fract_y
 _atom_site_fract_z
 _atom_site_occupancy
  Er  Er0  1  0.74999994  0.24999997  0.49999991  1
  Mg  Mg1  1  0.00000000  0.00000000  0.00000000  1
  Mo  Mo2  1  0.49999993  0.49999995  -0.00000008  1
  O  O3  1  0.24999992  0.74999992  0.49999989  1
  O  O4  1  0.12616097  0.31956397  0.80659693  1
  O  O5  1  0.06956393  0.76296692  0.69340289  1
  O  O6  1  0.06956396  0.37616096  0.30659695  1
  O  O7  1  0.51296694  0.31956397  0.19340293  1
  O  O8  1  0.62383889  0.93043590  0.69340284  1
  O  O9  1  0.68043592  0.48703295  0.80659688  1
  O  O10  1  0.68043589  0.87383891  0.19340286  1
  O  O11  1  0.23703291  0.93043590  0.30659688  1
