# generated using pymatgen
data_Ga2Cu2Te3Se
_symmetry_space_group_name_H-M   'P 1'
_cell_length_a   6.00376081
_cell_length_b   6.00956964
_cell_length_c   7.34298182
_cell_angle_alpha   114.01258850
_cell_angle_beta   113.97438812
_cell_angle_gamma   90.31571198
_symmetry_Int_Tables_number   1
_chemical_formula_structural   Ga2Cu2Te3Se
_chemical_formula_sum   'Ga2 Cu2 Te3 Se1'
_cell_volume   216.44498461
_cell_formula_units_Z   1
loop_
 _symmetry_equiv_pos_site_id
 _symmetry_equiv_pos_as_xyz
  1  'x, y, z'
loop_
 _atom_site_type_symbol
 _atom_site_label
 _atom_site_symmetry_multiplicity
 _atom_site_fract_x
 _atom_site_fract_y
 _atom_site_fract_z
 _atom_site_occupancy
  Ga  Ga0  1  0.50876401  0.50879301  0.01774001  1
  Ga  Ga1  1  0.74163502  0.24164800  0.48331198  1
  Cu  Cu2  1  0.24186200  0.74183301  0.48378500  1
  Cu  Cu3  1  0.00957500  0.00955900  0.01900600  1
  Te  Te4  1  0.63173401  0.64346601  0.73879299  1
  Te  Te5  1  0.10699200  0.09534200  0.73867798  1
  Se  Se6  1  0.36300201  0.89390602  0.25936501  1
  Te  Te7  1  0.89643602  0.36545201  0.25932099  1
