# generated using pymatgen
data_KSiAu(BrCl3)2
_symmetry_space_group_name_H-M   'P 1'
_cell_length_a   6.12869215
_cell_length_b   6.52572584
_cell_length_c   6.52572584
_cell_angle_alpha   82.15907288
_cell_angle_beta   82.92773438
_cell_angle_gamma   97.07226562
_symmetry_Int_Tables_number   1
_chemical_formula_structural   KSiAu(BrCl3)2
_chemical_formula_sum   'K1 Si1 Au1 Br2 Cl6'
_cell_volume   253.97183205
_cell_formula_units_Z   1
loop_
 _symmetry_equiv_pos_site_id
 _symmetry_equiv_pos_as_xyz
  1  'x, y, z'
loop_
 _atom_site_type_symbol
 _atom_site_label
 _atom_site_symmetry_multiplicity
 _atom_site_fract_x
 _atom_site_fract_y
 _atom_site_fract_z
 _atom_site_occupancy
  K  K0  1  0.50000003  0.89222701  0.89222701  1
  Si  Si1  1  0.00000001  0.49798100  0.49798101  1
  Au  Au2  1  0.08153001  0.36781600  0.94582901  1
  Cl  Cl3  1  0.91847003  0.94582901  0.36781600  1
  Cl  Cl4  1  0.81223802  0.48625300  0.84859100  1
  Cl  Cl5  1  0.76126101  0.16070900  0.50317999  1
  Br  Br6  1  0.28779201  0.36977800  0.67664800  1
  Cl  Cl7  1  0.00000000  0.03524700  0.03524700  1
  Br  Br8  1  0.71220803  0.67664800  0.36977800  1
  Cl  Cl9  1  0.23873901  0.50318000  0.16070900  1
  Cl  Cl10  1  0.18776202  0.84859101  0.48625301  1
