# generated using pymatgen
data_Sr2LiCa7SiP6W
_symmetry_space_group_name_H-M   'P 1'
_cell_length_a   6.55965996
_cell_length_b   8.27064228
_cell_length_c   8.27064133
_cell_angle_alpha   120.00000000
_cell_angle_beta   90.00000000
_cell_angle_gamma   90.00000000
_symmetry_Int_Tables_number   1
_chemical_formula_structural   Sr2LiCa7SiP6W
_chemical_formula_sum   'Sr2 Li1 Ca7 Si1 P6 W1'
_cell_volume   388.58889293
_cell_formula_units_Z   1
loop_
 _symmetry_equiv_pos_site_id
 _symmetry_equiv_pos_as_xyz
  1  'x, y, z'
loop_
 _atom_site_type_symbol
 _atom_site_label
 _atom_site_symmetry_multiplicity
 _atom_site_fract_x
 _atom_site_fract_y
 _atom_site_fract_z
 _atom_site_occupancy
  Li  Li0  1  0.50000000  0.66666662  0.33333327  1
  Sr  Sr1  1  0.50000000  0.33333331  0.66666662  1
  Sr  Sr2  1  -0.00000000  0.33333331  0.66666662  1
  Ca  Ca3  1  -0.00000000  0.66666662  0.33333327  1
  Ca  Ca4  1  0.75000000  0.00000000  0.75106998  1
  Ca  Ca5  1  0.75000000  0.75106995  -0.00000006  1
  Ca  Ca6  1  0.75000000  0.24892998  0.24892997  1
  Ca  Ca7  1  0.25000000  0.00000000  0.24892999  1
  Ca  Ca8  1  0.25000000  0.24892998  0.99999995  1
  Si  Si9  1  0.25000000  0.75106995  0.75106992  1
  P  P10  1  0.75000000  0.00000000  0.39091099  1
  P  P11  1  0.75000000  0.39091097  -0.00000003  1
  P  P12  1  0.75000000  0.60908896  0.60908894  1
  P  P13  1  0.25000000  0.00000000  0.60908898  1
  P  P14  1  0.25000000  0.60908896  0.99999992  1
  P  P15  1  0.25000000  0.39091097  0.39091096  1
  W  W16  1  0.50000000  0.00000000  -0.00000000  1
  Ca  Ca17  1  0.00000000  0.00000000  0.00000000  1
