# generated using pymatgen
data_AgBrO3
_symmetry_space_group_name_H-M   'P 1'
_cell_length_a   4.30914688
_cell_length_b   4.31111145
_cell_length_c   4.31322098
_cell_angle_alpha   89.79987335
_cell_angle_beta   89.52549744
_cell_angle_gamma   89.92994690
_symmetry_Int_Tables_number   1
_chemical_formula_structural   AgBrO3
_chemical_formula_sum   'Ag1 Br1 O3'
_cell_volume   80.12432885
_cell_formula_units_Z   1
loop_
 _symmetry_equiv_pos_site_id
 _symmetry_equiv_pos_as_xyz
  1  'x, y, z'
loop_
 _atom_site_type_symbol
 _atom_site_label
 _atom_site_symmetry_multiplicity
 _atom_site_fract_x
 _atom_site_fract_y
 _atom_site_fract_z
 _atom_site_occupancy
  Ag  Ag0  1  0.48747701  0.49850997  0.49493702  1
  Br  Br1  1  0.99604403  0.99646595  0.99061404  1
  O  O2  1  0.48276101  0.99927395  0.49929004  1
  O  O3  1  0.98660003  0.50556097  0.50858601  1
  O  O4  1  0.48711801  0.50018397  0.99657503  1
