# generated using pymatgen
data_Tb(BeP)2
_symmetry_space_group_name_H-M   'P 1'
_cell_length_a   3.64360595
_cell_length_b   3.64360666
_cell_length_c   6.39976311
_cell_angle_alpha   90.00000000
_cell_angle_beta   90.00000000
_cell_angle_gamma   119.99999237
_symmetry_Int_Tables_number   1
_chemical_formula_structural   Tb(BeP)2
_chemical_formula_sum   'Tb1 Be2 P2'
_cell_volume   73.57960524
_cell_formula_units_Z   1
loop_
 _symmetry_equiv_pos_site_id
 _symmetry_equiv_pos_as_xyz
  1  'x, y, z'
loop_
 _atom_site_type_symbol
 _atom_site_label
 _atom_site_symmetry_multiplicity
 _atom_site_fract_x
 _atom_site_fract_y
 _atom_site_fract_z
 _atom_site_occupancy
  Tb  Tb0  1  0.00000000  0.00000000  0.49999999  1
  Be  Be1  1  0.66666666  0.33333332  0.13139600  1
  Be  Be2  1  0.33333330  0.66666663  0.86860399  1
  P  P3  1  0.66666666  0.33333332  0.77946299  1
  P  P4  1  0.33333330  0.66666663  0.22053700  1
