# generated using pymatgen
data_Li2CoO3
_symmetry_space_group_name_H-M   'P 1'
_cell_length_a   2.89540005
_cell_length_b   5.06852674
_cell_length_c   7.67311573
_cell_angle_alpha   72.07609558
_cell_angle_beta   79.38453674
_cell_angle_gamma   89.75341797
_symmetry_Int_Tables_number   1
_chemical_formula_structural   Li2CoO3
_chemical_formula_sum   'Li4 Co2 O6'
_cell_volume   105.14190294
_cell_formula_units_Z   2
loop_
 _symmetry_equiv_pos_site_id
 _symmetry_equiv_pos_as_xyz
  1  'x, y, z'
loop_
 _atom_site_type_symbol
 _atom_site_label
 _atom_site_symmetry_multiplicity
 _atom_site_fract_x
 _atom_site_fract_y
 _atom_site_fract_z
 _atom_site_occupancy
  Li  Li0  1  0.66284897  0.48752301  0.17652300  1
  Li  Li1  1  -0.00000003  0.50000001  0.50000001  1
  Li  Li2  1  0.33715097  0.51247701  0.82347700  1
  Li  Li3  1  0.50000000  0.00000000  0.49999998  1
  Co  Co4  1  0.83409594  0.99336802  0.82449901  1
  Co  Co5  1  0.16590400  0.00663200  0.17550099  1
  O  O6  1  0.25675196  0.78632501  0.98808801  1
  O  O7  1  0.59979395  0.77758001  0.31252102  1
  O  O8  1  0.90495995  0.76064301  0.68300500  1
  O  O9  1  0.09503999  0.23935700  0.31699500  1
  O  O10  1  0.40020599  0.22242000  0.68747899  1
  O  O11  1  0.74324798  0.21367500  0.01191199  1
