# generated using pymatgen
data_Ba2SrLaBiTePbS3
_symmetry_space_group_name_H-M   'P 1'
_cell_length_a   4.44423819
_cell_length_b   4.44423819
_cell_length_c   15.87831497
_cell_angle_alpha   98.04476929
_cell_angle_beta   98.04476929
_cell_angle_gamma   90.00000000
_symmetry_Int_Tables_number   1
_chemical_formula_structural   Ba2SrLaBiTePbS3
_chemical_formula_sum   'Ba2 Sr1 La1 Bi1 Te1 Pb1 S3'
_cell_volume   307.41304420
_cell_formula_units_Z   1
loop_
 _symmetry_equiv_pos_site_id
 _symmetry_equiv_pos_as_xyz
  1  'x, y, z'
loop_
 _atom_site_type_symbol
 _atom_site_label
 _atom_site_symmetry_multiplicity
 _atom_site_fract_x
 _atom_site_fract_y
 _atom_site_fract_z
 _atom_site_occupancy
  Ba  Ba0  1  0.40273799  0.40273799  0.80547600  1
  Sr  Sr1  1  0.80181098  0.80181097  0.60362202  1
  La  La2  1  0.19818900  0.19818899  0.39637800  1
  Ba  Ba3  1  0.59726199  0.59726198  0.19452401  1
  Te  Te4  1  0.00000000  0.00000000  0.00000000  1
  Bi  Bi5  1  0.09370100  0.09370100  0.18740200  1
  Pb  Pb6  1  0.49999999  0.49999998  0.00000001  1
  S  S7  1  0.90629898  0.90629897  0.81259802  1
  S  S8  1  0.30034599  0.30034599  0.60069200  1
  S  S9  1  0.69965399  0.69965398  0.39930802  1
