# generated using pymatgen
data_BaCd2Te2Se
_symmetry_space_group_name_H-M   'P 1'
_cell_length_a   4.65586281
_cell_length_b   4.65586281
_cell_length_c   10.85307789
_cell_angle_alpha   90.00000000
_cell_angle_beta   90.00000000
_cell_angle_gamma   90.00000000
_symmetry_Int_Tables_number   1
_chemical_formula_structural   BaCd2Te2Se
_chemical_formula_sum   'Ba1 Cd2 Te2 Se1'
_cell_volume   235.26280417
_cell_formula_units_Z   1
loop_
 _symmetry_equiv_pos_site_id
 _symmetry_equiv_pos_as_xyz
  1  'x, y, z'
loop_
 _atom_site_type_symbol
 _atom_site_label
 _atom_site_symmetry_multiplicity
 _atom_site_fract_x
 _atom_site_fract_y
 _atom_site_fract_z
 _atom_site_occupancy
  Ba  Ba0  1  0.50000002  0.50000002  0.50000001  1
  Cd  Cd1  1  0.50000002  0.00000000  0.13923500  1
  Cd  Cd2  1  0.00000000  0.50000002  0.86076501  1
  Te  Te3  1  0.00000000  0.00000000  0.28844200  1
  Se  Se4  1  0.00000000  0.00000000  0.71155801  1
  Te  Te5  1  0.50000002  0.50000002  0.00000000  1
