# generated using pymatgen
data_Na2NbWO8
_symmetry_space_group_name_H-M   'P 1'
_cell_length_a   5.44319534
_cell_length_b   5.49978733
_cell_length_c   7.24266720
_cell_angle_alpha   112.28413391
_cell_angle_beta   112.04212189
_cell_angle_gamma   90.07313538
_symmetry_Int_Tables_number   1
_chemical_formula_structural   Na2NbWO8
_chemical_formula_sum   'Na2 Nb1 W1 O8'
_cell_volume   183.33769253
_cell_formula_units_Z   1
loop_
 _symmetry_equiv_pos_site_id
 _symmetry_equiv_pos_as_xyz
  1  'x, y, z'
loop_
 _atom_site_type_symbol
 _atom_site_label
 _atom_site_symmetry_multiplicity
 _atom_site_fract_x
 _atom_site_fract_y
 _atom_site_fract_z
 _atom_site_occupancy
  Na  Na0  1  0.37593409  0.62593411  0.75186817  1
  Na  Na1  1  0.62406590  0.37406591  0.24813175  1
  W  W2  1  0.87192488  0.12192488  0.74384971  1
  Nb  Nb3  1  0.12807510  0.87807514  0.25615021  1
  O  O4  1  0.80739839  0.66022822  0.09366686  1
  O  O5  1  0.71373148  0.06656128  0.90633304  1
  O  O6  1  0.34883124  0.71999028  0.41640171  1
  O  O7  1  0.06757050  0.19641148  0.41640174  1
  O  O8  1  0.93242949  0.80358854  0.58359817  1
  O  O9  1  0.19260159  0.33977180  0.90633306  1
  O  O10  1  0.28626850  0.93343874  0.09366688  1
  O  O11  1  0.65116875  0.28000974  0.58359821  1
