# generated using pymatgen
data_Li4MnO5
_symmetry_space_group_name_H-M   'P 1'
_cell_length_a   5.27970123
_cell_length_b   6.30534315
_cell_length_c   6.90540695
_cell_angle_alpha   107.61089325
_cell_angle_beta   96.48226166
_cell_angle_gamma   107.23584747
_symmetry_Int_Tables_number   1
_chemical_formula_structural   Li4MnO5
_chemical_formula_sum   'Li8 Mn2 O10'
_cell_volume   204.02430522
_cell_formula_units_Z   2
loop_
 _symmetry_equiv_pos_site_id
 _symmetry_equiv_pos_as_xyz
  1  'x, y, z'
loop_
 _atom_site_type_symbol
 _atom_site_label
 _atom_site_symmetry_multiplicity
 _atom_site_fract_x
 _atom_site_fract_y
 _atom_site_fract_z
 _atom_site_occupancy
  Li  Li0  1  0.61992796  0.71152298  0.20146800  1
  Li  Li1  1  0.38007198  0.28847699  0.79853200  1
  Li  Li2  1  0.20530297  0.90290098  0.38869800  1
  Li  Li3  1  -0.00000001  0.49999999  -0.00000000  1
  Li  Li4  1  0.00000000  0.00000000  0.00000000  1
  Li  Li5  1  0.79469696  0.09709900  0.61130201  1
  Li  Li6  1  0.60242197  0.20484200  0.20394201  1
  Li  Li7  1  0.39757797  0.79515798  0.79605800  1
  Mn  Mn8  1  0.20243898  0.40524899  0.40557900  1
  Mn  Mn9  1  0.79756095  0.59475099  0.59442100  1
  O  O10  1  0.65089197  0.12114800  0.92021301  1
  O  O11  1  0.67001196  0.65579998  0.85118000  1
  O  O12  1  0.47605797  0.71947298  0.52446900  1
  O  O13  1  0.52394197  0.28052699  0.47553100  1
  O  O14  1  0.34910797  0.87885198  0.07978700  1
  O  O15  1  0.32998798  0.34419999  0.14882000  1
  O  O16  1  0.87707495  0.51553099  0.31766601  1
  O  O17  1  0.89810196  0.10993500  0.30583401  1
  O  O18  1  0.10189798  0.89006498  0.69416599  1
  O  O19  1  0.12292499  0.48446899  0.68233400  1
