# generated using pymatgen
data_Te4MoPbSeSI9Cl
_symmetry_space_group_name_H-M   'P 1'
_cell_length_a   6.77328205
_cell_length_b   7.00651503
_cell_length_c   15.21168041
_cell_angle_alpha   102.46376038
_cell_angle_beta   90.00000000
_cell_angle_gamma   90.00000000
_symmetry_Int_Tables_number   1
_chemical_formula_structural   Te4MoPbSeSI9Cl
_chemical_formula_sum   'Te4 Mo1 Pb1 Se1 S1 I9 Cl1'
_cell_volume   704.88899576
_cell_formula_units_Z   1
loop_
 _symmetry_equiv_pos_site_id
 _symmetry_equiv_pos_as_xyz
  1  'x, y, z'
loop_
 _atom_site_type_symbol
 _atom_site_label
 _atom_site_symmetry_multiplicity
 _atom_site_fract_x
 _atom_site_fract_y
 _atom_site_fract_z
 _atom_site_occupancy
  Mo  Mo0  1  0.99787199  0.83877699  0.50158497  1
  Te  Te1  1  0.00212800  0.33877699  0.00158499  1
  Te  Te2  1  0.59335200  0.71320899  0.66200898  1
  Te  Te3  1  0.40664800  0.21320900  0.16200899  1
  I  I4  1  0.60565500  0.43610399  0.26418799  1
  Te  Te5  1  0.39434500  0.93610399  0.76418797  1
  I  I6  1  0.12614900  0.02246000  0.00476800  1
  Pb  Pb7  1  0.87385099  0.52245999  0.50476798  1
  I  I8  1  0.12980000  0.54367499  0.13573898  1
  Se  Se9  1  0.87019999  0.04367500  0.63573899  1
  I  I10  1  0.13313600  0.43226299  0.87291998  1
  S  S11  1  0.86686399  0.93226299  0.37291997  1
  I  I12  1  0.65592200  0.35846499  0.99711098  1
  Cl  Cl13  1  0.34407800  0.85846499  0.49711097  1
  I  I14  1  0.38953800  0.43079799  0.63233698  1
  I  I15  1  0.61046200  0.93079799  0.13233698  1
  I  I16  1  0.81407599  0.61386999  0.76621398  1
  I  I17  1  0.18592400  0.11387000  0.26621399  1
