# generated using pymatgen
data_La4ErSbSe8
_symmetry_space_group_name_H-M   'P 1'
_cell_length_a   7.55856800
_cell_length_b   7.55856800
_cell_length_c   7.55856800
_cell_angle_alpha   71.04463196
_cell_angle_beta   70.27024078
_cell_angle_gamma   109.72975922
_symmetry_Int_Tables_number   1
_chemical_formula_structural   La4ErSbSe8
_chemical_formula_sum   'La4 Er1 Sb1 Se8'
_cell_volume   332.40712762
_cell_formula_units_Z   1
loop_
 _symmetry_equiv_pos_site_id
 _symmetry_equiv_pos_as_xyz
  1  'x, y, z'
loop_
 _atom_site_type_symbol
 _atom_site_label
 _atom_site_symmetry_multiplicity
 _atom_site_fract_x
 _atom_site_fract_y
 _atom_site_fract_z
 _atom_site_occupancy
  La  La0  1  0.88290498  0.11789099  0.49733601  1
  La  La1  1  0.38477295  0.76501396  0.11789106  1
  La  La2  1  0.11709496  0.61975897  0.76501404  1
  La  La3  1  0.61522696  0.49733597  0.61975903  1
  Er  Er4  1  0.49999998  0.24999999  0.25000002  1
  Sb  Sb5  1  0.00000000  0.00000000  0.00000000  1
  Se  Se6  1  0.89505596  0.50266997  0.23771904  1
  Se  Se7  1  0.60999594  0.88380995  0.36804606  1
  Se  Se8  1  0.74038897  0.23771999  0.86722502  1
  Se  Se9  1  0.10494395  0.86722395  0.39238706  1
  Se  Se10  1  0.39000399  0.02195800  0.72618600  1
  Se  Se11  1  0.25185598  0.36804598  0.02195803  1
  Se  Se12  1  0.74814395  0.72618596  0.88381005  1
  Se  Se13  1  0.25961097  0.39238598  0.50266902  1
