# generated using pymatgen
data_NaPO
_symmetry_space_group_name_H-M   'P 1'
_cell_length_a   3.60609198
_cell_length_b   3.60609198
_cell_length_c   6.00818205
_cell_angle_alpha   90.00000000
_cell_angle_beta   90.00000000
_cell_angle_gamma   90.00000000
_symmetry_Int_Tables_number   1
_chemical_formula_structural   NaPO
_chemical_formula_sum   'Na2 P2 O2'
_cell_volume   78.12979458
_cell_formula_units_Z   2
loop_
 _symmetry_equiv_pos_site_id
 _symmetry_equiv_pos_as_xyz
  1  'x, y, z'
loop_
 _atom_site_type_symbol
 _atom_site_label
 _atom_site_symmetry_multiplicity
 _atom_site_fract_x
 _atom_site_fract_y
 _atom_site_fract_z
 _atom_site_occupancy
  Na  Na0  1  0.50000000  0.00000000  0.35199100  1
  Na  Na1  1  -0.00000000  0.50000000  0.64800899  1
  P  P2  1  0.50000000  0.50000000  -0.00000000  1
  P  P3  1  0.00000000  0.00000000  0.00000000  1
  O  O4  1  0.50000000  0.00000000  0.78209499  1
  O  O5  1  -0.00000000  0.50000000  0.21790500  1
