# generated using pymatgen
data_Li2O2
_symmetry_space_group_name_H-M   'P 1'
_cell_length_a   5.43434906
_cell_length_b   5.78361416
_cell_length_c   5.92858315
_cell_angle_alpha   60.80564117
_cell_angle_beta   86.92958069
_cell_angle_gamma   90.00000000
_symmetry_Int_Tables_number   1
_chemical_formula_structural   Li2O2
_chemical_formula_sum   'Li7 O7'
_cell_volume   162.35964132
_cell_formula_units_Z   3
loop_
 _symmetry_equiv_pos_site_id
 _symmetry_equiv_pos_as_xyz
  1  'x, y, z'
loop_
 _atom_site_type_symbol
 _atom_site_label
 _atom_site_symmetry_multiplicity
 _atom_site_fract_x
 _atom_site_fract_y
 _atom_site_fract_z
 _atom_site_occupancy
  Li  Li0  1  0.28296400  0.05295900  0.59563500  1
  Li  Li1  1  0.78296401  0.35140599  0.59563499  1
  Li  Li2  1  0.21703601  0.64859399  0.40436499  1
  Li  Li3  1  0.71703602  0.94704098  0.40436498  1
  Li  Li4  1  0.25000001  0.33930599  1.00000001  1
  Li  Li5  1  0.75000002  0.66069399  -0.00000003  1
  O  O6  1  0.38185002  0.98259298  0.29857398  1
  Li  Li7  1  0.88185002  0.71883299  0.29857397  1
  O  O8  1  0.41153601  0.50131199  0.22870999  1
  O  O9  1  0.91153601  0.26997799  0.22870998  1
  O  O10  1  0.08846401  0.73002199  0.77129000  1
  O  O11  1  0.58846401  0.49868799  0.77128999  1
  O  O12  1  0.11815001  0.28116699  0.70142601  1
  O  O13  1  0.61815001  0.01740700  0.70142600  1
