# generated using pymatgen
data_K2SnF4
_symmetry_space_group_name_H-M   'P 1'
_cell_length_a   4.32743645
_cell_length_b   5.82813215
_cell_length_c   5.82813215
_cell_angle_alpha   62.45444107
_cell_angle_beta   87.47464752
_cell_angle_gamma   87.47464752
_symmetry_Int_Tables_number   1
_chemical_formula_structural   K2SnF4
_chemical_formula_sum   'K2 Sn1 F4'
_cell_volume   130.15509337
_cell_formula_units_Z   1
loop_
 _symmetry_equiv_pos_site_id
 _symmetry_equiv_pos_as_xyz
  1  'x, y, z'
loop_
 _atom_site_type_symbol
 _atom_site_label
 _atom_site_symmetry_multiplicity
 _atom_site_fract_x
 _atom_site_fract_y
 _atom_site_fract_z
 _atom_site_occupancy
  K  K0  1  0.72247203  0.34488801  0.34488802  1
  K  K1  1  0.27752803  0.65511201  0.65511199  1
  Sn  Sn2  1  0.00000000  0.00000000  0.00000000  1
  F  F3  1  0.21508903  0.65277101  0.12681899  1
  F  F4  1  0.78491105  0.87318101  0.34722901  1
  F  F5  1  0.78491103  0.34722901  0.87318102  1
  F  F6  1  0.21508901  0.12681900  0.65277101  1
