# generated using pymatgen
data_Na2TlPdBrF13
_symmetry_space_group_name_H-M   'P 1'
_cell_length_a   5.61968803
_cell_length_b   5.61968803
_cell_length_c   8.96293545
_cell_angle_alpha   108.27004242
_cell_angle_beta   108.27004242
_cell_angle_gamma   90.00000000
_symmetry_Int_Tables_number   1
_chemical_formula_structural   Na2TlPdBrF13
_chemical_formula_sum   'Na2 Tl1 Pd1 Br1 F13'
_cell_volume   253.71815700
_cell_formula_units_Z   1
loop_
 _symmetry_equiv_pos_site_id
 _symmetry_equiv_pos_as_xyz
  1  'x, y, z'
loop_
 _atom_site_type_symbol
 _atom_site_label
 _atom_site_symmetry_multiplicity
 _atom_site_fract_x
 _atom_site_fract_y
 _atom_site_fract_z
 _atom_site_occupancy
  Na  Na0  1  0.00000000  0.00000000  0.00000000  1
  Na  Na1  1  0.50000001  0.50000000  0.00000002  1
  Tl  Tl2  1  0.62915701  0.12915700  0.25831400  1
  Br  Br3  1  0.12915702  0.62915700  0.25831401  1
  Pd  Pd4  1  0.87084301  0.37084300  0.74168599  1
  F  F5  1  0.37084302  0.87084301  0.74168600  1
  F  F6  1  0.37023101  0.37023100  0.22883001  1
  F  F7  1  0.85859902  0.85859901  0.22883003  1
  F  F8  1  0.62976902  0.62976900  0.77117000  1
  F  F9  1  0.14140100  0.14140100  0.77116997  1
  F  F10  1  0.85859901  0.37023100  0.22883002  1
  F  F11  1  0.37023102  0.85859901  0.22883002  1
  F  F12  1  0.14140102  0.62976900  0.77116999  1
  F  F13  1  0.62976901  0.14140100  0.77116998  1
  F  F14  1  0.50000003  1.00000001  0.99999999  1
  F  F15  1  0.00000001  0.50000000  0.00000001  1
  F  F16  1  0.75000001  0.25000000  0.50000000  1
  F  F17  1  0.25000002  0.75000001  0.50000000  1
