# generated using pymatgen
data_NaLiYCu(Ag2Se3)2
_symmetry_space_group_name_H-M   'P 1'
_cell_length_a   7.46716166
_cell_length_b   7.46716166
_cell_length_c   8.21067619
_cell_angle_alpha   62.95290375
_cell_angle_beta   62.95290375
_cell_angle_gamma   60.00000381
_symmetry_Int_Tables_number   1
_chemical_formula_structural   NaLiYCu(Ag2Se3)2
_chemical_formula_sum   'Na1 Li1 Y1 Cu1 Ag4 Se6'
_cell_volume   337.42776164
_cell_formula_units_Z   1
loop_
 _symmetry_equiv_pos_site_id
 _symmetry_equiv_pos_as_xyz
  1  'x, y, z'
loop_
 _atom_site_type_symbol
 _atom_site_label
 _atom_site_symmetry_multiplicity
 _atom_site_fract_x
 _atom_site_fract_y
 _atom_site_fract_z
 _atom_site_occupancy
  Ag  Ag0  1  0.66594896  0.66594899  0.00215301  1
  Na  Na1  1  0.33405098  0.33405099  0.99784697  1
  Li  Li2  1  0.52808696  0.87359498  0.36727600  1
  Y  Y3  1  0.23104198  0.52808699  0.36727599  1
  Ag  Ag4  1  0.87359497  0.23104200  0.36727599  1
  Ag  Ag5  1  0.12640498  0.76895799  0.63272399  1
  Ag  Ag6  1  0.76895797  0.47191299  0.63272398  1
  Cu  Cu7  1  0.47191298  0.12640500  0.63272398  1
  Se  Se8  1  0.76385798  0.08186500  0.74966798  1
  Se  Se9  1  0.08186499  0.40460899  0.74966798  1
  Se  Se10  1  0.40460897  0.76385799  0.74966798  1
  Se  Se11  1  0.59539098  0.23614200  0.25033200  1
  Se  Se12  1  0.91813496  0.59539099  0.25033200  1
  Se  Se13  1  0.23614197  0.91813498  0.25033200  1
