# generated using pymatgen
data_Li4Mn(CoO4)3
_symmetry_space_group_name_H-M   'P 1'
_cell_length_a   5.22317791
_cell_length_b   5.48819208
_cell_length_c   7.58922958
_cell_angle_alpha   94.06721497
_cell_angle_beta   89.90231323
_cell_angle_gamma   89.86632538
_symmetry_Int_Tables_number   1
_chemical_formula_structural   Li4Mn(CoO4)3
_chemical_formula_sum   'Li4 Mn1 Co3 O12'
_cell_volume   217.00249658
_cell_formula_units_Z   1
loop_
 _symmetry_equiv_pos_site_id
 _symmetry_equiv_pos_as_xyz
  1  'x, y, z'
loop_
 _atom_site_type_symbol
 _atom_site_label
 _atom_site_symmetry_multiplicity
 _atom_site_fract_x
 _atom_site_fract_y
 _atom_site_fract_z
 _atom_site_occupancy
  Li  Li0  1  0.50906495  0.95638197  0.24965595  1
  Li  Li1  1  0.49788896  0.94328397  0.80787595  1
  Li  Li2  1  0.99360099  0.40512199  0.81405596  1
  Li  Li3  1  0.00002498  0.41277199  0.26403198  1
  Co  Co4  1  0.99910296  0.99009497  0.00117793  1
  Mn  Mn5  1  0.50155198  0.49615799  0.50572197  1
  Co  Co6  1  0.00106794  0.99556697  0.50031296  1
  Co  Co7  1  0.49903598  0.50049299  0.00156497  1
  O  O8  1  0.32126696  0.81068598  0.04993296  1
  O  O9  1  0.67492296  0.85063097  0.56500095  1
  O  O10  1  0.16756696  0.69083598  0.41695697  1
  O  O11  1  0.78792397  0.69316698  0.92795595  1
  O  O12  1  0.64046498  0.53310698  0.24265296  1
  O  O13  1  0.35192598  0.51490198  0.76192797  1
  O  O14  1  0.19585899  0.31894099  0.05258298  1
  O  O15  1  0.85475700  0.32322699  0.56512296  1
  O  O16  1  0.30381700  0.17225599  0.41389998  1
  O  O17  1  0.69518700  0.21017899  0.93284997  1
  O  O18  1  0.87630501  0.03095900  0.26022698  1
  O  O19  1  0.12866400  0.00883800  0.73769100  1
