# generated using pymatgen
data_CoRhO2
_symmetry_space_group_name_H-M   'P 1'
_cell_length_a   3.13556385
_cell_length_b   3.13556385
_cell_length_c   5.99981499
_cell_angle_alpha   74.85248566
_cell_angle_beta   74.85248566
_cell_angle_gamma   60.00000000
_symmetry_Int_Tables_number   1
_chemical_formula_structural   CoRhO2
_chemical_formula_sum   'Co1 Rh1 O2'
_cell_volume   48.70483384
_cell_formula_units_Z   1
loop_
 _symmetry_equiv_pos_site_id
 _symmetry_equiv_pos_as_xyz
  1  'x, y, z'
loop_
 _atom_site_type_symbol
 _atom_site_label
 _atom_site_symmetry_multiplicity
 _atom_site_fract_x
 _atom_site_fract_y
 _atom_site_fract_z
 _atom_site_occupancy
  Co  Co0  1  0.00000000  0.00000000  0.00000000  1
  Rh  Rh1  1  0.49999999  0.50000002  0.50000001  1
  O  O2  1  0.89250698  0.89250703  0.32247901  1
  O  O3  1  0.10749300  0.10749300  0.67752101  1
