# generated using pymatgen
data_Na2LiNd2NbFeBiO12
_symmetry_space_group_name_H-M   'P 1'
_cell_length_a   5.46093416
_cell_length_b   5.82535887
_cell_length_c   7.82431030
_cell_angle_alpha   90.00000000
_cell_angle_beta   89.76929474
_cell_angle_gamma   90.00000000
_symmetry_Int_Tables_number   1
_chemical_formula_structural   Na2LiNd2NbFeBiO12
_chemical_formula_sum   'Na2 Li1 Nd2 Nb1 Fe1 Bi1 O12'
_cell_volume   248.90416889
_cell_formula_units_Z   1
loop_
 _symmetry_equiv_pos_site_id
 _symmetry_equiv_pos_as_xyz
  1  'x, y, z'
loop_
 _atom_site_type_symbol
 _atom_site_label
 _atom_site_symmetry_multiplicity
 _atom_site_fract_x
 _atom_site_fract_y
 _atom_site_fract_z
 _atom_site_occupancy
  Li  Li0  1  0.97787797  0.42745401  0.25096400  1
  Na  Na1  1  0.02212200  0.57254601  0.74903601  1
  Na  Na2  1  0.52212198  0.92745402  0.24903600  1
  Nd  Nd3  1  0.47787799  0.07254600  0.75096401  1
  Bi  Bi4  1  0.00000000  0.00000000  0.50000001  1
  Nd  Nd5  1  0.49999999  0.50000001  -0.00000000  1
  Fe  Fe6  1  0.00000000  0.00000000  0.00000000  1
  Nb  Nb7  1  0.49999999  0.50000001  0.50000001  1
  O  O8  1  0.11532700  0.04103300  0.24703100  1
  O  O9  1  0.88467297  0.95896702  0.75296901  1
  O  O10  1  0.38467299  0.54103301  0.25296900  1
  O  O11  1  0.61532698  0.45896701  0.74703101  1
  O  O12  1  0.81436098  0.70210702  0.06049600  1
  O  O13  1  0.18563899  0.29789301  0.93950401  1
  O  O14  1  0.68563898  0.20210700  0.43950401  1
  O  O15  1  0.31436099  0.79789302  0.56049601  1
  O  O16  1  0.69391098  0.19297100  0.05584200  1
  O  O17  1  0.30608899  0.80702902  0.94415801  1
  O  O18  1  0.80608898  0.69297102  0.44415801  1
  O  O19  1  0.19391099  0.30702901  0.55584201  1
