# generated using pymatgen
data_CoTeO4
_symmetry_space_group_name_H-M   'P 1'
_cell_length_a   3.24089789
_cell_length_b   4.78800392
_cell_length_c   4.86658192
_cell_angle_alpha   90.00000000
_cell_angle_beta   90.00000000
_cell_angle_gamma   90.00000000
_symmetry_Int_Tables_number   1
_chemical_formula_structural   CoTeO4
_chemical_formula_sum   'Co1 Te1 O4'
_cell_volume   75.51685312
_cell_formula_units_Z   1
loop_
 _symmetry_equiv_pos_site_id
 _symmetry_equiv_pos_as_xyz
  1  'x, y, z'
loop_
 _atom_site_type_symbol
 _atom_site_label
 _atom_site_symmetry_multiplicity
 _atom_site_fract_x
 _atom_site_fract_y
 _atom_site_fract_z
 _atom_site_occupancy
  Co  Co0  1  0.50000002  0.50000001  0.50000001  1
  Te  Te1  1  0.00000000  0.00000000  0.00000000  1
  O  O2  1  0.00000000  0.29185500  0.32104201  1
  O  O3  1  0.50000002  0.79185501  0.17895800  1
  O  O4  1  0.50000002  0.20814500  0.82104201  1
  O  O5  1  0.00000000  0.70814501  0.67895801  1
