# generated using pymatgen
data_Rb4Y2ScAlF12
_symmetry_space_group_name_H-M   'P 1'
_cell_length_a   6.34527826
_cell_length_b   6.34527826
_cell_length_c   10.91302013
_cell_angle_alpha   73.09889984
_cell_angle_beta   73.09889984
_cell_angle_gamma   59.99999619
_symmetry_Int_Tables_number   1
_chemical_formula_structural   Rb4Y2ScAlF12
_chemical_formula_sum   'Rb4 Y2 Sc1 Al1 F12'
_cell_volume   358.43820671
_cell_formula_units_Z   1
loop_
 _symmetry_equiv_pos_site_id
 _symmetry_equiv_pos_as_xyz
  1  'x, y, z'
loop_
 _atom_site_type_symbol
 _atom_site_label
 _atom_site_symmetry_multiplicity
 _atom_site_fract_x
 _atom_site_fract_y
 _atom_site_fract_z
 _atom_site_occupancy
  Rb  Rb0  1  0.71847500  0.71847501  0.84457498  1
  Rb  Rb1  1  0.28152500  0.28152500  0.15542499  1
  Rb  Rb2  1  0.87198100  0.87198101  0.38405698  1
  Rb  Rb3  1  0.12801900  0.12801900  0.61594299  1
  Y  Y4  1  0.40301500  0.40301501  0.79095499  1
  Y  Y5  1  0.59698500  0.59698501  0.20904499  1
  Sc  Sc6  1  0.00000000  0.00000000  0.00000000  1
  Al  Al7  1  0.50000000  0.50000001  0.49999999  1
  F  F8  1  0.18146000  0.18146000  0.89220099  1
  F  F9  1  0.18146000  0.74487901  0.89220099  1
  F  F10  1  0.74487901  0.18146000  0.89220099  1
  F  F11  1  0.25512100  0.81854001  0.10779899  1
  F  F12  1  0.81854000  0.81854001  0.10779898  1
  F  F13  1  0.81854001  0.25512100  0.10779899  1
  F  F14  1  0.39661100  0.39661101  0.38691399  1
  F  F15  1  0.39661100  0.81986401  0.38691399  1
  F  F16  1  0.60338900  0.18013600  0.61308599  1
  F  F17  1  0.60338900  0.60338901  0.61308598  1
  F  F18  1  0.18013600  0.60338901  0.61308599  1
  F  F19  1  0.81986400  0.39661101  0.38691399  1
