# generated using pymatgen
data_CdAgSe2
_symmetry_space_group_name_H-M   'P 1'
_cell_length_a   4.26372290
_cell_length_b   4.28059912
_cell_length_c   12.08466721
_cell_angle_alpha   90.00000000
_cell_angle_beta   90.00000000
_cell_angle_gamma   90.00000000
_symmetry_Int_Tables_number   1
_chemical_formula_structural   CdAgSe2
_chemical_formula_sum   'Cd2 Ag2 Se4'
_cell_volume   220.56074721
_cell_formula_units_Z   2
loop_
 _symmetry_equiv_pos_site_id
 _symmetry_equiv_pos_as_xyz
  1  'x, y, z'
loop_
 _atom_site_type_symbol
 _atom_site_label
 _atom_site_symmetry_multiplicity
 _atom_site_fract_x
 _atom_site_fract_y
 _atom_site_fract_z
 _atom_site_occupancy
  Cd  Cd0  1  0.89559702  0.74999998  0.12953700  1
  Cd  Cd1  1  0.60440301  0.74999998  0.62953699  1
  Ag  Ag2  1  0.10440300  0.24999999  0.87046299  1
  Ag  Ag3  1  0.39559701  0.24999999  0.37046299  1
  Se  Se4  1  0.94489702  0.74999998  0.35604299  1
  Se  Se5  1  0.55510301  0.74999998  0.85604299  1
  Se  Se6  1  0.05510300  0.24999999  0.64395699  1
  Se  Se7  1  0.44489701  0.24999999  0.14395700  1
