# generated using pymatgen
data_Ce3As4
_symmetry_space_group_name_H-M   'P 1'
_cell_length_a   7.70838976
_cell_length_b   7.70838976
_cell_length_c   7.70838976
_cell_angle_alpha   109.47122192
_cell_angle_beta   109.47122192
_cell_angle_gamma   109.47122192
_symmetry_Int_Tables_number   1
_chemical_formula_structural   Ce3As4
_chemical_formula_sum   'Ce6 As8'
_cell_volume   352.58926519
_cell_formula_units_Z   2
loop_
 _symmetry_equiv_pos_site_id
 _symmetry_equiv_pos_as_xyz
  1  'x, y, z'
loop_
 _atom_site_type_symbol
 _atom_site_label
 _atom_site_symmetry_multiplicity
 _atom_site_fract_x
 _atom_site_fract_y
 _atom_site_fract_z
 _atom_site_occupancy
  Ce  Ce0  1  0.25000003  0.37500002  0.12500003  1
  Ce  Ce1  1  0.37500005  0.62500004  0.75000006  1
  Ce  Ce2  1  0.12500006  0.87500005  0.25000006  1
  Ce  Ce3  1  0.87500007  0.75000005  0.62500008  1
  Ce  Ce4  1  0.62500003  0.25000002  0.87500005  1
  Ce  Ce5  1  0.75000003  0.12500001  0.37500003  1
  As  As6  1  0.34198407  1.00000006  1.00000009  1
  As  As7  1  0.65801606  0.65801604  0.15801606  1
  As  As8  1  0.50000007  0.84198405  0.50000007  1
  As  As9  1  0.00000003  0.50000003  0.34198404  1
  As  As10  1  0.50000004  0.34198402  0.50000004  1
  As  As11  1  1.00000006  0.50000003  0.84198407  1
  As  As12  1  0.84198403  0.00000000  0.00000002  1
  As  As13  1  0.15801601  0.15801601  0.65801603  1
