# generated using pymatgen
data_Ba4HgPbSeS4O
_symmetry_space_group_name_H-M   'P 1'
_cell_length_a   6.77143908
_cell_length_b   6.77143908
_cell_length_c   6.77143908
_cell_angle_alpha   90.00000000
_cell_angle_beta   90.00000000
_cell_angle_gamma   90.00000000
_symmetry_Int_Tables_number   1
_chemical_formula_structural   Ba4HgPbSeS4O
_chemical_formula_sum   'Ba4 Hg1 Pb1 Se1 S4 O1'
_cell_volume   310.48664607
_cell_formula_units_Z   1
loop_
 _symmetry_equiv_pos_site_id
 _symmetry_equiv_pos_as_xyz
  1  'x, y, z'
loop_
 _atom_site_type_symbol
 _atom_site_label
 _atom_site_symmetry_multiplicity
 _atom_site_fract_x
 _atom_site_fract_y
 _atom_site_fract_z
 _atom_site_occupancy
  Ba  Ba0  1  0.62499999  0.37500000  0.87499999  1
  Ba  Ba1  1  0.37500000  0.87499999  0.62499999  1
  Ba  Ba2  1  0.87499999  0.62499999  0.37500000  1
  Ba  Ba3  1  0.12500000  0.12500000  0.12500000  1
  Pb  Pb4  1  0.83191199  0.83191199  0.83191199  1
  Hg  Hg5  1  0.58191199  0.91808799  0.08191200  1
  S  S6  1  0.91808799  0.08191200  0.58191199  1
  Se  Se7  1  0.08191200  0.58191199  0.91808799  1
  S  S8  1  0.41808800  0.41808800  0.41808800  1
  S  S9  1  0.16808800  0.33191200  0.66808799  1
  S  S10  1  0.66808799  0.16808800  0.33191200  1
  O  O11  1  0.33191200  0.66808799  0.16808800  1
