# generated using pymatgen
data_Li3CoO6
_symmetry_space_group_name_H-M   'P 1'
_cell_length_a   4.87693834
_cell_length_b   5.24393272
_cell_length_c   7.18081951
_cell_angle_alpha   95.70741272
_cell_angle_beta   89.99981689
_cell_angle_gamma   89.99982452
_symmetry_Int_Tables_number   1
_chemical_formula_structural   Li3CoO6
_chemical_formula_sum   'Li6 Co2 O12'
_cell_volume   182.73431539
_cell_formula_units_Z   2
loop_
 _symmetry_equiv_pos_site_id
 _symmetry_equiv_pos_as_xyz
  1  'x, y, z'
loop_
 _atom_site_type_symbol
 _atom_site_label
 _atom_site_symmetry_multiplicity
 _atom_site_fract_x
 _atom_site_fract_y
 _atom_site_fract_z
 _atom_site_occupancy
  Li  Li0  1  0.99858604  0.29360101  0.85310896  1
  Li  Li1  1  0.49861205  0.80103902  0.85045396  1
  Li  Li2  1  0.49761602  0.20476700  0.64663598  1
  Li  Li3  1  0.00140601  0.29360301  0.35310899  1
  Li  Li4  1  0.50139205  0.80103702  0.35045496  1
  Li  Li5  1  0.50238502  0.20476900  0.14663798  1
  Co  Co6  1  0.99844506  0.69983101  0.64926395  1
  Co  Co7  1  0.00155203  0.69983101  0.14926798  1
  O  O8  1  0.83449105  0.64515901  0.89697396  1
  O  O9  1  0.63675006  0.85312802  0.59521095  1
  O  O10  1  0.65761603  0.15300100  0.90324698  1
  O  O11  1  0.84601904  0.33822001  0.59464196  1
  O  O12  1  0.31071903  0.49985201  0.75433898  1
  O  O13  1  0.20077601  0.01140200  0.75612100  1
  O  O14  1  0.68928404  0.49985401  0.25433696  1
  O  O15  1  0.16551103  0.64516001  0.39697498  1
  O  O16  1  0.36325305  0.85313002  0.09520996  1
  O  O17  1  0.34238302  0.15300100  0.40324799  1
  O  O18  1  0.79922603  0.01139700  0.25611997  1
  O  O19  1  0.15398102  0.33821801  0.09463898  1
