# generated using pymatgen
data_Cu2AgHgHSeIO13
_symmetry_space_group_name_H-M   'P 1'
_cell_length_a   5.17411280
_cell_length_b   7.30153465
_cell_length_c   8.13495541
_cell_angle_alpha   90.93952942
_cell_angle_beta   97.22151947
_cell_angle_gamma   91.96796417
_symmetry_Int_Tables_number   1
_chemical_formula_structural   Cu2AgHgHSeIO13
_chemical_formula_sum   'Cu2 Ag1 Hg1 H1 Se1 I1 O13'
_cell_volume   304.64597073
_cell_formula_units_Z   1
loop_
 _symmetry_equiv_pos_site_id
 _symmetry_equiv_pos_as_xyz
  1  'x, y, z'
loop_
 _atom_site_type_symbol
 _atom_site_label
 _atom_site_symmetry_multiplicity
 _atom_site_fract_x
 _atom_site_fract_y
 _atom_site_fract_z
 _atom_site_occupancy
  Ag  Ag0  1  0.53961200  0.73447499  0.77287100  1
  Cu  Cu1  1  0.46038801  0.26552500  0.22712901  1
  Hg  Hg2  1  0.15091397  0.91644699  0.14651697  1
  Cu  Cu3  1  0.84908604  0.08355300  0.85348304  1
  I  I4  1  0.01031197  0.74551099  0.22519998  1
  Se  Se5  1  0.08197097  0.73820299  0.37478298  1
  O  O6  1  0.91802903  0.26179700  0.62521703  1
  H  H7  1  0.98968804  0.25448900  0.77480003  1
  O  O8  1  0.15037699  0.38450400  0.14880999  1
  O  O9  1  0.28296598  0.91211699  0.72277598  1
  O  O10  1  0.22474201  0.02795600  0.10109601  1
  O  O11  1  0.34973399  0.52668699  0.67546300  1
  O  O12  1  0.30944101  0.19464800  0.41800101  1
  O  O13  1  0.43688099  0.71695199  0.98834100  1
  O  O14  1  0.56311901  0.28304800  0.01165901  1
  O  O15  1  0.69055900  0.80535199  0.58199900  1
  O  O16  1  0.65026601  0.47331299  0.32453701  1
  O  O17  1  0.77525800  0.97204399  0.89890400  1
  O  O18  1  0.71703403  0.08788300  0.27722403  1
  O  O19  1  0.84962301  0.61549599  0.85119002  1
