# generated using pymatgen
data_NaPbS3
_symmetry_space_group_name_H-M   'P 1'
_cell_length_a   4.11737633
_cell_length_b   4.11737633
_cell_length_c   17.07753372
_cell_angle_alpha   83.07618713
_cell_angle_beta   83.07618713
_cell_angle_gamma   59.99999619
_symmetry_Int_Tables_number   1
_chemical_formula_structural   NaPbS3
_chemical_formula_sum   'Na2 Pb2 S6'
_cell_volume   248.28363981
_cell_formula_units_Z   2
loop_
 _symmetry_equiv_pos_site_id
 _symmetry_equiv_pos_as_xyz
  1  'x, y, z'
loop_
 _atom_site_type_symbol
 _atom_site_label
 _atom_site_symmetry_multiplicity
 _atom_site_fract_x
 _atom_site_fract_y
 _atom_site_fract_z
 _atom_site_occupancy
  Na  Na0  1  0.00000000  0.00000000  0.00000000  1
  Na  Na1  1  0.59622898  0.59622899  0.21131302  1
  Pb  Pb2  1  0.19922599  0.19922600  0.40232201  1
  Pb  Pb3  1  0.80077398  0.80077398  0.59767804  1
  S  S4  1  0.40377099  0.40377099  0.78868703  1
  S  S5  1  0.70551598  0.70551598  0.88345204  1
  S  S6  1  0.49999999  0.49999999  0.50000002  1
  S  S7  1  0.10218400  0.10218400  0.69344801  1
  S  S8  1  0.29448399  0.29448399  0.11654801  1
  S  S9  1  0.89781598  0.89781598  0.30655203  1
