# generated using pymatgen
data_Hf3MgTa2O12
_symmetry_space_group_name_H-M   'P 1'
_cell_length_a   4.93234777
_cell_length_b   4.93234777
_cell_length_c   9.93245888
_cell_angle_alpha   90.00000000
_cell_angle_beta   90.00000000
_cell_angle_gamma   90.00000000
_symmetry_Int_Tables_number   1
_chemical_formula_structural   Hf3MgTa2O12
_chemical_formula_sum   'Hf3 Mg1 Ta2 O12'
_cell_volume   241.63740157
_cell_formula_units_Z   1
loop_
 _symmetry_equiv_pos_site_id
 _symmetry_equiv_pos_as_xyz
  1  'x, y, z'
loop_
 _atom_site_type_symbol
 _atom_site_label
 _atom_site_symmetry_multiplicity
 _atom_site_fract_x
 _atom_site_fract_y
 _atom_site_fract_z
 _atom_site_occupancy
  Mg  Mg0  1  0.00000000  0.00000000  0.00000000  1
  Hf  Hf1  1  0.50000002  0.50000002  0.50000001  1
  Hf  Hf2  1  0.50000002  0.50000002  0.83295601  1
  Hf  Hf3  1  0.00000000  0.00000000  0.33295600  1
  Ta  Ta4  1  0.50000002  0.50000002  0.16704400  1
  Ta  Ta5  1  0.00000000  0.00000000  0.66704401  1
  O  O6  1  0.69121403  0.69121403  0.66424401  1
  O  O7  1  0.30878601  0.30878601  0.66424401  1
  O  O8  1  0.69121403  0.69121403  0.33575600  1
  O  O9  1  0.19121401  0.80878604  0.16424400  1
  O  O10  1  0.80878604  0.19121401  0.16424400  1
  O  O11  1  0.80878604  0.19121401  0.83575601  1
  O  O12  1  0.30264701  0.30264701  0.00000000  1
  O  O13  1  0.19735301  0.80264704  0.50000001  1
  O  O14  1  0.80264704  0.19735301  0.50000001  1
  O  O15  1  0.69735303  0.69735303  -0.00000000  1
  O  O16  1  0.30878601  0.30878601  0.33575600  1
  O  O17  1  0.19121401  0.80878604  0.83575601  1
