# generated using pymatgen
data_RbBaTlSn(TeSe3)4
_symmetry_space_group_name_H-M   'P 1'
_cell_length_a   3.96423602
_cell_length_b   13.05021477
_cell_length_c   14.31091690
_cell_angle_alpha   90.00000000
_cell_angle_beta   90.00000000
_cell_angle_gamma   90.00000000
_symmetry_Int_Tables_number   1
_chemical_formula_structural   RbBaTlSn(TeSe3)4
_chemical_formula_sum   'Rb1 Ba1 Tl1 Sn1 Te4 Se12'
_cell_volume   740.36285630
_cell_formula_units_Z   1
loop_
 _symmetry_equiv_pos_site_id
 _symmetry_equiv_pos_as_xyz
  1  'x, y, z'
loop_
 _atom_site_type_symbol
 _atom_site_label
 _atom_site_symmetry_multiplicity
 _atom_site_fract_x
 _atom_site_fract_y
 _atom_site_fract_z
 _atom_site_occupancy
  Ba  Ba0  1  0.25000000  0.89358602  0.26294800  1
  Rb  Rb1  1  0.25000000  0.39358601  0.23705200  1
  Tl  Tl2  1  0.75000000  0.10641400  0.73705201  1
  Te  Te3  1  0.75000000  0.60641401  0.76294801  1
  Te  Te4  1  0.25000000  0.65427701  0.38515400  1
  Sn  Sn5  1  0.75000000  0.34572301  0.61484600  1
  Te  Te6  1  0.75000000  0.84572302  0.88515401  1
  Te  Te7  1  0.25000000  0.15427700  0.11484600  1
  Se  Se8  1  0.25000000  0.21439800  0.56784100  1
  Se  Se9  1  0.25000000  0.20531200  0.29213300  1
  Se  Se10  1  0.75000000  0.79468801  0.70786700  1
  Se  Se11  1  0.75000000  0.78560201  0.43215900  1
  Se  Se12  1  0.25000000  0.70531201  0.20786700  1
  Se  Se13  1  0.75000000  0.29468801  0.79213301  1
  Se  Se14  1  0.25000000  0.04016900  0.85280201  1
  Se  Se15  1  0.75000000  0.28560201  0.06784100  1
  Se  Se16  1  0.25000000  0.54016901  0.64719800  1
  Se  Se17  1  0.25000000  0.71439801  0.93215901  1
  Se  Se18  1  0.75000000  0.45983101  0.35280200  1
  Se  Se19  1  0.75000000  0.95983102  0.14719800  1
