# generated using pymatgen
data_Y4Sc2MoO12
_symmetry_space_group_name_H-M   'P 1'
_cell_length_a   6.32853556
_cell_length_b   6.32853556
_cell_length_c   6.32853556
_cell_angle_alpha   98.72077179
_cell_angle_beta   98.72077179
_cell_angle_gamma   98.72077179
_symmetry_Int_Tables_number   1
_chemical_formula_structural   Y4Sc2MoO12
_chemical_formula_sum   'Y4 Sc2 Mo1 O12'
_cell_volume   243.64678242
_cell_formula_units_Z   1
loop_
 _symmetry_equiv_pos_site_id
 _symmetry_equiv_pos_as_xyz
  1  'x, y, z'
loop_
 _atom_site_type_symbol
 _atom_site_label
 _atom_site_symmetry_multiplicity
 _atom_site_fract_x
 _atom_site_fract_y
 _atom_site_fract_z
 _atom_site_occupancy
  Y  Y0  1  0.60691500  0.14042900  0.31889696  1
  Y  Y1  1  0.39308496  0.85957100  0.68110293  1
  Y  Y2  1  0.68110299  0.39308500  0.85957093  1
  Y  Y3  1  0.31889697  0.60691500  0.14042895  1
  Sc  Sc4  1  0.14042899  0.31889700  0.60691496  1
  Sc  Sc5  1  0.85957098  0.68110300  0.39308492  1
  Mo  Mo6  1  0.00000000  0.00000000  0.00000000  1
  O  O7  1  0.91375198  0.69935800  0.04066993  1
  O  O8  1  0.30064196  0.95933000  0.08624794  1
  O  O9  1  0.04066995  0.91375200  0.69935794  1
  O  O10  1  0.41890400  0.17573200  0.59546896  1
  O  O11  1  0.82426799  0.40453100  0.58109593  1
  O  O12  1  0.59546899  0.41890400  0.17573195  1
  O  O13  1  0.17573197  0.59546900  0.41890395  1
  O  O14  1  0.69935801  0.04067000  0.91375195  1
  O  O15  1  0.95933001  0.08624800  0.30064195  1
  O  O16  1  0.40453098  0.58109600  0.82426794  1
  O  O17  1  0.08624799  0.30064200  0.95932996  1
  O  O18  1  0.58109597  0.82426800  0.40453093  1
