# generated using pymatgen
data_AgS
_symmetry_space_group_name_H-M   'P 1'
_cell_length_a   5.70647573
_cell_length_b   5.70647573
_cell_length_c   6.08178425
_cell_angle_alpha   113.47110748
_cell_angle_beta   113.47110748
_cell_angle_gamma   91.98222351
_symmetry_Int_Tables_number   1
_chemical_formula_structural   AgS
_chemical_formula_sum   'Ag4 S4'
_cell_volume   162.17632760
_cell_formula_units_Z   4
loop_
 _symmetry_equiv_pos_site_id
 _symmetry_equiv_pos_as_xyz
  1  'x, y, z'
loop_
 _atom_site_type_symbol
 _atom_site_label
 _atom_site_symmetry_multiplicity
 _atom_site_fract_x
 _atom_site_fract_y
 _atom_site_fract_z
 _atom_site_occupancy
  Ag  Ag0  1  0.13133902  0.86866099  0.74999997  1
  Ag  Ag1  1  0.86866098  0.13133900  0.24999995  1
  Ag  Ag2  1  0.40083401  0.59916599  0.24999996  1
  Ag  Ag3  1  0.59916600  0.40083399  0.74999996  1
  S  S4  1  0.75988800  0.62485099  0.22187494  1
  S  S5  1  0.37514900  0.24011200  0.27812497  1
  S  S6  1  0.62485101  0.75988799  0.72187495  1
  S  S7  1  0.24011200  0.37514899  0.77812498  1
