# generated using pymatgen
data_Rb2BiI(OF)2
_symmetry_space_group_name_H-M   'P 1'
_cell_length_a   5.45377064
_cell_length_b   5.45377064
_cell_length_c   5.69582510
_cell_angle_alpha   61.39610291
_cell_angle_beta   61.39610291
_cell_angle_gamma   59.99999237
_symmetry_Int_Tables_number   1
_chemical_formula_structural   Rb2BiI(OF)2
_chemical_formula_sum   'Rb2 Bi1 I1 O2 F2'
_cell_volume   122.26004899
_cell_formula_units_Z   1
loop_
 _symmetry_equiv_pos_site_id
 _symmetry_equiv_pos_as_xyz
  1  'x, y, z'
loop_
 _atom_site_type_symbol
 _atom_site_label
 _atom_site_symmetry_multiplicity
 _atom_site_fract_x
 _atom_site_fract_y
 _atom_site_fract_z
 _atom_site_occupancy
  Rb  Rb0  1  0.49999996  0.49999999  0.50000002  1
  Bi  Bi1  1  0.00000000  0.00000000  0.00000000  1
  Rb  Rb2  1  0.07460899  0.07460900  0.19952100  1
  I  I3  1  0.07460897  0.65126099  0.19952102  1
  O  O4  1  0.65126098  0.07460900  0.19952101  1
  F  F5  1  0.34873895  0.92539098  0.80047902  1
  F  F6  1  0.92539095  0.34873899  0.80047902  1
  O  O7  1  0.92539093  0.92539098  0.80047903  1
