# generated using pymatgen
data_Mn4CoO11
_symmetry_space_group_name_H-M   'P 1'
_cell_length_a   5.21642923
_cell_length_b   5.36350918
_cell_length_c   7.38234997
_cell_angle_alpha   90.00000000
_cell_angle_beta   90.00000000
_cell_angle_gamma   89.98314667
_symmetry_Int_Tables_number   1
_chemical_formula_structural   Mn4CoO11
_chemical_formula_sum   'Mn4 Co1 O11'
_cell_volume   206.54608094
_cell_formula_units_Z   1
loop_
 _symmetry_equiv_pos_site_id
 _symmetry_equiv_pos_as_xyz
  1  'x, y, z'
loop_
 _atom_site_type_symbol
 _atom_site_label
 _atom_site_symmetry_multiplicity
 _atom_site_fract_x
 _atom_site_fract_y
 _atom_site_fract_z
 _atom_site_occupancy
  Mn  Mn0  1  0.49999998  0.00000000  0.50000000  1
  Mn  Mn1  1  0.49999998  0.00000000  0.00000000  1
  Mn  Mn2  1  0.00000003  0.50000000  0.50000000  1
  Mn  Mn3  1  0.00000003  0.50000000  -0.00000000  1
  O  O4  1  0.68928199  0.28757300  0.54979400  1
  Co  Co5  1  0.79274302  0.80905801  0.95044800  1
  O  O6  1  0.31071803  0.71242701  0.04979400  1
  O  O7  1  0.20725700  0.19094200  0.45044800  1
  O  O8  1  0.79274302  0.80905801  0.54955200  1
  O  O9  1  0.20725700  0.19094200  0.04955200  1
  O  O10  1  0.11999203  0.47702300  0.75000000  1
  O  O11  1  0.68928199  0.28757300  0.95020600  1
  O  O12  1  0.58526397  0.01628800  0.25000000  1
  O  O13  1  0.31071803  0.71242701  0.45020600  1
  O  O14  1  0.88000800  0.52297701  0.25000000  1
  O  O15  1  0.41473605  0.98371201  0.75000000  1
