# generated using pymatgen
data_TiZn(Cu2S3)2
_symmetry_space_group_name_H-M   'P 1'
_cell_length_a   4.88913298
_cell_length_b   5.52394247
_cell_length_c   8.14951420
_cell_angle_alpha   91.39412689
_cell_angle_beta   93.52585602
_cell_angle_gamma   107.95166016
_symmetry_Int_Tables_number   1
_chemical_formula_structural   TiZn(Cu2S3)2
_chemical_formula_sum   'Ti1 Zn1 Cu4 S6'
_cell_volume   208.76773190
_cell_formula_units_Z   1
loop_
 _symmetry_equiv_pos_site_id
 _symmetry_equiv_pos_as_xyz
  1  'x, y, z'
loop_
 _atom_site_type_symbol
 _atom_site_label
 _atom_site_symmetry_multiplicity
 _atom_site_fract_x
 _atom_site_fract_y
 _atom_site_fract_z
 _atom_site_occupancy
  Zn  Zn0  1  0.66695702  0.60775003  0.07352698  1
  Ti  Ti1  1  0.17795803  0.75499803  0.80410497  1
  Cu  Cu2  1  0.66657803  0.96244104  0.75482396  1
  Cu  Cu3  1  0.56106301  0.33129001  0.66991496  1
  Cu  Cu4  1  0.35330300  0.02454600  0.23327498  1
  Cu  Cu5  1  0.05665002  0.45261002  0.39638498  1
  S  S6  1  0.19238900  0.11823400  0.47955598  1
  S  S7  1  0.29502601  0.39708402  0.88556696  1
  S  S8  1  0.49501002  0.69197703  0.31809598  1
  S  S9  1  0.79515301  0.26983401  0.16352297  1
  S  S10  1  0.85228003  0.71621603  0.55807996  1
  S  S11  1  0.99983404  0.99872904  0.00081598  1
