# generated using pymatgen
data_LiZnCoP5O12
_symmetry_space_group_name_H-M   'P 1'
_cell_length_a   5.17459679
_cell_length_b   6.85475540
_cell_length_c   8.45931625
_cell_angle_alpha   68.92983246
_cell_angle_beta   87.72572327
_cell_angle_gamma   87.89460754
_symmetry_Int_Tables_number   1
_chemical_formula_structural   LiZnCoP5O12
_chemical_formula_sum   'Li1 Zn1 Co1 P5 O12'
_cell_volume   279.69361752
_cell_formula_units_Z   1
loop_
 _symmetry_equiv_pos_site_id
 _symmetry_equiv_pos_as_xyz
  1  'x, y, z'
loop_
 _atom_site_type_symbol
 _atom_site_label
 _atom_site_symmetry_multiplicity
 _atom_site_fract_x
 _atom_site_fract_y
 _atom_site_fract_z
 _atom_site_occupancy
  Zn  Zn0  1  0.24499799  0.21075599  0.73376300  1
  Li  Li1  1  0.75500196  0.78924398  0.26623705  1
  P  P2  1  0.23917100  0.11048200  0.16911501  1
  Co  Co3  1  0.27591497  0.45547699  0.30910402  1
  P  P4  1  0.72408498  0.54452299  0.69089602  1
  P  P5  1  0.76082895  0.88951798  0.83088504  1
  P  P6  1  0.17525198  0.30173799  0.47924301  1
  P  P7  1  0.04433292  0.94147598  0.77610703  1
  O  O8  1  0.09771195  0.64563298  0.23005003  1
  O  O9  1  0.28062198  0.33724699  0.17655902  1
  O  O10  1  0.30299900  0.13878900  0.98627599  1
  O  O11  1  0.42717293  0.95582797  0.29224105  1
  O  O12  1  0.44419597  0.48255699  0.68555101  1
  O  O13  1  0.55580398  0.51744299  0.31444903  1
  O  O14  1  0.57282702  0.04417200  0.70775900  1
  O  O15  1  0.69700095  0.86121098  0.01372406  1
  O  O16  1  0.71937797  0.66275298  0.82344103  1
  O  O17  1  0.90228800  0.35436699  0.76995002  1
  O  O18  1  0.95566703  0.05852400  0.22389302  1
  O  O19  1  0.82474797  0.69826198  0.52075704  1
