# generated using pymatgen
data_BrF3
_symmetry_space_group_name_H-M   'P 1'
_cell_length_a   4.87029839
_cell_length_b   4.87029839
_cell_length_c   6.22883320
_cell_angle_alpha   90.00000000
_cell_angle_beta   90.00000000
_cell_angle_gamma   106.88787079
_symmetry_Int_Tables_number   1
_chemical_formula_structural   BrF3
_chemical_formula_sum   'Br2 F6'
_cell_volume   141.37515534
_cell_formula_units_Z   2
loop_
 _symmetry_equiv_pos_site_id
 _symmetry_equiv_pos_as_xyz
  1  'x, y, z'
loop_
 _atom_site_type_symbol
 _atom_site_label
 _atom_site_symmetry_multiplicity
 _atom_site_fract_x
 _atom_site_fract_y
 _atom_site_fract_z
 _atom_site_occupancy
  Br  Br0  1  0.83980899  0.16019100  0.25776799  1
  Br  Br1  1  0.16019104  0.83980899  0.75776798  1
  F  F2  1  0.06762805  0.93237199  0.09080600  1
  F  F3  1  0.93237198  0.06762800  0.59080598  1
  F  F4  1  0.26236204  0.73763799  0.49889698  1
  F  F5  1  0.73763800  0.26236200  0.99889697  1
  F  F6  1  0.37013203  0.62986799  0.88252897  1
  F  F7  1  0.62986801  0.37013200  0.38252899  1
