# generated using pymatgen
data_SrLi3MnCoO11
_symmetry_space_group_name_H-M   'P 1'
_cell_length_a   3.84346008
_cell_length_b   7.75378275
_cell_length_c   7.85350466
_cell_angle_alpha   84.51942444
_cell_angle_beta   75.83606720
_cell_angle_gamma   75.65002441
_symmetry_Int_Tables_number   1
_chemical_formula_structural   SrLi3MnCoO11
_chemical_formula_sum   'Sr1 Li3 Mn1 Co1 O11'
_cell_volume   219.69831685
_cell_formula_units_Z   1
loop_
 _symmetry_equiv_pos_site_id
 _symmetry_equiv_pos_as_xyz
  1  'x, y, z'
loop_
 _atom_site_type_symbol
 _atom_site_label
 _atom_site_symmetry_multiplicity
 _atom_site_fract_x
 _atom_site_fract_y
 _atom_site_fract_z
 _atom_site_occupancy
  Sr  Sr0  1  0.65803912  0.91073199  0.77318997  1
  Li  Li1  1  0.34196100  0.08926800  0.22681000  1
  Li  Li2  1  0.62141503  0.30412500  0.45304500  1
  Li  Li3  1  0.37858509  0.69587499  0.54695497  1
  Mn  Mn4  1  0.08469810  0.66688799  0.16371596  1
  Co  Co5  1  0.91530202  0.33311200  0.83628401  1
  O  O6  1  0.19813012  0.84888999  0.75484996  1
  O  O7  1  0.80187000  0.15111000  0.24515001  1
  O  O8  1  0.85170308  0.72861599  0.56797798  1
  O  O9  1  0.14829704  0.27138400  0.43202199  1
  O  O10  1  0.49999998  0.00000000  0.00000001  1
  O  O11  1  0.43724406  0.46388899  0.66162299  1
  O  O12  1  0.56275606  0.53611099  0.33837698  1
  O  O13  1  0.61546500  0.11699100  0.65207902  1
  O  O14  1  0.38453512  0.88300899  0.34792096  1
  O  O15  1  0.71231707  0.63717999  0.93818599  1
  O  O16  1  0.28768305  0.36282000  0.06181398  1
