# generated using pymatgen
data_Rb2TlPdOF13
_symmetry_space_group_name_H-M   'P 1'
_cell_length_a   6.18539095
_cell_length_b   6.87981415
_cell_length_c   8.04576111
_cell_angle_alpha   101.35941315
_cell_angle_beta   90.00000000
_cell_angle_gamma   90.00000000
_symmetry_Int_Tables_number   1
_chemical_formula_structural   Rb2TlPdOF13
_chemical_formula_sum   'Rb2 Tl1 Pd1 O1 F13'
_cell_volume   335.67511384
_cell_formula_units_Z   1
loop_
 _symmetry_equiv_pos_site_id
 _symmetry_equiv_pos_as_xyz
  1  'x, y, z'
loop_
 _atom_site_type_symbol
 _atom_site_label
 _atom_site_symmetry_multiplicity
 _atom_site_fract_x
 _atom_site_fract_y
 _atom_site_fract_z
 _atom_site_occupancy
  Rb  Rb0  1  0.75000001  0.49145299  0.74622499  1
  Rb  Rb1  1  0.25000000  0.50854699  0.25377501  1
  Pd  Pd2  1  0.75000001  0.02678600  0.33808899  1
  Tl  Tl3  1  0.25000000  0.97321399  0.66191101  1
  O  O4  1  0.75000001  0.80373499  0.10173702  1
  F  F5  1  0.25000000  0.19626500  0.89826297  1
  F  F6  1  0.75000001  0.62870599  0.10233802  1
  F  F7  1  0.25000000  0.37129399  0.89766198  1
  F  F8  1  0.92064501  0.86889699  0.17725302  1
  F  F9  1  0.42064500  0.13110300  0.82274697  1
  F  F10  1  0.07935500  0.13110300  0.82274697  1
  F  F11  1  0.57935500  0.86889699  0.17725302  1
  F  F12  1  0.75000001  0.85926699  0.96748799  1
  F  F13  1  0.25000000  0.14073300  0.03251200  1
  F  F14  1  0.75000001  0.96213399  0.60152801  1
  F  F15  1  0.25000000  0.03786600  0.39847199  1
  F  F16  1  0.75000001  0.35224100  0.33578300  1
  F  F17  1  0.25000000  0.64775899  0.66421700  1
