# generated using pymatgen
data_Rb2LuBiBr6
_symmetry_space_group_name_H-M   'P 1'
_cell_length_a   8.12345219
_cell_length_b   8.12345219
_cell_length_c   8.12345219
_cell_angle_alpha   60.00000000
_cell_angle_beta   60.00000000
_cell_angle_gamma   60.00000000
_symmetry_Int_Tables_number   1
_chemical_formula_structural   Rb2LuBiBr6
_chemical_formula_sum   'Rb2 Lu1 Bi1 Br6'
_cell_volume   379.05906588
_cell_formula_units_Z   1
loop_
 _symmetry_equiv_pos_site_id
 _symmetry_equiv_pos_as_xyz
  1  'x, y, z'
loop_
 _atom_site_type_symbol
 _atom_site_label
 _atom_site_symmetry_multiplicity
 _atom_site_fract_x
 _atom_site_fract_y
 _atom_site_fract_z
 _atom_site_occupancy
  Rb  Rb0  1  0.24999999  0.24999999  0.24999999  1
  Rb  Rb1  1  0.74999998  0.74999998  0.74999998  1
  Lu  Lu2  1  0.49999999  0.49999999  0.49999999  1
  Bi  Bi3  1  0.00000000  0.00000000  0.00000000  1
  Br  Br4  1  0.25080599  0.74919398  0.25080599  1
  Br  Br5  1  0.25080599  0.25080599  0.74919398  1
  Br  Br6  1  0.74919398  0.25080599  0.74919398  1
  Br  Br7  1  0.25080599  0.74919398  0.74919398  1
  Br  Br8  1  0.74919398  0.25080599  0.25080599  1
  Br  Br9  1  0.74919398  0.74919398  0.25080599  1
