# generated using pymatgen
data_LiAlO2
_symmetry_space_group_name_H-M   'P 1'
_cell_length_a   5.06873512
_cell_length_b   5.29118776
_cell_length_c   6.31269598
_cell_angle_alpha   90.00000000
_cell_angle_beta   90.00000000
_cell_angle_gamma   90.00000000
_symmetry_Int_Tables_number   1
_chemical_formula_structural   LiAlO2
_chemical_formula_sum   'Li4 Al4 O8'
_cell_volume   169.30416579
_cell_formula_units_Z   4
loop_
 _symmetry_equiv_pos_site_id
 _symmetry_equiv_pos_as_xyz
  1  'x, y, z'
loop_
 _atom_site_type_symbol
 _atom_site_label
 _atom_site_symmetry_multiplicity
 _atom_site_fract_x
 _atom_site_fract_y
 _atom_site_fract_z
 _atom_site_occupancy
  Li  Li0  1  0.99446198  0.91697404  0.37593700  1
  Li  Li1  1  0.49446199  0.08302600  0.62406300  1
  Li  Li2  1  0.49446199  0.58302603  0.87593700  1
  Li  Li3  1  0.99446198  0.41697402  0.12406300  1
  Al  Al4  1  0.49387499  0.57197403  0.37492500  1
  Al  Al5  1  0.99387498  0.42802602  0.62507500  1
  Al  Al6  1  0.99387498  0.92802604  0.87492500  1
  Al  Al7  1  0.49387499  0.07197400  0.12507500  1
  O  O8  1  0.14865100  0.55573102  0.40175100  1
  O  O9  1  0.64865098  0.44426902  0.59824900  1
  O  O10  1  0.64865098  0.94426904  0.90175100  1
  O  O11  1  0.14865100  0.05573100  0.09824900  1
  O  O12  1  0.08901200  0.60903703  0.84714100  1
  O  O13  1  0.58901199  0.39096302  0.15285900  1
  O  O14  1  0.58901199  0.89096304  0.34714100  1
  O  O15  1  0.08901200  0.10903700  0.65285900  1
