# generated using pymatgen
data_LiSiP7CO10
_symmetry_space_group_name_H-M   'P 1'
_cell_length_a   5.28474998
_cell_length_b   5.30268526
_cell_length_c   9.41993332
_cell_angle_alpha   89.90810394
_cell_angle_beta   89.81558990
_cell_angle_gamma   60.11182404
_symmetry_Int_Tables_number   1
_chemical_formula_structural   LiSiP7CO10
_chemical_formula_sum   'Li1 Si1 P7 C1 O10'
_cell_volume   228.86784172
_cell_formula_units_Z   1
loop_
 _symmetry_equiv_pos_site_id
 _symmetry_equiv_pos_as_xyz
  1  'x, y, z'
loop_
 _atom_site_type_symbol
 _atom_site_label
 _atom_site_symmetry_multiplicity
 _atom_site_fract_x
 _atom_site_fract_y
 _atom_site_fract_z
 _atom_site_occupancy
  Si  Si0  1  0.00044901  0.31782800  0.99756204  1
  Li  Li1  1  0.99594902  0.67786000  0.74916305  1
  P  P2  1  0.31827702  0.68217200  0.49756202  1
  P  P3  1  0.67380901  0.32214000  0.24916302  1
  P  P4  1  0.33647002  0.65735700  0.00276500  1
  P  P5  1  0.67453501  0.33740400  0.75141505  1
  P  P6  1  0.99382701  0.34264300  0.50276504  1
  P  P7  1  0.01193902  0.66259600  0.25141500  1
  O  O8  1  0.90470301  0.43073100  0.82249806  1
  O  O9  1  0.34396201  0.56900000  0.82834704  1
  O  O10  1  0.75290200  0.02063000  0.78145606  1
  O  O11  1  0.66015601  0.44268600  0.57870804  1
  O  O12  1  0.07926501  0.57928900  0.57198602  1
  P  P13  1  0.22387200  0.02268600  0.53240003  1
  O  O14  1  0.91296201  0.43100000  0.32834703  1
  O  O15  1  0.33543401  0.56926900  0.32249801  1
  O  O16  1  0.77353203  0.97937000  0.28145602  1
  O  O17  1  0.65855401  0.42071100  0.07198601  1
  O  O18  1  0.10284201  0.55731400  0.07870800  1
  C  C19  1  0.24655802  0.97731400  0.03239999  1
