# generated using pymatgen
data_TiGe2PO10
_symmetry_space_group_name_H-M   'P 1'
_cell_length_a   4.21344185
_cell_length_b   6.51318884
_cell_length_c   6.51318884
_cell_angle_alpha   90.00000000
_cell_angle_beta   90.00000000
_cell_angle_gamma   90.00000000
_symmetry_Int_Tables_number   1
_chemical_formula_structural   TiGe2PO10
_chemical_formula_sum   'Ti1 Ge2 P1 O10'
_cell_volume   178.74106630
_cell_formula_units_Z   1
loop_
 _symmetry_equiv_pos_site_id
 _symmetry_equiv_pos_as_xyz
  1  'x, y, z'
loop_
 _atom_site_type_symbol
 _atom_site_label
 _atom_site_symmetry_multiplicity
 _atom_site_fract_x
 _atom_site_fract_y
 _atom_site_fract_z
 _atom_site_occupancy
  Ge  Ge0  1  0.22349101  0.50000001  0.00000000  1
  Ti  Ti1  1  0.77650903  0.00000000  0.50000001  1
  Ge  Ge2  1  0.50000002  0.00000000  -0.00000000  1
  P  P3  1  0.50000002  0.50000001  0.50000001  1
  O  O4  1  0.71023303  0.00000000  0.80653602  1
  O  O5  1  0.71023303  1.00000002  0.19346400  1
  O  O6  1  0.19964601  0.00000000  0.50000001  1
  O  O7  1  0.80035403  0.50000001  0.00000000  1
  O  O8  1  0.71023303  0.69346402  0.50000001  1
  O  O9  1  0.71023303  0.30653601  0.50000001  1
  O  O10  1  0.28976701  0.19346400  -0.00000000  1
  O  O11  1  0.28976701  0.50000001  0.30653601  1
  O  O12  1  0.28976701  0.50000001  0.69346402  1
  O  O13  1  0.28976701  0.80653602  -0.00000000  1
