# generated using pymatgen
data_LaY(HO)6
_symmetry_space_group_name_H-M   'P 1'
_cell_length_a   3.51468706
_cell_length_b   6.33332491
_cell_length_c   6.44006729
_cell_angle_alpha   118.48127747
_cell_angle_beta   90.00000000
_cell_angle_gamma   90.00000000
_symmetry_Int_Tables_number   1
_chemical_formula_structural   LaY(HO)6
_chemical_formula_sum   'La1 Y1 H6 O6'
_cell_volume   126.00400948
_cell_formula_units_Z   1
loop_
 _symmetry_equiv_pos_site_id
 _symmetry_equiv_pos_as_xyz
  1  'x, y, z'
loop_
 _atom_site_type_symbol
 _atom_site_label
 _atom_site_symmetry_multiplicity
 _atom_site_fract_x
 _atom_site_fract_y
 _atom_site_fract_z
 _atom_site_occupancy
  La  La0  1  0.74999999  0.65785300  0.82667397  1
  Y  Y1  1  0.25000000  0.34214700  0.17332599  1
  H  H2  1  0.74999999  0.14731000  0.36313999  1
  H  H3  1  0.74999999  0.73335700  0.36726798  1
  H  H4  1  0.74999999  0.14026300  0.80521398  1
  H  H5  1  0.25000000  0.85269000  0.63685997  1
  H  H6  1  0.25000000  0.26664300  0.63273198  1
  H  H7  1  0.25000000  0.85973700  0.19478598  1
  O  O8  1  0.74999999  0.09312400  0.19421399  1
  O  O9  1  0.74999999  0.60982800  0.41613198  1
  O  O10  1  0.74999999  0.31337400  0.90668297  1
  O  O11  1  0.25000000  0.90687600  0.80578596  1
  O  O12  1  0.25000000  0.39017200  0.58386798  1
  O  O13  1  0.25000000  0.68662600  0.09331698  1
