# generated using pymatgen
data_Ag2GeS9
_symmetry_space_group_name_H-M   'P 1'
_cell_length_a   4.90548086
_cell_length_b   5.29574060
_cell_length_c   9.32544231
_cell_angle_alpha   90.00000000
_cell_angle_beta   90.00000000
_cell_angle_gamma   102.42788696
_symmetry_Int_Tables_number   1
_chemical_formula_structural   Ag2GeS9
_chemical_formula_sum   'Ag2 Ge1 S9'
_cell_volume   236.58110844
_cell_formula_units_Z   1
loop_
 _symmetry_equiv_pos_site_id
 _symmetry_equiv_pos_as_xyz
  1  'x, y, z'
loop_
 _atom_site_type_symbol
 _atom_site_label
 _atom_site_symmetry_multiplicity
 _atom_site_fract_x
 _atom_site_fract_y
 _atom_site_fract_z
 _atom_site_occupancy
  Ag  Ag0  1  0.00182399  0.34692200  0.74999997  1
  Ag  Ag1  1  0.99817601  0.65307801  0.24999999  1
  S  S2  1  0.26918299  0.88989501  0.74999997  1
  Ge  Ge3  1  0.73081702  0.11010500  0.24999999  1
  S  S4  1  0.61697699  0.95757601  0.59380498  1
  S  S5  1  0.38302301  0.04242400  0.09380500  1
  S  S6  1  0.38302301  0.04242400  0.40619499  1
  S  S7  1  0.61697699  0.95757601  0.90619497  1
  S  S8  1  0.71787201  0.59432701  0.52818198  1
  S  S9  1  0.28212800  0.40567300  0.02818200  1
  S  S10  1  0.28212800  0.40567300  0.47181798  1
  S  S11  1  0.71787201  0.59432701  0.97181797  1
