# generated using pymatgen
data_KF
_symmetry_space_group_name_H-M   'P 1'
_cell_length_a   6.43510389
_cell_length_b   6.67009020
_cell_length_c   6.67009020
_cell_angle_alpha   76.54418945
_cell_angle_beta   61.15870667
_cell_angle_gamma   61.15870667
_symmetry_Int_Tables_number   1
_chemical_formula_structural   KF
_chemical_formula_sum   'K4 F4'
_cell_volume   219.67810982
_cell_formula_units_Z   4
loop_
 _symmetry_equiv_pos_site_id
 _symmetry_equiv_pos_as_xyz
  1  'x, y, z'
loop_
 _atom_site_type_symbol
 _atom_site_label
 _atom_site_symmetry_multiplicity
 _atom_site_fract_x
 _atom_site_fract_y
 _atom_site_fract_z
 _atom_site_occupancy
  K  K0  1  0.75000000  0.50000000  0.49999999  1
  K  K1  1  0.24999999  0.50000000  0.50000001  1
  K  K2  1  0.75000002  0.00000000  -0.00000002  1
  K  K3  1  0.25000001  0.00000000  -0.00000001  1
  F  F4  1  0.65687400  0.50000000  0.18625200  1
  F  F5  1  0.15687300  0.18625300  0.50000000  1
  F  F6  1  0.34312599  0.50000000  0.81374800  1
  F  F7  1  0.84312699  0.81374699  0.50000000  1
