# generated using pymatgen
data_Ti2MnGe4S9
_symmetry_space_group_name_H-M   'P 1'
_cell_length_a   6.77190590
_cell_length_b   6.77190590
_cell_length_c   7.84268045
_cell_angle_alpha   89.98025513
_cell_angle_beta   89.98025513
_cell_angle_gamma   109.31360626
_symmetry_Int_Tables_number   1
_chemical_formula_structural   Ti2MnGe4S9
_chemical_formula_sum   'Ti2 Mn1 Ge4 S9'
_cell_volume   339.41462580
_cell_formula_units_Z   1
loop_
 _symmetry_equiv_pos_site_id
 _symmetry_equiv_pos_as_xyz
  1  'x, y, z'
loop_
 _atom_site_type_symbol
 _atom_site_label
 _atom_site_symmetry_multiplicity
 _atom_site_fract_x
 _atom_site_fract_y
 _atom_site_fract_z
 _atom_site_occupancy
  Mn  Mn0  1  0.50027798  0.49972198  0.50000005  1
  Ti  Ti1  1  0.00217798  0.99782197  0.50000005  1
  Ge  Ge2  1  0.49794498  0.50205498  0.00000006  1
  Ti  Ti3  1  0.00195799  0.50203398  0.74666102  1
  Ge  Ge4  1  0.49796597  0.99804197  0.25333908  1
  Ge  Ge5  1  0.00023199  0.50039798  0.25375103  1
  Ge  Ge6  1  0.49960197  0.99976797  0.74624908  1
  S  S7  1  0.99949797  0.00050200  0.00000006  1
  S  S8  1  0.36798798  0.60933798  0.75365505  1
  S  S9  1  0.85912797  0.11569300  0.27278905  1
  S  S10  1  0.88430697  0.14087200  0.72721105  1
  S  S11  1  0.39066198  0.63201198  0.24634506  1
  S  S12  1  0.85961497  0.59837598  0.98761207  1
  S  S13  1  0.36269099  0.12567200  0.48875802  1
  S  S14  1  0.87432796  0.63730898  0.51124208  1
  S  S15  1  0.40162399  0.14038500  0.01238803  1
