# generated using pymatgen
data_Ti2ZnCr3S8
_symmetry_space_group_name_H-M   'P 1'
_cell_length_a   5.89896488
_cell_length_b   5.89896488
_cell_length_c   5.89896488
_cell_angle_alpha   109.47122192
_cell_angle_beta   109.47122192
_cell_angle_gamma   109.47122192
_symmetry_Int_Tables_number   1
_chemical_formula_structural   Ti2ZnCr3S8
_chemical_formula_sum   'Ti2 Zn1 Cr3 S8'
_cell_volume   158.01762157
_cell_formula_units_Z   1
loop_
 _symmetry_equiv_pos_site_id
 _symmetry_equiv_pos_as_xyz
  1  'x, y, z'
loop_
 _atom_site_type_symbol
 _atom_site_label
 _atom_site_symmetry_multiplicity
 _atom_site_fract_x
 _atom_site_fract_y
 _atom_site_fract_z
 _atom_site_occupancy
  Ti  Ti0  1  0.25000003  0.37500002  0.12500003  1
  Ti  Ti1  1  0.37500005  0.62500003  0.75000005  1
  Cr  Cr2  1  0.12500006  0.87500004  0.25000005  1
  Cr  Cr3  1  0.87500006  0.75000004  0.62500007  1
  Cr  Cr4  1  0.62500003  0.25000001  0.87500004  1
  Zn  Zn5  1  0.75000002  0.12500001  0.37500003  1
  S  S6  1  0.36309907  1.00000005  1.00000008  1
  S  S7  1  0.63690105  0.63690103  0.13690105  1
  S  S8  1  0.50000006  0.86309904  0.50000007  1
  S  S9  1  1.00000005  0.50000003  0.36309906  1
  S  S10  1  0.50000003  0.36309902  0.50000004  1
  S  S11  1  1.00000005  0.50000003  0.86309906  1
  S  S12  1  0.86309908  1.00000005  1.00000009  1
  S  S13  1  0.13690101  0.13690101  0.63690102  1
