# generated using pymatgen
data_CsRbNa2V2O8
_symmetry_space_group_name_H-M   'P 1'
_cell_length_a   6.01606417
_cell_length_b   6.01606369
_cell_length_c   7.81323195
_cell_angle_alpha   90.00000000
_cell_angle_beta   90.00000000
_cell_angle_gamma   120.00000000
_symmetry_Int_Tables_number   1
_chemical_formula_structural   CsRbNa2V2O8
_chemical_formula_sum   'Cs1 Rb1 Na2 V2 O8'
_cell_volume   244.89856134
_cell_formula_units_Z   1
loop_
 _symmetry_equiv_pos_site_id
 _symmetry_equiv_pos_as_xyz
  1  'x, y, z'
loop_
 _atom_site_type_symbol
 _atom_site_label
 _atom_site_symmetry_multiplicity
 _atom_site_fract_x
 _atom_site_fract_y
 _atom_site_fract_z
 _atom_site_occupancy
  Rb  Rb0  1  0.66666664  0.33333333  0.29741100  1
  Na  Na1  1  0.33333331  0.66666667  0.70258900  1
  Cs  Cs2  1  0.00000000  0.00000000  0.00000000  1
  Na  Na3  1  0.00000000  0.00000000  0.50000000  1
  V  V4  1  0.66666664  0.33333333  0.74808301  1
  V  V5  1  0.33333331  0.66666667  0.25191700  1
  O  O6  1  0.66666664  0.33333333  0.96403001  1
  O  O7  1  0.33333331  0.66666667  0.03597000  1
  O  O8  1  0.82608896  0.65217800  0.66994600  1
  O  O9  1  0.17391099  0.34782200  0.33005400  1
  O  O10  1  0.82608897  0.17391200  0.66994600  1
  O  O11  1  0.17391097  0.82608800  0.33005400  1
  O  O12  1  0.34782299  0.17391200  0.66994600  1
  O  O13  1  0.65217696  0.82608800  0.33005400  1
