# generated using pymatgen
data_Li3Cd2GeBr8
_symmetry_space_group_name_H-M   'P 1'
_cell_length_a   7.82915735
_cell_length_b   7.82915735
_cell_length_c   7.82915735
_cell_angle_alpha   89.39881134
_cell_angle_beta   60.15829468
_cell_angle_gamma   119.46566772
_symmetry_Int_Tables_number   1
_chemical_formula_structural   Li3Cd2GeBr8
_chemical_formula_sum   'Li3 Cd2 Ge1 Br8'
_cell_volume   341.08751145
_cell_formula_units_Z   1
loop_
 _symmetry_equiv_pos_site_id
 _symmetry_equiv_pos_as_xyz
  1  'x, y, z'
loop_
 _atom_site_type_symbol
 _atom_site_label
 _atom_site_symmetry_multiplicity
 _atom_site_fract_x
 _atom_site_fract_y
 _atom_site_fract_z
 _atom_site_occupancy
  Li  Li0  1  0.24999999  0.36916900  0.88083105  1
  Li  Li1  1  -0.00000001  0.50000000  0.50000004  1
  Li  Li2  1  0.50000000  0.00000000  0.50000002  1
  Ge  Ge3  1  0.74999999  0.63083100  0.11916907  1
  Cd  Cd4  1  0.00000000  0.00000000  0.50000001  1
  Cd  Cd5  1  0.50000000  0.00000000  0.00000002  1
  Br  Br6  1  0.98929699  0.23580400  0.27489906  1
  Br  Br7  1  0.97965999  0.23281100  0.74684906  1
  Br  Br8  1  0.51070299  0.23580400  0.75349304  1
  Br  Br9  1  0.52033999  0.77349100  0.74684908  1
  Br  Br10  1  0.47965999  0.22650900  0.25315104  1
  Br  Br11  1  0.48929699  0.76419600  0.24650707  1
  Br  Br12  1  0.02033999  0.76718900  0.25315105  1
  Br  Br13  1  0.01070299  0.76419600  0.72510106  1
