# generated using pymatgen
data_Li2HCN3O
_symmetry_space_group_name_H-M   'P 1'
_cell_length_a   3.33187890
_cell_length_b   4.56920719
_cell_length_c   5.36168814
_cell_angle_alpha   90.00000000
_cell_angle_beta   90.00000000
_cell_angle_gamma   90.00000000
_symmetry_Int_Tables_number   1
_chemical_formula_structural   Li2HCN3O
_chemical_formula_sum   'Li2 H1 C1 N3 O1'
_cell_volume   81.62658165
_cell_formula_units_Z   1
loop_
 _symmetry_equiv_pos_site_id
 _symmetry_equiv_pos_as_xyz
  1  'x, y, z'
loop_
 _atom_site_type_symbol
 _atom_site_label
 _atom_site_symmetry_multiplicity
 _atom_site_fract_x
 _atom_site_fract_y
 _atom_site_fract_z
 _atom_site_occupancy
  Li  Li0  1  0.50000001  0.49999998  0.49999999  1
  Li  Li1  1  0.00000000  0.00000000  0.00000000  1
  C  C2  1  0.50000001  0.49999998  0.00000000  1
  H  H3  1  0.00000000  0.00000000  0.49999999  1
  N  N4  1  0.50000001  0.28014299  0.87052598  1
  N  N5  1  0.50000001  0.71985697  0.12947400  1
  N  N6  1  0.00000000  0.21985699  0.37052599  1
  O  O7  1  0.00000000  0.78014297  0.62947398  1
