# generated using pymatgen
data_RbBaTlAgSe4
_symmetry_space_group_name_H-M   'P 1'
_cell_length_a   4.04941607
_cell_length_b   4.04941607
_cell_length_c   16.05115891
_cell_angle_alpha   90.00000000
_cell_angle_beta   90.00000000
_cell_angle_gamma   120.00000000
_symmetry_Int_Tables_number   1
_chemical_formula_structural   RbBaTlAgSe4
_chemical_formula_sum   'Rb1 Ba1 Tl1 Ag1 Se4'
_cell_volume   227.94067444
_cell_formula_units_Z   1
loop_
 _symmetry_equiv_pos_site_id
 _symmetry_equiv_pos_as_xyz
  1  'x, y, z'
loop_
 _atom_site_type_symbol
 _atom_site_label
 _atom_site_symmetry_multiplicity
 _atom_site_fract_x
 _atom_site_fract_y
 _atom_site_fract_z
 _atom_site_occupancy
  Ba  Ba0  1  0.66666665  0.33333332  0.75000000  1
  Rb  Rb1  1  0.33333332  0.66666663  0.25000000  1
  Tl  Tl2  1  0.00000000  0.00000000  0.50000000  1
  Ag  Ag3  1  0.00000000  0.00000000  0.00000000  1
  Se  Se4  1  0.66666665  0.33333332  0.08978600  1
  Se  Se5  1  0.33333332  0.66666663  0.91021401  1
  Se  Se6  1  0.33333332  0.66666663  0.58978600  1
  Se  Se7  1  0.66666665  0.33333332  0.41021400  1
