# generated using pymatgen
data_LiCoO3
_symmetry_space_group_name_H-M   'P 1'
_cell_length_a   2.81761813
_cell_length_b   5.79730988
_cell_length_c   6.64180279
_cell_angle_alpha   104.18536377
_cell_angle_beta   102.24617767
_cell_angle_gamma   90.00001526
_symmetry_Int_Tables_number   1
_chemical_formula_structural   LiCoO3
_chemical_formula_sum   'Li2 Co2 O6'
_cell_volume   102.63488027
_cell_formula_units_Z   2
loop_
 _symmetry_equiv_pos_site_id
 _symmetry_equiv_pos_as_xyz
  1  'x, y, z'
loop_
 _atom_site_type_symbol
 _atom_site_label
 _atom_site_symmetry_multiplicity
 _atom_site_fract_x
 _atom_site_fract_y
 _atom_site_fract_z
 _atom_site_occupancy
  Li  Li0  1  0.33156599  0.16211400  0.66313399  1
  Li  Li1  1  0.99790997  0.99311602  0.99581997  1
  Co  Co2  1  0.33865699  0.65862901  0.67731499  1
  Co  Co3  1  0.66264797  0.34947401  0.32529498  1
  O  O4  1  0.49559498  0.20763600  0.99119098  1
  O  O5  1  0.18918800  0.57265401  0.37837799  1
  O  O6  1  0.84807097  0.88871902  0.69614197  1
  O  O7  1  0.14935099  0.12449900  0.29870199  1
  O  O8  1  0.83080697  0.43541801  0.66161297  1
  O  O9  1  0.48953699  0.77440902  0.97907498  1
