# generated using pymatgen
data_Er2SiSO8
_symmetry_space_group_name_H-M   'P 1'
_cell_length_a   5.82996321
_cell_length_b   5.82996321
_cell_length_c   5.82996321
_cell_angle_alpha   105.97685242
_cell_angle_beta   105.97685242
_cell_angle_gamma   116.71174622
_symmetry_Int_Tables_number   1
_chemical_formula_structural   Er2SiSO8
_chemical_formula_sum   'Er2 Si1 S1 O8'
_cell_volume   150.68814665
_cell_formula_units_Z   1
loop_
 _symmetry_equiv_pos_site_id
 _symmetry_equiv_pos_as_xyz
  1  'x, y, z'
loop_
 _atom_site_type_symbol
 _atom_site_label
 _atom_site_symmetry_multiplicity
 _atom_site_fract_x
 _atom_site_fract_y
 _atom_site_fract_z
 _atom_site_occupancy
  Er  Er0  1  0.75000004  0.25000002  0.50000005  1
  Er  Er1  1  0.00000000  0.00000000  0.00000000  1
  S  S2  1  0.25000008  0.75000005  0.50000007  1
  Si  Si3  1  0.50000006  0.50000004  1.00000007  1
  O  O4  1  0.09106708  0.76391806  0.67285107  1
  O  O5  1  0.51714304  0.34270502  0.17443805  1
  O  O6  1  0.16826704  0.34270502  0.82556204  1
  O  O7  1  0.09106704  0.41821603  0.32714904  1
  O  O8  1  0.65729506  0.48285703  0.82556207  1
  O  O9  1  0.23608209  0.90893307  0.32714909  1
  O  O10  1  0.58178410  0.90893307  0.67285110  1
  O  O11  1  0.65729509  0.83173306  0.17443810  1
