# generated using pymatgen
data_Cd2Ag(PO4)2
_symmetry_space_group_name_H-M   'P 1'
_cell_length_a   4.87300491
_cell_length_b   5.71340466
_cell_length_c   6.86984921
_cell_angle_alpha   74.24088287
_cell_angle_beta   87.08333588
_cell_angle_gamma   69.82601929
_symmetry_Int_Tables_number   1
_chemical_formula_structural   Cd2Ag(PO4)2
_chemical_formula_sum   'Cd2 Ag1 P2 O8'
_cell_volume   172.59018100
_cell_formula_units_Z   1
loop_
 _symmetry_equiv_pos_site_id
 _symmetry_equiv_pos_as_xyz
  1  'x, y, z'
loop_
 _atom_site_type_symbol
 _atom_site_label
 _atom_site_symmetry_multiplicity
 _atom_site_fract_x
 _atom_site_fract_y
 _atom_site_fract_z
 _atom_site_occupancy
  Cd  Cd0  1  0.29691100  0.28175001  0.30622797  1
  Cd  Cd1  1  0.70308899  0.71825003  0.69377194  1
  Ag  Ag2  1  0.00000000  0.00000000  0.00000000  1
  P  P3  1  0.62871299  0.68360603  0.21422596  1
  P  P4  1  0.37128700  0.31639402  0.78577395  1
  O  O5  1  0.61407399  0.86478804  0.35035895  1
  O  O6  1  0.38592600  0.13521201  0.64964096  1
  O  O7  1  0.76867799  0.77993504  0.01115696  1
  O  O8  1  0.23132200  0.22006501  0.98884296  1
  O  O9  1  0.68479800  0.30900001  0.83974394  1
  O  O10  1  0.80174700  0.39928002  0.32323095  1
  O  O11  1  0.19825299  0.60072003  0.67676896  1
  O  O12  1  0.31520199  0.69100003  0.16025597  1
