# generated using pymatgen
data_Ba5SrI12
_symmetry_space_group_name_H-M   'P 1'
_cell_length_a   7.99448490
_cell_length_b   7.99448490
_cell_length_c   15.61652088
_cell_angle_alpha   90.00000000
_cell_angle_beta   90.00000000
_cell_angle_gamma   90.00000000
_symmetry_Int_Tables_number   1
_chemical_formula_structural   Ba5SrI12
_chemical_formula_sum   'Ba5 Sr1 I12'
_cell_volume   998.07978499
_cell_formula_units_Z   1
loop_
 _symmetry_equiv_pos_site_id
 _symmetry_equiv_pos_as_xyz
  1  'x, y, z'
loop_
 _atom_site_type_symbol
 _atom_site_label
 _atom_site_symmetry_multiplicity
 _atom_site_fract_x
 _atom_site_fract_y
 _atom_site_fract_z
 _atom_site_occupancy
  Ba  Ba0  1  0.00000000  0.00000000  0.83342501  1
  Ba  Ba1  1  0.00000000  0.00000000  0.16657500  1
  Ba  Ba2  1  0.50000001  0.50000001  0.33342500  1
  Ba  Ba3  1  0.50000001  0.50000001  0.66657501  1
  Ba  Ba4  1  0.00000000  0.00000000  0.50000000  1
  Sr  Sr5  1  0.50000001  0.50000001  0.00000000  1
  I  I6  1  0.20544100  0.79455901  0.00000000  1
  I  I7  1  0.19236900  0.80763101  0.65968400  1
  I  I8  1  0.19236900  0.80763101  0.34031600  1
  I  I9  1  0.30763100  0.30763100  0.84031601  1
  I  I10  1  0.30763100  0.30763100  0.15968400  1
  I  I11  1  0.29455900  0.29455900  0.50000000  1
  I  I12  1  0.70544101  0.70544101  0.50000000  1
  I  I13  1  0.69236901  0.69236901  0.15968400  1
  I  I14  1  0.69236901  0.69236901  0.84031601  1
  I  I15  1  0.80763101  0.19236900  0.34031600  1
  I  I16  1  0.80763101  0.19236900  0.65968400  1
  I  I17  1  0.79455901  0.20544100  0.00000000  1
