# generated using pymatgen
data_Li3FeCo2Ni(CO2)3
_symmetry_space_group_name_H-M   'P 1'
_cell_length_a   4.70463514
_cell_length_b   5.32000971
_cell_length_c   5.32000971
_cell_angle_alpha   115.83139038
_cell_angle_beta   90.00000000
_cell_angle_gamma   90.00000000
_symmetry_Int_Tables_number   1
_chemical_formula_structural   Li3FeCo2Ni(CO2)3
_chemical_formula_sum   'Li3 Fe1 Co2 Ni1 C3 O6'
_cell_volume   119.84833379
_cell_formula_units_Z   1
loop_
 _symmetry_equiv_pos_site_id
 _symmetry_equiv_pos_as_xyz
  1  'x, y, z'
loop_
 _atom_site_type_symbol
 _atom_site_label
 _atom_site_symmetry_multiplicity
 _atom_site_fract_x
 _atom_site_fract_y
 _atom_site_fract_z
 _atom_site_occupancy
  Li  Li0  1  0.49999998  0.88722600  0.47202103  1
  Li  Li1  1  0.49999998  0.47202100  0.88722601  1
  Co  Co2  1  0.81710198  0.74233100  0.74233102  1
  Li  Li3  1  0.69378798  0.90226900  0.09766103  1
  Fe  Fe4  1  0.69378798  0.09766100  0.90226899  1
  Co  Co5  1  0.18345799  0.25654000  0.25654001  1
  O  O6  1  0.99999997  0.00650100  0.66766599  1
  Ni  Ni7  1  0.30621199  0.09766100  0.90226899  1
  O  O8  1  0.99999997  0.33065700  0.99286100  1
  O  O9  1  -0.00000000  0.66766600  0.00650102  1
  C  C10  1  0.30621199  0.90226900  0.09766103  1
  O  O11  1  0.18289799  0.74233100  0.74233102  1
  O  O12  1  -0.00000000  0.99286100  0.33065703  1
  O  O13  1  0.81654198  0.25654000  0.25654001  1
  C  C14  1  0.64651198  0.49803200  0.49803201  1
  C  C15  1  0.35348799  0.49803200  0.49803201  1
