# generated using pymatgen
data_CuAg(PO4)2
_symmetry_space_group_name_H-M   'P 1'
_cell_length_a   4.96573734
_cell_length_b   4.96573734
_cell_length_c   7.25969791
_cell_angle_alpha   90.00000000
_cell_angle_beta   90.00000000
_cell_angle_gamma   112.76389313
_symmetry_Int_Tables_number   1
_chemical_formula_structural   CuAg(PO4)2
_chemical_formula_sum   'Cu1 Ag1 P2 O8'
_cell_volume   165.06972935
_cell_formula_units_Z   1
loop_
 _symmetry_equiv_pos_site_id
 _symmetry_equiv_pos_as_xyz
  1  'x, y, z'
loop_
 _atom_site_type_symbol
 _atom_site_label
 _atom_site_symmetry_multiplicity
 _atom_site_fract_x
 _atom_site_fract_y
 _atom_site_fract_z
 _atom_site_occupancy
  Cu  Cu0  1  0.00000000  0.00000000  0.50000001  1
  Ag  Ag1  1  0.00000000  0.00000000  0.00000000  1
  P  P2  1  0.35048095  0.64951897  0.75000001  1
  P  P3  1  0.64951896  0.35048098  0.25000000  1
  O  O4  1  0.74501196  0.25498799  0.43163101  1
  O  O5  1  0.25498795  0.74501196  0.93163101  1
  O  O6  1  0.25498795  0.74501196  0.56836901  1
  O  O7  1  0.74501196  0.25498799  0.06836900  1
  O  O8  1  0.77029994  0.69488797  0.25000000  1
  O  O9  1  0.22969998  0.30511198  0.75000001  1
  O  O10  1  0.69488794  0.77029996  0.75000001  1
  O  O11  1  0.30511198  0.22969999  0.25000000  1
