# generated using pymatgen
data_Zn3Si3PH7
_symmetry_space_group_name_H-M   'P 1'
_cell_length_a   3.79036403
_cell_length_b   6.83347702
_cell_length_c   7.08973312
_cell_angle_alpha   90.00000000
_cell_angle_beta   90.00000000
_cell_angle_gamma   90.00000000
_symmetry_Int_Tables_number   1
_chemical_formula_structural   Zn3Si3PH7
_chemical_formula_sum   'Zn3 Si3 P1 H7'
_cell_volume   183.63376877
_cell_formula_units_Z   1
loop_
 _symmetry_equiv_pos_site_id
 _symmetry_equiv_pos_as_xyz
  1  'x, y, z'
loop_
 _atom_site_type_symbol
 _atom_site_label
 _atom_site_symmetry_multiplicity
 _atom_site_fract_x
 _atom_site_fract_y
 _atom_site_fract_z
 _atom_site_occupancy
  H  H0  1  0.96310999  0.00000000  0.49999999  1
  Si  Si1  1  0.03689000  0.50000000  -0.00000000  1
  Zn  Zn2  1  0.75858299  0.00000000  -0.00000000  1
  Zn  Zn3  1  0.24141700  0.50000000  0.49999999  1
  Si  Si4  1  0.76070499  0.73673800  0.00000000  1
  Si  Si5  1  0.76070499  0.26326200  -0.00000000  1
  Zn  Zn6  1  0.74353299  0.50000000  0.49999999  1
  H  H7  1  0.75198499  0.00000000  0.74473999  1
  H  H8  1  0.75198499  0.00000000  0.25526000  1
  P  P9  1  0.24801500  0.50000000  0.24474000  1
  H  H10  1  0.24801500  0.50000000  0.75525999  1
  H  H11  1  0.25646700  0.00000000  -0.00000000  1
  H  H12  1  0.23929500  0.76326200  0.49999999  1
  H  H13  1  0.23929500  0.23673800  0.49999999  1
