# generated using pymatgen
data_CeTiO4
_symmetry_space_group_name_H-M   'P 1'
_cell_length_a   5.11944485
_cell_length_b   5.37056971
_cell_length_c   6.57945013
_cell_angle_alpha   111.93207550
_cell_angle_beta   110.65405273
_cell_angle_gamma   95.10604095
_symmetry_Int_Tables_number   1
_chemical_formula_structural   CeTiO4
_chemical_formula_sum   'Ce2 Ti2 O8'
_cell_volume   151.85774651
_cell_formula_units_Z   2
loop_
 _symmetry_equiv_pos_site_id
 _symmetry_equiv_pos_as_xyz
  1  'x, y, z'
loop_
 _atom_site_type_symbol
 _atom_site_label
 _atom_site_symmetry_multiplicity
 _atom_site_fract_x
 _atom_site_fract_y
 _atom_site_fract_z
 _atom_site_occupancy
  Ce  Ce0  1  0.61959905  0.86959902  0.73919804  1
  Ce  Ce1  1  0.38040101  0.13040100  0.26080200  1
  Ti  Ti2  1  0.14622202  0.39622201  0.79244404  1
  Ti  Ti3  1  0.85377804  0.60377801  0.20755600  1
  O  O4  1  0.00586204  0.71302701  0.93646107  1
  O  O5  1  0.71256603  0.55111901  0.41992201  1
  O  O6  1  0.99413802  0.28697300  0.06353897  1
  O  O7  1  0.79264401  0.13119700  0.58007798  1
  O  O8  1  0.43059901  0.22343400  0.93646101  1
  O  O9  1  0.20735605  0.86880302  0.41992206  1
  O  O10  1  0.28743403  0.44888101  0.58007803  1
  O  O11  1  0.56940105  0.77656601  0.06353903  1
