# generated using pymatgen
data_K3Li(PO4)2
_symmetry_space_group_name_H-M   'P 1'
_cell_length_a   5.70016623
_cell_length_b   6.38816690
_cell_length_c   6.86440372
_cell_angle_alpha   79.32484436
_cell_angle_beta   65.46824646
_cell_angle_gamma   63.50303650
_symmetry_Int_Tables_number   1
_chemical_formula_structural   K3Li(PO4)2
_chemical_formula_sum   'K3 Li1 P2 O8'
_cell_volume   203.50842435
_cell_formula_units_Z   1
loop_
 _symmetry_equiv_pos_site_id
 _symmetry_equiv_pos_as_xyz
  1  'x, y, z'
loop_
 _atom_site_type_symbol
 _atom_site_label
 _atom_site_symmetry_multiplicity
 _atom_site_fract_x
 _atom_site_fract_y
 _atom_site_fract_z
 _atom_site_occupancy
  Li  Li0  1  0.44977099  0.10045800  0.49999999  1
  K  K1  1  0.05022900  0.89954198  0.49999998  1
  K  K2  1  0.30022899  0.39954199  -0.00000001  1
  K  K3  1  0.69977098  0.60045799  -0.00000002  1
  P  P4  1  0.74999998  0.49999999  0.49999997  1
  P  P5  1  0.00000000  0.00000000  0.00000000  1
  O  O6  1  0.75336498  0.65412399  0.63841297  1
  O  O7  1  0.04590300  0.34587499  0.36158599  1
  O  O8  1  0.59251198  0.65412399  0.36158598  1
  O  O9  1  0.60822298  0.34587499  0.63841298  1
  O  O10  1  0.99663497  0.84587598  0.86158696  1
  O  O11  1  0.70409698  0.15412500  0.13841398  1
  O  O12  1  0.14177700  0.15412500  0.86158699  1
  O  O13  1  0.15748799  0.84587598  0.13841398  1
