# generated using pymatgen
data_TiZnMo3O13
_symmetry_space_group_name_H-M   'P 1'
_cell_length_a   4.61020613
_cell_length_b   4.61020613
_cell_length_c   9.16008759
_cell_angle_alpha   90.00000000
_cell_angle_beta   90.00000000
_cell_angle_gamma   90.00000000
_symmetry_Int_Tables_number   1
_chemical_formula_structural   TiZnMo3O13
_chemical_formula_sum   'Ti1 Zn1 Mo3 O13'
_cell_volume   194.68850644
_cell_formula_units_Z   1
loop_
 _symmetry_equiv_pos_site_id
 _symmetry_equiv_pos_as_xyz
  1  'x, y, z'
loop_
 _atom_site_type_symbol
 _atom_site_label
 _atom_site_symmetry_multiplicity
 _atom_site_fract_x
 _atom_site_fract_y
 _atom_site_fract_z
 _atom_site_occupancy
  Zn  Zn0  1  0.00000000  0.00000000  0.33407102  1
  Ti  Ti1  1  0.49999999  0.49999999  0.83407104  1
  Mo  Mo2  1  0.00000000  0.00000000  0.66592903  1
  Mo  Mo3  1  0.49999999  0.49999999  0.16592901  1
  O  O4  1  0.00000000  0.00000000  0.00000000  1
  Mo  Mo5  1  0.49999999  0.49999999  0.50000002  1
  O  O6  1  0.69217598  0.69217598  0.66198403  1
  O  O7  1  0.30782399  0.30782399  0.66198403  1
  O  O8  1  0.69217598  0.69217598  0.33801602  1
  O  O9  1  0.19217599  0.80782398  0.16198401  1
  O  O10  1  0.80782398  0.19217599  0.16198401  1
  O  O11  1  0.80782398  0.19217599  0.83801604  1
  O  O12  1  0.29480899  0.29480899  0.00000000  1
  O  O13  1  0.20519099  0.79480898  0.50000002  1
  O  O14  1  0.79480898  0.20519099  0.50000002  1
  O  O15  1  0.19217599  0.80782398  0.83801604  1
  O  O16  1  0.30782399  0.30782399  0.33801602  1
  O  O17  1  0.70519098  0.70519098  0.00000000  1
