# generated using pymatgen
data_NaV2CoO3
_symmetry_space_group_name_H-M   'P 1'
_cell_length_a   6.10501385
_cell_length_b   6.69014645
_cell_length_c   6.10501385
_cell_angle_alpha   117.14662170
_cell_angle_beta   90.00000000
_cell_angle_gamma   117.14662170
_symmetry_Int_Tables_number   1
_chemical_formula_structural   NaV2CoO3
_chemical_formula_sum   'Na2 V4 Co2 O6'
_cell_volume   190.49357356
_cell_formula_units_Z   2
loop_
 _symmetry_equiv_pos_site_id
 _symmetry_equiv_pos_as_xyz
  1  'x, y, z'
loop_
 _atom_site_type_symbol
 _atom_site_label
 _atom_site_symmetry_multiplicity
 _atom_site_fract_x
 _atom_site_fract_y
 _atom_site_fract_z
 _atom_site_occupancy
  Na  Na0  1  0.25000006  0.50000006  0.75000007  1
  Na  Na1  1  0.00000000  0.00000000  0.00000000  1
  V  V2  1  0.62500009  0.75000008  0.37500008  1
  V  V3  1  0.62500004  0.25000003  0.37500003  1
  V  V4  1  0.12500008  0.75000008  0.37500008  1
  V  V5  1  0.62500004  0.25000003  0.87500005  1
  Co  Co6  1  0.95793508  0.59804007  0.00374606  1
  Co  Co7  1  0.25374502  0.09803901  0.39010402  1
  O  O8  1  0.84429403  0.09804001  0.70793503  1
  O  O9  1  0.64010507  0.59803907  0.59429407  1
  O  O10  1  0.29206510  0.90196010  0.74625411  1
  O  O11  1  0.99625506  0.40196104  0.35989605  1
  O  O12  1  0.60989510  0.90196110  0.15570609  1
  O  O13  1  0.40570605  0.40196004  0.04206504  1
