# generated using pymatgen
data_Zn3(CuS4)2
_symmetry_space_group_name_H-M   'P 1'
_cell_length_a   6.86327457
_cell_length_b   6.88941336
_cell_length_c   6.88941336
_cell_angle_alpha   60.21685410
_cell_angle_beta   60.12542725
_cell_angle_gamma   60.12542725
_symmetry_Int_Tables_number   1
_chemical_formula_structural   Zn3(CuS4)2
_chemical_formula_sum   'Zn3 Cu2 S8'
_cell_volume   231.15911019
_cell_formula_units_Z   1
loop_
 _symmetry_equiv_pos_site_id
 _symmetry_equiv_pos_as_xyz
  1  'x, y, z'
loop_
 _atom_site_type_symbol
 _atom_site_label
 _atom_site_symmetry_multiplicity
 _atom_site_fract_x
 _atom_site_fract_y
 _atom_site_fract_z
 _atom_site_occupancy
  Cu  Cu0  1  0.99824100  0.00175900  0.00175901  1
  Zn  Zn1  1  0.39733401  0.39611700  0.39611798  1
  Zn  Zn2  1  0.81043201  0.39611700  0.39611699  1
  Zn  Zn3  1  0.39821402  0.80647001  0.39710197  1
  Cu  Cu4  1  0.39821401  0.39710200  0.80646998  1
  S  S5  1  0.13562401  0.58663200  0.14211997  1
  S  S6  1  0.13562400  0.14212000  0.58663199  1
  S  S7  1  0.13282300  0.13928100  0.13928099  1
  S  S8  1  0.58861500  0.13928100  0.13928100  1
  S  S9  1  0.63538500  0.09836300  0.63086700  1
  S  S10  1  0.63538501  0.63086700  0.09836298  1
  S  S11  1  0.63707501  0.63294500  0.63294497  1
  S  S12  1  0.09703501  0.63294500  0.63294497  1
