# generated using pymatgen
data_Li3Mn2VCdCoO8
_symmetry_space_group_name_H-M   'P 1'
_cell_length_a   5.52013397
_cell_length_b   5.56297207
_cell_length_c   7.15521908
_cell_angle_alpha   80.88764191
_cell_angle_beta   88.08036041
_cell_angle_gamma   75.41242218
_symmetry_Int_Tables_number   1
_chemical_formula_structural   Li3Mn2VCdCoO8
_chemical_formula_sum   'Li3 Mn2 V1 Cd1 Co1 O8'
_cell_volume   209.95357648
_cell_formula_units_Z   1
loop_
 _symmetry_equiv_pos_site_id
 _symmetry_equiv_pos_as_xyz
  1  'x, y, z'
loop_
 _atom_site_type_symbol
 _atom_site_label
 _atom_site_symmetry_multiplicity
 _atom_site_fract_x
 _atom_site_fract_y
 _atom_site_fract_z
 _atom_site_occupancy
  Li  Li0  1  0.00000003  0.50000000  0.50000000  1
  Li  Li1  1  0.77278103  0.39683200  0.93388901  1
  Cd  Cd2  1  0.50000003  0.50000000  0.50000000  1
  Li  Li3  1  0.22721904  0.60316801  0.06611099  1
  Mn  Mn4  1  0.61592706  0.95053601  0.72441400  1
  Mn  Mn5  1  0.11765206  0.94945801  0.71738599  1
  Co  Co6  1  0.88234801  0.05054200  0.28261402  1
  V  V7  1  0.38407300  0.04946400  0.27558601  1
  O  O8  1  0.92361705  0.72140601  0.77924001  1
  O  O9  1  0.68898206  0.82227501  0.33112600  1
  O  O10  1  0.42304505  0.71866701  0.77626400  1
  O  O11  1  0.18911505  0.81808901  0.32391199  1
  O  O12  1  0.81088502  0.18191100  0.67608802  1
  O  O13  1  0.57695502  0.28133300  0.22373601  1
  O  O14  1  0.31101801  0.17772500  0.66887401  1
  O  O15  1  0.07638302  0.27859400  0.22076000  1
