# generated using pymatgen
data_Na2Nd2Nb2WO11
_symmetry_space_group_name_H-M   'P 1'
_cell_length_a   5.15699196
_cell_length_b   5.15699196
_cell_length_c   10.28026295
_cell_angle_alpha   90.00000000
_cell_angle_beta   90.00000000
_cell_angle_gamma   90.00000000
_symmetry_Int_Tables_number   1
_chemical_formula_structural   Na2Nd2Nb2WO11
_chemical_formula_sum   'Na2 Nd2 Nb2 W1 O11'
_cell_volume   273.39913207
_cell_formula_units_Z   1
loop_
 _symmetry_equiv_pos_site_id
 _symmetry_equiv_pos_as_xyz
  1  'x, y, z'
loop_
 _atom_site_type_symbol
 _atom_site_label
 _atom_site_symmetry_multiplicity
 _atom_site_fract_x
 _atom_site_fract_y
 _atom_site_fract_z
 _atom_site_occupancy
  Na  Na0  1  0.00000000  0.00000000  0.33650700  1
  Na  Na1  1  0.50000000  0.50000000  0.83650700  1
  Nd  Nd2  1  0.00000000  0.00000000  0.66349300  1
  Nd  Nd3  1  0.50000000  0.50000000  0.16349300  1
  Nb  Nb4  1  0.00000000  0.00000000  0.00000000  1
  Nb  Nb5  1  0.50000000  0.50000000  0.50000000  1
  W  W6  1  0.72440601  0.72440601  0.00000000  1
  O  O7  1  0.77559401  0.22440600  0.50000000  1
  O  O8  1  0.22440600  0.77559401  0.50000000  1
  O  O9  1  0.27559400  0.27559400  0.00000000  1
  O  O10  1  0.68546301  0.68546301  0.35553700  1
  O  O11  1  0.31453700  0.31453700  0.35553700  1
  O  O12  1  0.31453700  0.31453700  0.64446300  1
  O  O13  1  0.18546300  0.81453701  0.14446300  1
  O  O14  1  0.81453701  0.18546300  0.14446300  1
  O  O15  1  0.81453701  0.18546300  0.85553700  1
  O  O16  1  0.18546300  0.81453701  0.85553700  1
  O  O17  1  0.68546301  0.68546301  0.64446300  1
