# generated using pymatgen
data_TeF4
_symmetry_space_group_name_H-M   'P 1'
_cell_length_a   4.99904013
_cell_length_b   4.99904013
_cell_length_c   4.99904060
_cell_angle_alpha   91.00785828
_cell_angle_beta   91.00785828
_cell_angle_gamma   91.00785828
_symmetry_Int_Tables_number   1
_chemical_formula_structural   TeF4
_chemical_formula_sum   'Te1 F4'
_cell_volume   124.86936403
_cell_formula_units_Z   1
loop_
 _symmetry_equiv_pos_site_id
 _symmetry_equiv_pos_as_xyz
  1  'x, y, z'
loop_
 _atom_site_type_symbol
 _atom_site_label
 _atom_site_symmetry_multiplicity
 _atom_site_fract_x
 _atom_site_fract_y
 _atom_site_fract_z
 _atom_site_occupancy
  Te  Te0  1  0.92196601  0.07803400  0.50000003  1
  F  F1  1  0.07803398  0.50000001  0.92196602  1
  F  F2  1  0.49999998  0.92196601  0.07803405  1
  F  F3  1  0.00000000  0.00000000  0.00000000  1
  F  F4  1  0.49999999  0.50000001  0.50000003  1
