# generated using pymatgen
data_Ba2SrNdMo3O13
_symmetry_space_group_name_H-M   'P 1'
_cell_length_a   5.47281599
_cell_length_b   5.68110991
_cell_length_c   7.88481092
_cell_angle_alpha   90.00000000
_cell_angle_beta   89.79170227
_cell_angle_gamma   90.00000000
_symmetry_Int_Tables_number   1
_chemical_formula_structural   Ba2SrNdMo3O13
_chemical_formula_sum   'Ba2 Sr1 Nd1 Mo3 O13'
_cell_volume   245.15031239
_cell_formula_units_Z   1
loop_
 _symmetry_equiv_pos_site_id
 _symmetry_equiv_pos_as_xyz
  1  'x, y, z'
loop_
 _atom_site_type_symbol
 _atom_site_label
 _atom_site_symmetry_multiplicity
 _atom_site_fract_x
 _atom_site_fract_y
 _atom_site_fract_z
 _atom_site_occupancy
  Ba  Ba0  1  0.98457300  0.55356201  0.74599002  1
  Ba  Ba1  1  0.51542700  0.05356200  0.75401002  1
  Sr  Sr2  1  0.01542700  0.44643801  0.25401001  1
  Nd  Nd3  1  0.48457300  0.94643802  0.24599000  1
  Mo  Mo4  1  0.50000000  0.50000001  -0.00000000  1
  Mo  Mo5  1  0.00000000  0.00000000  0.50000001  1
  Mo  Mo6  1  0.50000000  0.50000001  0.50000001  1
  O  O7  1  0.00000000  0.00000000  0.00000000  1
  O  O8  1  0.33644000  0.23229300  0.43297701  1
  O  O9  1  0.16356000  0.73229301  0.06702300  1
  O  O10  1  0.66356000  0.76770701  0.56702301  1
  O  O11  1  0.83644000  0.26770700  0.93297702  1
  O  O12  1  0.77263800  0.32570101  0.54744501  1
  O  O13  1  0.72736200  0.82570101  0.95255502  1
  O  O14  1  0.22736200  0.67429901  0.45255501  1
  O  O15  1  0.27263800  0.17429900  0.04744500  1
  O  O16  1  0.89186300  0.04935600  0.21825200  1
  O  O17  1  0.60813700  0.54935601  0.28174801  1
  O  O18  1  0.10813700  0.95064402  0.78174802  1
  O  O19  1  0.39186300  0.45064401  0.71825202  1
