# generated using pymatgen
data_Ba7La(TeSe3)2
_symmetry_space_group_name_H-M   'P 1'
_cell_length_a   6.64331007
_cell_length_b   6.87695408
_cell_length_c   13.62514019
_cell_angle_alpha   90.00000000
_cell_angle_beta   90.00000000
_cell_angle_gamma   90.00000000
_symmetry_Int_Tables_number   1
_chemical_formula_structural   Ba7La(TeSe3)2
_chemical_formula_sum   'Ba7 La1 Te2 Se6'
_cell_volume   622.47458878
_cell_formula_units_Z   1
loop_
 _symmetry_equiv_pos_site_id
 _symmetry_equiv_pos_as_xyz
  1  'x, y, z'
loop_
 _atom_site_type_symbol
 _atom_site_label
 _atom_site_symmetry_multiplicity
 _atom_site_fract_x
 _atom_site_fract_y
 _atom_site_fract_z
 _atom_site_occupancy
  Ba  Ba0  1  0.74999999  0.38875700  0.66656299  1
  Ba  Ba1  1  0.25000000  0.61124299  0.33343700  1
  Ba  Ba2  1  0.74999999  0.61124299  0.16656300  1
  Ba  Ba3  1  0.25000000  0.15898000  0.51101999  1
  La  La4  1  0.25000000  0.84101999  0.01102000  1
  Ba  Ba5  1  0.74999999  0.84101999  0.48897999  1
  Ba  Ba6  1  0.74999999  0.15898000  0.98897999  1
  Ba  Ba7  1  0.25000000  0.38875700  0.83343699  1
  Te  Te8  1  0.49999999  0.09413900  0.25000000  1
  Te  Te9  1  0.00000000  0.09413900  0.25000000  1
  Se  Se10  1  0.00000000  0.90586099  0.74999999  1
  Se  Se11  1  0.49999999  0.90586099  0.74999999  1
  Se  Se12  1  0.25000000  0.33953900  0.10561100  1
  Se  Se13  1  0.25000000  0.66046099  0.60561099  1
  Se  Se14  1  0.74999999  0.66046099  0.89438899  1
  Se  Se15  1  0.74999999  0.33953900  0.39438899  1
