# generated using pymatgen
data_ZnInAsP
_symmetry_space_group_name_H-M   'P 1'
_cell_length_a   4.05386782
_cell_length_b   4.05386829
_cell_length_c   6.37670279
_cell_angle_alpha   90.00000000
_cell_angle_beta   90.00000000
_cell_angle_gamma   120.00000000
_symmetry_Int_Tables_number   1
_chemical_formula_structural   ZnInAsP
_chemical_formula_sum   'Zn1 In1 As1 P1'
_cell_volume   90.75405217
_cell_formula_units_Z   1
loop_
 _symmetry_equiv_pos_site_id
 _symmetry_equiv_pos_as_xyz
  1  'x, y, z'
loop_
 _atom_site_type_symbol
 _atom_site_label
 _atom_site_symmetry_multiplicity
 _atom_site_fract_x
 _atom_site_fract_y
 _atom_site_fract_z
 _atom_site_occupancy
  In  In0  1  0.00000000  0.00000000  0.19936901  1
  Zn  Zn1  1  0.33333338  0.66666668  0.81635403  1
  P  P2  1  0.66666671  0.33333334  0.93009003  1
  As  As3  1  0.33333338  0.66666668  0.43328701  1
