# generated using pymatgen
data_Li2MoO3
_symmetry_space_group_name_H-M   'P 1'
_cell_length_a   3.96919608
_cell_length_b   3.96919608
_cell_length_c   5.94651890
_cell_angle_alpha   109.49600220
_cell_angle_beta   109.49600220
_cell_angle_gamma   90.00000000
_symmetry_Int_Tables_number   1
_chemical_formula_structural   Li2MoO3
_chemical_formula_sum   'Li2 Mo1 O3'
_cell_volume   82.59309557
_cell_formula_units_Z   1
loop_
 _symmetry_equiv_pos_site_id
 _symmetry_equiv_pos_as_xyz
  1  'x, y, z'
loop_
 _atom_site_type_symbol
 _atom_site_label
 _atom_site_symmetry_multiplicity
 _atom_site_fract_x
 _atom_site_fract_y
 _atom_site_fract_z
 _atom_site_occupancy
  Li  Li0  1  0.01587000  0.01587000  0.03174000  1
  Li  Li1  1  0.76586995  0.26586999  0.53173994  1
  Mo  Mo2  1  0.95190394  0.45190398  0.90380791  1
  O  O3  1  0.20190398  0.20190399  0.40380797  1
  O  O4  1  0.78222193  0.78222196  0.56444391  1
  O  O5  1  0.53222198  0.03222200  0.06444397  1
