# generated using pymatgen
data_GeP2O9
_symmetry_space_group_name_H-M   'P 1'
_cell_length_a   5.26743031
_cell_length_b   5.26743031
_cell_length_c   8.28753090
_cell_angle_alpha   86.19075012
_cell_angle_beta   86.19075012
_cell_angle_gamma   63.72598267
_symmetry_Int_Tables_number   1
_chemical_formula_structural   GeP2O9
_chemical_formula_sum   'Ge1 P2 O9'
_cell_volume   205.55640809
_cell_formula_units_Z   1
loop_
 _symmetry_equiv_pos_site_id
 _symmetry_equiv_pos_as_xyz
  1  'x, y, z'
loop_
 _atom_site_type_symbol
 _atom_site_label
 _atom_site_symmetry_multiplicity
 _atom_site_fract_x
 _atom_site_fract_y
 _atom_site_fract_z
 _atom_site_occupancy
  Ge  Ge0  1  0.00000000  0.00000000  0.50000002  1
  P  P1  1  0.63106696  0.63106699  0.19414305  1
  P  P2  1  0.36893298  0.36893300  0.80585706  1
  O  O3  1  0.00000000  0.00000000  0.00000000  1
  O  O4  1  0.68499596  0.68499599  0.37747607  1
  O  O5  1  0.31500398  0.31500400  0.62252405  1
  O  O6  1  0.77575797  0.27727600  0.17089404  1
  O  O7  1  0.22424197  0.72272399  0.82910607  1
  O  O8  1  0.72272397  0.22424200  0.82910607  1
  O  O9  1  0.27727597  0.77575799  0.17089405  1
  O  O10  1  0.77766195  0.77766199  0.05834606  1
  O  O11  1  0.22233799  0.22233800  0.94165406  1
