# generated using pymatgen
data_Ca2SnO4
_symmetry_space_group_name_H-M   'P 1'
_cell_length_a   3.70917797
_cell_length_b   7.14937544
_cell_length_c   8.99246788
_cell_angle_alpha   77.77216339
_cell_angle_beta   78.09801483
_cell_angle_gamma   74.96519470
_symmetry_Int_Tables_number   1
_chemical_formula_structural   Ca2SnO4
_chemical_formula_sum   'Ca4 Sn2 O8'
_cell_volume   222.16669495
_cell_formula_units_Z   2
loop_
 _symmetry_equiv_pos_site_id
 _symmetry_equiv_pos_as_xyz
  1  'x, y, z'
loop_
 _atom_site_type_symbol
 _atom_site_label
 _atom_site_symmetry_multiplicity
 _atom_site_fract_x
 _atom_site_fract_y
 _atom_site_fract_z
 _atom_site_occupancy
  Ca  Ca0  1  0.61969500  0.22202600  0.53858399  1
  Ca  Ca1  1  0.15936098  0.48063799  0.20064001  1
  Ca  Ca2  1  0.84063899  0.51936199  0.79936000  1
  Ca  Ca3  1  0.38030496  0.77797399  0.46141602  1
  Sn  Sn4  1  0.88617801  0.06615900  0.16148499  1
  Sn  Sn5  1  0.11382195  0.93384098  0.83851503  1
  O  O6  1  0.23069000  0.14998200  0.38863800  1
  O  O7  1  0.79675999  0.35068799  0.05579200  1
  O  O8  1  0.03515399  0.21092500  0.71876700  1
  O  O9  1  0.58182898  0.48913199  0.34721001  1
  O  O10  1  0.41817098  0.51086799  0.65279001  1
  O  O11  1  0.96484597  0.78907499  0.28123301  1
  O  O12  1  0.20323997  0.64931199  0.94420801  1
  O  O13  1  0.76930997  0.85001799  0.61136201  1
