# generated using pymatgen
data_SrLi3P2O7
_symmetry_space_group_name_H-M   'P 1'
_cell_length_a   5.13289404
_cell_length_b   6.36598825
_cell_length_c   6.67946100
_cell_angle_alpha   104.95212555
_cell_angle_beta   90.00000000
_cell_angle_gamma   113.77523804
_symmetry_Int_Tables_number   1
_chemical_formula_structural   SrLi3P2O7
_chemical_formula_sum   'Sr1 Li3 P2 O7'
_cell_volume   191.63225028
_cell_formula_units_Z   1
loop_
 _symmetry_equiv_pos_site_id
 _symmetry_equiv_pos_as_xyz
  1  'x, y, z'
loop_
 _atom_site_type_symbol
 _atom_site_label
 _atom_site_symmetry_multiplicity
 _atom_site_fract_x
 _atom_site_fract_y
 _atom_site_fract_z
 _atom_site_occupancy
  Li  Li0  1  0.17056800  0.34113599  0.21669899  1
  Sr  Sr1  1  0.82943199  0.65886397  0.78330098  1
  Li  Li2  1  0.50000000  0.00000000  0.50000000  1
  Li  Li3  1  0.85750699  0.71501397  0.28987198  1
  P  P4  1  0.14249300  0.28498599  0.71012799  1
  P  P5  1  0.88559599  0.26144799  0.56350399  1
  O  O6  1  0.62414799  0.73855197  0.43649598  1
  O  O7  1  0.11440400  0.73855197  0.43649598  1
  O  O8  1  0.37585200  0.26144799  0.56350399  1
  O  O9  1  0.72870299  0.45740598  0.14154299  1
  O  O10  1  0.04968200  0.09936400  0.83234900  1
  O  O11  1  0.95031799  0.90063596  0.16765098  1
  O  O12  1  0.27129700  0.54259398  0.85845698  1
