# generated using pymatgen
data_LaEuTi2AlMoO12
_symmetry_space_group_name_H-M   'P 1'
_cell_length_a   4.01398182
_cell_length_b   7.63376713
_cell_length_c   7.63376713
_cell_angle_alpha   90.00000000
_cell_angle_beta   90.00000000
_cell_angle_gamma   90.00000000
_symmetry_Int_Tables_number   1
_chemical_formula_structural   LaEuTi2AlMoO12
_chemical_formula_sum   'La1 Eu1 Ti2 Al1 Mo1 O12'
_cell_volume   233.91238439
_cell_formula_units_Z   1
loop_
 _symmetry_equiv_pos_site_id
 _symmetry_equiv_pos_as_xyz
  1  'x, y, z'
loop_
 _atom_site_type_symbol
 _atom_site_label
 _atom_site_symmetry_multiplicity
 _atom_site_fract_x
 _atom_site_fract_y
 _atom_site_fract_z
 _atom_site_occupancy
  Eu  Eu0  1  0.25000001  0.25000000  0.25000000  1
  La  La1  1  0.75000003  0.74999999  0.74999999  1
  Ti  Ti2  1  0.36075702  0.91299298  0.03022000  1
  Ti  Ti3  1  0.36075702  0.58700699  0.46977999  1
  O  O4  1  0.86075704  0.53021999  0.08700700  1
  Mo  Mo5  1  0.86075704  0.96977998  0.41299299  1
  Al  Al6  1  0.63924303  0.08700700  0.96977998  1
  O  O7  1  0.63924303  0.41299299  0.53021999  1
  O  O8  1  0.13924301  0.46977999  0.91299298  1
  O  O9  1  0.13924301  0.03022000  0.58700699  1
  O  O10  1  0.13968401  0.39550899  0.64282199  1
  O  O11  1  0.13968401  0.10449100  0.85717799  1
  O  O12  1  0.63968403  0.14282200  0.60449099  1
  O  O13  1  0.63968403  0.35717799  0.89550898  1
  O  O14  1  0.86031604  0.60449099  0.35717799  1
  O  O15  1  0.86031604  0.89550898  0.14282200  1
  O  O16  1  0.36031602  0.85717799  0.39550899  1
  O  O17  1  0.36031602  0.64282199  0.10449100  1
