# generated using pymatgen
data_LaScO3
_symmetry_space_group_name_H-M   'P 1'
_cell_length_a   5.87673569
_cell_length_b   5.87673569
_cell_length_c   8.54542351
_cell_angle_alpha   90.00000000
_cell_angle_beta   90.00000000
_cell_angle_gamma   90.00000000
_symmetry_Int_Tables_number   1
_chemical_formula_structural   LaScO3
_chemical_formula_sum   'La4 Sc4 O12'
_cell_volume   295.12493715
_cell_formula_units_Z   4
loop_
 _symmetry_equiv_pos_site_id
 _symmetry_equiv_pos_as_xyz
  1  'x, y, z'
loop_
 _atom_site_type_symbol
 _atom_site_label
 _atom_site_symmetry_multiplicity
 _atom_site_fract_x
 _atom_site_fract_y
 _atom_site_fract_z
 _atom_site_occupancy
  La  La0  1  0.49999998  0.00000000  0.75000002  1
  La  La1  1  -0.00000000  0.49999998  0.75000002  1
  La  La2  1  0.49999998  0.00000000  0.25000001  1
  La  La3  1  -0.00000000  0.49999998  0.25000001  1
  Sc  Sc4  1  0.49999998  0.49999998  0.00000000  1
  Sc  Sc5  1  0.00000000  0.00000000  0.50000001  1
  Sc  Sc6  1  0.49999998  0.49999998  0.50000001  1
  Sc  Sc7  1  0.00000000  0.00000000  0.00000000  1
  O  O8  1  0.49999998  0.49999998  0.74539353  1
  O  O9  1  0.00000000  0.00000000  0.75460651  1
  O  O10  1  0.49999998  0.49999998  0.25460650  1
  O  O11  1  0.00000000  0.00000000  0.24539351  1
  O  O12  1  0.65696517  0.17340549  0.50000001  1
  O  O13  1  0.34303479  0.82659447  0.50000001  1
  O  O14  1  0.82659447  0.65696517  0.50000001  1
  O  O15  1  0.17340549  0.34303479  0.50000001  1
  O  O16  1  0.84303477  0.67340547  0.00000000  1
  O  O17  1  0.15696519  0.32659449  0.00000000  1
  O  O18  1  0.67340547  0.15696519  0.00000000  1
  O  O19  1  0.32659449  0.84303477  0.00000000  1
