# generated using pymatgen
data_Ba3SrZr2Ta2(Se2O3)2
_symmetry_space_group_name_H-M   'P 1'
_cell_length_a   4.05857801
_cell_length_b   9.70020962
_cell_length_c   11.47118855
_cell_angle_alpha   100.42410278
_cell_angle_beta   90.00000000
_cell_angle_gamma   90.00000000
_symmetry_Int_Tables_number   1
_chemical_formula_structural   Ba3SrZr2Ta2(Se2O3)2
_chemical_formula_sum   'Ba3 Sr1 Zr2 Ta2 Se4 O6'
_cell_volume   444.15626085
_cell_formula_units_Z   1
loop_
 _symmetry_equiv_pos_site_id
 _symmetry_equiv_pos_as_xyz
  1  'x, y, z'
loop_
 _atom_site_type_symbol
 _atom_site_label
 _atom_site_symmetry_multiplicity
 _atom_site_fract_x
 _atom_site_fract_y
 _atom_site_fract_z
 _atom_site_occupancy
  Ba  Ba0  1  0.48575600  0.70964703  0.60183403  1
  Ba  Ba1  1  0.98575600  0.79035304  0.89816604  1
  Ba  Ba2  1  0.51424400  0.29035301  0.39816602  1
  Sr  Sr3  1  0.01424400  0.20964701  0.10183401  1
  Ta  Ta4  1  0.48793800  0.45355202  0.80852203  1
  Ta  Ta5  1  0.98793800  0.04644800  0.69147802  1
  Zr  Zr6  1  0.51206200  0.54644802  0.19147802  1
  Zr  Zr7  1  0.01206200  0.95355204  0.30852203  1
  Se  Se8  1  0.50000000  0.00000000  0.50000001  1
  Se  Se9  1  -0.00000000  0.50000002  1.00000004  1
  O  O10  1  0.49281000  0.07689200  0.86755402  1
  Se  Se11  1  0.99281000  0.42310802  0.63244603  1
  Se  Se12  1  0.50719000  0.92310804  0.13244603  1
  O  O13  1  0.00719000  0.57689203  0.36755402  1
  O  O14  1  0.51159100  0.33989002  0.18746401  1
  O  O15  1  0.01159100  0.16011001  0.31253601  1
  O  O16  1  0.48840900  0.66011003  0.81253604  1
  O  O17  1  0.98840900  0.83989004  0.68746404  1
