# generated using pymatgen
data_AlCuTe3O
_symmetry_space_group_name_H-M   'P 1'
_cell_length_a   5.28669214
_cell_length_b   6.26021576
_cell_length_c   6.69368362
_cell_angle_alpha   117.87998962
_cell_angle_beta   113.25983429
_cell_angle_gamma   90.00000000
_symmetry_Int_Tables_number   1
_chemical_formula_structural   AlCuTe3O
_chemical_formula_sum   'Al1 Cu1 Te3 O1'
_cell_volume   175.19093203
_cell_formula_units_Z   1
loop_
 _symmetry_equiv_pos_site_id
 _symmetry_equiv_pos_as_xyz
  1  'x, y, z'
loop_
 _atom_site_type_symbol
 _atom_site_label
 _atom_site_symmetry_multiplicity
 _atom_site_fract_x
 _atom_site_fract_y
 _atom_site_fract_z
 _atom_site_occupancy
  Al  Al0  1  0.49999999  0.00000000  0.00000001  1
  Cu  Cu1  1  0.00000000  0.00000000  0.00000000  1
  Te  Te2  1  0.83384299  0.26921401  0.20025303  1
  Te  Te3  1  0.63359000  0.73078603  0.79974705  1
  Te  Te4  1  0.16615700  0.06896100  0.79974703  1
  O  O5  1  0.36641001  0.93103904  0.20025303  1
