# generated using pymatgen
data_RbEuAlAg2Au(OF6)2
_symmetry_space_group_name_H-M   'P 1'
_cell_length_a   6.40877819
_cell_length_b   6.40877819
_cell_length_c   9.24059200
_cell_angle_alpha   90.00000000
_cell_angle_beta   90.00000000
_cell_angle_gamma   90.00000000
_symmetry_Int_Tables_number   1
_chemical_formula_structural   RbEuAlAg2Au(OF6)2
_chemical_formula_sum   'Rb1 Eu1 Al1 Ag2 Au1 O2 F12'
_cell_volume   379.53364116
_cell_formula_units_Z   1
loop_
 _symmetry_equiv_pos_site_id
 _symmetry_equiv_pos_as_xyz
  1  'x, y, z'
loop_
 _atom_site_type_symbol
 _atom_site_label
 _atom_site_symmetry_multiplicity
 _atom_site_fract_x
 _atom_site_fract_y
 _atom_site_fract_z
 _atom_site_occupancy
  Rb  Rb0  1  0.49999999  0.49999999  0.99256200  1
  Eu  Eu1  1  0.00000000  0.00000000  0.49256200  1
  Ag  Ag2  1  0.00000000  0.49999999  0.23874200  1
  Ag  Ag3  1  0.49999999  0.00000000  0.23874200  1
  Au  Au4  1  0.49999999  0.00000000  0.73874200  1
  Al  Al5  1  0.00000000  0.49999999  0.73874200  1
  O  O6  1  0.00000000  0.00000000  0.97973200  1
  O  O7  1  0.49999999  0.49999999  0.47973200  1
  F  F8  1  0.69790698  0.69790698  0.52180100  1
  F  F9  1  0.00000000  0.00000000  0.78693100  1
  F  F10  1  0.19790699  0.80209298  0.02180100  1
  F  F11  1  0.49999999  0.49999999  0.28693100  1
  F  F12  1  0.80209298  0.19790699  0.02180100  1
  F  F13  1  0.30209299  0.30209299  0.52180100  1
  F  F14  1  0.00000000  0.00000000  0.22090900  1
  F  F15  1  0.22435499  0.22435499  0.99879900  1
  F  F16  1  0.27564499  0.72435498  0.49879900  1
  F  F17  1  0.49999999  0.49999999  0.72090900  1
  F  F18  1  0.72435498  0.27564499  0.49879900  1
  F  F19  1  0.77564498  0.77564498  0.99879900  1
