# generated using pymatgen
data_Mn3Co5O12
_symmetry_space_group_name_H-M   'P 1'
_cell_length_a   5.11809921
_cell_length_b   5.50042629
_cell_length_c   8.82918930
_cell_angle_alpha   74.50435638
_cell_angle_beta   89.93937683
_cell_angle_gamma   62.34289932
_symmetry_Int_Tables_number   1
_chemical_formula_structural   Mn3Co5O12
_chemical_formula_sum   'Mn3 Co5 O12'
_cell_volume   209.94189860
_cell_formula_units_Z   1
loop_
 _symmetry_equiv_pos_site_id
 _symmetry_equiv_pos_as_xyz
  1  'x, y, z'
loop_
 _atom_site_type_symbol
 _atom_site_label
 _atom_site_symmetry_multiplicity
 _atom_site_fract_x
 _atom_site_fract_y
 _atom_site_fract_z
 _atom_site_occupancy
  Mn  Mn0  1  0.72609603  0.55241301  0.57447800  1
  Mn  Mn1  1  0.21924002  0.55399801  0.07525400  1
  Co  Co2  1  0.52231504  0.94917702  0.17356800  1
  Mn  Mn3  1  0.27738802  0.44547101  0.42639500  1
  Co  Co4  1  0.02413503  0.95362502  0.67547400  1
  Co  Co5  1  0.97606902  0.04596100  0.32457300  1
  Co  Co6  1  0.47723001  0.04645800  0.82612300  1
  Co  Co7  1  0.77304403  0.45203101  0.92427200  1
  O  O8  1  0.47294903  0.75216901  0.72342300  1
  O  O9  1  0.97417804  0.75042301  0.22387500  1
  O  O10  1  0.42724603  0.75182301  0.37381600  1
  O  O11  1  0.06688601  0.25086400  0.12433400  1
  O  O12  1  0.52447402  0.25275900  0.97389500  1
  O  O13  1  0.02907201  0.24658000  0.47312900  1
  O  O14  1  0.97452504  0.75136201  0.52719600  1
  O  O15  1  0.47591103  0.74983901  0.02540800  1
  O  O16  1  0.92697604  0.75074501  0.87476600  1
  O  O17  1  0.57514902  0.24715500  0.62681600  1
  O  O18  1  0.02850901  0.24933300  0.77612700  1
  O  O19  1  0.52860802  0.24781500  0.27707800  1
