# generated using pymatgen
data_Li3ScInSbTeSeBr2
_symmetry_space_group_name_H-M   'P 1'
_cell_length_a   7.00526333
_cell_length_b   8.25961590
_cell_length_c   8.25961590
_cell_angle_alpha   62.15863800
_cell_angle_beta   88.77567291
_cell_angle_gamma   88.77567291
_symmetry_Int_Tables_number   1
_chemical_formula_structural   Li3ScInSbTeSeBr2
_chemical_formula_sum   'Li3 Sc1 In1 Sb1 Te1 Se1 Br2'
_cell_volume   422.45564934
_cell_formula_units_Z   1
loop_
 _symmetry_equiv_pos_site_id
 _symmetry_equiv_pos_as_xyz
  1  'x, y, z'
loop_
 _atom_site_type_symbol
 _atom_site_label
 _atom_site_symmetry_multiplicity
 _atom_site_fract_x
 _atom_site_fract_y
 _atom_site_fract_z
 _atom_site_occupancy
  Li  Li0  1  0.24999999  0.65686203  0.34313801  1
  Li  Li1  1  0.75000000  0.34313801  0.65686201  1
  Sc  Sc2  1  0.06831999  0.50395502  0.71224803  1
  Li  Li3  1  0.43168000  0.28775201  0.49604501  1
  In  In4  1  0.93168000  0.49604502  0.28775199  1
  Sb  Sb5  1  0.56831999  0.71224803  0.50395500  1
  Br  Br6  1  0.39042899  0.73342803  0.02214799  1
  Br  Br7  1  0.10957098  0.97785204  0.26657200  1
  Te  Te8  1  0.60957100  0.26657201  0.97785203  1
  Se  Se9  1  0.89042901  0.02214800  0.73342801  1
