# generated using pymatgen
data_Sr5BiO8
_symmetry_space_group_name_H-M   'P 1'
_cell_length_a   3.49728203
_cell_length_b   6.90937424
_cell_length_c   10.12499714
_cell_angle_alpha   90.00000000
_cell_angle_beta   90.00000000
_cell_angle_gamma   90.00000000
_symmetry_Int_Tables_number   1
_chemical_formula_structural   Sr5BiO8
_chemical_formula_sum   'Sr5 Bi1 O8'
_cell_volume   244.66073811
_cell_formula_units_Z   1
loop_
 _symmetry_equiv_pos_site_id
 _symmetry_equiv_pos_as_xyz
  1  'x, y, z'
loop_
 _atom_site_type_symbol
 _atom_site_label
 _atom_site_symmetry_multiplicity
 _atom_site_fract_x
 _atom_site_fract_y
 _atom_site_fract_z
 _atom_site_occupancy
  Sr  Sr0  1  -0.00000000  0.48222598  0.30701700  1
  Sr  Sr1  1  -0.00000000  0.01777400  0.80701699  1
  Sr  Sr2  1  0.50000000  0.49999998  0.00000000  1
  Sr  Sr3  1  -0.00000000  0.98222597  0.19298300  1
  Sr  Sr4  1  -0.00000000  0.51777398  0.69298299  1
  Bi  Bi5  1  0.50000000  0.00000000  0.49999999  1
  O  O6  1  -0.00000000  0.33387199  0.08808500  1
  O  O7  1  -0.00000000  0.66612798  0.91191499  1
  O  O8  1  -0.00000000  0.16612799  0.58808499  1
  O  O9  1  -0.00000000  0.83387197  0.41191499  1
  O  O10  1  0.50000000  0.35060499  0.80850599  1
  O  O11  1  0.50000000  0.14939499  0.30850600  1
  O  O12  1  0.50000000  0.85060497  0.69149399  1
  O  O13  1  0.50000000  0.64939498  0.19149400  1
