# generated using pymatgen
data_Ba2Sr2Ta(WO6)2
_symmetry_space_group_name_H-M   'P 1'
_cell_length_a   5.81169319
_cell_length_b   5.81169319
_cell_length_c   9.89948463
_cell_angle_alpha   72.93028259
_cell_angle_beta   72.93028259
_cell_angle_gamma   60.00001144
_symmetry_Int_Tables_number   1
_chemical_formula_structural   Ba2Sr2Ta(WO6)2
_chemical_formula_sum   'Ba2 Sr2 Ta1 W2 O12'
_cell_volume   272.42613089
_cell_formula_units_Z   1
loop_
 _symmetry_equiv_pos_site_id
 _symmetry_equiv_pos_as_xyz
  1  'x, y, z'
loop_
 _atom_site_type_symbol
 _atom_site_label
 _atom_site_symmetry_multiplicity
 _atom_site_fract_x
 _atom_site_fract_y
 _atom_site_fract_z
 _atom_site_occupancy
  Ba  Ba0  1  0.71036298  0.71036298  0.86891099  1
  Ba  Ba1  1  0.28801999  0.28801999  0.13594000  1
  Sr  Sr2  1  0.13314000  0.13314000  0.60057999  1
  Sr  Sr3  1  0.85393797  0.85393797  0.43818601  1
  Ta  Ta4  1  0.57636198  0.57636198  0.27091401  1
  W  W5  1  0.42338499  0.42338499  0.72984499  1
  W  W6  1  0.99931497  0.99931497  0.00205502  1
  O  O7  1  0.71123098  0.20833099  0.87210699  1
  O  O8  1  0.20833099  0.20833099  0.87210698  1
  O  O9  1  0.20833099  0.71123098  0.87210699  1
  O  O10  1  0.28844599  0.79583097  0.11989201  1
  O  O11  1  0.79583098  0.79583097  0.11989201  1
  O  O12  1  0.79583097  0.28844599  0.11989201  1
  O  O13  1  0.87463897  0.37954899  0.36626300  1
  O  O14  1  0.37954899  0.37954899  0.36626300  1
  O  O15  1  0.37954899  0.87463897  0.36626300  1
  O  O16  1  0.12621000  0.62376498  0.62625999  1
  O  O17  1  0.62376498  0.62376498  0.62626000  1
  O  O18  1  0.62376498  0.12621000  0.62625999  1
