# generated using pymatgen
data_Cs2Y2CdAgTe6
_symmetry_space_group_name_H-M   'P 1'
_cell_length_a   4.56043196
_cell_length_b   8.98476219
_cell_length_c   11.91725826
_cell_angle_alpha   90.00000000
_cell_angle_beta   90.00000000
_cell_angle_gamma   104.70172119
_symmetry_Int_Tables_number   1
_chemical_formula_structural   Cs2Y2CdAgTe6
_chemical_formula_sum   'Cs2 Y2 Cd1 Ag1 Te6'
_cell_volume   472.31550716
_cell_formula_units_Z   1
loop_
 _symmetry_equiv_pos_site_id
 _symmetry_equiv_pos_as_xyz
  1  'x, y, z'
loop_
 _atom_site_type_symbol
 _atom_site_label
 _atom_site_symmetry_multiplicity
 _atom_site_fract_x
 _atom_site_fract_y
 _atom_site_fract_z
 _atom_site_occupancy
  Cs  Cs0  1  0.75077898  0.50155799  0.74999998  1
  Cs  Cs1  1  0.24922098  0.49844199  0.24999999  1
  Y  Y2  1  0.00000000  0.00000000  0.49999999  1
  Y  Y3  1  0.00000000  0.00000000  0.00000000  1
  Ag  Ag4  1  0.46325096  0.92650197  0.74999998  1
  Cd  Cd5  1  0.53674900  0.07349800  0.24999999  1
  Te  Te6  1  0.37979097  0.75958198  0.95280998  1
  Te  Te7  1  0.62020900  0.24041799  0.04719000  1
  Te  Te8  1  0.93463497  0.86926998  0.24999999  1
  Te  Te9  1  0.06536499  0.13073000  0.74999998  1
  Te  Te10  1  0.37979097  0.75958198  0.54718999  1
  Te  Te11  1  0.62020900  0.24041799  0.45280999  1
