# generated using pymatgen
data_Li3MnSbWO8
_symmetry_space_group_name_H-M   'P 1'
_cell_length_a   6.02703381
_cell_length_b   6.02703381
_cell_length_c   6.13753462
_cell_angle_alpha   60.59380341
_cell_angle_beta   60.59380341
_cell_angle_gamma   60.00000000
_symmetry_Int_Tables_number   1
_chemical_formula_structural   Li3MnSbWO8
_chemical_formula_sum   'Li3 Mn1 Sb1 W1 O8'
_cell_volume   159.04733314
_cell_formula_units_Z   1
loop_
 _symmetry_equiv_pos_site_id
 _symmetry_equiv_pos_as_xyz
  1  'x, y, z'
loop_
 _atom_site_type_symbol
 _atom_site_label
 _atom_site_symmetry_multiplicity
 _atom_site_fract_x
 _atom_site_fract_y
 _atom_site_fract_z
 _atom_site_occupancy
  Li  Li0  1  0.50094502  0.50094502  0.49716498  1
  Li  Li1  1  0.86054504  0.86054503  0.41836498  1
  Li  Li2  1  0.50354203  0.98975003  0.00316598  1
  Mn  Mn3  1  0.98975004  0.50354202  0.00316599  1
  W  W4  1  0.14641101  0.14641100  0.56076699  1
  Sb  Sb5  1  0.50354202  0.50354202  0.00316599  1
  O  O6  1  0.27144201  0.27144201  0.18567399  1
  O  O7  1  0.73142003  0.73142002  0.80573997  1
  O  O8  1  0.74293703  0.25870101  0.73966098  1
  O  O9  1  0.25870101  0.74293703  0.73966098  1
  O  O10  1  0.25870101  0.25870101  0.73966098  1
  O  O11  1  0.73642303  0.25921801  0.26793599  1
  O  O12  1  0.73642303  0.73642303  0.26793598  1
  O  O13  1  0.25921801  0.73642303  0.26793599  1
