# generated using pymatgen
data_AlO
_symmetry_space_group_name_H-M   'P 1'
_cell_length_a   3.09931207
_cell_length_b   3.09931207
_cell_length_c   20.28236389
_cell_angle_alpha   85.61809540
_cell_angle_beta   85.61809540
_cell_angle_gamma   59.99999619
_symmetry_Int_Tables_number   1
_chemical_formula_structural   AlO
_chemical_formula_sum   'Al8 O8'
_cell_volume   168.06722599
_cell_formula_units_Z   8
loop_
 _symmetry_equiv_pos_site_id
 _symmetry_equiv_pos_as_xyz
  1  'x, y, z'
loop_
 _atom_site_type_symbol
 _atom_site_label
 _atom_site_symmetry_multiplicity
 _atom_site_fract_x
 _atom_site_fract_y
 _atom_site_fract_z
 _atom_site_occupancy
  Al  Al0  1  0.87503197  0.87503202  0.37490401  1
  Al  Al1  1  0.37519099  0.37519101  0.87442701  1
  Al  Al2  1  0.58337398  0.58337402  0.24987801  1
  Al  Al3  1  0.00011300  0.00011300  0.99966100  1
  Al  Al4  1  0.50007198  0.50007201  0.49978401  1
  Al  Al5  1  0.29169899  0.29169901  0.12490300  1
  Al  Al6  1  0.75017697  0.75017702  0.74946901  1
  Al  Al7  1  0.12514000  0.12514000  0.62458000  1
  O  O8  1  0.96869597  0.96869603  0.09391202  1
  O  O9  1  0.46878898  0.46878901  0.59363301  1
  O  O10  1  0.09382600  0.09382600  0.71852200  1
  O  O11  1  0.71884898  0.71884902  0.84345301  1
  O  O12  1  0.84367397  0.84367402  0.46897801  1
  O  O13  1  0.34387299  0.34387301  0.96838101  1
  O  O14  1  0.26039399  0.26039401  0.21881800  1
  O  O15  1  0.55209998  0.55210001  0.34370001  1
