# generated using pymatgen
data_ZrTi4GaH8
_symmetry_space_group_name_H-M   'P 1'
_cell_length_a   5.77758121
_cell_length_b   5.77758121
_cell_length_c   5.77758121
_cell_angle_alpha   60.00000000
_cell_angle_beta   60.00000000
_cell_angle_gamma   60.00000000
_symmetry_Int_Tables_number   1
_chemical_formula_structural   ZrTi4GaH8
_chemical_formula_sum   'Zr1 Ti4 Ga1 H8'
_cell_volume   136.37136239
_cell_formula_units_Z   1
loop_
 _symmetry_equiv_pos_site_id
 _symmetry_equiv_pos_as_xyz
  1  'x, y, z'
loop_
 _atom_site_type_symbol
 _atom_site_label
 _atom_site_symmetry_multiplicity
 _atom_site_fract_x
 _atom_site_fract_y
 _atom_site_fract_z
 _atom_site_occupancy
  Ti  Ti0  1  0.25000001  0.25000001  0.25000001  1
  Zr  Zr1  1  0.50000002  0.50000002  0.50000002  1
  Ga  Ga2  1  0.87500003  0.87500003  0.37500001  1
  Ti  Ti3  1  0.37500001  0.87500003  0.87500003  1
  Ti  Ti4  1  0.87500003  0.87500003  0.87500003  1
  Ti  Ti5  1  0.87500003  0.37500001  0.87500003  1
  H  H6  1  0.08411300  0.63862902  0.63862902  1
  H  H7  1  0.11137200  0.11137100  0.66588602  1
  H  H8  1  0.11137200  0.66588602  0.11137100  1
  H  H9  1  0.11137200  0.11137100  0.11137100  1
  H  H10  1  0.63862802  0.08411400  0.63862902  1
  H  H11  1  0.63862802  0.63862902  0.63862902  1
  H  H12  1  0.66588702  0.11137100  0.11137100  1
  H  H13  1  0.63862802  0.63862902  0.08411400  1
