# generated using pymatgen
data_Na3TlAgO2F9
_symmetry_space_group_name_H-M   'P 1'
_cell_length_a   3.11688900
_cell_length_b   5.17276812
_cell_length_c   15.44266129
_cell_angle_alpha   90.00000000
_cell_angle_beta   90.00000000
_cell_angle_gamma   90.00000000
_symmetry_Int_Tables_number   1
_chemical_formula_structural   Na3TlAgO2F9
_chemical_formula_sum   'Na3 Tl1 Ag1 O2 F9'
_cell_volume   248.98116373
_cell_formula_units_Z   1
loop_
 _symmetry_equiv_pos_site_id
 _symmetry_equiv_pos_as_xyz
  1  'x, y, z'
loop_
 _atom_site_type_symbol
 _atom_site_label
 _atom_site_symmetry_multiplicity
 _atom_site_fract_x
 _atom_site_fract_y
 _atom_site_fract_z
 _atom_site_occupancy
  Na  Na0  1  0.25000000  0.35049999  0.65048599  1
  Tl  Tl1  1  0.75000000  0.64949999  0.34951399  1
  Na  Na2  1  0.75000000  0.85049998  0.84951398  1
  Na  Na3  1  0.25000000  0.14950000  0.15048600  1
  F  F4  1  0.25000000  0.52232799  0.79280999  1
  Ag  Ag5  1  0.75000000  0.47767199  0.20719000  1
  F  F6  1  0.75000000  0.02232800  0.70718999  1
  F  F7  1  0.25000000  0.97767198  0.29280999  1
  F  F8  1  0.25000000  0.35307699  0.01279900  1
  F  F9  1  0.75000000  0.64692299  0.98720098  1
  F  F10  1  0.75000000  0.85307698  0.48720099  1
  O  O11  1  0.25000000  0.14692300  0.51279899  1
  F  F12  1  0.25000000  0.31968599  0.38145199  1
  O  O13  1  0.75000000  0.68031398  0.61854799  1
  F  F14  1  0.75000000  0.81968598  0.11854800  1
  F  F15  1  0.25000000  0.18031400  0.88145198  1
