# generated using pymatgen
data_NaCaGdY2Bi2O11
_symmetry_space_group_name_H-M   'P 1'
_cell_length_a   3.52880597
_cell_length_b   7.46259689
_cell_length_c   10.83084869
_cell_angle_alpha   99.18582916
_cell_angle_beta   90.00000000
_cell_angle_gamma   90.00000000
_symmetry_Int_Tables_number   1
_chemical_formula_structural   NaCaGdY2Bi2O11
_chemical_formula_sum   'Na1 Ca1 Gd1 Y2 Bi2 O11'
_cell_volume   281.56245426
_cell_formula_units_Z   1
loop_
 _symmetry_equiv_pos_site_id
 _symmetry_equiv_pos_as_xyz
  1  'x, y, z'
loop_
 _atom_site_type_symbol
 _atom_site_label
 _atom_site_symmetry_multiplicity
 _atom_site_fract_x
 _atom_site_fract_y
 _atom_site_fract_z
 _atom_site_occupancy
  Gd  Gd0  1  0.50000000  0.82963402  0.66136906  1
  Y  Y1  1  0.50000000  0.50085601  0.00094002  1
  Y  Y2  1  0.50000000  0.16179400  0.32817502  1
  Na  Na3  1  1.00000001  0.33350501  0.67271104  1
  Bi  Bi4  1  -0.00000000  0.99870902  0.00685304  1
  Ca  Ca5  1  -0.00000000  0.66655302  0.33218404  1
  Bi  Bi6  1  0.50000000  0.34309201  0.52811403  1
  O  O7  1  0.50000000  0.01011800  0.86275303  1
  O  O8  1  -0.00000000  0.31744701  0.05093802  1
  O  O9  1  1.00000001  0.98227702  0.38025806  1
  O  O10  1  -0.00000000  0.65007102  0.71603806  1
  O  O11  1  -0.00000000  0.68431502  0.95242007  1
  O  O12  1  -0.00000000  0.34890101  0.28148003  1
  O  O13  1  -0.00000000  0.01586100  0.61534402  1
  O  O14  1  0.50000000  0.32986701  0.80720205  1
  O  O15  1  0.50000000  0.99133402  0.13915405  1
  O  O16  1  0.50000000  0.66216102  0.46844605  1
  O  O17  1  0.50000000  0.67350502  0.19562204  1
