# generated using pymatgen
data_AlZn2SiP4
_symmetry_space_group_name_H-M   'P 1'
_cell_length_a   3.41387105
_cell_length_b   3.41387105
_cell_length_c   11.30945683
_cell_angle_alpha   81.31919861
_cell_angle_beta   81.31919861
_cell_angle_gamma   60.00001526
_symmetry_Int_Tables_number   1
_chemical_formula_structural   AlZn2SiP4
_chemical_formula_sum   'Al1 Zn2 Si1 P4'
_cell_volume   112.40070179
_cell_formula_units_Z   1
loop_
 _symmetry_equiv_pos_site_id
 _symmetry_equiv_pos_as_xyz
  1  'x, y, z'
loop_
 _atom_site_type_symbol
 _atom_site_label
 _atom_site_symmetry_multiplicity
 _atom_site_fract_x
 _atom_site_fract_y
 _atom_site_fract_z
 _atom_site_occupancy
  Zn  Zn0  1  0.25249400  0.25249401  0.24251801  1
  Al  Al1  1  0.50000000  0.50000002  0.50000002  1
  Zn  Zn2  1  0.74750599  0.74750603  0.75748203  1
  Si  Si3  1  0.00000000  0.00000000  0.00000000  1
  P  P4  1  0.37146500  0.37146501  0.88560502  1
  P  P5  1  0.12381200  0.12381200  0.62856401  1
  P  P6  1  0.62853499  0.62853502  0.11439502  1
  P  P7  1  0.87618799  0.87618803  0.37143603  1
