# generated using pymatgen
data_Rb2PdS2
_symmetry_space_group_name_H-M   'P 1'
_cell_length_a   6.15183783
_cell_length_b   6.65652609
_cell_length_c   8.01874447
_cell_angle_alpha   65.47688293
_cell_angle_beta   90.00000000
_cell_angle_gamma   90.00000000
_symmetry_Int_Tables_number   1
_chemical_formula_structural   Rb2PdS2
_chemical_formula_sum   'Rb4 Pd2 S4'
_cell_volume   298.74586461
_cell_formula_units_Z   2
loop_
 _symmetry_equiv_pos_site_id
 _symmetry_equiv_pos_as_xyz
  1  'x, y, z'
loop_
 _atom_site_type_symbol
 _atom_site_label
 _atom_site_symmetry_multiplicity
 _atom_site_fract_x
 _atom_site_fract_y
 _atom_site_fract_z
 _atom_site_occupancy
  Rb  Rb0  1  0.75000002  0.78584799  0.42830402  1
  Rb  Rb1  1  0.25000001  0.21415200  0.57169602  1
  Rb  Rb2  1  0.75000002  0.42082700  0.15834601  1
  Rb  Rb3  1  0.25000001  0.57917299  0.84165404  1
  Pd  Pd4  1  0.75000002  0.26871900  0.78939403  1
  Pd  Pd5  1  0.25000001  0.73128099  0.21060601  1
  S  S6  1  0.75000002  0.94188699  0.78939403  1
  S  S7  1  0.25000001  0.05811300  0.21060601  1
  S  S8  1  0.00000000  0.00000000  0.00000000  1
  S  S9  1  0.50000001  0.00000000  0.00000000  1
