# generated using pymatgen
data_Li4MnSb2PdO8
_symmetry_space_group_name_H-M   'P 1'
_cell_length_a   5.81683588
_cell_length_b   5.81683588
_cell_length_c   5.81683588
_cell_angle_alpha   90.00000000
_cell_angle_beta   90.00000000
_cell_angle_gamma   90.00000000
_symmetry_Int_Tables_number   1
_chemical_formula_structural   Li4MnSb2PdO8
_chemical_formula_sum   'Li4 Mn1 Sb2 Pd1 O8'
_cell_volume   196.81601379
_cell_formula_units_Z   1
loop_
 _symmetry_equiv_pos_site_id
 _symmetry_equiv_pos_as_xyz
  1  'x, y, z'
loop_
 _atom_site_type_symbol
 _atom_site_label
 _atom_site_symmetry_multiplicity
 _atom_site_fract_x
 _atom_site_fract_y
 _atom_site_fract_z
 _atom_site_occupancy
  Li  Li0  1  0.50000001  0.50000001  0.50000001  1
  Li  Li1  1  0.00000000  0.00000000  0.00000000  1
  Li  Li2  1  0.75137002  0.50000001  0.00000000  1
  Li  Li3  1  0.50000001  0.00000000  0.75137002  1
  Mn  Mn4  1  -0.00000000  0.75137002  0.50000001  1
  Sb  Sb5  1  0.50000001  0.00000000  0.24863001  1
  Sb  Sb6  1  -0.00000000  0.24863001  0.50000001  1
  Pd  Pd7  1  0.24863001  0.50000001  0.00000000  1
  O  O8  1  0.23630100  0.76369902  0.23630100  1
  O  O9  1  0.76369902  0.23630100  0.23630100  1
  O  O10  1  0.23630100  0.23630100  0.76369902  1
  O  O11  1  0.76369902  0.76369902  0.76369902  1
  O  O12  1  0.76369902  0.23630100  0.76369902  1
  O  O13  1  0.23630100  0.76369902  0.76369902  1
  O  O14  1  0.76369902  0.76369902  0.23630100  1
  O  O15  1  0.23630100  0.23630100  0.23630100  1
