# generated using pymatgen
data_CsMn2NbSe4
_symmetry_space_group_name_H-M   'P 1'
_cell_length_a   5.06330681
_cell_length_b   8.82544518
_cell_length_c   11.01339722
_cell_angle_alpha   90.00000000
_cell_angle_beta   90.00000000
_cell_angle_gamma   90.00000000
_symmetry_Int_Tables_number   1
_chemical_formula_structural   CsMn2NbSe4
_chemical_formula_sum   'Cs2 Mn4 Nb2 Se8'
_cell_volume   492.14397026
_cell_formula_units_Z   2
loop_
 _symmetry_equiv_pos_site_id
 _symmetry_equiv_pos_as_xyz
  1  'x, y, z'
loop_
 _atom_site_type_symbol
 _atom_site_label
 _atom_site_symmetry_multiplicity
 _atom_site_fract_x
 _atom_site_fract_y
 _atom_site_fract_z
 _atom_site_occupancy
  Cs  Cs0  1  0.50000002  0.14476900  0.44894699  1
  Cs  Cs1  1  0.50000002  0.64476899  0.55105299  1
  Nb  Nb2  1  -0.00000000  0.11442200  0.78550798  1
  Nb  Nb3  1  -0.00000000  0.47507499  0.85338398  1
  Mn  Mn4  1  -0.00000000  0.61442199  0.21449200  1
  Mn  Mn5  1  0.50000002  0.80361398  0.95338198  1
  Mn  Mn6  1  0.50000002  0.30361399  0.04661800  1
  Mn  Mn7  1  -0.00000000  0.97507498  0.14661600  1
  Se  Se8  1  0.50000002  0.48519499  0.23793100  1
  Se  Se9  1  0.50000002  0.98519498  0.76206898  1
  Se  Se10  1  -0.00000000  0.74657099  0.00763600  1
  Se  Se11  1  0.50000002  0.52181999  0.85857598  1
  Se  Se12  1  -0.00000000  0.33760499  0.62936399  1
  Se  Se13  1  -0.00000000  0.24657100  0.99236398  1
  Se  Se14  1  0.50000002  0.02182000  0.14142400  1
  Se  Se15  1  -0.00000000  0.83760498  0.37063599  1
