# generated using pymatgen
data_Cs2KRb5NClO2
_symmetry_space_group_name_H-M   'P 1'
_cell_length_a   6.90304184
_cell_length_b   8.36246204
_cell_length_c   8.37216663
_cell_angle_alpha   115.19864655
_cell_angle_beta   102.79404449
_cell_angle_gamma   100.78379822
_symmetry_Int_Tables_number   1
_chemical_formula_structural   Cs2KRb5NClO2
_chemical_formula_sum   'Cs2 Rb5 K1 N1 Cl1 O2'
_cell_volume   404.18115393
_cell_formula_units_Z   1
loop_
 _symmetry_equiv_pos_site_id
 _symmetry_equiv_pos_as_xyz
  1  'x, y, z'
loop_
 _atom_site_type_symbol
 _atom_site_label
 _atom_site_symmetry_multiplicity
 _atom_site_fract_x
 _atom_site_fract_y
 _atom_site_fract_z
 _atom_site_occupancy
  Cs  Cs0  1  0.87880308  0.68008904  0.81906603  1
  Cs  Cs1  1  0.03460207  0.89256105  0.21579901  1
  Rb  Rb2  1  0.96539804  0.10743901  0.78420102  1
  Rb  Rb3  1  0.53618503  0.22525601  0.94252801  1
  Rb  Rb4  1  0.61315403  0.14550101  0.30158102  1
  Rb  Rb5  1  0.38684608  0.85449905  0.69841902  1
  Rb  Rb6  1  0.12119703  0.31991102  0.18093401  1
  K  K7  1  0.46381507  0.77474404  0.05747203  1
  N  N8  1  0.78157810  0.99992406  0.00055704  1
  O  O9  1  0.21842201  0.00007600  0.99944299  1
  O  O10  1  0.74684507  0.59133603  0.41938103  1
  Cl  Cl11  1  0.25315504  0.40866402  0.58061901  1
