# generated using pymatgen
data_InAgSe2
_symmetry_space_group_name_H-M   'P 1'
_cell_length_a   4.53325462
_cell_length_b   4.53325462
_cell_length_c   7.84912205
_cell_angle_alpha   73.21539307
_cell_angle_beta   73.21539307
_cell_angle_gamma   59.99999237
_symmetry_Int_Tables_number   1
_chemical_formula_structural   InAgSe2
_chemical_formula_sum   'In1 Ag1 Se2'
_cell_volume   131.69732076
_cell_formula_units_Z   1
loop_
 _symmetry_equiv_pos_site_id
 _symmetry_equiv_pos_as_xyz
  1  'x, y, z'
loop_
 _atom_site_type_symbol
 _atom_site_label
 _atom_site_symmetry_multiplicity
 _atom_site_fract_x
 _atom_site_fract_y
 _atom_site_fract_z
 _atom_site_occupancy
  In  In0  1  0.49979296  0.49979298  0.50062100  1
  Ag  Ag1  1  0.00060600  0.00060600  0.99818201  1
  Se  Se2  1  0.12966999  0.12967000  0.61099000  1
  Se  Se3  1  0.61993095  0.61993098  0.14020699  1
