# generated using pymatgen
data_Hf5TaFeNiSb4Te3Os(RuPt)2
_symmetry_space_group_name_H-M   'P 1'
_cell_length_a   7.91369534
_cell_length_b   7.91369534
_cell_length_c   7.91369534
_cell_angle_alpha   109.47122192
_cell_angle_beta   109.47122192
_cell_angle_gamma   109.47122192
_symmetry_Int_Tables_number   1
_chemical_formula_structural   Hf5TaFeNiSb4Te3Os(RuPt)2
_chemical_formula_sum   'Hf5 Ta1 Fe1 Ni1 Sb4 Te3 Os1 Ru2 Pt2'
_cell_volume   381.51890973
_cell_formula_units_Z   1
loop_
 _symmetry_equiv_pos_site_id
 _symmetry_equiv_pos_as_xyz
  1  'x, y, z'
loop_
 _atom_site_type_symbol
 _atom_site_label
 _atom_site_symmetry_multiplicity
 _atom_site_fract_x
 _atom_site_fract_y
 _atom_site_fract_z
 _atom_site_occupancy
  Ta  Ta0  1  0.74999999  0.12500000  0.37500001  1
  Hf  Hf1  1  0.37500003  0.62500001  0.75000002  1
  Hf  Hf2  1  0.12500005  0.87500001  0.25000004  1
  Hf  Hf3  1  0.87500003  0.75000001  0.62500004  1
  Hf  Hf4  1  0.62500000  0.25000000  0.87500000  1
  Hf  Hf5  1  0.25000002  0.37500000  0.12500002  1
  Ni  Ni6  1  0.87499999  0.12500000  0.75000001  1
  Pt  Pt7  1  0.25000005  0.87500001  0.62500004  1
  Fe  Fe8  1  0.62500001  0.37500000  0.25000003  1
  Pt  Pt9  1  0.37500004  0.75000001  0.12500005  1
  Os  Os10  1  0.12500001  0.25000000  0.37500001  1
  Te  Te11  1  0.75000002  0.62500001  0.87500003  1
  Te  Te12  1  0.16535701  0.16535700  0.66535699  1
  Sb  Sb13  1  0.83464305  1.00000001  1.00000005  1
  Ru  Ru14  1  0.00000003  0.50000001  0.83464300  1
  Sb  Sb15  1  0.50000001  0.33464300  0.50000002  1
  Sb  Sb16  1  0.00000003  0.50000001  0.33464302  1
  Sb  Sb17  1  0.50000004  0.83464301  0.50000004  1
  Ru  Ru18  1  0.66535703  0.66535701  0.16535705  1
  Te  Te19  1  0.33464306  1.00000001  1.00000004  1
