# generated using pymatgen
data_BaLa2CeTiV2P(N3O)2
_symmetry_space_group_name_H-M   'P 1'
_cell_length_a   3.94141889
_cell_length_b   3.94141889
_cell_length_c   15.31271839
_cell_angle_alpha   90.00000000
_cell_angle_beta   90.00000000
_cell_angle_gamma   90.00000000
_symmetry_Int_Tables_number   1
_chemical_formula_structural   BaLa2CeTiV2P(N3O)2
_chemical_formula_sum   'Ba1 La2 Ce1 Ti1 V2 P1 N6 O2'
_cell_volume   237.87975485
_cell_formula_units_Z   1
loop_
 _symmetry_equiv_pos_site_id
 _symmetry_equiv_pos_as_xyz
  1  'x, y, z'
loop_
 _atom_site_type_symbol
 _atom_site_label
 _atom_site_symmetry_multiplicity
 _atom_site_fract_x
 _atom_site_fract_y
 _atom_site_fract_z
 _atom_site_occupancy
  Ba  Ba0  1  0.50000001  0.50000001  0.49999999  1
  La  La1  1  0.50000001  0.50000001  0.84980498  1
  La  La2  1  0.50000001  0.50000001  0.15019500  1
  Ce  Ce3  1  0.00000000  0.00000000  0.00000000  1
  Ti  Ti4  1  0.00000000  0.00000000  0.27995199  1
  V  V5  1  0.00000000  0.00000000  0.72004798  1
  N  N6  1  0.00000000  0.00000000  0.60260498  1
  V  V7  1  0.00000000  0.00000000  0.39739499  1
  P  P8  1  0.50000001  0.00000000  0.74736098  1
  N  N9  1  -0.00000000  0.50000001  0.74736098  1
  N  N10  1  0.50000001  0.00000000  0.25263899  1
  N  N11  1  -0.00000000  0.50000001  0.25263899  1
  O  O12  1  -0.00000000  0.50000001  0.00000000  1
  O  O13  1  0.50000001  0.00000000  0.00000000  1
  N  N14  1  0.00000000  0.00000000  0.12876200  1
  N  N15  1  0.00000000  0.00000000  0.87123798  1
