# generated using pymatgen
data_Li2ZnCuAg3PSe8
_symmetry_space_group_name_H-M   'P 1'
_cell_length_a   6.89569616
_cell_length_b   7.31556892
_cell_length_c   8.05084229
_cell_angle_alpha   90.00000000
_cell_angle_beta   90.00000000
_cell_angle_gamma   90.00000000
_symmetry_Int_Tables_number   1
_chemical_formula_structural   Li2ZnCuAg3PSe8
_chemical_formula_sum   'Li2 Zn1 Cu1 Ag3 P1 Se8'
_cell_volume   406.13231138
_cell_formula_units_Z   1
loop_
 _symmetry_equiv_pos_site_id
 _symmetry_equiv_pos_as_xyz
  1  'x, y, z'
loop_
 _atom_site_type_symbol
 _atom_site_label
 _atom_site_symmetry_multiplicity
 _atom_site_fract_x
 _atom_site_fract_y
 _atom_site_fract_z
 _atom_site_occupancy
  Zn  Zn0  1  0.50241399  0.35632200  0.00000000  1
  Li  Li1  1  0.00241400  0.64367801  0.49999998  1
  Ag  Ag2  1  0.99975798  0.66388201  0.00000000  1
  Li  Li3  1  0.49975799  0.33611800  0.49999998  1
  Cu  Cu4  1  0.51999399  0.82662401  0.75137897  1
  Ag  Ag5  1  0.01999400  0.17337600  0.74862097  1
  Ag  Ag6  1  0.01999400  0.17337600  0.25137899  1
  P  P7  1  0.51999399  0.82662401  0.24862099  1
  Se  Se8  1  0.87168898  0.37399000  -0.00000000  1
  Se  Se9  1  0.37168899  0.62601001  0.49999998  1
  Se  Se10  1  0.90197198  0.82280401  0.76429397  1
  Se  Se11  1  0.40197199  0.17719600  0.73570597  1
  Se  Se12  1  0.40197199  0.17719600  0.26429399  1
  Se  Se13  1  0.90197198  0.82280401  0.23570599  1
  Se  Se14  1  0.33470599  0.66003301  0.00000000  1
  Se  Se15  1  0.83470598  0.33996700  0.49999998  1
