# generated using pymatgen
data_SrCaPrYSbBr11
_symmetry_space_group_name_H-M   'P 1'
_cell_length_a   7.89686823
_cell_length_b   7.89686775
_cell_length_c   14.28401089
_cell_angle_alpha   90.00000000
_cell_angle_beta   90.00000000
_cell_angle_gamma   120.00000000
_symmetry_Int_Tables_number   1
_chemical_formula_structural   SrCaPrYSbBr11
_chemical_formula_sum   'Sr1 Ca1 Pr1 Y1 Sb1 Br11'
_cell_volume   771.41940701
_cell_formula_units_Z   1
loop_
 _symmetry_equiv_pos_site_id
 _symmetry_equiv_pos_as_xyz
  1  'x, y, z'
loop_
 _atom_site_type_symbol
 _atom_site_label
 _atom_site_symmetry_multiplicity
 _atom_site_fract_x
 _atom_site_fract_y
 _atom_site_fract_z
 _atom_site_occupancy
  Y  Y0  1  0.66666664  0.33333333  0.75000001  1
  Ca  Ca1  1  0.33333331  0.66666666  0.25000000  1
  Pr  Pr2  1  0.00000000  0.00000000  0.00000000  1
  Sr  Sr3  1  0.00000000  0.00000000  0.50000000  1
  Br  Br4  1  0.65977398  0.01047300  0.87413901  1
  Sb  Sb5  1  0.35069898  0.34022600  0.87413901  1
  Br  Br6  1  0.98952696  0.64930099  0.87413901  1
  Br  Br7  1  0.35069899  0.01047300  0.62586100  1
  Br  Br8  1  0.98952696  0.34022600  0.62586100  1
  Br  Br9  1  0.65977397  0.64930099  0.62586100  1
  Br  Br10  1  0.34022597  0.98952699  0.12586100  1
  Br  Br11  1  0.64930097  0.65977399  0.12586100  1
  Br  Br12  1  0.01047299  0.35069900  0.12586100  1
  Br  Br13  1  0.64930096  0.98952699  0.37413900  1
  Br  Br14  1  0.01047299  0.65977399  0.37413900  1
  Br  Br15  1  0.34022598  0.35069900  0.37413900  1
