# generated using pymatgen
data_Rb4SnSb2TeBr12
_symmetry_space_group_name_H-M   'P 1'
_cell_length_a   8.78791809
_cell_length_b   8.78791809
_cell_length_c   11.05620766
_cell_angle_alpha   90.00000000
_cell_angle_beta   90.00000000
_cell_angle_gamma   120.00000000
_symmetry_Int_Tables_number   1
_chemical_formula_structural   Rb4SnSb2TeBr12
_chemical_formula_sum   'Rb4 Sn1 Sb2 Te1 Br12'
_cell_volume   739.45001043
_cell_formula_units_Z   1
loop_
 _symmetry_equiv_pos_site_id
 _symmetry_equiv_pos_as_xyz
  1  'x, y, z'
loop_
 _atom_site_type_symbol
 _atom_site_label
 _atom_site_symmetry_multiplicity
 _atom_site_fract_x
 _atom_site_fract_y
 _atom_site_fract_z
 _atom_site_occupancy
  Rb  Rb0  1  0.66666665  0.33333332  0.12158300  1
  Rb  Rb1  1  0.33333332  0.66666664  0.87841703  1
  Rb  Rb2  1  0.00000000  0.00000000  0.74170102  1
  Rb  Rb3  1  0.00000000  0.00000000  0.25829901  1
  Sb  Sb4  1  0.66666665  0.33333332  0.74866402  1
  Sn  Sn5  1  0.33333332  0.66666664  0.25133601  1
  Te  Te6  1  0.66666665  0.33333332  0.49616502  1
  Sb  Sb7  1  0.33333332  0.66666664  0.50383502  1
  Br  Br8  1  0.71542899  0.10449500  0.87337903  1
  Br  Br9  1  0.38906599  0.28457199  0.87337903  1
  Br  Br10  1  0.89550598  0.61093498  0.87337903  1
  Br  Br11  1  0.28457098  0.89550496  0.12662100  1
  Br  Br12  1  0.61093398  0.71542797  0.12662100  1
  Br  Br13  1  0.10449399  0.38906498  0.12662100  1
  Br  Br14  1  0.90721598  0.60657998  0.37548401  1
  Br  Br15  1  0.69936399  0.09278400  0.37548401  1
  Br  Br16  1  0.39341999  0.30063599  0.37548401  1
  Br  Br17  1  0.09278399  0.39341998  0.62451602  1
  Br  Br18  1  0.30063598  0.90721596  0.62451602  1
  Br  Br19  1  0.60657998  0.69936397  0.62451602  1
