# generated using pymatgen
data_Li3Mn2WO7
_symmetry_space_group_name_H-M   'P 1'
_cell_length_a   3.04750609
_cell_length_b   6.37860823
_cell_length_c   7.96609688
_cell_angle_alpha   82.41959381
_cell_angle_beta   78.97251892
_cell_angle_gamma   76.17926788
_symmetry_Int_Tables_number   1
_chemical_formula_structural   Li3Mn2WO7
_chemical_formula_sum   'Li3 Mn2 W1 O7'
_cell_volume   146.98681152
_cell_formula_units_Z   1
loop_
 _symmetry_equiv_pos_site_id
 _symmetry_equiv_pos_as_xyz
  1  'x, y, z'
loop_
 _atom_site_type_symbol
 _atom_site_label
 _atom_site_symmetry_multiplicity
 _atom_site_fract_x
 _atom_site_fract_y
 _atom_site_fract_z
 _atom_site_occupancy
  Li  Li0  1  0.53743706  0.64215299  0.28297296  1
  Mn  Mn1  1  0.46256303  0.35784699  0.71702699  1
  Li  Li2  1  0.24158301  0.15638500  0.36044899  1
  Li  Li3  1  0.75841708  0.84361498  0.63955095  1
  Mn  Mn4  1  0.00000000  0.00000000  0.00000000  1
  O  O5  1  0.11021305  0.47526499  0.30430898  1
  W  W6  1  0.88978704  0.52473499  0.69569097  1
  O  O7  1  0.55929408  0.80930898  0.07210295  1
  O  O8  1  0.44070601  0.19069100  0.92789700  1
  O  O9  1  0.35413008  0.82919998  0.46253996  1
  O  O10  1  0.16069009  0.89421998  0.78439997  1
  O  O11  1  0.83930999  0.10578000  0.21559998  1
  O  O12  1  0.64587001  0.17080000  0.53745999  1
