# generated using pymatgen
data_Rb6Mn2O5
_symmetry_space_group_name_H-M   'P 1'
_cell_length_a   7.31991243
_cell_length_b   7.31991243
_cell_length_c   7.48291588
_cell_angle_alpha   92.90044403
_cell_angle_beta   92.90044403
_cell_angle_gamma   117.66955566
_symmetry_Int_Tables_number   1
_chemical_formula_structural   Rb6Mn2O5
_chemical_formula_sum   'Rb6 Mn2 O5'
_cell_volume   353.38986071
_cell_formula_units_Z   1
loop_
 _symmetry_equiv_pos_site_id
 _symmetry_equiv_pos_as_xyz
  1  'x, y, z'
loop_
 _atom_site_type_symbol
 _atom_site_label
 _atom_site_symmetry_multiplicity
 _atom_site_fract_x
 _atom_site_fract_y
 _atom_site_fract_z
 _atom_site_occupancy
  Rb  Rb0  1  0.00805500  0.00805500  0.36585101  1
  Rb  Rb1  1  0.29717698  0.29717699  0.99556301  1
  Rb  Rb2  1  0.40378095  0.89081897  0.68441599  1
  Rb  Rb3  1  0.89081897  0.40378099  0.68441600  1
  Rb  Rb4  1  0.43364595  0.86048797  0.18145599  1
  Rb  Rb5  1  0.86048797  0.43364598  0.18145599  1
  Mn  Mn6  1  0.83751295  0.83751297  0.87780299  1
  Mn  Mn7  1  0.44811197  0.44811198  0.50964600  1
  O  O8  1  0.61051296  0.61051298  0.72985800  1
  O  O9  1  0.48708598  0.22511399  0.40988500  1
  O  O10  1  0.22511397  0.48708598  0.40988500  1
  O  O11  1  0.81626299  0.07783300  0.95758201  1
  O  O12  1  0.07783295  0.81626297  0.95758200  1
