# generated using pymatgen
data_LiMnSi2N7O
_symmetry_space_group_name_H-M   'P 1'
_cell_length_a   4.80481100
_cell_length_b   4.80481100
_cell_length_c   7.51359606
_cell_angle_alpha   87.04418945
_cell_angle_beta   87.04418945
_cell_angle_gamma   65.49035645
_symmetry_Int_Tables_number   1
_chemical_formula_structural   LiMnSi2N7O
_chemical_formula_sum   'Li1 Mn1 Si2 N7 O1'
_cell_volume   157.53327822
_cell_formula_units_Z   1
loop_
 _symmetry_equiv_pos_site_id
 _symmetry_equiv_pos_as_xyz
  1  'x, y, z'
loop_
 _atom_site_type_symbol
 _atom_site_label
 _atom_site_symmetry_multiplicity
 _atom_site_fract_x
 _atom_site_fract_y
 _atom_site_fract_z
 _atom_site_occupancy
  Li  Li0  1  0.00000000  0.00000000  0.50000001  1
  Mn  Mn1  1  0.00000000  0.00000000  0.00000000  1
  Si  Si2  1  0.63365398  0.63365399  0.21152699  1
  Si  Si3  1  0.36634599  0.36634600  0.78847301  1
  O  O4  1  0.70767798  0.70767799  0.38267600  1
  N  N5  1  0.29232199  0.29232200  0.61732401  1
  N  N6  1  0.75916498  0.28566100  0.20378200  1
  N  N7  1  0.24083498  0.71433899  0.79621801  1
  N  N8  1  0.71433898  0.24083500  0.79621801  1
  N  N9  1  0.28566098  0.75916499  0.20378200  1
  N  N10  1  0.74791597  0.74791599  0.04817999  1
  N  N11  1  0.25208399  0.25208400  0.95182002  1
