# generated using pymatgen
data_CoReHgSbCl14
_symmetry_space_group_name_H-M   'P 1'
_cell_length_a   6.82140112
_cell_length_b   7.12416601
_cell_length_c   15.08558750
_cell_angle_alpha   101.88814545
_cell_angle_beta   90.00000000
_cell_angle_gamma   90.00000000
_symmetry_Int_Tables_number   1
_chemical_formula_structural   CoReHgSbCl14
_chemical_formula_sum   'Co1 Re1 Hg1 Sb1 Cl14'
_cell_volume   717.38714680
_cell_formula_units_Z   1
loop_
 _symmetry_equiv_pos_site_id
 _symmetry_equiv_pos_as_xyz
  1  'x, y, z'
loop_
 _atom_site_type_symbol
 _atom_site_label
 _atom_site_symmetry_multiplicity
 _atom_site_fract_x
 _atom_site_fract_y
 _atom_site_fract_z
 _atom_site_occupancy
  Re  Re0  1  0.99827998  0.36153499  0.66284699  1
  Co  Co1  1  0.00172000  0.86153499  0.16284697  1
  Sb  Sb2  1  0.59736299  0.50070899  0.50356798  1
  Hg  Hg3  1  0.40263699  0.00070900  0.00356800  1
  Cl  Cl4  1  0.39921299  0.29220800  0.39766499  1
  Cl  Cl5  1  0.39809699  0.77904999  0.53621298  1
  Cl  Cl6  1  0.17961000  0.10288900  0.90080000  1
  Cl  Cl7  1  0.82038999  0.60288899  0.40079998  1
  Cl  Cl8  1  0.12117400  0.17040000  0.16302999  1
  Cl  Cl9  1  0.60190299  0.27905000  0.03621299  1
  Cl  Cl10  1  0.12890500  0.67002699  0.02992398  1
  Cl  Cl11  1  0.87109498  0.17002700  0.52992399  1
  Cl  Cl12  1  0.66323599  0.84306599  0.16601797  1
  Cl  Cl13  1  0.33676399  0.34306599  0.66601799  1
  Cl  Cl14  1  0.12967000  0.76531199  0.28983298  1
  Cl  Cl15  1  0.87032998  0.26531200  0.78983299  1
  Cl  Cl16  1  0.60078699  0.79220799  0.89766497  1
  Cl  Cl17  1  0.87882598  0.67039999  0.66302998  1
