# generated using pymatgen
data_V2Si2O7
_symmetry_space_group_name_H-M   'P 1'
_cell_length_a   4.74677753
_cell_length_b   5.59458399
_cell_length_c   5.59458399
_cell_angle_alpha   76.32373810
_cell_angle_beta   82.77736664
_cell_angle_gamma   97.22263336
_symmetry_Int_Tables_number   1
_chemical_formula_structural   V2Si2O7
_chemical_formula_sum   'V2 Si2 O7'
_cell_volume   141.33872307
_cell_formula_units_Z   1
loop_
 _symmetry_equiv_pos_site_id
 _symmetry_equiv_pos_as_xyz
  1  'x, y, z'
loop_
 _atom_site_type_symbol
 _atom_site_label
 _atom_site_symmetry_multiplicity
 _atom_site_fract_x
 _atom_site_fract_y
 _atom_site_fract_z
 _atom_site_occupancy
  V  V0  1  0.49999997  0.29540700  0.29540703  1
  V  V1  1  0.49999995  0.68447100  0.68447104  1
  Si  Si2  1  0.91670397  0.21968400  0.79497305  1
  Si  Si3  1  0.08329595  0.79497300  0.21968403  1
  O  O4  1  0.70928796  0.40819300  0.88370405  1
  O  O5  1  0.29071194  0.88370400  0.40819304  1
  O  O6  1  0.73644498  0.03656300  0.65626903  1
  O  O7  1  0.26355495  0.65626900  0.03656303  1
  O  O8  1  0.99999998  0.05850100  0.05850103  1
  O  O9  1  0.78253095  0.62487700  0.37675805  1
  O  O10  1  0.21746897  0.37675800  0.62487703  1
