# generated using pymatgen
data_K3LiH4N2O5
_symmetry_space_group_name_H-M   'P 1'
_cell_length_a   3.88492203
_cell_length_b   7.56542635
_cell_length_c   8.98291016
_cell_angle_alpha   93.92790222
_cell_angle_beta   90.00000000
_cell_angle_gamma   104.87760162
_symmetry_Int_Tables_number   1
_chemical_formula_structural   K3LiH4N2O5
_chemical_formula_sum   'K3 Li1 H4 N2 O5'
_cell_volume   254.52501721
_cell_formula_units_Z   1
loop_
 _symmetry_equiv_pos_site_id
 _symmetry_equiv_pos_as_xyz
  1  'x, y, z'
loop_
 _atom_site_type_symbol
 _atom_site_label
 _atom_site_symmetry_multiplicity
 _atom_site_fract_x
 _atom_site_fract_y
 _atom_site_fract_z
 _atom_site_occupancy
  K  K0  1  0.34656500  0.69313001  0.82478706  1
  K  K1  1  0.65343500  0.30687000  0.17521302  1
  Li  Li2  1  0.00000000  0.00000000  0.50000002  1
  K  K3  1  0.39852300  0.79704601  0.49385705  1
  N  N4  1  0.60147700  0.20295400  0.50614303  1
  H  H5  1  0.32770500  0.65541000  0.41692405  1
  H  H6  1  0.67229500  0.34459000  0.58307604  1
  N  N7  1  0.25826000  0.51652000  0.34421704  1
  O  O8  1  0.74173999  0.48348000  0.65578305  1
  O  O9  1  0.99989899  0.99979801  0.76105207  1
  O  O10  1  0.00010100  0.00020200  0.23894801  1
  H  H11  1  0.06675800  0.13351600  0.84612704  1
  H  H12  1  0.93324199  0.86648401  0.15387304  1
  O  O13  1  0.13061700  0.26123400  0.93367505  1
  O  O14  1  0.86938299  0.73876601  0.06632503  1
