# generated using pymatgen
data_NaLiMgSiH4O11
_symmetry_space_group_name_H-M   'P 1'
_cell_length_a   5.56503582
_cell_length_b   5.76996136
_cell_length_c   6.86945963
_cell_angle_alpha   107.38561249
_cell_angle_beta   97.28640747
_cell_angle_gamma   108.96156311
_symmetry_Int_Tables_number   1
_chemical_formula_structural   NaLiMgSiH4O11
_chemical_formula_sum   'Na1 Li1 Mg1 Si1 H4 O11'
_cell_volume   192.85466049
_cell_formula_units_Z   1
loop_
 _symmetry_equiv_pos_site_id
 _symmetry_equiv_pos_as_xyz
  1  'x, y, z'
loop_
 _atom_site_type_symbol
 _atom_site_label
 _atom_site_symmetry_multiplicity
 _atom_site_fract_x
 _atom_site_fract_y
 _atom_site_fract_z
 _atom_site_occupancy
  Mg  Mg0  1  0.14944599  0.29843400  0.76123399  1
  Na  Na1  1  0.85055400  0.70156599  0.23876601  1
  Li  Li2  1  0.50000002  0.00000000  0.00000000  1
  Si  Si3  1  0.16642299  0.33926800  0.24400000  1
  H  H4  1  0.83357700  0.66073199  0.75600000  1
  H  H5  1  0.41804498  0.82787699  0.31237401  1
  H  H6  1  0.58195501  0.17212300  0.68762600  1
  H  H7  1  0.64194502  0.12696000  0.39641600  1
  O  O8  1  0.35805497  0.87303999  0.60358400  1
  O  O9  1  0.39309300  0.33994300  0.12900900  1
  O  O10  1  0.60690699  0.66005699  0.87099100  1
  O  O11  1  0.91128402  0.26281600  0.07103401  1
  O  O12  1  0.08871597  0.73718399  0.92896600  1
  O  O13  1  0.13306500  0.16205400  0.37421100  1
  O  O14  1  0.86693499  0.83794599  0.62578900  1
  O  O15  1  0.22620998  0.63090399  0.38498000  1
  O  O16  1  0.77379001  0.36909600  0.61502000  1
  O  O17  1  0.42933901  0.04910000  0.72249799  1
  O  O18  1  0.57066098  0.95089999  0.27750201  1
