# generated using pymatgen
data_Bi2O3
_symmetry_space_group_name_H-M   'P 1'
_cell_length_a   6.01299620
_cell_length_b   7.77274990
_cell_length_c   7.77274990
_cell_angle_alpha   60.00000000
_cell_angle_beta   90.00000000
_cell_angle_gamma   90.00000000
_symmetry_Int_Tables_number   1
_chemical_formula_structural   Bi2O3
_chemical_formula_sum   'Bi8 O12'
_cell_volume   314.60885971
_cell_formula_units_Z   4
loop_
 _symmetry_equiv_pos_site_id
 _symmetry_equiv_pos_as_xyz
  1  'x, y, z'
loop_
 _atom_site_type_symbol
 _atom_site_label
 _atom_site_symmetry_multiplicity
 _atom_site_fract_x
 _atom_site_fract_y
 _atom_site_fract_z
 _atom_site_occupancy
  Bi  Bi0  1  0.77119197  0.64974101  0.17512900  1
  Bi  Bi1  1  0.77119197  0.17513000  0.64974001  1
  Bi  Bi2  1  0.77119197  0.17513000  0.17512900  1
  Bi  Bi3  1  0.27119199  0.35025901  0.82487101  1
  Bi  Bi4  1  0.27119199  0.82487001  0.35026000  1
  Bi  Bi5  1  0.27119199  0.82487001  0.82487101  1
  Bi  Bi6  1  0.77683797  0.66666668  0.66666668  1
  Bi  Bi7  1  0.27683799  0.33333334  0.33333334  1
  O  O8  1  0.49686998  0.46160301  0.07679400  1
  O  O9  1  0.49686998  0.46160301  0.46160301  1
  O  O10  1  0.49686998  0.07679400  0.46160301  1
  O  O11  1  0.99686997  0.53839701  0.92320601  1
  O  O12  1  0.99686997  0.53839701  0.53839701  1
  O  O13  1  0.99686997  0.92320601  0.53839701  1
  O  O14  1  0.65998298  0.25710300  0.87144801  1
  O  O15  1  0.65998298  0.87144901  0.25710200  1
  O  O16  1  0.65998298  0.87144901  0.87144801  1
  O  O17  1  0.15998299  0.74289701  0.12855200  1
  O  O18  1  0.15998299  0.12855100  0.74289801  1
  O  O19  1  0.15998299  0.12855100  0.12855200  1
