# generated using pymatgen
data_Li4V2OF9
_symmetry_space_group_name_H-M   'P 1'
_cell_length_a   3.85794592
_cell_length_b   5.24986315
_cell_length_c   9.91043854
_cell_angle_alpha   89.51564026
_cell_angle_beta   90.00000000
_cell_angle_gamma   111.55738831
_symmetry_Int_Tables_number   1
_chemical_formula_structural   Li4V2OF9
_chemical_formula_sum   'Li4 V2 O1 F9'
_cell_volume   186.67465206
_cell_formula_units_Z   1
loop_
 _symmetry_equiv_pos_site_id
 _symmetry_equiv_pos_as_xyz
  1  'x, y, z'
loop_
 _atom_site_type_symbol
 _atom_site_label
 _atom_site_symmetry_multiplicity
 _atom_site_fract_x
 _atom_site_fract_y
 _atom_site_fract_z
 _atom_site_occupancy
  Li  Li0  1  0.85303396  0.70606796  0.56532000  1
  Li  Li1  1  0.85338596  0.70677196  0.94111100  1
  Li  Li2  1  0.79866497  0.59732997  0.24891901  1
  Li  Li3  1  0.20144097  0.40288198  0.75757600  1
  V  V4  1  0.14165098  0.28330198  0.05559900  1
  V  V5  1  0.13351598  0.26703199  0.44032700  1
  F  F6  1  0.69361698  0.38723398  0.42771600  1
  O  O7  1  0.69016398  0.38032798  0.07800501  1
  F  F8  1  0.76381997  0.52763997  0.74531300  1
  F  F9  1  0.30785395  0.61570797  0.92687500  1
  F  F10  1  0.95345894  0.90691795  0.11815201  1
  F  F11  1  0.95662494  0.91324995  0.37765001  1
  F  F12  1  0.04679299  0.09358599  0.61544699  1
  F  F13  1  0.04666499  0.09332999  0.88108499  1
  F  F14  1  0.31449195  0.62898397  0.57018100  1
  F  F15  1  0.24482596  0.48965197  0.25072500  1
