# generated using pymatgen
data_Na3LiTlIF12
_symmetry_space_group_name_H-M   'P 1'
_cell_length_a   4.97794724
_cell_length_b   4.97794724
_cell_length_c   10.05393791
_cell_angle_alpha   90.00000000
_cell_angle_beta   90.00000000
_cell_angle_gamma   90.00000000
_symmetry_Int_Tables_number   1
_chemical_formula_structural   Na3LiTlIF12
_chemical_formula_sum   'Na3 Li1 Tl1 I1 F12'
_cell_volume   249.13616599
_cell_formula_units_Z   1
loop_
 _symmetry_equiv_pos_site_id
 _symmetry_equiv_pos_as_xyz
  1  'x, y, z'
loop_
 _atom_site_type_symbol
 _atom_site_label
 _atom_site_symmetry_multiplicity
 _atom_site_fract_x
 _atom_site_fract_y
 _atom_site_fract_z
 _atom_site_occupancy
  Na  Na0  1  0.49999998  0.49999998  0.33451100  1
  Li  Li1  1  0.49999998  0.49999998  0.66548901  1
  Na  Na2  1  0.00000000  0.00000000  0.16548900  1
  Na  Na3  1  0.00000000  0.00000000  0.83451101  1
  I  I4  1  0.49999998  0.49999998  0.00000000  1
  Tl  Tl5  1  0.00000000  0.00000000  0.50000000  1
  F  F6  1  0.68351897  0.68351897  0.14651100  1
  F  F7  1  0.68351897  0.68351897  0.85348901  1
  F  F8  1  0.72130097  0.72130097  0.50000000  1
  F  F9  1  0.77869896  0.22130099  0.00000000  1
  F  F10  1  0.81648096  0.18351899  0.35348900  1
  F  F11  1  0.81648096  0.18351899  0.64651101  1
  F  F12  1  0.18351899  0.81648096  0.35348900  1
  F  F13  1  0.18351899  0.81648096  0.64651101  1
  F  F14  1  0.22130099  0.77869896  0.00000000  1
  F  F15  1  0.27869899  0.27869899  0.50000000  1
  F  F16  1  0.31648099  0.31648099  0.14651100  1
  F  F17  1  0.31648099  0.31648099  0.85348901  1
