# generated using pymatgen
data_RbAuCl3
_symmetry_space_group_name_H-M   'P 1'
_cell_length_a   7.23403454
_cell_length_b   7.23403454
_cell_length_c   7.23403454
_cell_angle_alpha   60.00000000
_cell_angle_beta   60.00000000
_cell_angle_gamma   60.00000000
_symmetry_Int_Tables_number   1
_chemical_formula_structural   RbAuCl3
_chemical_formula_sum   'Rb2 Au2 Cl6'
_cell_volume   267.68666434
_cell_formula_units_Z   2
loop_
 _symmetry_equiv_pos_site_id
 _symmetry_equiv_pos_as_xyz
  1  'x, y, z'
loop_
 _atom_site_type_symbol
 _atom_site_label
 _atom_site_symmetry_multiplicity
 _atom_site_fract_x
 _atom_site_fract_y
 _atom_site_fract_z
 _atom_site_occupancy
  Rb  Rb0  1  0.25000001  0.25000001  0.25000001  1
  Rb  Rb1  1  0.75000002  0.75000002  0.75000002  1
  Au  Au2  1  0.50000001  0.50000001  0.50000001  1
  Au  Au3  1  0.00000000  0.00000000  0.00000000  1
  Cl  Cl4  1  0.24820401  0.75179602  0.24820401  1
  Cl  Cl5  1  0.24820301  0.24820501  0.75179602  1
  Cl  Cl6  1  0.75179402  0.24820501  0.75179602  1
  Cl  Cl7  1  0.24820401  0.75179602  0.75179602  1
  Cl  Cl8  1  0.75179602  0.24820401  0.24820401  1
  Cl  Cl9  1  0.75179602  0.75179602  0.24820401  1
