# generated using pymatgen
data_TlSe3Br13
_symmetry_space_group_name_H-M   'P 1'
_cell_length_a   6.72294092
_cell_length_b   9.67953396
_cell_length_c   9.67953396
_cell_angle_alpha   99.97559357
_cell_angle_beta   108.53565979
_cell_angle_gamma   108.53565979
_symmetry_Int_Tables_number   1
_chemical_formula_structural   TlSe3Br13
_chemical_formula_sum   'Tl1 Se3 Br13'
_cell_volume   539.23784913
_cell_formula_units_Z   1
loop_
 _symmetry_equiv_pos_site_id
 _symmetry_equiv_pos_as_xyz
  1  'x, y, z'
loop_
 _atom_site_type_symbol
 _atom_site_label
 _atom_site_symmetry_multiplicity
 _atom_site_fract_x
 _atom_site_fract_y
 _atom_site_fract_z
 _atom_site_occupancy
  Tl  Tl0  1  0.00000000  0.00000000  0.00000000  1
  Se  Se1  1  0.68597302  0.01535600  0.35225005  1
  Se  Se2  1  0.31402719  0.98464409  0.64775012  1
  Se  Se3  1  0.31402713  0.64775006  0.98464411  1
  Br  Br4  1  0.68597308  0.35225003  0.01535606  1
  Br  Br5  1  1.00000012  0.50000005  0.50000011  1
  Br  Br6  1  0.38885313  0.64909406  0.64909410  1
  Br  Br7  1  0.61114708  0.35090603  0.35090607  1
  Br  Br8  1  0.69404004  0.13936801  0.70201707  1
  Br  Br9  1  0.30596017  0.86063208  0.29798310  1
  Br  Br10  1  0.30596006  0.29798303  0.86063207  1
  Br  Br11  1  0.69404015  0.70201706  0.13936810  1
  Br  Br12  1  0.50000001  0.00000000  0.00000002  1
  Br  Br13  1  0.92969818  0.83205808  0.58245514  1
  Br  Br14  1  0.07030203  0.16794202  0.41754503  1
  Br  Br15  1  0.07030208  0.41754504  0.16794205  1
  Br  Br16  1  0.92969813  0.58245505  0.83205813  1
