# generated using pymatgen
data_KPO
_symmetry_space_group_name_H-M   'P 1'
_cell_length_a   3.97196555
_cell_length_b   3.97196555
_cell_length_c   3.97196555
_cell_angle_alpha   68.89581299
_cell_angle_beta   68.89581299
_cell_angle_gamma   68.89581299
_symmetry_Int_Tables_number   1
_chemical_formula_structural   KPO
_chemical_formula_sum   'K1 P1 O1'
_cell_volume   52.59360315
_cell_formula_units_Z   1
loop_
 _symmetry_equiv_pos_site_id
 _symmetry_equiv_pos_as_xyz
  1  'x, y, z'
loop_
 _atom_site_type_symbol
 _atom_site_label
 _atom_site_symmetry_multiplicity
 _atom_site_fract_x
 _atom_site_fract_y
 _atom_site_fract_z
 _atom_site_occupancy
  K  K0  1  0.49885803  0.49885802  0.49885794  1
  P  P1  1  0.85752705  0.85752703  0.85752689  1
  O  O2  1  0.00761500  0.00761500  0.00761500  1
