# generated using pymatgen
data_KAgAuF
_symmetry_space_group_name_H-M   'P 1'
_cell_length_a   4.41294289
_cell_length_b   4.41294289
_cell_length_c   9.52703762
_cell_angle_alpha   90.00000000
_cell_angle_beta   90.00000000
_cell_angle_gamma   90.00000000
_symmetry_Int_Tables_number   1
_chemical_formula_structural   KAgAuF
_chemical_formula_sum   'K2 Ag2 Au2 F2'
_cell_volume   185.53014910
_cell_formula_units_Z   2
loop_
 _symmetry_equiv_pos_site_id
 _symmetry_equiv_pos_as_xyz
  1  'x, y, z'
loop_
 _atom_site_type_symbol
 _atom_site_label
 _atom_site_symmetry_multiplicity
 _atom_site_fract_x
 _atom_site_fract_y
 _atom_site_fract_z
 _atom_site_occupancy
  K  K0  1  -0.00000000  0.50000001  0.83959603  1
  K  K1  1  0.50000001  0.00000000  0.16040401  1
  Ag  Ag2  1  0.50000001  0.50000001  0.50000002  1
  Ag  Ag3  1  0.00000000  0.00000000  0.50000002  1
  Au  Au4  1  -0.00000000  0.50000001  0.31920601  1
  Au  Au5  1  0.50000001  0.00000000  0.68079403  1
  F  F6  1  0.50000001  0.50000001  0.00000000  1
  F  F7  1  0.00000000  0.00000000  0.00000000  1
