# generated using pymatgen
data_Sr2Li2ICl3F2
_symmetry_space_group_name_H-M   'P 1'
_cell_length_a   4.06504488
_cell_length_b   4.06504488
_cell_length_c   14.25333309
_cell_angle_alpha   90.00000000
_cell_angle_beta   90.00000000
_cell_angle_gamma   90.00000000
_symmetry_Int_Tables_number   1
_chemical_formula_structural   Sr2Li2ICl3F2
_chemical_formula_sum   'Sr2 Li2 I1 Cl3 F2'
_cell_volume   235.53048370
_cell_formula_units_Z   1
loop_
 _symmetry_equiv_pos_site_id
 _symmetry_equiv_pos_as_xyz
  1  'x, y, z'
loop_
 _atom_site_type_symbol
 _atom_site_label
 _atom_site_symmetry_multiplicity
 _atom_site_fract_x
 _atom_site_fract_y
 _atom_site_fract_z
 _atom_site_occupancy
  Sr  Sr0  1  -0.00000000  0.50000001  0.89714299  1
  Sr  Sr1  1  0.50000001  0.00000000  0.10285700  1
  Li  Li2  1  -0.00000000  0.50000001  0.36716300  1
  Li  Li3  1  0.50000001  0.00000000  0.63283700  1
  Cl  Cl4  1  -0.00000000  0.50000001  0.61097100  1
  I  I5  1  0.50000001  0.00000000  0.38902900  1
  Cl  Cl6  1  -0.00000000  0.50000001  0.19083100  1
  Cl  Cl7  1  0.50000001  0.00000000  0.80916899  1
  F  F8  1  0.00000000  0.00000000  0.00000000  1
  F  F9  1  0.50000001  0.50000001  0.00000000  1
