# generated using pymatgen
data_K4Y3BiO6
_symmetry_space_group_name_H-M   'P 1'
_cell_length_a   7.37352753
_cell_length_b   7.37352753
_cell_length_c   7.37352753
_cell_angle_alpha   109.47122192
_cell_angle_beta   109.47122192
_cell_angle_gamma   109.47122192
_symmetry_Int_Tables_number   1
_chemical_formula_structural   K4Y3BiO6
_chemical_formula_sum   'K4 Y3 Bi1 O6'
_cell_volume   308.60574470
_cell_formula_units_Z   1
loop_
 _symmetry_equiv_pos_site_id
 _symmetry_equiv_pos_as_xyz
  1  'x, y, z'
loop_
 _atom_site_type_symbol
 _atom_site_label
 _atom_site_symmetry_multiplicity
 _atom_site_fract_x
 _atom_site_fract_y
 _atom_site_fract_z
 _atom_site_occupancy
  K  K0  1  0.51810002  0.51810001  0.01810004  1
  K  K1  1  0.98189998  0.00000000  1.00000000  1
  K  K2  1  1.00000002  0.50000001  0.48190004  1
  K  K3  1  0.50000005  0.98190002  0.50000005  1
  Y  Y4  1  0.50000002  0.51162301  0.50000003  1
  Y  Y5  1  1.00000002  0.50000001  0.01162305  1
  Y  Y6  1  0.51162299  0.00000000  0.00000001  1
  Bi  Bi7  1  0.98837705  0.98837702  0.48837707  1
  O  O8  1  0.25000003  0.47927301  0.22927303  1
  O  O9  1  0.74999999  0.02072700  0.27072701  1
  O  O10  1  0.02072705  0.77072701  0.25000004  1
  O  O11  1  0.77072704  0.75000001  0.52072705  1
  O  O12  1  0.72927300  0.25000000  0.97927301  1
  O  O13  1  0.47927304  0.72927301  0.75000003  1
