# generated using pymatgen
data_Cr3Mo2AsSe6
_symmetry_space_group_name_H-M   'P 1'
_cell_length_a   6.06412697
_cell_length_b   6.06412697
_cell_length_c   6.06412697
_cell_angle_alpha   90.00000000
_cell_angle_beta   90.00000000
_cell_angle_gamma   90.00000000
_symmetry_Int_Tables_number   1
_chemical_formula_structural   Cr3Mo2AsSe6
_chemical_formula_sum   'Cr3 Mo2 As1 Se6'
_cell_volume   222.99999712
_cell_formula_units_Z   1
loop_
 _symmetry_equiv_pos_site_id
 _symmetry_equiv_pos_as_xyz
  1  'x, y, z'
loop_
 _atom_site_type_symbol
 _atom_site_label
 _atom_site_symmetry_multiplicity
 _atom_site_fract_x
 _atom_site_fract_y
 _atom_site_fract_z
 _atom_site_occupancy
  Cr  Cr0  1  0.38332300  0.38332300  0.38332300  1
  Cr  Cr1  1  0.11667700  0.61667700  0.88332300  1
  Cr  Cr2  1  0.88332300  0.11667700  0.61667700  1
  Mo  Mo3  1  0.61667700  0.88332300  0.11667700  1
  As  As4  1  0.61667700  0.61667700  0.61667700  1
  Mo  Mo5  1  0.88332300  0.38332300  0.11667700  1
  Se  Se6  1  0.11667700  0.88332300  0.38332300  1
  Se  Se7  1  0.38332300  0.11667700  0.88332300  1
  Se  Se8  1  0.00000000  0.00000000  0.00000000  1
  Se  Se9  1  0.50000000  0.00000000  0.50000000  1
  Se  Se10  1  0.50000000  0.50000000  0.00000000  1
  Se  Se11  1  -0.00000000  0.50000000  0.50000000  1
