# generated using pymatgen
data_KRbNaAl3PO7
_symmetry_space_group_name_H-M   'P 1'
_cell_length_a   6.19075584
_cell_length_b   6.19075537
_cell_length_c   7.97053289
_cell_angle_alpha   90.00000000
_cell_angle_beta   90.00000000
_cell_angle_gamma   120.00000763
_symmetry_Int_Tables_number   1
_chemical_formula_structural   KRbNaAl3PO7
_chemical_formula_sum   'K1 Rb1 Na1 Al3 P1 O7'
_cell_volume   264.54848325
_cell_formula_units_Z   1
loop_
 _symmetry_equiv_pos_site_id
 _symmetry_equiv_pos_as_xyz
  1  'x, y, z'
loop_
 _atom_site_type_symbol
 _atom_site_label
 _atom_site_symmetry_multiplicity
 _atom_site_fract_x
 _atom_site_fract_y
 _atom_site_fract_z
 _atom_site_occupancy
  K  K0  1  0.66666670  0.33333333  0.29221100  1
  P  P1  1  0.33333338  0.66666667  0.70778901  1
  Rb  Rb2  1  0.00000000  0.00000000  0.00000000  1
  Na  Na3  1  0.00000000  0.00000000  0.50000001  1
  Al  Al4  1  0.66666670  0.33333333  0.75628101  1
  Al  Al5  1  0.33333338  0.66666667  0.24371900  1
  O  O6  1  0.66666670  0.33333333  0.96845901  1
  Al  Al7  1  0.33333338  0.66666667  0.03154100  1
  O  O8  1  0.82118206  0.64236400  0.67933901  1
  O  O9  1  0.17881803  0.35763600  0.32066100  1
  O  O10  1  0.82118203  0.17881800  0.67933901  1
  O  O11  1  0.17881806  0.82118200  0.32066100  1
  O  O12  1  0.35763602  0.17881800  0.67933901  1
  O  O13  1  0.64236407  0.82118200  0.32066100  1
