# generated using pymatgen
data_Li2CoO3
_symmetry_space_group_name_H-M   'P 1'
_cell_length_a   5.35434294
_cell_length_b   5.38557005
_cell_length_c   5.38562584
_cell_angle_alpha   65.69579315
_cell_angle_beta   66.85251617
_cell_angle_gamma   66.85134125
_symmetry_Int_Tables_number   1
_chemical_formula_structural   Li2CoO3
_chemical_formula_sum   'Li4 Co2 O6'
_cell_volume   125.08608957
_cell_formula_units_Z   2
loop_
 _symmetry_equiv_pos_site_id
 _symmetry_equiv_pos_as_xyz
  1  'x, y, z'
loop_
 _atom_site_type_symbol
 _atom_site_label
 _atom_site_symmetry_multiplicity
 _atom_site_fract_x
 _atom_site_fract_y
 _atom_site_fract_z
 _atom_site_occupancy
  Li  Li0  1  0.07613801  0.41621500  0.26096698  1
  Li  Li1  1  0.57613601  0.26095600  0.41622397  1
  Li  Li2  1  0.42385902  0.73903100  0.58378196  1
  Li  Li3  1  0.92387002  0.58377600  0.73904694  1
  Co  Co4  1  0.74999900  0.08589300  0.91410597  1
  Co  Co5  1  0.25000403  0.91411500  0.08589295  1
  O  O6  1  0.43374200  0.08211900  0.21696598  1
  O  O7  1  0.93374101  0.21698000  0.08212095  1
  O  O8  1  0.74999401  0.38875900  0.61124096  1
  O  O9  1  0.25000902  0.61125100  0.38874597  1
  O  O10  1  0.06625002  0.78302600  0.91788298  1
  O  O11  1  0.56625703  0.91788000  0.78302395  1
