# generated using pymatgen
data_KTl(InTe2)2
_symmetry_space_group_name_H-M   'P 1'
_cell_length_a   7.09032249
_cell_length_b   7.09032249
_cell_length_c   7.09032249
_cell_angle_alpha   105.05290985
_cell_angle_beta   105.05290985
_cell_angle_gamma   118.72316742
_symmetry_Int_Tables_number   1
_chemical_formula_structural   KTl(InTe2)2
_chemical_formula_sum   'K1 Tl1 In2 Te4'
_cell_volume   268.95178042
_cell_formula_units_Z   1
loop_
 _symmetry_equiv_pos_site_id
 _symmetry_equiv_pos_as_xyz
  1  'x, y, z'
loop_
 _atom_site_type_symbol
 _atom_site_label
 _atom_site_symmetry_multiplicity
 _atom_site_fract_x
 _atom_site_fract_y
 _atom_site_fract_z
 _atom_site_occupancy
  Tl  Tl0  1  0.25000000  0.25000000  -0.00000001  1
  K  K1  1  0.74999999  0.74999999  -0.00000004  1
  In  In2  1  0.74999999  0.25000000  0.49999997  1
  In  In3  1  0.25000000  0.74999999  0.49999997  1
  Te  Te4  1  0.31795799  0.18204200  0.49999998  1
  Te  Te5  1  0.81795799  0.31795799  0.13591597  1
  Te  Te6  1  0.18204200  0.68204199  0.86408397  1
  Te  Te7  1  0.68204199  0.81795799  0.49999995  1
