# generated using pymatgen
data_Ce3BiO8
_symmetry_space_group_name_H-M   'P 1'
_cell_length_a   5.40348387
_cell_length_b   5.40348387
_cell_length_c   6.60920143
_cell_angle_alpha   114.12853241
_cell_angle_beta   114.12853241
_cell_angle_gamma   90.00000000
_symmetry_Int_Tables_number   1
_chemical_formula_structural   Ce3BiO8
_chemical_formula_sum   'Ce3 Bi1 O8'
_cell_volume   157.45818191
_cell_formula_units_Z   1
loop_
 _symmetry_equiv_pos_site_id
 _symmetry_equiv_pos_as_xyz
  1  'x, y, z'
loop_
 _atom_site_type_symbol
 _atom_site_label
 _atom_site_symmetry_multiplicity
 _atom_site_fract_x
 _atom_site_fract_y
 _atom_site_fract_z
 _atom_site_occupancy
  Ce  Ce0  1  0.00000000  0.00000000  0.00000000  1
  Ce  Ce1  1  0.75000005  0.25000001  0.50000005  1
  Ce  Ce2  1  0.50000005  0.50000003  0.00000006  1
  Bi  Bi3  1  0.25000005  0.75000004  0.50000006  1
  O  O4  1  0.37500007  0.86378805  0.25000007  1
  O  O5  1  0.87500006  0.38621202  0.25000006  1
  O  O6  1  0.13621204  0.62500004  0.75000004  1
  O  O7  1  0.61378806  0.62500004  0.75000006  1
  O  O8  1  0.87500009  0.86378805  0.25000010  1
  O  O9  1  0.61378804  0.12500001  0.75000003  1
  O  O10  1  0.13621201  0.12500001  0.75000001  1
  O  O11  1  0.37500004  0.38621202  0.25000004  1
