# generated using pymatgen
data_K2BH4F7
_symmetry_space_group_name_H-M   'P 1'
_cell_length_a   5.64413786
_cell_length_b   5.65161419
_cell_length_c   6.10632801
_cell_angle_alpha   90.00000000
_cell_angle_beta   90.00000000
_cell_angle_gamma   90.00000000
_symmetry_Int_Tables_number   1
_chemical_formula_structural   K2BH4F7
_chemical_formula_sum   'K2 B1 H4 F7'
_cell_volume   194.78264061
_cell_formula_units_Z   1
loop_
 _symmetry_equiv_pos_site_id
 _symmetry_equiv_pos_as_xyz
  1  'x, y, z'
loop_
 _atom_site_type_symbol
 _atom_site_label
 _atom_site_symmetry_multiplicity
 _atom_site_fract_x
 _atom_site_fract_y
 _atom_site_fract_z
 _atom_site_occupancy
  K  K0  1  0.92403402  0.49999998  0.50000000  1
  K  K1  1  0.07596600  0.00000000  0.00000000  1
  H  H2  1  0.37329801  0.49999998  0.77064800  1
  B  B3  1  0.37329801  0.49999998  0.22935200  1
  H  H4  1  0.62670202  0.00000000  0.72935200  1
  H  H5  1  0.62670202  0.00000000  0.27064800  1
  F  F6  1  0.79594202  0.49999998  0.00000000  1
  H  H7  1  0.20405801  0.00000000  0.50000000  1
  F  F8  1  0.66578102  0.28785599  -0.00000000  1
  F  F9  1  0.33421901  0.21214399  0.50000000  1
  F  F10  1  0.04238600  0.49999998  0.00000000  1
  F  F11  1  0.95761402  0.00000000  0.50000000  1
  F  F12  1  0.33421901  0.78785597  0.50000000  1
  F  F13  1  0.66578102  0.71214398  -0.00000000  1
