# generated using pymatgen
data_KTl(AgS2)2
_symmetry_space_group_name_H-M   'P 1'
_cell_length_a   4.47663021
_cell_length_b   6.35477018
_cell_length_c   6.71276188
_cell_angle_alpha   90.00000000
_cell_angle_beta   90.00000000
_cell_angle_gamma   90.00000000
_symmetry_Int_Tables_number   1
_chemical_formula_structural   KTl(AgS2)2
_chemical_formula_sum   'K1 Tl1 Ag2 S4'
_cell_volume   190.96435583
_cell_formula_units_Z   1
loop_
 _symmetry_equiv_pos_site_id
 _symmetry_equiv_pos_as_xyz
  1  'x, y, z'
loop_
 _atom_site_type_symbol
 _atom_site_label
 _atom_site_symmetry_multiplicity
 _atom_site_fract_x
 _atom_site_fract_y
 _atom_site_fract_z
 _atom_site_occupancy
  K  K0  1  0.49999998  0.09876100  0.50000001  1
  Tl  Tl1  1  -0.00000000  0.90123897  0.00000000  1
  Ag  Ag2  1  -0.00000000  0.40439999  0.19560000  1
  Ag  Ag3  1  0.49999998  0.59559998  0.30440001  1
  S  S4  1  0.49999998  0.59559998  0.69560001  1
  S  S5  1  -0.00000000  0.40439999  0.80440001  1
  S  S6  1  -0.00000000  0.66183498  0.50000001  1
  S  S7  1  0.49999998  0.33816499  0.00000000  1
