# generated using pymatgen
data_TmSc3CdInS8
_symmetry_space_group_name_H-M   'P 1'
_cell_length_a   7.81800175
_cell_length_b   7.81800175
_cell_length_c   7.81800175
_cell_angle_alpha   60.00000000
_cell_angle_beta   60.00000000
_cell_angle_gamma   60.00000000
_symmetry_Int_Tables_number   1
_chemical_formula_structural   TmSc3CdInS8
_chemical_formula_sum   'Tm1 Sc3 Cd1 In1 S8'
_cell_volume   337.88762921
_cell_formula_units_Z   1
loop_
 _symmetry_equiv_pos_site_id
 _symmetry_equiv_pos_as_xyz
  1  'x, y, z'
loop_
 _atom_site_type_symbol
 _atom_site_label
 _atom_site_symmetry_multiplicity
 _atom_site_fract_x
 _atom_site_fract_y
 _atom_site_fract_z
 _atom_site_occupancy
  Tm  Tm0  1  0.87499999  0.37500000  0.37500000  1
  Sc  Sc1  1  0.37500000  0.37500000  0.87499999  1
  Sc  Sc2  1  0.37500000  0.87499999  0.37500000  1
  Sc  Sc3  1  0.37500000  0.37500000  0.37500000  1
  Cd  Cd4  1  0.00000000  0.00000000  0.00000000  1
  In  In5  1  0.74999999  0.74999999  0.74999999  1
  S  S6  1  0.61446799  0.61446699  0.61446699  1
  S  S7  1  0.13553200  0.59340199  0.13553300  1
  S  S8  1  0.59340099  0.13553300  0.13553300  1
  S  S9  1  0.13553200  0.13553300  0.59340199  1
  S  S10  1  0.15659900  0.61446699  0.61446699  1
  S  S11  1  0.61446799  0.61446699  0.15659800  1
  S  S12  1  0.13553200  0.13553300  0.13553300  1
  S  S13  1  0.61446799  0.15659800  0.61446699  1
