# generated using pymatgen
data_K4Mg(BO2)3
_symmetry_space_group_name_H-M   'P 1'
_cell_length_a   5.39578247
_cell_length_b   5.39578247
_cell_length_c   7.43993664
_cell_angle_alpha   79.78317261
_cell_angle_beta   79.78317261
_cell_angle_gamma   69.68549347
_symmetry_Int_Tables_number   1
_chemical_formula_structural   K4Mg(BO2)3
_chemical_formula_sum   'K4 Mg1 B3 O6'
_cell_volume   198.33617846
_cell_formula_units_Z   1
loop_
 _symmetry_equiv_pos_site_id
 _symmetry_equiv_pos_as_xyz
  1  'x, y, z'
loop_
 _atom_site_type_symbol
 _atom_site_label
 _atom_site_symmetry_multiplicity
 _atom_site_fract_x
 _atom_site_fract_y
 _atom_site_fract_z
 _atom_site_occupancy
  K  K0  1  0.50647606  0.84056600  0.32494002  1
  K  K1  1  0.83536903  0.16463100  0.50000002  1
  K  K2  1  0.00234706  0.99765300  0.00000001  1
  K  K3  1  0.15943403  0.49352400  0.67506001  1
  Mg  Mg4  1  0.45890403  0.26921100  0.96829501  1
  B  B5  1  0.73078905  0.54109600  0.03170502  1
  B  B6  1  0.21378403  0.49040000  0.21655001  1
  B  B7  1  0.50960006  0.78621600  0.78345002  1
  O  O8  1  0.49324803  0.37157400  0.21280301  1
  O  O9  1  0.62842605  0.50675200  0.78719702  1
  O  O10  1  0.06300304  0.67556700  0.33380801  1
  O  O11  1  0.57785807  0.90487300  0.91347002  1
  O  O12  1  0.09512703  0.42214200  0.08653001  1
  O  O13  1  0.32443306  0.93699700  0.66619202  1
