# generated using pymatgen
data_Cs3TlF4
_symmetry_space_group_name_H-M   'P 1'
_cell_length_a   6.87989140
_cell_length_b   6.87989140
_cell_length_c   6.92310667
_cell_angle_alpha   109.47184753
_cell_angle_beta   109.47184753
_cell_angle_gamma   109.21568298
_symmetry_Int_Tables_number   1
_chemical_formula_structural   Cs3TlF4
_chemical_formula_sum   'Cs3 Tl1 F4'
_cell_volume   253.04373183
_cell_formula_units_Z   1
loop_
 _symmetry_equiv_pos_site_id
 _symmetry_equiv_pos_as_xyz
  1  'x, y, z'
loop_
 _atom_site_type_symbol
 _atom_site_label
 _atom_site_symmetry_multiplicity
 _atom_site_fract_x
 _atom_site_fract_y
 _atom_site_fract_z
 _atom_site_occupancy
  Tl  Tl0  1  0.99610112  0.99610107  0.00000019  1
  Cs  Cs1  1  0.49438512  0.99438507  0.50000014  1
  Cs  Cs2  1  0.99438507  0.49438503  0.50000011  1
  Cs  Cs3  1  0.50191706  0.50191703  1.00000007  1
  F  F4  1  0.99947412  0.99947407  0.64951317  1
  F  F5  1  0.34996104  0.34996102  0.35048706  1
  F  F6  1  0.99852309  0.66525304  0.00000015  1
  F  F7  1  0.66525312  0.99852307  1.00000014  1
