# generated using pymatgen
data_TaBeCl6
_symmetry_space_group_name_H-M   'P 1'
_cell_length_a   5.52215290
_cell_length_b   5.52215290
_cell_length_c   5.90733147
_cell_angle_alpha   62.13445663
_cell_angle_beta   62.13445663
_cell_angle_gamma   59.99998856
_symmetry_Int_Tables_number   1
_chemical_formula_structural   TaBeCl6
_chemical_formula_sum   'Ta1 Be1 Cl6'
_cell_volume   131.33354667
_cell_formula_units_Z   1
loop_
 _symmetry_equiv_pos_site_id
 _symmetry_equiv_pos_as_xyz
  1  'x, y, z'
loop_
 _atom_site_type_symbol
 _atom_site_label
 _atom_site_symmetry_multiplicity
 _atom_site_fract_x
 _atom_site_fract_y
 _atom_site_fract_z
 _atom_site_occupancy
  Ta  Ta0  1  0.49999998  0.50000000  0.49999999  1
  Be  Be1  1  0.00000000  0.00000000  0.00000000  1
  Cl  Cl2  1  0.35664099  0.10967900  0.76632398  1
  Cl  Cl3  1  0.76735598  0.35664100  0.76632398  1
  Cl  Cl4  1  0.89032098  0.23264400  0.23367600  1
  Cl  Cl5  1  0.23264398  0.64335900  0.23367600  1
  Cl  Cl6  1  0.64335896  0.89032100  0.23367601  1
  Cl  Cl7  1  0.10967897  0.76735600  0.76632399  1
