# generated using pymatgen
data_Pr3InO8
_symmetry_space_group_name_H-M   'P 1'
_cell_length_a   6.13132811
_cell_length_b   6.25417519
_cell_length_c   6.26121235
_cell_angle_alpha   113.71511841
_cell_angle_beta   90.00000000
_cell_angle_gamma   90.00000000
_symmetry_Int_Tables_number   1
_chemical_formula_structural   Pr3InO8
_chemical_formula_sum   'Pr3 In1 O8'
_cell_volume   219.82049587
_cell_formula_units_Z   1
loop_
 _symmetry_equiv_pos_site_id
 _symmetry_equiv_pos_as_xyz
  1  'x, y, z'
loop_
 _atom_site_type_symbol
 _atom_site_label
 _atom_site_symmetry_multiplicity
 _atom_site_fract_x
 _atom_site_fract_y
 _atom_site_fract_z
 _atom_site_occupancy
  In  In0  1  0.50849099  0.70839704  0.20156905  1
  Pr  Pr1  1  0.00849100  0.29160302  0.29843102  1
  Pr  Pr2  1  0.49150899  0.29160302  0.79843101  1
  Pr  Pr3  1  0.99150898  0.70839704  0.70156904  1
  O  O4  1  0.13831800  0.85721505  0.12548606  1
  O  O5  1  0.63831799  0.14278501  0.37451400  1
  O  O6  1  0.86168199  0.14278501  0.87451400  1
  O  O7  1  0.36168199  0.85721505  0.62548605  1
  O  O8  1  0.85928499  0.64644004  0.32891004  1
  O  O9  1  0.35928499  0.35356002  0.17109002  1
  O  O10  1  0.14071500  0.35356002  0.67109001  1
  O  O11  1  0.64071499  0.64644004  0.82891003  1
