# generated using pymatgen
data_LiPN2
_symmetry_space_group_name_H-M   'P 1'
_cell_length_a   5.24022436
_cell_length_b   5.24022436
_cell_length_c   5.24022341
_cell_angle_alpha   75.21693420
_cell_angle_beta   75.21693420
_cell_angle_gamma   75.21693420
_symmetry_Int_Tables_number   1
_chemical_formula_structural   LiPN2
_chemical_formula_sum   'Li3 P3 N6'
_cell_volume   131.71858180
_cell_formula_units_Z   3
loop_
 _symmetry_equiv_pos_site_id
 _symmetry_equiv_pos_as_xyz
  1  'x, y, z'
loop_
 _atom_site_type_symbol
 _atom_site_label
 _atom_site_symmetry_multiplicity
 _atom_site_fract_x
 _atom_site_fract_y
 _atom_site_fract_z
 _atom_site_occupancy
  Li  Li0  1  0.16613400  0.49999999  0.83386606  1
  Li  Li1  1  0.50000000  0.83386599  0.16613407  1
  Li  Li2  1  0.83386599  0.16613400  0.50000007  1
  N  N3  1  0.83386600  0.49999999  0.16613407  1
  N  N4  1  0.16613401  0.83386599  0.50000007  1
  N  N5  1  0.50000000  0.16613400  0.83386607  1
  P  P6  1  0.00000000  0.00000000  0.00000000  1
  P  P7  1  0.33407700  0.33407700  0.33407704  1
  P  P8  1  0.66592300  0.66592299  0.66592309  1
  N  N9  1  0.83203300  0.83203299  0.83203311  1
  N  N10  1  0.16796700  0.16796700  0.16796702  1
  N  N11  1  0.50000000  0.49999999  0.50000007  1
