# generated using pymatgen
data_Ba3SnPd2O9
_symmetry_space_group_name_H-M   'P 1'
_cell_length_a   4.09803581
_cell_length_b   5.64441395
_cell_length_c   8.91335392
_cell_angle_alpha   108.45905304
_cell_angle_beta   90.00000000
_cell_angle_gamma   90.00000000
_symmetry_Int_Tables_number   1
_chemical_formula_structural   Ba3SnPd2O9
_chemical_formula_sum   'Ba3 Sn1 Pd2 O9'
_cell_volume   195.56722201
_cell_formula_units_Z   1
loop_
 _symmetry_equiv_pos_site_id
 _symmetry_equiv_pos_as_xyz
  1  'x, y, z'
loop_
 _atom_site_type_symbol
 _atom_site_label
 _atom_site_symmetry_multiplicity
 _atom_site_fract_x
 _atom_site_fract_y
 _atom_site_fract_z
 _atom_site_occupancy
  Ba  Ba0  1  0.99498205  0.33301300  0.66602596  1
  Ba  Ba1  1  0.99498205  0.66698701  0.33397398  1
  Ba  Ba2  1  0.00482500  0.00000000  0.00000000  1
  Sn  Sn3  1  0.51374102  0.83533101  0.67066196  1
  Pd  Pd4  1  0.51374102  0.16466900  0.32933798  1
  Pd  Pd5  1  0.51426002  0.50000000  0.99999995  1
  O  O6  1  0.96447704  0.83740001  0.67479996  1
  O  O7  1  0.96447704  0.16260000  0.32519998  1
  O  O8  1  0.96439504  0.50000000  0.99999995  1
  O  O9  1  0.47296102  0.16528700  0.83651696  1
  O  O10  1  0.47813702  0.50000000  0.49999997  1
  O  O11  1  0.47296102  0.83471301  0.16348299  1
  O  O12  1  0.47296102  0.67123001  0.83651696  1
  O  O13  1  0.47813702  0.00000000  0.49999997  1
  O  O14  1  0.47296102  0.32877000  0.16348299  1
