# generated using pymatgen
data_NaLiF2
_symmetry_space_group_name_H-M   'P 1'
_cell_length_a   3.84827805
_cell_length_b   3.84827757
_cell_length_c   6.31745195
_cell_angle_alpha   90.00000000
_cell_angle_beta   90.00000000
_cell_angle_gamma   120.00000000
_symmetry_Int_Tables_number   1
_chemical_formula_structural   NaLiF2
_chemical_formula_sum   'Na1 Li1 F2'
_cell_volume   81.02245752
_cell_formula_units_Z   1
loop_
 _symmetry_equiv_pos_site_id
 _symmetry_equiv_pos_as_xyz
  1  'x, y, z'
loop_
 _atom_site_type_symbol
 _atom_site_label
 _atom_site_symmetry_multiplicity
 _atom_site_fract_x
 _atom_site_fract_y
 _atom_site_fract_z
 _atom_site_occupancy
  Li  Li0  1  0.66666663  0.33333332  0.49994900  1
  Na  Na1  1  0.33333328  0.66666664  0.99994901  1
  F  F2  1  0.66666663  0.33333332  0.87405101  1
  F  F3  1  0.33333328  0.66666664  0.37405100  1
