# generated using pymatgen
data_Cu(AgBi)2
_symmetry_space_group_name_H-M   'P 1'
_cell_length_a   5.69859171
_cell_length_b   5.70254755
_cell_length_c   5.70254755
_cell_angle_alpha   89.93482208
_cell_angle_beta   90.07511902
_cell_angle_gamma   89.92488098
_symmetry_Int_Tables_number   1
_chemical_formula_structural   Cu(AgBi)2
_chemical_formula_sum   'Cu1 Ag2 Bi2'
_cell_volume   185.31234172
_cell_formula_units_Z   1
loop_
 _symmetry_equiv_pos_site_id
 _symmetry_equiv_pos_as_xyz
  1  'x, y, z'
loop_
 _atom_site_type_symbol
 _atom_site_label
 _atom_site_symmetry_multiplicity
 _atom_site_fract_x
 _atom_site_fract_y
 _atom_site_fract_z
 _atom_site_occupancy
  Ag  Ag0  1  0.99876702  0.00261600  0.99738403  1
  Cu  Cu1  1  0.48477101  0.50217801  0.49782201  1
  Ag  Ag2  1  0.48361501  0.00108900  0.49798001  1
  Bi  Bi3  1  0.98473902  0.48892901  0.51107101  1
  Bi  Bi4  1  0.48361501  0.50202001  0.99891102  1
