# generated using pymatgen
data_In2Cu3AsSe2
_symmetry_space_group_name_H-M   'P 1'
_cell_length_a   3.52963209
_cell_length_b   3.52963114
_cell_length_c   13.69012260
_cell_angle_alpha   90.00000000
_cell_angle_beta   90.00000000
_cell_angle_gamma   120.00000763
_symmetry_Int_Tables_number   1
_chemical_formula_structural   In2Cu3AsSe2
_chemical_formula_sum   'In2 Cu3 As1 Se2'
_cell_volume   147.70551027
_cell_formula_units_Z   1
loop_
 _symmetry_equiv_pos_site_id
 _symmetry_equiv_pos_as_xyz
  1  'x, y, z'
loop_
 _atom_site_type_symbol
 _atom_site_label
 _atom_site_symmetry_multiplicity
 _atom_site_fract_x
 _atom_site_fract_y
 _atom_site_fract_z
 _atom_site_occupancy
  In  In0  1  0.00000000  0.00000000  0.00000000  1
  In  In1  1  0.00000000  0.00000000  0.50000001  1
  Cu  Cu2  1  0.00000000  0.00000000  0.75000002  1
  Cu  Cu3  1  0.00000000  0.00000000  0.25000001  1
  Cu  Cu4  1  0.66666665  0.33333333  0.87248903  1
  As  As5  1  0.33333332  0.66666667  0.12751100  1
  Se  Se6  1  0.33333332  0.66666667  0.37248901  1
  Se  Se7  1  0.66666665  0.33333333  0.62751102  1
