# generated using pymatgen
data_CsTa(TiN3)4
_symmetry_space_group_name_H-M   'P 1'
_cell_length_a   7.95327282
_cell_length_b   7.95327282
_cell_length_c   7.95327282
_cell_angle_alpha   60.00000000
_cell_angle_beta   60.00000000
_cell_angle_gamma   60.00000000
_symmetry_Int_Tables_number   1
_chemical_formula_structural   CsTa(TiN3)4
_chemical_formula_sum   'Cs1 Ta1 Ti4 N12'
_cell_volume   355.73176146
_cell_formula_units_Z   1
loop_
 _symmetry_equiv_pos_site_id
 _symmetry_equiv_pos_as_xyz
  1  'x, y, z'
loop_
 _atom_site_type_symbol
 _atom_site_label
 _atom_site_symmetry_multiplicity
 _atom_site_fract_x
 _atom_site_fract_y
 _atom_site_fract_z
 _atom_site_occupancy
  Ta  Ta0  1  0.74999998  0.74999998  0.74999998  1
  Cs  Cs1  1  0.00000000  0.00000000  0.00000000  1
  Ti  Ti2  1  0.37499999  0.87499998  0.37499999  1
  Ti  Ti3  1  0.37499999  0.37499999  0.37499999  1
  Ti  Ti4  1  0.37499999  0.37499999  0.87499998  1
  Ti  Ti5  1  0.87499998  0.37499999  0.37499999  1
  N  N6  1  0.44038699  0.05961300  0.44038699  1
  N  N7  1  0.69038698  0.30961299  0.69038698  1
  N  N8  1  0.44038699  0.05961300  0.05961300  1
  N  N9  1  0.44038699  0.44038699  0.05961300  1
  N  N10  1  0.05961300  0.05961300  0.44038699  1
  N  N11  1  0.05961300  0.44038699  0.44038699  1
  N  N12  1  0.05961300  0.44038699  0.05961300  1
  N  N13  1  0.30961299  0.69038698  0.69038698  1
  N  N14  1  0.69038698  0.30961299  0.30961299  1
  N  N15  1  0.69038698  0.69038698  0.30961299  1
  N  N16  1  0.30961299  0.30961299  0.69038698  1
  N  N17  1  0.30961299  0.69038698  0.30961299  1
