# generated using pymatgen
data_Cs5TlF6
_symmetry_space_group_name_H-M   'P 1'
_cell_length_a   3.83138394
_cell_length_b   7.99128485
_cell_length_c   10.46438408
_cell_angle_alpha   97.08771515
_cell_angle_beta   90.00000000
_cell_angle_gamma   90.00000000
_symmetry_Int_Tables_number   1
_chemical_formula_structural   Cs5TlF6
_chemical_formula_sum   'Cs5 Tl1 F6'
_cell_volume   317.94684146
_cell_formula_units_Z   1
loop_
 _symmetry_equiv_pos_site_id
 _symmetry_equiv_pos_as_xyz
  1  'x, y, z'
loop_
 _atom_site_type_symbol
 _atom_site_label
 _atom_site_symmetry_multiplicity
 _atom_site_fract_x
 _atom_site_fract_y
 _atom_site_fract_z
 _atom_site_occupancy
  Tl  Tl0  1  0.75000001  0.41062101  0.33585601  1
  Cs  Cs1  1  0.25000000  0.58937901  0.66414402  1
  Cs  Cs2  1  0.75000001  0.06291700  0.66049102  1
  Cs  Cs3  1  0.25000000  0.93708302  0.33950900  1
  Cs  Cs4  1  0.75000001  0.74895201  0.99985103  1
  Cs  Cs5  1  0.25000000  0.25104800  0.00014900  1
  F  F6  1  0.75000001  0.13749400  0.19372401  1
  F  F7  1  0.25000000  0.86250602  0.80627602  1
  F  F8  1  0.75000001  0.45702701  0.78501603  1
  F  F9  1  0.25000000  0.54297301  0.21498400  1
  F  F10  1  0.75000001  0.68738901  0.51620101  1
  F  F11  1  0.25000000  0.31261101  0.48379902  1
