# generated using pymatgen
data_TlP2NClO
_symmetry_space_group_name_H-M   'P 1'
_cell_length_a   5.49911833
_cell_length_b   5.49911833
_cell_length_c   5.49911833
_cell_angle_alpha   60.00000000
_cell_angle_beta   60.00000000
_cell_angle_gamma   60.00000000
_symmetry_Int_Tables_number   1
_chemical_formula_structural   TlP2NClO
_chemical_formula_sum   'Tl1 P2 N1 Cl1 O1'
_cell_volume   117.58832296
_cell_formula_units_Z   1
loop_
 _symmetry_equiv_pos_site_id
 _symmetry_equiv_pos_as_xyz
  1  'x, y, z'
loop_
 _atom_site_type_symbol
 _atom_site_label
 _atom_site_symmetry_multiplicity
 _atom_site_fract_x
 _atom_site_fract_y
 _atom_site_fract_z
 _atom_site_occupancy
  Tl  Tl0  1  0.00000000  0.00000000  0.00000000  1
  P  P1  1  0.50000002  0.50000002  0.50000002  1
  Cl  Cl2  1  0.39122001  0.39121901  0.39121901  1
  P  P3  1  0.39122001  0.39121901  0.82634203  1
  O  O4  1  0.82634303  0.39121901  0.39121901  1
  N  N5  1  0.39122001  0.82634203  0.39121901  1
