# generated using pymatgen
data_NiH3
_symmetry_space_group_name_H-M   'P 1'
_cell_length_a   3.10650992
_cell_length_b   4.22068071
_cell_length_c   4.53209543
_cell_angle_alpha   97.06430817
_cell_angle_beta   90.00000000
_cell_angle_gamma   111.59297180
_symmetry_Int_Tables_number   1
_chemical_formula_structural   NiH3
_chemical_formula_sum   'Ni1 H3'
_cell_volume   54.76732262
_cell_formula_units_Z   1
loop_
 _symmetry_equiv_pos_site_id
 _symmetry_equiv_pos_as_xyz
  1  'x, y, z'
loop_
 _atom_site_type_symbol
 _atom_site_label
 _atom_site_symmetry_multiplicity
 _atom_site_fract_x
 _atom_site_fract_y
 _atom_site_fract_z
 _atom_site_occupancy
  Ni  Ni0  1  0.00000000  0.00000000  0.50000001  1
  H  H1  1  0.50000001  0.00000000  1.00000002  1
  H  H2  1  0.07224999  0.14449999  0.75350001  1
  H  H3  1  0.92774994  0.85549994  0.24649996  1
