# generated using pymatgen
data_Y(BiO2)2
_symmetry_space_group_name_H-M   'P 1'
_cell_length_a   6.56267452
_cell_length_b   6.56267452
_cell_length_c   6.56267452
_cell_angle_alpha   89.69386292
_cell_angle_beta   60.00620270
_cell_angle_gamma   119.65331268
_symmetry_Int_Tables_number   1
_chemical_formula_structural   Y(BiO2)2
_chemical_formula_sum   'Y2 Bi4 O8'
_cell_volume   200.38851483
_cell_formula_units_Z   2
loop_
 _symmetry_equiv_pos_site_id
 _symmetry_equiv_pos_as_xyz
  1  'x, y, z'
loop_
 _atom_site_type_symbol
 _atom_site_label
 _atom_site_symmetry_multiplicity
 _atom_site_fract_x
 _atom_site_fract_y
 _atom_site_fract_z
 _atom_site_occupancy
  Bi  Bi0  1  0.99130602  0.99130602  -0.00000005  1
  Y  Y1  1  0.26204200  0.62808801  0.13395498  1
  Y  Y2  1  0.49130600  0.99130602  0.49999997  1
  Bi  Bi3  1  0.76204202  0.39599601  0.86604601  1
  Bi  Bi4  1  0.99886002  0.99598602  0.50287397  1
  Bi  Bi5  1  0.49886001  0.50173401  0.49712599  1
  O  O6  1  0.52364801  0.75971502  0.26393297  1
  O  O7  1  0.02364799  0.78758102  0.73606599  1
  O  O8  1  0.98404803  0.22232101  0.26172699  1
  O  O9  1  0.51305901  0.75523902  0.73348499  1
  O  O10  1  0.01305900  0.24654501  0.74218001  1
  O  O11  1  0.48872501  0.24654501  0.26651400  1
  O  O12  1  0.48404801  0.24577501  0.73827301  1
  O  O13  1  0.98872502  0.75523902  0.25781897  1
