# generated using pymatgen
data_BaNd(PS3)2
_symmetry_space_group_name_H-M   'P 1'
_cell_length_a   6.75892591
_cell_length_b   7.57116318
_cell_length_c   10.05756092
_cell_angle_alpha   90.00000000
_cell_angle_beta   87.78096008
_cell_angle_gamma   90.00000000
_symmetry_Int_Tables_number   1
_chemical_formula_structural   BaNd(PS3)2
_chemical_formula_sum   'Ba2 Nd2 P4 S12'
_cell_volume   514.28891877
_cell_formula_units_Z   2
loop_
 _symmetry_equiv_pos_site_id
 _symmetry_equiv_pos_as_xyz
  1  'x, y, z'
loop_
 _atom_site_type_symbol
 _atom_site_label
 _atom_site_symmetry_multiplicity
 _atom_site_fract_x
 _atom_site_fract_y
 _atom_site_fract_z
 _atom_site_occupancy
  Ba  Ba0  1  0.29835400  0.52480499  0.50194400  1
  Ba  Ba1  1  0.70164601  0.02480500  0.49805599  1
  Nd  Nd2  1  0.78941101  0.77200498  0.01758098  1
  Nd  Nd3  1  0.21058900  0.27200499  0.98241901  1
  P  P4  1  0.68766701  0.31552899  0.17163298  1
  P  P5  1  0.20392000  0.04078000  0.70229001  1
  P  P6  1  0.31233300  0.81552898  0.82836700  1
  P  P7  1  0.79608001  0.54077999  0.29770998  1
  S  S8  1  0.42776201  0.22809299  0.24998899  1
  S  S9  1  0.82271901  0.46020999  0.48314598  1
  S  S10  1  0.41143401  0.23147099  0.73089600  1
  S  S11  1  0.65531001  0.42986299  0.98603900  1
  S  S12  1  0.04755600  0.62020099  0.19043800  1
  S  S13  1  0.58856601  0.73147098  0.26910399  1
  S  S14  1  0.34469000  0.92986298  0.01396099  1
  S  S15  1  0.95244401  0.12020100  0.80956198  1
  S  S16  1  0.17728100  0.96020998  0.51685400  1
  S  S17  1  0.09124300  0.62815199  0.83005501  1
  S  S18  1  0.90875701  0.12815200  0.16994497  1
  S  S19  1  0.57223801  0.72809298  0.75001100  1
