# generated using pymatgen
data_NaLi3Cr2O8
_symmetry_space_group_name_H-M   'P 1'
_cell_length_a   4.87226915
_cell_length_b   5.78364897
_cell_length_c   5.84737635
_cell_angle_alpha   107.22542572
_cell_angle_beta   90.00000000
_cell_angle_gamma   90.00000000
_symmetry_Int_Tables_number   1
_chemical_formula_structural   NaLi3Cr2O8
_chemical_formula_sum   'Na1 Li3 Cr2 O8'
_cell_volume   157.38541377
_cell_formula_units_Z   1
loop_
 _symmetry_equiv_pos_site_id
 _symmetry_equiv_pos_as_xyz
  1  'x, y, z'
loop_
 _atom_site_type_symbol
 _atom_site_label
 _atom_site_symmetry_multiplicity
 _atom_site_fract_x
 _atom_site_fract_y
 _atom_site_fract_z
 _atom_site_occupancy
  Na  Na0  1  0.26955199  0.60095500  0.43629797  1
  Li  Li1  1  0.76955198  0.89904500  0.56370195  1
  Li  Li2  1  0.23044799  0.10095500  0.43629798  1
  Li  Li3  1  0.73044798  0.39904500  0.56370197  1
  Cr  Cr4  1  0.00000000  0.00000000  0.00000000  1
  Cr  Cr5  1  0.49999998  0.50000000  0.99999995  1
  O  O6  1  0.17936499  0.90618000  0.64725395  1
  O  O7  1  0.24322299  0.29301200  0.15932299  1
  O  O8  1  0.67936498  0.59382000  0.35274597  1
  O  O9  1  0.74322298  0.20698800  0.84067697  1
  O  O10  1  0.25677699  0.79301200  0.15932297  1
  O  O11  1  0.32063499  0.40618000  0.64725397  1
  O  O12  1  0.75677698  0.70698800  0.84067695  1
  O  O13  1  0.82063497  0.09382000  0.35274599  1
