# generated using pymatgen
data_YMgAlP4H
_symmetry_space_group_name_H-M   'P 1'
_cell_length_a   4.18421984
_cell_length_b   4.18422031
_cell_length_c   7.53618908
_cell_angle_alpha   90.00000000
_cell_angle_beta   90.00000000
_cell_angle_gamma   120.00000000
_symmetry_Int_Tables_number   1
_chemical_formula_structural   YMgAlP4H
_chemical_formula_sum   'Y1 Mg1 Al1 P4 H1'
_cell_volume   114.26453473
_cell_formula_units_Z   1
loop_
 _symmetry_equiv_pos_site_id
 _symmetry_equiv_pos_as_xyz
  1  'x, y, z'
loop_
 _atom_site_type_symbol
 _atom_site_label
 _atom_site_symmetry_multiplicity
 _atom_site_fract_x
 _atom_site_fract_y
 _atom_site_fract_z
 _atom_site_occupancy
  Y  Y0  1  0.33333336  0.66666665  0.00000000  1
  Al  Al1  1  0.66666670  0.33333333  0.49999999  1
  H  H2  1  0.00000000  0.00000000  0.00000000  1
  Mg  Mg3  1  0.00000000  0.00000000  0.49999999  1
  P  P4  1  0.33333336  0.66666665  0.65430599  1
  P  P5  1  0.66666670  0.33333333  0.20632700  1
  P  P6  1  0.66666670  0.33333333  0.79367299  1
  P  P7  1  0.33333336  0.66666665  0.34569400  1
