# generated using pymatgen
data_Rb2AuN2
_symmetry_space_group_name_H-M   'P 1'
_cell_length_a   5.24868679
_cell_length_b   5.47140598
_cell_length_c   5.47140646
_cell_angle_alpha   60.00000381
_cell_angle_beta   90.00000000
_cell_angle_gamma   90.00000000
_symmetry_Int_Tables_number   1
_chemical_formula_structural   Rb2AuN2
_chemical_formula_sum   'Rb2 Au1 N2'
_cell_volume   136.07527658
_cell_formula_units_Z   1
loop_
 _symmetry_equiv_pos_site_id
 _symmetry_equiv_pos_as_xyz
  1  'x, y, z'
loop_
 _atom_site_type_symbol
 _atom_site_label
 _atom_site_symmetry_multiplicity
 _atom_site_fract_x
 _atom_site_fract_y
 _atom_site_fract_z
 _atom_site_occupancy
  Rb  Rb0  1  0.72472103  0.33333333  0.33333334  1
  Rb  Rb1  1  0.27527901  0.66666666  0.66666668  1
  Au  Au2  1  0.00000000  0.00000000  0.00000000  1
  N  N3  1  0.37847702  0.00000000  0.00000000  1
  N  N4  1  0.62152302  0.00000000  0.00000000  1
