# generated using pymatgen
data_H4BrO4
_symmetry_space_group_name_H-M   'P 1'
_cell_length_a   4.48654985
_cell_length_b   4.48654985
_cell_length_c   5.23632145
_cell_angle_alpha   64.63352966
_cell_angle_beta   64.63352966
_cell_angle_gamma   60.00000381
_symmetry_Int_Tables_number   1
_chemical_formula_structural   H4BrO4
_chemical_formula_sum   'H4 Br1 O4'
_cell_volume   79.33027776
_cell_formula_units_Z   1
loop_
 _symmetry_equiv_pos_site_id
 _symmetry_equiv_pos_as_xyz
  1  'x, y, z'
loop_
 _atom_site_type_symbol
 _atom_site_label
 _atom_site_symmetry_multiplicity
 _atom_site_fract_x
 _atom_site_fract_y
 _atom_site_fract_z
 _atom_site_occupancy
  Br  Br0  1  0.38576896  0.77147097  0.07128904  1
  H  H1  1  0.77147095  0.38576899  0.07128904  1
  H  H2  1  0.34847097  0.34847099  0.55745504  1
  H  H3  1  0.77147094  0.77147097  0.07128905  1
  O  O4  1  0.34847096  0.74560297  0.55745506  1
  O  O5  1  0.74560295  0.34847099  0.55745506  1
  H  H6  1  0.50847896  0.50847898  0.47456305  1
  O  O7  1  0.61717095  0.61717098  0.14848705  1
  O  O8  1  0.00162900  0.00162900  0.99511304  1
