# generated using pymatgen
data_Cs3KV3OF12
_symmetry_space_group_name_H-M   'P 1'
_cell_length_a   5.17377996
_cell_length_b   8.57985115
_cell_length_c   9.11195755
_cell_angle_alpha   114.19379425
_cell_angle_beta   93.74137115
_cell_angle_gamma   94.58255005
_symmetry_Int_Tables_number   1
_chemical_formula_structural   Cs3KV3OF12
_chemical_formula_sum   'Cs3 K1 V3 O1 F12'
_cell_volume   365.63259453
_cell_formula_units_Z   1
loop_
 _symmetry_equiv_pos_site_id
 _symmetry_equiv_pos_as_xyz
  1  'x, y, z'
loop_
 _atom_site_type_symbol
 _atom_site_label
 _atom_site_symmetry_multiplicity
 _atom_site_fract_x
 _atom_site_fract_y
 _atom_site_fract_z
 _atom_site_occupancy
  Cs  Cs0  1  0.50000003  0.50000004  0.00000003  1
  Cs  Cs1  1  0.91434902  0.20388301  0.59789799  1
  K  K2  1  0.50000003  0.50000004  0.50000001  1
  Cs  Cs3  1  0.08565105  0.79611706  0.40210202  1
  V  V4  1  0.52840200  0.01054400  0.81592997  1
  V  V5  1  0.00087604  0.78828406  0.85657700  1
  V  V6  1  0.99912402  0.21171602  0.14342301  1
  F  F7  1  0.47159806  0.98945607  0.18407005  1
  F  F8  1  0.26256601  0.07325701  0.99063196  1
  O  O9  1  0.78049902  0.21419702  0.95820298  1
  F  F10  1  0.40643101  0.10636301  0.68472298  1
  F  F11  1  0.85485804  0.56526504  0.77195100  1
  F  F12  1  0.28793105  0.78362206  0.72945701  1
  F  F13  1  0.80065906  0.87778106  0.70839002  1
  F  F14  1  0.19934101  0.12221901  0.29161000  1
  F  F15  1  0.71206902  0.21637802  0.27054301  1
  F  F16  1  0.14514203  0.43473503  0.22804901  1
  F  F17  1  0.59356905  0.89363706  0.31527704  1
  F  F18  1  0.21950105  0.78580306  0.04179704  1
  F  F19  1  0.73743406  0.92674307  0.00936805  1
