# generated using pymatgen
data_Sr3PbS4
_symmetry_space_group_name_H-M   'P 1'
_cell_length_a   4.43831491
_cell_length_b   6.26531219
_cell_length_c   10.82628727
_cell_angle_alpha   97.69336700
_cell_angle_beta   90.00000000
_cell_angle_gamma   90.00000000
_symmetry_Int_Tables_number   1
_chemical_formula_structural   Sr3PbS4
_chemical_formula_sum   'Sr3 Pb1 S4'
_cell_volume   298.34135886
_cell_formula_units_Z   1
loop_
 _symmetry_equiv_pos_site_id
 _symmetry_equiv_pos_as_xyz
  1  'x, y, z'
loop_
 _atom_site_type_symbol
 _atom_site_label
 _atom_site_symmetry_multiplicity
 _atom_site_fract_x
 _atom_site_fract_y
 _atom_site_fract_z
 _atom_site_occupancy
  Sr  Sr0  1  0.75000001  0.28482399  0.15421000  1
  Sr  Sr1  1  0.25000000  0.71517598  0.84579003  1
  Pb  Pb2  1  0.75000001  0.44965999  0.67582102  1
  Sr  Sr3  1  0.25000000  0.55033998  0.32417901  1
  S  S4  1  0.75000001  0.76410898  0.06162000  1
  S  S5  1  0.25000000  0.23589099  0.93838003  1
  S  S6  1  0.75000001  0.89401297  0.67027102  1
  S  S7  1  0.25000000  0.10598700  0.32972901  1
