# generated using pymatgen
data_Li6SiPO8
_symmetry_space_group_name_H-M   'P 1'
_cell_length_a   5.07350922
_cell_length_b   5.30863619
_cell_length_c   6.23335123
_cell_angle_alpha   90.00000000
_cell_angle_beta   90.00000000
_cell_angle_gamma   90.00000000
_symmetry_Int_Tables_number   1
_chemical_formula_structural   Li6SiPO8
_chemical_formula_sum   'Li6 Si1 P1 O8'
_cell_volume   167.88543322
_cell_formula_units_Z   1
loop_
 _symmetry_equiv_pos_site_id
 _symmetry_equiv_pos_as_xyz
  1  'x, y, z'
loop_
 _atom_site_type_symbol
 _atom_site_label
 _atom_site_symmetry_multiplicity
 _atom_site_fract_x
 _atom_site_fract_y
 _atom_site_fract_z
 _atom_site_occupancy
  Li  Li0  1  0.99855396  0.32448299  0.74971497  1
  Li  Li1  1  0.49855398  0.67551698  0.75028497  1
  Li  Li2  1  0.99855396  0.32448299  0.25028499  1
  Li  Li3  1  0.49855398  0.67551698  0.24971499  1
  Li  Li4  1  0.49838798  0.19050799  0.49999998  1
  Li  Li5  1  0.99838796  0.80949197  0.00000000  1
  Si  Si6  1  0.50273698  0.17773499  0.00000000  1
  P  P7  1  0.00273700  0.82226497  0.49999998  1
  O  O8  1  0.88988196  0.68342298  0.70210997  1
  O  O9  1  0.38988198  0.31657699  0.20210999  1
  O  O10  1  0.30782999  0.80378297  0.49999998  1
  O  O11  1  0.41417298  0.89668297  0.00000000  1
  O  O12  1  0.80782997  0.19621699  0.00000000  1
  O  O13  1  0.88988196  0.68342298  0.29788999  1
  O  O14  1  0.91417296  0.10331700  0.49999998  1
  O  O15  1  0.38988198  0.31657699  0.79788997  1
