# generated using pymatgen
data_VO2
_symmetry_space_group_name_H-M   'P 1'
_cell_length_a   3.76693606
_cell_length_b   6.43536806
_cell_length_c   6.61621237
_cell_angle_alpha   106.18218231
_cell_angle_beta   90.00000000
_cell_angle_gamma   107.01814270
_symmetry_Int_Tables_number   1
_chemical_formula_structural   VO2
_chemical_formula_sum   'V4 O8'
_cell_volume   146.70628915
_cell_formula_units_Z   4
loop_
 _symmetry_equiv_pos_site_id
 _symmetry_equiv_pos_as_xyz
  1  'x, y, z'
loop_
 _atom_site_type_symbol
 _atom_site_label
 _atom_site_symmetry_multiplicity
 _atom_site_fract_x
 _atom_site_fract_y
 _atom_site_fract_z
 _atom_site_occupancy
  V  V0  1  0.80471401  0.60942799  0.71623796  1
  V  V1  1  0.09992901  0.19985800  0.71039798  1
  V  V2  1  0.19528601  0.39057200  0.28376198  1
  V  V3  1  0.90007101  0.80014199  0.28960197  1
  O  O4  1  0.05835200  0.11670400  0.36997899  1
  O  O5  1  0.63806800  0.27613600  0.70660298  1
  O  O6  1  0.13281101  0.26562200  0.00470899  1
  O  O7  1  0.94164802  0.88329599  0.63002096  1
  O  O8  1  0.73651100  0.47302200  0.34749998  1
  O  O9  1  0.86718901  0.73437799  0.99529095  1
  O  O10  1  0.26348901  0.52697799  0.65249997  1
  O  O11  1  0.36193202  0.72386399  0.29339697  1
