# generated using pymatgen
data_Rb2TlAg
_symmetry_space_group_name_H-M   'P 1'
_cell_length_a   6.11868429
_cell_length_b   6.11868429
_cell_length_c   6.11868429
_cell_angle_alpha   60.00000000
_cell_angle_beta   60.00000000
_cell_angle_gamma   60.00000000
_symmetry_Int_Tables_number   1
_chemical_formula_structural   Rb2TlAg
_chemical_formula_sum   'Rb2 Tl1 Ag1'
_cell_volume   161.97915838
_cell_formula_units_Z   1
loop_
 _symmetry_equiv_pos_site_id
 _symmetry_equiv_pos_as_xyz
  1  'x, y, z'
loop_
 _atom_site_type_symbol
 _atom_site_label
 _atom_site_symmetry_multiplicity
 _atom_site_fract_x
 _atom_site_fract_y
 _atom_site_fract_z
 _atom_site_occupancy
  Rb  Rb0  1  0.74999997  0.74999997  0.74999997  1
  Rb  Rb1  1  0.24999999  0.24999999  0.24999999  1
  Ag  Ag2  1  0.49999998  0.49999998  0.49999998  1
  Tl  Tl3  1  0.00000000  0.00000000  0.00000000  1
