# generated using pymatgen
data_K4Ag5S9
_symmetry_space_group_name_H-M   'P 1'
_cell_length_a   6.48239613
_cell_length_b   6.53828478
_cell_length_c   14.44674587
_cell_angle_alpha   83.61443329
_cell_angle_beta   77.03505707
_cell_angle_gamma   60.28236389
_symmetry_Int_Tables_number   1
_chemical_formula_structural   K4Ag5S9
_chemical_formula_sum   'K4 Ag5 S9'
_cell_volume   518.21971689
_cell_formula_units_Z   1
loop_
 _symmetry_equiv_pos_site_id
 _symmetry_equiv_pos_as_xyz
  1  'x, y, z'
loop_
 _atom_site_type_symbol
 _atom_site_label
 _atom_site_symmetry_multiplicity
 _atom_site_fract_x
 _atom_site_fract_y
 _atom_site_fract_z
 _atom_site_occupancy
  K  K0  1  0.57438198  0.00000000  0.85123600  1
  K  K1  1  0.32438200  0.50000002  0.35123599  1
  K  K2  1  0.17561800  0.50000002  0.64876398  1
  K  K3  1  0.42561799  0.00000000  0.14876401  1
  Ag  Ag4  1  0.75059098  0.00000000  0.49881801  1
  Ag  Ag5  1  0.50059099  0.50000002  0.99881798  1
  Ag  Ag6  1  0.99940897  0.50000002  0.00118202  1
  Ag  Ag7  1  0.00000000  0.00000000  0.00000000  1
  Ag  Ag8  1  0.74999998  0.50000002  0.50000000  1
  S  S9  1  0.24940899  0.00000000  0.50118200  1
  S  S10  1  0.22024200  0.66802602  0.88385797  1
  S  S11  1  0.85410097  0.16802501  0.61614201  1
  S  S12  1  0.63826899  0.83197403  0.38385699  1
  S  S13  1  0.97787497  0.16802501  0.38385701  1
  S  S14  1  0.77212498  0.33197501  0.11614301  1
  S  S15  1  0.11173100  0.66802602  0.11614299  1
  S  S16  1  0.89589897  0.33197501  0.88385800  1
  S  S17  1  0.52975799  0.83197403  0.61614199  1
