# generated using pymatgen
data_KLi3As3NF12
_symmetry_space_group_name_H-M   'P 1'
_cell_length_a   6.93614578
_cell_length_b   7.35176849
_cell_length_c   8.05382633
_cell_angle_alpha   95.55743408
_cell_angle_beta   112.79322815
_cell_angle_gamma   114.63596344
_symmetry_Int_Tables_number   1
_chemical_formula_structural   KLi3As3NF12
_chemical_formula_sum   'K1 Li3 As3 N1 F12'
_cell_volume   327.39187336
_cell_formula_units_Z   1
loop_
 _symmetry_equiv_pos_site_id
 _symmetry_equiv_pos_as_xyz
  1  'x, y, z'
loop_
 _atom_site_type_symbol
 _atom_site_label
 _atom_site_symmetry_multiplicity
 _atom_site_fract_x
 _atom_site_fract_y
 _atom_site_fract_z
 _atom_site_occupancy
  K  K0  1  0.44936901  0.09676500  0.78388903  1
  Li  Li1  1  0.55063104  0.90323499  0.21611103  1
  Li  Li2  1  0.49204903  0.60627500  0.78877705  1
  Li  Li3  1  0.50795102  0.39372500  0.21122302  1
  As  As4  1  0.01527301  0.40394600  0.20259602  1
  As  As5  1  0.98472704  0.59605400  0.79740404  1
  As  As6  1  0.90530002  0.06902000  0.69814602  1
  N  N7  1  0.09470003  0.93097999  0.30185405  1
  F  F8  1  0.77543302  0.14973000  0.51963302  1
  F  F9  1  0.22456703  0.85026999  0.48036705  1
  F  F10  1  0.20735801  0.23379200  0.81831304  1
  F  F11  1  0.79264204  0.76620800  0.18168702  1
  F  F12  1  0.34673203  0.77613300  0.86808706  1
  F  F13  1  0.65326902  0.22386700  0.13191300  1
  F  F14  1  0.14776201  0.17081500  0.38537302  1
  F  F15  1  0.85223804  0.82918499  0.61462704  1
  F  F16  1  0.63224103  0.42127600  0.73961404  1
  F  F17  1  0.36775902  0.57872400  0.26038603  1
  F  F18  1  0.80178702  0.08108100  0.85461203  1
  F  F19  1  0.19821303  0.91891899  0.14538804  1
