# generated using pymatgen
data_LiYbFe2F8
_symmetry_space_group_name_H-M   'P 1'
_cell_length_a   5.44391203
_cell_length_b   5.44627190
_cell_length_c   6.52068806
_cell_angle_alpha   113.86681366
_cell_angle_beta   114.67268372
_cell_angle_gamma   90.00000000
_symmetry_Int_Tables_number   1
_chemical_formula_structural   LiYbFe2F8
_chemical_formula_sum   'Li1 Yb1 Fe2 F8'
_cell_volume   157.30601685
_cell_formula_units_Z   1
loop_
 _symmetry_equiv_pos_site_id
 _symmetry_equiv_pos_as_xyz
  1  'x, y, z'
loop_
 _atom_site_type_symbol
 _atom_site_label
 _atom_site_symmetry_multiplicity
 _atom_site_fract_x
 _atom_site_fract_y
 _atom_site_fract_z
 _atom_site_occupancy
  Li  Li0  1  0.74512800  0.74999997  -0.00000002  1
  Yb  Yb1  1  0.25487200  0.24999999  -0.00000001  1
  Fe  Fe2  1  0.50000001  0.00000000  0.50000002  1
  Fe  Fe3  1  -0.00000001  0.49999998  0.49999998  1
  F  F4  1  0.42752200  0.32172699  0.74732901  1
  F  F5  1  0.17755800  0.05503100  0.24178401  1
  F  F6  1  0.57247800  0.67827297  0.25267099  1
  F  F7  1  0.68019301  0.17827299  0.25267102  1
  F  F8  1  0.82244200  0.94496896  0.75821599  1
  F  F9  1  0.93577400  0.44496898  0.75821602  1
  F  F10  1  0.31980699  0.82172697  0.74732898  1
  F  F11  1  0.06422599  0.55503098  0.24178398  1
