# generated using pymatgen
data_NaSc(GeO3)2
_symmetry_space_group_name_H-M   'P 1'
_cell_length_a   5.69946718
_cell_length_b   7.00410604
_cell_length_c   7.00410604
_cell_angle_alpha   83.58568573
_cell_angle_beta   76.93192291
_cell_angle_gamma   76.93192291
_symmetry_Int_Tables_number   1
_chemical_formula_structural   NaSc(GeO3)2
_chemical_formula_sum   'Na2 Sc2 Ge4 O12'
_cell_volume   264.76548561
_cell_formula_units_Z   2
loop_
 _symmetry_equiv_pos_site_id
 _symmetry_equiv_pos_as_xyz
  1  'x, y, z'
loop_
 _atom_site_type_symbol
 _atom_site_label
 _atom_site_symmetry_multiplicity
 _atom_site_fract_x
 _atom_site_fract_y
 _atom_site_fract_z
 _atom_site_occupancy
  Na  Na0  1  0.24999999  0.30354001  0.69645998  1
  Na  Na1  1  0.74999998  0.69646001  0.30353995  1
  Sc  Sc2  1  0.24999997  0.89801302  0.10198695  1
  Sc  Sc3  1  0.75000000  0.10198700  0.89801298  1
  Ge  Ge4  1  0.25838099  0.38009901  0.20003598  1
  Ge  Ge5  1  0.24161897  0.79996402  0.61990096  1
  Ge  Ge6  1  0.74161898  0.61990101  0.79996395  1
  Ge  Ge7  1  0.75838100  0.20003600  0.38009897  1
  O  O8  1  0.17100198  0.61674901  0.09994097  1
  O  O9  1  0.32899797  0.90005902  0.38325095  1
  O  O10  1  0.82899799  0.38325101  0.90005896  1
  O  O11  1  0.67100200  0.09994100  0.61674898  1
  O  O12  1  0.35896800  0.19228700  0.03078998  1
  O  O13  1  0.14103197  0.96921002  0.80771296  1
  O  O14  1  0.64103198  0.80771302  0.96920995  1
  O  O15  1  0.85896800  0.03079000  0.19228697  1
  O  O16  1  0.48540499  0.37507501  0.34139697  1
  O  O17  1  0.01459498  0.65860301  0.62492497  1
  O  O18  1  0.51459498  0.62492501  0.65860296  1
  O  O19  1  0.98540500  0.34139701  0.37507496  1
