# generated using pymatgen
data_K4BrCl3
_symmetry_space_group_name_H-M   'P 1'
_cell_length_a   3.94409990
_cell_length_b   5.57499790
_cell_length_c   11.13855171
_cell_angle_alpha   90.00000000
_cell_angle_beta   90.00000000
_cell_angle_gamma   90.00000000
_symmetry_Int_Tables_number   1
_chemical_formula_structural   K4BrCl3
_chemical_formula_sum   'K4 Br1 Cl3'
_cell_volume   244.91835889
_cell_formula_units_Z   1
loop_
 _symmetry_equiv_pos_site_id
 _symmetry_equiv_pos_as_xyz
  1  'x, y, z'
loop_
 _atom_site_type_symbol
 _atom_site_label
 _atom_site_symmetry_multiplicity
 _atom_site_fract_x
 _atom_site_fract_y
 _atom_site_fract_z
 _atom_site_occupancy
  K  K0  1  0.00000000  0.00000000  0.50000001  1
  K  K1  1  -0.00000000  0.50000001  0.74572002  1
  K  K2  1  0.00000000  0.00000000  0.00000000  1
  K  K3  1  -0.00000000  0.50000001  0.25428001  1
  Br  Br4  1  0.50000001  0.50000001  0.00000000  1
  Cl  Cl5  1  0.50000001  0.00000000  0.25092401  1
  Cl  Cl6  1  0.50000001  0.50000001  0.50000001  1
  Cl  Cl7  1  0.50000001  0.00000000  0.74907602  1
