# generated using pymatgen
data_NaEuH3N
_symmetry_space_group_name_H-M   'P 1'
_cell_length_a   3.35270810
_cell_length_b   3.35270762
_cell_length_c   6.73476315
_cell_angle_alpha   90.00000000
_cell_angle_beta   90.00000000
_cell_angle_gamma   120.00000000
_symmetry_Int_Tables_number   1
_chemical_formula_structural   NaEuH3N
_chemical_formula_sum   'Na1 Eu1 H3 N1'
_cell_volume   65.56082112
_cell_formula_units_Z   1
loop_
 _symmetry_equiv_pos_site_id
 _symmetry_equiv_pos_as_xyz
  1  'x, y, z'
loop_
 _atom_site_type_symbol
 _atom_site_label
 _atom_site_symmetry_multiplicity
 _atom_site_fract_x
 _atom_site_fract_y
 _atom_site_fract_z
 _atom_site_occupancy
  Eu  Eu0  1  0.00000000  0.00000000  0.00000000  1
  Na  Na1  1  0.00000000  0.00000000  0.49999999  1
  N  N2  1  0.33333329  0.66666667  0.74999998  1
  H  H3  1  0.66666663  0.33333334  0.24999999  1
  H  H4  1  0.33333329  0.66666667  0.24999999  1
  H  H5  1  0.66666663  0.33333334  0.74999998  1
