# generated using pymatgen
data_KRb3NaLiHfSnH12
_symmetry_space_group_name_H-M   'P 1'
_cell_length_a   5.99260998
_cell_length_b   6.12996626
_cell_length_c   11.66980267
_cell_angle_alpha   101.85721588
_cell_angle_beta   90.00000000
_cell_angle_gamma   119.26149750
_symmetry_Int_Tables_number   1
_chemical_formula_structural   KRb3NaLiHfSnH12
_chemical_formula_sum   'Rb3 K1 Na1 Li1 Hf1 Sn1 H12'
_cell_volume   363.46233571
_cell_formula_units_Z   1
loop_
 _symmetry_equiv_pos_site_id
 _symmetry_equiv_pos_as_xyz
  1  'x, y, z'
loop_
 _atom_site_type_symbol
 _atom_site_label
 _atom_site_symmetry_multiplicity
 _atom_site_fract_x
 _atom_site_fract_y
 _atom_site_fract_z
 _atom_site_occupancy
  Na  Na0  1  0.24777098  0.49554198  0.67789896  1
  Rb  Rb1  1  0.75222898  0.50445798  0.32210098  1
  Rb  Rb2  1  0.35045798  0.70091697  0.08203098  1
  Rb  Rb3  1  0.64954199  0.29908299  0.91796896  1
  K  K4  1  0.43286097  0.86572096  0.40548797  1
  Li  Li5  1  0.56713900  0.13427899  0.59451197  1
  H  H6  1  0.28038998  0.56078098  0.36207298  1
  Hf  Hf7  1  0.71960999  0.43921898  0.63792697  1
  Sn  Sn8  1  0.08373899  0.16747799  0.36609398  1
  H  H9  1  0.91626097  0.83252196  0.63390596  1
  H  H10  1  0.04010100  0.08020200  0.18372899  1
  H  H11  1  0.95989897  0.91979796  0.81627095  1
  H  H12  1  0.89156500  0.19227999  0.14421099  1
  H  H13  1  0.30071499  0.19227999  0.14421099  1
  H  H14  1  0.10843497  0.80771996  0.85578895  1
  H  H15  1  0.69928497  0.80771996  0.85578895  1
  H  H16  1  0.10260499  0.20520999  0.85689596  1
  H  H17  1  0.89739498  0.79478997  0.14310398  1
  H  H18  1  0.36304098  0.72608097  0.33511297  1
  H  H19  1  0.63695899  0.27391899  0.66488697  1
