# generated using pymatgen
data_V3(OF2)2
_symmetry_space_group_name_H-M   'P 1'
_cell_length_a   4.66848707
_cell_length_b   4.78021288
_cell_length_c   9.82455826
_cell_angle_alpha   90.53200531
_cell_angle_beta   90.00011444
_cell_angle_gamma   90.00139618
_symmetry_Int_Tables_number   1
_chemical_formula_structural   V3(OF2)2
_chemical_formula_sum   'V6 O4 F8'
_cell_volume   219.23894752
_cell_formula_units_Z   2
loop_
 _symmetry_equiv_pos_site_id
 _symmetry_equiv_pos_as_xyz
  1  'x, y, z'
loop_
 _atom_site_type_symbol
 _atom_site_label
 _atom_site_symmetry_multiplicity
 _atom_site_fract_x
 _atom_site_fract_y
 _atom_site_fract_z
 _atom_site_occupancy
  V  V0  1  0.99951501  0.95811804  0.65899099  1
  V  V1  1  0.49952401  0.54188502  0.50767800  1
  V  V2  1  0.03368400  0.00468800  0.33377402  1
  V  V3  1  0.53367301  0.49529802  0.83289202  1
  V  V4  1  0.99920701  0.95977704  0.00801796  1
  V  V5  1  0.49920801  0.54022902  0.15864399  1
  O  O6  1  0.19421902  0.80337303  0.50874300  1
  O  O7  1  0.19554402  0.80946003  0.16231198  1
  O  O8  1  0.69554601  0.69054703  0.00434997  1
  O  O9  1  0.69421901  0.69663403  0.65792401  1
  F  F10  1  0.18874702  0.76924103  0.83219002  1
  F  F11  1  0.68874301  0.73075403  0.33447499  1
  F  F12  1  0.31801101  0.35328001  0.33662800  1
  F  F13  1  0.81800999  0.14672501  0.83004203  1
  F  F14  1  0.28782600  0.27149501  0.99533604  1
  F  F15  1  0.28324700  0.26750301  0.66935102  1
  F  F16  1  0.78324399  0.23249301  0.49731901  1
  F  F17  1  0.78783299  0.22850201  0.17132899  1
