# generated using pymatgen
data_NaLiAg2F8
_symmetry_space_group_name_H-M   'P 1'
_cell_length_a   5.05397129
_cell_length_b   5.66265583
_cell_length_c   6.25009012
_cell_angle_alpha   63.06329346
_cell_angle_beta   70.42458344
_cell_angle_gamma   90.00000000
_symmetry_Int_Tables_number   1
_chemical_formula_structural   NaLiAg2F8
_chemical_formula_sum   'Na1 Li1 Ag2 F8'
_cell_volume   147.77458124
_cell_formula_units_Z   1
loop_
 _symmetry_equiv_pos_site_id
 _symmetry_equiv_pos_as_xyz
  1  'x, y, z'
loop_
 _atom_site_type_symbol
 _atom_site_label
 _atom_site_symmetry_multiplicity
 _atom_site_fract_x
 _atom_site_fract_y
 _atom_site_fract_z
 _atom_site_occupancy
  Na  Na0  1  0.75000001  0.18558700  -0.00000001  1
  Li  Li1  1  0.25000001  0.81441302  0.99999998  1
  Ag  Ag2  1  1.00000001  0.00000000  0.49999997  1
  Ag  Ag3  1  0.50000001  0.50000001  0.49999998  1
  F  F4  1  0.17941501  0.74848802  0.74135599  1
  F  F5  1  0.33739301  0.99216902  0.21146000  1
  F  F6  1  0.82058501  0.25151201  0.25864398  1
  F  F7  1  0.83739302  0.79637102  0.21145999  1
  F  F8  1  0.66260701  0.00783100  0.78853997  1
  F  F9  1  0.67941501  0.51015601  0.74135597  1
  F  F10  1  0.16260700  0.20362900  0.78853998  1
  F  F11  1  0.32058501  0.48984401  0.25864399  1
