# generated using pymatgen
data_Cs2BiS6I
_symmetry_space_group_name_H-M   'P 1'
_cell_length_a   6.38899422
_cell_length_b   7.10881472
_cell_length_c   7.71062803
_cell_angle_alpha   107.32649994
_cell_angle_beta   90.00000000
_cell_angle_gamma   116.70335388
_symmetry_Int_Tables_number   1
_chemical_formula_structural   Cs2BiS6I
_chemical_formula_sum   'Cs2 Bi1 S6 I1'
_cell_volume   294.95523011
_cell_formula_units_Z   1
loop_
 _symmetry_equiv_pos_site_id
 _symmetry_equiv_pos_as_xyz
  1  'x, y, z'
loop_
 _atom_site_type_symbol
 _atom_site_label
 _atom_site_symmetry_multiplicity
 _atom_site_fract_x
 _atom_site_fract_y
 _atom_site_fract_z
 _atom_site_occupancy
  Cs  Cs0  1  0.22148205  0.78156305  0.53534903  1
  Cs  Cs1  1  0.43991900  0.21843701  0.96465102  1
  Bi  Bi2  1  0.77851799  0.21843701  0.46465101  1
  I  I3  1  0.56008104  0.78156305  0.03534902  1
  S  S4  1  0.84998497  0.00000000  0.75000001  1
  S  S5  1  0.15001499  0.00000000  0.25000000  1
  S  S6  1  0.02003702  0.36445602  0.05463001  1
  S  S7  1  0.65558102  0.63554404  0.44537002  1
  S  S8  1  0.97996301  0.63554404  0.94537003  1
  S  S9  1  0.34441901  0.36445602  0.55463002  1
