# generated using pymatgen
data_NaLi4V2F13
_symmetry_space_group_name_H-M   'P 1'
_cell_length_a   5.20589781
_cell_length_b   5.39842701
_cell_length_c   7.56134701
_cell_angle_alpha   90.00000000
_cell_angle_beta   90.00000000
_cell_angle_gamma   89.99993134
_symmetry_Int_Tables_number   1
_chemical_formula_structural   NaLi4V2F13
_chemical_formula_sum   'Na1 Li4 V2 F13'
_cell_volume   212.50152043
_cell_formula_units_Z   1
loop_
 _symmetry_equiv_pos_site_id
 _symmetry_equiv_pos_as_xyz
  1  'x, y, z'
loop_
 _atom_site_type_symbol
 _atom_site_label
 _atom_site_symmetry_multiplicity
 _atom_site_fract_x
 _atom_site_fract_y
 _atom_site_fract_z
 _atom_site_occupancy
  Na  Na0  1  0.50000002  0.00000100  0.50000000  1
  Li  Li1  1  -0.00000003  0.50000000  1.00000000  1
  Li  Li2  1  0.50000002  0.00000100  0.00000000  1
  Li  Li3  1  -0.00000003  0.50000000  0.50000000  1
  Li  Li4  1  0.48764498  0.55237300  0.75000100  1
  V  V5  1  0.51235299  0.44761800  0.24999800  1
  F  F6  1  0.98762297  0.94759900  0.25000000  1
  V  V7  1  0.01237800  0.05240300  0.75000000  1
  F  F8  1  0.11170497  0.54358500  0.25000000  1
  F  F9  1  0.38828501  0.04357600  0.25000000  1
  F  F10  1  0.88829500  0.45641600  0.75000000  1
  F  F11  1  0.61171496  0.95642500  0.75000000  1
  F  F12  1  0.19045595  0.80540700  0.94135200  1
  F  F13  1  0.69046498  0.69460400  0.05864900  1
  F  F14  1  0.80954402  0.19459400  0.05864900  1
  F  F15  1  0.19045595  0.80540700  0.55864900  1
  F  F16  1  0.80954402  0.19459400  0.44135200  1
  F  F17  1  0.30953499  0.30539700  0.94135200  1
  F  F18  1  0.30953499  0.30539700  0.55864900  1
  F  F19  1  0.69046498  0.69460400  0.44135200  1
