# generated using pymatgen
data_Cs7ClF10
_symmetry_space_group_name_H-M   'P 1'
_cell_length_a   8.43671417
_cell_length_b   8.74283409
_cell_length_c   8.43671417
_cell_angle_alpha   61.15164185
_cell_angle_beta   90.00000000
_cell_angle_gamma   118.84835815
_symmetry_Int_Tables_number   1
_chemical_formula_structural   Cs7ClF10
_chemical_formula_sum   'Cs7 Cl1 F10'
_cell_volume   454.91730240
_cell_formula_units_Z   1
loop_
 _symmetry_equiv_pos_site_id
 _symmetry_equiv_pos_as_xyz
  1  'x, y, z'
loop_
 _atom_site_type_symbol
 _atom_site_label
 _atom_site_symmetry_multiplicity
 _atom_site_fract_x
 _atom_site_fract_y
 _atom_site_fract_z
 _atom_site_occupancy
  Cs  Cs0  1  0.18242800  0.00000000  0.68242799  1
  Cs  Cs1  1  0.81757198  0.00000000  0.31757199  1
  Cs  Cs2  1  0.68242804  1.00000005  0.81757193  1
  Cs  Cs3  1  0.31757199  0.00000000  0.18242800  1
  Cs  Cs4  1  0.25000002  0.50000003  0.74999996  1
  Cs  Cs5  1  0.75000001  0.50000003  0.24999997  1
  Cl  Cl6  1  0.25000002  0.50000003  0.24999997  1
  Cs  Cs7  1  0.75000001  0.50000003  0.74999996  1
  F  F8  1  0.46257903  0.67589903  0.28667996  1
  F  F9  1  0.21331903  0.67589703  0.03742196  1
  F  F10  1  0.96257902  0.67589803  0.53742095  1
  F  F11  1  0.71331902  0.67589803  0.78668095  1
  F  F12  1  0.53742101  0.32410102  0.71331997  1
  F  F13  1  0.78668100  0.32410302  0.96257796  1
  F  F14  1  0.03742102  0.32410202  0.46257897  1
  F  F15  1  0.28668101  0.32410202  0.21331898  1
  F  F16  1  0.49999999  0.00000000  0.49999999  1
  F  F17  1  0.00000000  0.00000000  0.00000000  1
