# generated using pymatgen
data_K3H2F
_symmetry_space_group_name_H-M   'P 1'
_cell_length_a   4.19540882
_cell_length_b   5.34844494
_cell_length_c   10.66682529
_cell_angle_alpha   90.00000000
_cell_angle_beta   90.00000000
_cell_angle_gamma   90.00000000
_symmetry_Int_Tables_number   1
_chemical_formula_structural   K3H2F
_chemical_formula_sum   'K3 H2 F1'
_cell_volume   239.35196557
_cell_formula_units_Z   1
loop_
 _symmetry_equiv_pos_site_id
 _symmetry_equiv_pos_as_xyz
  1  'x, y, z'
loop_
 _atom_site_type_symbol
 _atom_site_label
 _atom_site_symmetry_multiplicity
 _atom_site_fract_x
 _atom_site_fract_y
 _atom_site_fract_z
 _atom_site_occupancy
  K  K0  1  0.00000000  0.00000000  0.10729400  1
  K  K1  1  0.50000002  0.50000001  0.89270598  1
  K  K2  1  0.50000002  0.00000000  0.94185597  1
  F  F3  1  -0.00000000  0.50000001  0.05814400  1
  H  H4  1  -0.00000000  0.50000001  0.68412998  1
  H  H5  1  0.50000002  0.00000000  0.31586999  1
