# generated using pymatgen
data_LiCuPS4
_symmetry_space_group_name_H-M   'P 1'
_cell_length_a   3.49787593
_cell_length_b   5.66813898
_cell_length_c   10.24658585
_cell_angle_alpha   90.00000000
_cell_angle_beta   95.18958282
_cell_angle_gamma   90.00000000
_symmetry_Int_Tables_number   1
_chemical_formula_structural   LiCuPS4
_chemical_formula_sum   'Li2 Cu2 P2 S8'
_cell_volume   202.32063611
_cell_formula_units_Z   2
loop_
 _symmetry_equiv_pos_site_id
 _symmetry_equiv_pos_as_xyz
  1  'x, y, z'
loop_
 _atom_site_type_symbol
 _atom_site_label
 _atom_site_symmetry_multiplicity
 _atom_site_fract_x
 _atom_site_fract_y
 _atom_site_fract_z
 _atom_site_occupancy
  Li  Li0  1  0.71803202  0.04351600  0.65110703  1
  Li  Li1  1  0.28196801  0.54351600  0.84889303  1
  Cu  Cu2  1  0.28196801  0.95648400  0.34889301  1
  Cu  Cu3  1  0.71803202  0.45648400  0.15110701  1
  P  P4  1  -0.00000000  0.50000000  0.50000002  1
  P  P5  1  0.00000000  0.00000000  0.00000000  1
  S  S6  1  0.79107602  0.67754500  0.33875402  1
  S  S7  1  0.20892400  0.17754500  0.16124601  1
  S  S8  1  0.20892400  0.32245500  0.66124602  1
  S  S9  1  0.79107602  0.82245500  0.83875403  1
  S  S10  1  0.20885500  0.80644500  0.57390602  1
  S  S11  1  0.79114502  0.30644500  0.92609404  1
  S  S12  1  0.20885500  0.69355500  0.07390600  1
  S  S13  1  0.79114502  0.19355500  0.42609402  1
