# generated using pymatgen
data_KGdSe2
_symmetry_space_group_name_H-M   'P 1'
_cell_length_a   4.31452370
_cell_length_b   4.31452370
_cell_length_c   8.03265667
_cell_angle_alpha   74.42131805
_cell_angle_beta   74.42131805
_cell_angle_gamma   60.00000763
_symmetry_Int_Tables_number   1
_chemical_formula_structural   KGdSe2
_chemical_formula_sum   'K1 Gd1 Se2'
_cell_volume   123.11180072
_cell_formula_units_Z   1
loop_
 _symmetry_equiv_pos_site_id
 _symmetry_equiv_pos_as_xyz
  1  'x, y, z'
loop_
 _atom_site_type_symbol
 _atom_site_label
 _atom_site_symmetry_multiplicity
 _atom_site_fract_x
 _atom_site_fract_y
 _atom_site_fract_z
 _atom_site_occupancy
  K  K0  1  0.49999999  0.49999998  0.49999999  1
  Gd  Gd1  1  0.00000000  0.00000000  0.00000000  1
  Se  Se2  1  0.73887898  0.73887897  0.78336299  1
  Se  Se3  1  0.26112099  0.26112099  0.21663700  1
