# generated using pymatgen
data_RbBi
_symmetry_space_group_name_H-M   'P 1'
_cell_length_a   6.65877390
_cell_length_b   7.08519602
_cell_length_c   7.08519602
_cell_angle_alpha   103.96514893
_cell_angle_beta   90.00000000
_cell_angle_gamma   90.00000000
_symmetry_Int_Tables_number   1
_chemical_formula_structural   RbBi
_chemical_formula_sum   'Rb4 Bi4'
_cell_volume   324.39033455
_cell_formula_units_Z   4
loop_
 _symmetry_equiv_pos_site_id
 _symmetry_equiv_pos_as_xyz
  1  'x, y, z'
loop_
 _atom_site_type_symbol
 _atom_site_label
 _atom_site_symmetry_multiplicity
 _atom_site_fract_x
 _atom_site_fract_y
 _atom_site_fract_z
 _atom_site_occupancy
  Rb  Rb0  1  0.25000000  0.32121900  0.97890400  1
  Rb  Rb1  1  0.75000001  0.02109600  0.67878101  1
  Rb  Rb2  1  0.25000000  0.96186501  0.32277895  1
  Rb  Rb3  1  0.75000001  0.67722101  0.03813496  1
  Bi  Bi4  1  -0.00000000  0.49191300  0.50808698  1
  Bi  Bi5  1  0.50000001  0.49191300  0.50808698  1
  Bi  Bi6  1  0.25000000  0.77065301  0.77688197  1
  Bi  Bi7  1  0.75000001  0.22311800  0.22934699  1
