# generated using pymatgen
data_Ba2SrCaY2(BiO6)2
_symmetry_space_group_name_H-M   'P 1'
_cell_length_a   6.06367302
_cell_length_b   6.07083941
_cell_length_c   8.56025028
_cell_angle_alpha   89.81948090
_cell_angle_beta   90.19117737
_cell_angle_gamma   89.96495056
_symmetry_Int_Tables_number   1
_chemical_formula_structural   Ba2SrCaY2(BiO6)2
_chemical_formula_sum   'Ba2 Sr1 Ca1 Y2 Bi2 O12'
_cell_volume   315.11300262
_cell_formula_units_Z   1
loop_
 _symmetry_equiv_pos_site_id
 _symmetry_equiv_pos_as_xyz
  1  'x, y, z'
loop_
 _atom_site_type_symbol
 _atom_site_label
 _atom_site_symmetry_multiplicity
 _atom_site_fract_x
 _atom_site_fract_y
 _atom_site_fract_z
 _atom_site_occupancy
  Sr  Sr0  1  0.49489010  0.52071009  0.75016526  1
  Ba  Ba1  1  0.50510992  0.47928993  0.24983483  1
  Ba  Ba2  1  0.00455775  0.02901348  0.74835266  1
  Ca  Ca3  1  0.99544226  0.97098653  0.25164743  1
  Y  Y4  1  0.00000001  0.50000001  0.00000001  1
  Y  Y5  1  0.50000000  0.00000000  0.50000003  1
  Bi  Bi6  1  0.50000000  0.00000000  0.00000000  1
  Bi  Bi7  1  0.00000001  0.50000001  0.50000004  1
  O  O8  1  0.77404903  0.20629423  0.04441771  1
  O  O9  1  0.72924215  0.71231546  0.46833039  1
  O  O10  1  0.22595098  0.79370578  0.95558237  1
  O  O11  1  0.27075786  0.28768455  0.53166970  1
  O  O12  1  0.71082475  0.72827869  0.03431062  1
  O  O13  1  0.79673677  0.22269948  0.45780347  1
  O  O14  1  0.28917526  0.27172132  0.96568947  1
  O  O15  1  0.20326324  0.77730053  0.54219662  1
  O  O16  1  0.58273201  0.99591056  0.75978723  1
  O  O17  1  0.93789830  0.46661787  0.74049783  1
  O  O18  1  0.41726800  0.00408945  0.24021286  1
  O  O19  1  0.06210172  0.53338215  0.25950226  1
