# generated using pymatgen
data_Li4Sn2WO12
_symmetry_space_group_name_H-M   'P 1'
_cell_length_a   5.92917299
_cell_length_b   6.05648327
_cell_length_c   6.07967186
_cell_angle_alpha   98.97940826
_cell_angle_beta   99.49198151
_cell_angle_gamma   98.93024445
_symmetry_Int_Tables_number   1
_chemical_formula_structural   Li4Sn2WO12
_chemical_formula_sum   'Li4 Sn2 W1 O12'
_cell_volume   208.99067676
_cell_formula_units_Z   1
loop_
 _symmetry_equiv_pos_site_id
 _symmetry_equiv_pos_as_xyz
  1  'x, y, z'
loop_
 _atom_site_type_symbol
 _atom_site_label
 _atom_site_symmetry_multiplicity
 _atom_site_fract_x
 _atom_site_fract_y
 _atom_site_fract_z
 _atom_site_occupancy
  Li  Li0  1  0.30236204  0.61540701  0.13434705  1
  Li  Li1  1  0.85695604  0.68027402  0.39138806  1
  Li  Li2  1  0.39343005  0.86065702  0.68469606  1
  Li  Li3  1  0.69389903  0.38768401  0.86841102  1
  Sn  Sn4  1  0.00243506  0.99592002  0.99004106  1
  Sn  Sn5  1  0.14350502  0.32501201  0.60901102  1
  W  W6  1  0.61484901  0.14293400  0.31712801  1
  O  O7  1  0.93991401  0.10664400  0.32002601  1
  O  O8  1  0.32294206  0.97116502  0.10488108  1
  O  O9  1  0.08967202  0.31135801  0.92213901  1
  O  O10  1  0.04755905  0.89686302  0.69184206  1
  O  O11  1  0.68809401  0.04933200  0.91187200  1
  O  O12  1  0.92489205  0.68881502  0.06072006  1
  O  O13  1  0.41617804  0.57547101  0.82234503  1
  O  O14  1  0.81897303  0.40398801  0.57563803  1
  O  O15  1  0.57695105  0.83431102  0.41313606  1
  O  O16  1  0.57922703  0.40861301  0.18800404  1
  O  O17  1  0.18169003  0.56136601  0.42892904  1
  O  O18  1  0.40647201  0.18418600  0.56544601  1
