# generated using pymatgen
data_KNaTl4F14
_symmetry_space_group_name_H-M   'P 1'
_cell_length_a   5.92319345
_cell_length_b   5.92319345
_cell_length_c   8.59899139
_cell_angle_alpha   90.00000000
_cell_angle_beta   90.00000000
_cell_angle_gamma   90.00000000
_symmetry_Int_Tables_number   1
_chemical_formula_structural   KNaTl4F14
_chemical_formula_sum   'K1 Na1 Tl4 F14'
_cell_volume   301.68891189
_cell_formula_units_Z   1
loop_
 _symmetry_equiv_pos_site_id
 _symmetry_equiv_pos_as_xyz
  1  'x, y, z'
loop_
 _atom_site_type_symbol
 _atom_site_label
 _atom_site_symmetry_multiplicity
 _atom_site_fract_x
 _atom_site_fract_y
 _atom_site_fract_z
 _atom_site_occupancy
  Na  Na0  1  0.50000000  0.00000000  0.25000001  1
  K  K1  1  -0.00000000  0.50000000  0.75000003  1
  Tl  Tl2  1  -0.00000000  0.50000000  0.25000001  1
  Tl  Tl3  1  0.50000000  0.00000000  0.75000003  1
  Tl  Tl4  1  0.00000000  0.00000000  0.50000002  1
  Tl  Tl5  1  0.50000000  0.50000000  0.00000000  1
  F  F6  1  0.00000000  0.00000000  0.00000000  1
  F  F7  1  0.50000000  0.50000000  0.50000002  1
  F  F8  1  0.00000000  0.00000000  0.24503989  1
  F  F9  1  0.50000000  0.50000000  0.25496013  1
  F  F10  1  0.00000000  0.00000000  0.75496015  1
  F  F11  1  0.50000000  0.50000000  0.74503991  1
  F  F12  1  0.31936198  0.16485242  0.98949955  1
  F  F13  1  0.68063803  0.83514759  0.98949955  1
  F  F14  1  0.83514759  0.31936198  0.01050048  1
  F  F15  1  0.16485242  0.68063803  0.01050048  1
  F  F16  1  0.81936199  0.33514758  0.48949954  1
  F  F17  1  0.18063802  0.66485243  0.48949954  1
  F  F18  1  0.33514758  0.18063802  0.51050050  1
  F  F19  1  0.66485243  0.81936199  0.51050050  1
