# generated using pymatgen
data_RbAuF4
_symmetry_space_group_name_H-M   'P 1'
_cell_length_a   6.28141022
_cell_length_b   7.09123278
_cell_length_c   6.28141022
_cell_angle_alpha   63.71095657
_cell_angle_beta   90.00000000
_cell_angle_gamma   116.28903961
_symmetry_Int_Tables_number   1
_chemical_formula_structural   RbAuF4
_chemical_formula_sum   'Rb2 Au2 F8'
_cell_volume   218.10891191
_cell_formula_units_Z   2
loop_
 _symmetry_equiv_pos_site_id
 _symmetry_equiv_pos_as_xyz
  1  'x, y, z'
loop_
 _atom_site_type_symbol
 _atom_site_label
 _atom_site_symmetry_multiplicity
 _atom_site_fract_x
 _atom_site_fract_y
 _atom_site_fract_z
 _atom_site_occupancy
  Rb  Rb0  1  0.24999996  0.49999998  0.74999997  1
  Rb  Rb1  1  0.74999995  0.49999998  0.24999999  1
  Au  Au2  1  0.49999998  0.00000000  0.99999996  1
  Au  Au3  1  -0.00000006  0.99999995  0.49999997  1
  F  F4  1  0.96726195  0.25607599  0.21118599  1
  F  F5  1  0.71118593  0.74392397  0.46726197  1
  F  F6  1  0.03273796  0.74392397  0.78881396  1
  F  F7  1  0.53273794  0.74392397  0.96726196  1
  F  F8  1  0.28881398  0.25607599  0.53273798  1
  F  F9  1  0.78881396  0.25607599  0.71118597  1
  F  F10  1  0.46726197  0.25607599  0.03273800  1
  F  F11  1  0.21118595  0.74392397  0.28881398  1
