# generated using pymatgen
data_Cu(AgBi)2
_symmetry_space_group_name_H-M   'P 1'
_cell_length_a   5.72980356
_cell_length_b   5.73028135
_cell_length_c   5.73028135
_cell_angle_alpha   89.84558868
_cell_angle_beta   90.15806580
_cell_angle_gamma   89.84193420
_symmetry_Int_Tables_number   1
_chemical_formula_structural   Cu(AgBi)2
_chemical_formula_sum   'Cu1 Ag2 Bi2'
_cell_volume   188.14242343
_cell_formula_units_Z   1
loop_
 _symmetry_equiv_pos_site_id
 _symmetry_equiv_pos_as_xyz
  1  'x, y, z'
loop_
 _atom_site_type_symbol
 _atom_site_label
 _atom_site_symmetry_multiplicity
 _atom_site_fract_x
 _atom_site_fract_y
 _atom_site_fract_z
 _atom_site_occupancy
  Ag  Ag0  1  0.99582703  0.00198800  0.99801196  1
  Cu  Cu1  1  0.48721902  0.50005298  0.49994700  1
  Ag  Ag2  1  0.48280001  0.00011100  0.49576498  1
  Bi  Bi3  1  0.98698303  0.49289299  0.50710699  1
  Bi  Bi4  1  0.48280002  0.50423498  0.99988898  1
