# generated using pymatgen
data_LiCuS2
_symmetry_space_group_name_H-M   'P 1'
_cell_length_a   6.51110506
_cell_length_b   6.84399223
_cell_length_c   7.83386803
_cell_angle_alpha   90.00000000
_cell_angle_beta   90.00000000
_cell_angle_gamma   90.00000000
_symmetry_Int_Tables_number   1
_chemical_formula_structural   LiCuS2
_chemical_formula_sum   'Li4 Cu4 S8'
_cell_volume   349.09245462
_cell_formula_units_Z   4
loop_
 _symmetry_equiv_pos_site_id
 _symmetry_equiv_pos_as_xyz
  1  'x, y, z'
loop_
 _atom_site_type_symbol
 _atom_site_label
 _atom_site_symmetry_multiplicity
 _atom_site_fract_x
 _atom_site_fract_y
 _atom_site_fract_z
 _atom_site_occupancy
  Li  Li0  1  0.65660299  0.34937699  0.50000000  1
  Li  Li1  1  0.15660300  0.65062298  0.00000000  1
  Li  Li2  1  0.16316800  0.17412199  0.74716700  1
  Li  Li3  1  0.16316800  0.17412199  0.25283300  1
  Cu  Cu4  1  0.66316799  0.82587797  0.75283300  1
  Cu  Cu5  1  0.66316799  0.82587797  0.24716700  1
  Cu  Cu6  1  0.15525000  0.67028698  0.50000000  1
  Cu  Cu7  1  0.65524999  0.32971299  -0.00000000  1
  S  S8  1  0.03950500  0.35006199  0.50000000  1
  S  S9  1  0.53950499  0.64993798  0.00000000  1
  S  S10  1  0.51322500  0.68270298  0.50000000  1
  S  S11  1  0.01322500  0.31729699  0.00000000  1
  S  S12  1  0.53509000  0.16243399  0.75984700  1
  S  S13  1  0.53509000  0.16243399  0.24015300  1
  S  S14  1  0.03509000  0.83756597  0.74015300  1
  S  S15  1  0.03509000  0.83756597  0.25984700  1
