# generated using pymatgen
data_Cs3FeO3
_symmetry_space_group_name_H-M   'P 1'
_cell_length_a   7.21986866
_cell_length_b   7.28755617
_cell_length_c   7.28755617
_cell_angle_alpha   64.27918243
_cell_angle_beta   84.71222687
_cell_angle_gamma   95.28777313
_symmetry_Int_Tables_number   1
_chemical_formula_structural   Cs3FeO3
_chemical_formula_sum   'Cs6 Fe2 O6'
_cell_volume   340.22218514
_cell_formula_units_Z   2
loop_
 _symmetry_equiv_pos_site_id
 _symmetry_equiv_pos_as_xyz
  1  'x, y, z'
loop_
 _atom_site_type_symbol
 _atom_site_label
 _atom_site_symmetry_multiplicity
 _atom_site_fract_x
 _atom_site_fract_y
 _atom_site_fract_z
 _atom_site_occupancy
  Cs  Cs0  1  0.49999993  0.79959500  0.79959499  1
  Cs  Cs1  1  -0.00000005  0.73806600  0.73806596  1
  Cs  Cs2  1  0.64526096  0.36564300  0.63435701  1
  Cs  Cs3  1  0.35473895  0.63435700  0.36564299  1
  Cs  Cs4  1  -0.00000002  0.26193400  0.26193399  1
  Cs  Cs5  1  0.49999997  0.20040500  0.20040502  1
  Fe  Fe6  1  0.14749698  0.17367300  0.82632699  1
  Fe  Fe7  1  0.85250292  0.82632700  0.17367301  1
  O  O8  1  0.26711896  0.43772600  0.83745099  1
  O  O9  1  0.84587497  0.09943900  0.90056103  1
  O  O10  1  0.73288092  0.83745100  0.43772600  1
  O  O11  1  0.26711898  0.16254900  0.56227400  1
  O  O12  1  0.15412493  0.90056100  0.09943897  1
  O  O13  1  0.73288094  0.56227400  0.16254902  1
