# generated using pymatgen
data_Ba2CaLa5Se8
_symmetry_space_group_name_H-M   'P 1'
_cell_length_a   8.58930969
_cell_length_b   8.99540234
_cell_length_c   8.58930969
_cell_angle_alpha   118.51753998
_cell_angle_beta   90.00000000
_cell_angle_gamma   118.51753998
_symmetry_Int_Tables_number   1
_chemical_formula_structural   Ba2CaLa5Se8
_chemical_formula_sum   'Ba2 Ca1 La5 Se8'
_cell_volume   489.53825461
_cell_formula_units_Z   1
loop_
 _symmetry_equiv_pos_site_id
 _symmetry_equiv_pos_as_xyz
  1  'x, y, z'
loop_
 _atom_site_type_symbol
 _atom_site_label
 _atom_site_symmetry_multiplicity
 _atom_site_fract_x
 _atom_site_fract_y
 _atom_site_fract_z
 _atom_site_occupancy
  Ba  Ba0  1  0.99991003  0.30621801  0.79949103  1
  Ba  Ba1  1  0.20050900  0.69378201  0.69369202  1
  La  La2  1  0.00000000  0.00000000  0.00000000  1
  La  La3  1  0.30630801  0.30621801  0.50672702  1
  Ca  Ca4  1  0.49327301  0.69378201  0.00009000  1
  La  La5  1  0.50672702  0.30621801  0.99991003  1
  La  La6  1  0.69369202  0.69378201  0.49327301  1
  La  La7  1  0.79949103  0.30621801  0.30630801  1
  Se  Se8  1  0.00009000  0.69378201  0.20050900  1
  Se  Se9  1  0.50000002  0.00000000  0.50000002  1
  Se  Se10  1  0.27275501  0.54551001  0.27275501  1
  Se  Se11  1  0.18003501  0.00000100  0.64858602  1
  Se  Se12  1  0.35141501  0.00000000  0.18003501  1
  Se  Se13  1  0.72724502  0.45449001  0.72724502  1
  Se  Se14  1  0.64858502  1.00000002  0.81996502  1
  Se  Se15  1  0.81996502  0.99999902  0.35141401  1
