# generated using pymatgen
data_CsMgNiF6
_symmetry_space_group_name_H-M   'P 1'
_cell_length_a   7.29168224
_cell_length_b   7.37603664
_cell_length_c   7.37603664
_cell_angle_alpha   60.31018829
_cell_angle_beta   60.37759399
_cell_angle_gamma   60.37759399
_symmetry_Int_Tables_number   1
_chemical_formula_structural   CsMgNiF6
_chemical_formula_sum   'Cs2 Mg2 Ni2 F12'
_cell_volume   282.77002778
_cell_formula_units_Z   2
loop_
 _symmetry_equiv_pos_site_id
 _symmetry_equiv_pos_as_xyz
  1  'x, y, z'
loop_
 _atom_site_type_symbol
 _atom_site_label
 _atom_site_symmetry_multiplicity
 _atom_site_fract_x
 _atom_site_fract_y
 _atom_site_fract_z
 _atom_site_occupancy
  Cs  Cs0  1  0.61574101  0.63886500  0.62965400  1
  Cs  Cs1  1  0.38425901  0.37034600  0.36113500  1
  Mg  Mg2  1  0.50000000  0.00417000  0.99583001  1
  Mg  Mg3  1  1.00000000  0.00417000  0.99583002  1
  Ni  Ni4  1  0.00002501  0.50420800  0.99574099  1
  Ni  Ni5  1  0.99997500  0.00425900  0.49579202  1
  F  F6  1  0.67492400  0.07921700  0.07093601  1
  F  F7  1  0.05867301  0.69551200  0.68714199  1
  F  F8  1  0.06607700  0.07089700  0.67529600  1
  F  F9  1  0.68773001  0.68363000  0.06256500  1
  F  F10  1  0.06607501  0.68363000  0.06256499  1
  F  F11  1  0.68773000  0.07089700  0.67529601  1
  F  F12  1  0.32507602  0.92906501  0.92078199  1
  F  F13  1  0.94132701  0.31285800  0.30448801  1
  F  F14  1  0.93392502  0.93743501  0.31637000  1
  F  F15  1  0.31227001  0.32470200  0.92910500  1
  F  F16  1  0.93392301  0.32470200  0.92910501  1
  F  F17  1  0.31227002  0.93743501  0.31636999  1
