# generated using pymatgen
data_ZrCd2Fe(PN2)2
_symmetry_space_group_name_H-M   'P 1'
_cell_length_a   3.66709208
_cell_length_b   3.66709208
_cell_length_c   12.75038910
_cell_angle_alpha   90.00000000
_cell_angle_beta   90.00000000
_cell_angle_gamma   120.00000000
_symmetry_Int_Tables_number   1
_chemical_formula_structural   ZrCd2Fe(PN2)2
_chemical_formula_sum   'Zr1 Cd2 Fe1 P2 N4'
_cell_volume   148.49016893
_cell_formula_units_Z   1
loop_
 _symmetry_equiv_pos_site_id
 _symmetry_equiv_pos_as_xyz
  1  'x, y, z'
loop_
 _atom_site_type_symbol
 _atom_site_label
 _atom_site_symmetry_multiplicity
 _atom_site_fract_x
 _atom_site_fract_y
 _atom_site_fract_z
 _atom_site_occupancy
  Zr  Zr0  1  0.00000000  0.00000000  0.00000000  1
  Fe  Fe1  1  0.00000000  0.00000000  0.50000000  1
  Cd  Cd2  1  0.66666666  0.33333334  0.74999999  1
  Cd  Cd3  1  0.33333334  0.66666669  0.25000000  1
  P  P4  1  0.66666666  0.33333334  0.92096399  1
  P  P5  1  0.66666666  0.33333334  0.57903600  1
  N  N6  1  0.00000000  0.00000000  0.74999999  1
  N  N7  1  0.00000000  0.00000000  0.25000000  1
  N  N8  1  0.33333334  0.66666669  0.07903600  1
  N  N9  1  0.33333334  0.66666669  0.42096400  1
