# generated using pymatgen
data_Sb2F9
_symmetry_space_group_name_H-M   'P 1'
_cell_length_a   4.16068888
_cell_length_b   6.83896589
_cell_length_c   6.83896589
_cell_angle_alpha   120.00000000
_cell_angle_beta   90.00000000
_cell_angle_gamma   90.00000000
_symmetry_Int_Tables_number   1
_chemical_formula_structural   Sb2F9
_chemical_formula_sum   'Sb2 F9'
_cell_volume   168.52981701
_cell_formula_units_Z   1
loop_
 _symmetry_equiv_pos_site_id
 _symmetry_equiv_pos_as_xyz
  1  'x, y, z'
loop_
 _atom_site_type_symbol
 _atom_site_label
 _atom_site_symmetry_multiplicity
 _atom_site_fract_x
 _atom_site_fract_y
 _atom_site_fract_z
 _atom_site_occupancy
  Sb  Sb0  1  1.00000003  1.00000000  0.35120697  1
  Sb  Sb1  1  1.00000003  0.35120700  -0.00000001  1
  F  F2  1  0.00000000  0.64879300  0.64879297  1
  F  F3  1  0.50000001  1.00000000  0.35773097  1
  F  F4  1  0.50000001  0.35773100  0.99999997  1
  F  F5  1  0.50000001  0.64226900  0.64226897  1
  F  F6  1  1.00000003  0.66666667  0.33333331  1
  F  F7  1  0.00000000  0.33333333  0.66666664  1
  F  F8  1  0.00000000  0.25171400  0.25171399  1
  F  F9  1  0.00000000  0.74828600  -0.00000002  1
  F  F10  1  1.00000003  1.00000000  0.74828596  1
