# generated using pymatgen
data_CsZnCuF6
_symmetry_space_group_name_H-M   'P 1'
_cell_length_a   7.34814548
_cell_length_b   7.34814548
_cell_length_c   7.34814548
_cell_angle_alpha   60.58812332
_cell_angle_beta   60.58812332
_cell_angle_gamma   60.58812714
_symmetry_Int_Tables_number   1
_chemical_formula_structural   CsZnCuF6
_chemical_formula_sum   'Cs2 Zn2 Cu2 F12'
_cell_volume   284.28200790
_cell_formula_units_Z   2
loop_
 _symmetry_equiv_pos_site_id
 _symmetry_equiv_pos_as_xyz
  1  'x, y, z'
loop_
 _atom_site_type_symbol
 _atom_site_label
 _atom_site_symmetry_multiplicity
 _atom_site_fract_x
 _atom_site_fract_y
 _atom_site_fract_z
 _atom_site_occupancy
  Cs  Cs0  1  0.36657398  0.36657400  0.36657400  1
  Cs  Cs1  1  0.63342597  0.63342599  0.63342599  1
  Zn  Zn2  1  0.00000000  0.00000000  0.00000000  1
  Zn  Zn3  1  -0.00000001  0.49999999  -0.00000000  1
  Cu  Cu4  1  0.00000000  0.00000000  0.50000000  1
  Cu  Cu5  1  0.49999999  0.00000000  -0.00000001  1
  F  F6  1  0.68762399  0.05939800  0.68762400  1
  F  F7  1  0.05882798  0.68762999  0.05882800  1
  F  F8  1  0.68762397  0.68762399  0.05939799  1
  F  F9  1  0.05882800  0.05882800  0.68763000  1
  F  F10  1  0.68762999  0.05882800  0.05882799  1
  F  F11  1  0.05939798  0.68762399  0.68762400  1
  F  F12  1  0.31237597  0.94060199  0.31237599  1
  F  F13  1  0.94117197  0.31237000  0.94117199  1
  F  F14  1  0.31237599  0.31237600  0.94060200  1
  F  F15  1  0.94117196  0.94117199  0.31236999  1
  F  F16  1  0.31236997  0.94117199  0.94117200  1
  F  F17  1  0.94060197  0.31237600  0.31237599  1
