# generated using pymatgen
data_Al2Ga2Ge2Br3Cl6O5
_symmetry_space_group_name_H-M   'P 1'
_cell_length_a   6.78761816
_cell_length_b   7.88196993
_cell_length_c   9.87880802
_cell_angle_alpha   90.00000000
_cell_angle_beta   91.95681763
_cell_angle_gamma   90.00000000
_symmetry_Int_Tables_number   1
_chemical_formula_structural   Al2Ga2Ge2Br3Cl6O5
_chemical_formula_sum   'Al2 Ga2 Ge2 Br3 Cl6 O5'
_cell_volume   528.20607020
_cell_formula_units_Z   1
loop_
 _symmetry_equiv_pos_site_id
 _symmetry_equiv_pos_as_xyz
  1  'x, y, z'
loop_
 _atom_site_type_symbol
 _atom_site_label
 _atom_site_symmetry_multiplicity
 _atom_site_fract_x
 _atom_site_fract_y
 _atom_site_fract_z
 _atom_site_occupancy
  Al  Al0  1  0.19071700  0.78508701  0.00655201  1
  Al  Al1  1  0.80928298  0.28508700  0.99344801  1
  Ga  Ga2  1  0.31433499  0.49286000  0.48073500  1
  Ga  Ga3  1  0.68566498  0.99286001  0.51926501  1
  Ge  Ge4  1  0.29676799  0.29782300  0.19660101  1
  Ge  Ge5  1  0.70323198  0.79782301  0.80339901  1
  Br  Br6  1  0.19697000  0.08035500  0.32763300  1
  Br  Br7  1  0.80302998  0.58035501  0.67236701  1
  Cl  Cl8  1  0.41052299  0.89372601  0.32877001  1
  Br  Br9  1  0.58947699  0.39372600  0.67123001  1
  Cl  Cl10  1  0.09162600  0.48001800  0.23226400  1
  Cl  Cl11  1  0.90837398  0.98001801  0.76773602  1
  Cl  Cl12  1  0.17415500  0.19401600  0.51763200  1
  Cl  Cl13  1  0.82584498  0.69401601  0.48236802  1
  Cl  Cl14  1  0.54939399  0.37348400  0.30378501  1
  O  O15  1  0.45060599  0.87348401  0.69621500  1
  O  O16  1  0.06187200  0.49290200  0.74694899  1
  O  O17  1  0.93812798  0.99290201  0.25305103  1
  O  O18  1  0.32583399  0.21871900  0.00884401  1
  O  O19  1  0.67416599  0.71871901  0.99115600  1
