# generated using pymatgen
data_K6Cu3O5
_symmetry_space_group_name_H-M   'P 1'
_cell_length_a   5.63469791
_cell_length_b   8.50241089
_cell_length_c   8.50237083
_cell_angle_alpha   120.00031281
_cell_angle_beta   90.00000000
_cell_angle_gamma   90.00000000
_symmetry_Int_Tables_number   1
_chemical_formula_structural   K6Cu3O5
_chemical_formula_sum   'K6 Cu3 O5'
_cell_volume   352.76219186
_cell_formula_units_Z   1
loop_
 _symmetry_equiv_pos_site_id
 _symmetry_equiv_pos_as_xyz
  1  'x, y, z'
loop_
 _atom_site_type_symbol
 _atom_site_label
 _atom_site_symmetry_multiplicity
 _atom_site_fract_x
 _atom_site_fract_y
 _atom_site_fract_z
 _atom_site_occupancy
  K  K0  1  0.75000001  0.08885200  0.73015100  1
  K  K1  1  0.75000001  0.26984601  0.35870601  1
  K  K2  1  0.75000001  0.64129702  0.91114703  1
  K  K3  1  0.25000000  0.91114803  0.26984905  1
  K  K4  1  0.25000000  0.73015402  0.64129404  1
  K  K5  1  0.25000000  0.35870301  0.08885302  1
  Cu  Cu6  1  0.25000000  0.33333334  0.66666668  1
  Cu  Cu7  1  0.75000001  0.66666669  0.33333337  1
  O  O8  1  0.25000000  0.12549500  0.68726501  1
  Cu  Cu9  1  0.25000000  0.31273801  0.43824202  1
  O  O10  1  0.25000000  0.56175902  0.87449203  1
  O  O11  1  0.75000001  0.87450503  0.31273504  1
  O  O12  1  0.75000001  0.68726202  0.56175803  1
  O  O13  1  0.75000001  0.43824101  0.12550802  1
