# generated using pymatgen
data_Ga4As4P3
_symmetry_space_group_name_H-M   'P 1'
_cell_length_a   5.45542908
_cell_length_b   5.45542908
_cell_length_c   6.36952305
_cell_angle_alpha   90.00000000
_cell_angle_beta   90.00000000
_cell_angle_gamma   90.00000000
_symmetry_Int_Tables_number   1
_chemical_formula_structural   Ga4As4P3
_chemical_formula_sum   'Ga4 As4 P3'
_cell_volume   189.56787498
_cell_formula_units_Z   1
loop_
 _symmetry_equiv_pos_site_id
 _symmetry_equiv_pos_as_xyz
  1  'x, y, z'
loop_
 _atom_site_type_symbol
 _atom_site_label
 _atom_site_symmetry_multiplicity
 _atom_site_fract_x
 _atom_site_fract_y
 _atom_site_fract_z
 _atom_site_occupancy
  Ga  Ga0  1  0.49999999  0.49999999  0.50000000  1
  Ga  Ga1  1  0.49999999  0.00000000  -0.00000000  1
  Ga  Ga2  1  0.00000000  0.49999999  0.00000000  1
  Ga  Ga3  1  0.74638799  0.74638799  0.20060800  1
  As  As4  1  0.74638799  0.25361200  0.79939199  1
  As  As5  1  0.74638799  0.74638799  0.79939199  1
  As  As6  1  0.74638799  0.25361200  0.20060800  1
  As  As7  1  0.25361200  0.74638799  0.20060800  1
  P  P8  1  0.25361200  0.74638799  0.79939199  1
  P  P9  1  0.25361200  0.25361200  0.20060800  1
  P  P10  1  0.25361200  0.25361200  0.79939199  1
