# generated using pymatgen
data_NaV2O3
_symmetry_space_group_name_H-M   'P 1'
_cell_length_a   6.23426485
_cell_length_b   6.23426485
_cell_length_c   6.23426485
_cell_angle_alpha   106.42443848
_cell_angle_beta   106.42443848
_cell_angle_gamma   115.75339508
_symmetry_Int_Tables_number   1
_chemical_formula_structural   NaV2O3
_chemical_formula_sum   'Na2 V4 O6'
_cell_volume   184.82374373
_cell_formula_units_Z   2
loop_
 _symmetry_equiv_pos_site_id
 _symmetry_equiv_pos_as_xyz
  1  'x, y, z'
loop_
 _atom_site_type_symbol
 _atom_site_label
 _atom_site_symmetry_multiplicity
 _atom_site_fract_x
 _atom_site_fract_y
 _atom_site_fract_z
 _atom_site_occupancy
  Na  Na0  1  0.00000000  0.00000000  0.00000000  1
  Na  Na1  1  0.74999996  0.24999998  0.49999994  1
  V  V2  1  0.49999992  0.49999996  -0.00000009  1
  V  V3  1  0.24999989  0.74999994  0.49999990  1
  V  V4  1  0.66573287  0.84341193  0.17767786  1
  V  V5  1  0.15658795  0.33426697  0.82232097  1
  O  O6  1  0.59341186  0.91573292  0.67767887  1
  O  O7  1  0.51194495  0.33426597  0.17767793  1
  O  O8  1  0.08426688  0.76194594  0.67767891  1
  O  O9  1  0.08426694  0.40658797  0.32232195  1
  O  O10  1  0.66573293  0.48805396  0.82232092  1
  O  O11  1  0.23805486  0.91573392  0.32232188  1
