# generated using pymatgen
data_MnF3
_symmetry_space_group_name_H-M   'P 1'
_cell_length_a   5.29272318
_cell_length_b   5.38929796
_cell_length_c   7.54842901
_cell_angle_alpha   90.00000000
_cell_angle_beta   90.00000000
_cell_angle_gamma   90.00000000
_symmetry_Int_Tables_number   1
_chemical_formula_structural   MnF3
_chemical_formula_sum   'Mn4 F12'
_cell_volume   215.31185898
_cell_formula_units_Z   4
loop_
 _symmetry_equiv_pos_site_id
 _symmetry_equiv_pos_as_xyz
  1  'x, y, z'
loop_
 _atom_site_type_symbol
 _atom_site_label
 _atom_site_symmetry_multiplicity
 _atom_site_fract_x
 _atom_site_fract_y
 _atom_site_fract_z
 _atom_site_occupancy
  Mn  Mn0  1  0.49999998  0.00000000  -0.00000000  1
  Mn  Mn1  1  -0.00000000  0.50000000  -0.00000000  1
  Mn  Mn2  1  -0.00000000  0.50000000  0.50000000  1
  Mn  Mn3  1  0.49999998  0.00000000  0.50000000  1
  F  F4  1  0.71537198  0.28413900  0.46368100  1
  F  F5  1  0.21537199  0.21586100  0.53631900  1
  F  F6  1  0.78462797  0.78413901  0.03631900  1
  F  F7  1  0.28462799  0.71586101  0.96368100  1
  F  F8  1  0.28462799  0.71586101  0.53631900  1
  F  F9  1  0.78462797  0.78413901  0.46368100  1
  F  F10  1  0.21537199  0.21586100  0.96368100  1
  F  F11  1  0.71537198  0.28413900  0.03631900  1
  F  F12  1  0.07164100  0.49123300  0.25000000  1
  F  F13  1  0.57164098  0.00876700  0.75000000  1
  F  F14  1  0.42835899  0.99123301  0.25000000  1
  F  F15  1  0.92835897  0.50876700  0.75000000  1
