# generated using pymatgen
data_Bi4(TeSe)3
_symmetry_space_group_name_H-M   'P 1'
_cell_length_a   4.20989799
_cell_length_b   7.28556728
_cell_length_c   10.37550735
_cell_angle_alpha   96.57557678
_cell_angle_beta   101.70523071
_cell_angle_gamma   90.00000000
_symmetry_Int_Tables_number   1
_chemical_formula_structural   Bi4(TeSe)3
_chemical_formula_sum   'Bi4 Te3 Se3'
_cell_volume   309.47625646
_cell_formula_units_Z   1
loop_
 _symmetry_equiv_pos_site_id
 _symmetry_equiv_pos_as_xyz
  1  'x, y, z'
loop_
 _atom_site_type_symbol
 _atom_site_label
 _atom_site_symmetry_multiplicity
 _atom_site_fract_x
 _atom_site_fract_y
 _atom_site_fract_z
 _atom_site_occupancy
  Bi  Bi0  1  0.09098798  0.70076800  0.18197596  1
  Bi  Bi1  1  0.59233299  0.19223000  0.18466598  1
  Bi  Bi2  1  0.41126797  0.80319800  0.82253593  1
  Bi  Bi3  1  0.91031698  0.30391400  0.82063395  1
  Te  Te4  1  0.17913999  0.39021100  0.35827997  1
  Te  Te5  1  0.82294497  0.60979900  0.64588994  1
  Te  Te6  1  0.32369699  0.10648000  0.64739397  1
  Se  Se7  1  0.50326598  0.50200500  0.00653197  1
  Se  Se8  1  0.00046900  0.00015800  0.00093800  1
  Se  Se9  1  0.66557597  0.89123700  0.33115194  1
