# generated using pymatgen
data_TlPbCl3
_symmetry_space_group_name_H-M   'P 1'
_cell_length_a   7.82451391
_cell_length_b   8.06197739
_cell_length_c   14.89742947
_cell_angle_alpha   90.00000000
_cell_angle_beta   90.00000000
_cell_angle_gamma   119.03033447
_symmetry_Int_Tables_number   1
_chemical_formula_structural   TlPbCl3
_chemical_formula_sum   'Tl4 Pb4 Cl12'
_cell_volume   821.67865770
_cell_formula_units_Z   4
loop_
 _symmetry_equiv_pos_site_id
 _symmetry_equiv_pos_as_xyz
  1  'x, y, z'
loop_
 _atom_site_type_symbol
 _atom_site_label
 _atom_site_symmetry_multiplicity
 _atom_site_fract_x
 _atom_site_fract_y
 _atom_site_fract_z
 _atom_site_occupancy
  Tl  Tl0  1  0.90970800  0.24677600  0.37667699  1
  Tl  Tl1  1  0.09029198  0.75322400  0.87667697  1
  Tl  Tl2  1  0.33706800  0.24677600  0.37667699  1
  Tl  Tl3  1  0.66293199  0.75322400  0.87667697  1
  Pb  Pb4  1  0.22759098  0.96816200  0.02796200  1
  Pb  Pb5  1  0.73448400  0.46896800  0.44822699  1
  Pb  Pb6  1  0.74057098  0.96816200  0.02796200  1
  Pb  Pb7  1  0.48770498  0.97541000  0.80494897  1
  Cl  Cl8  1  0.25386599  0.50773200  0.46042899  1
  Cl  Cl9  1  0.77240901  0.03183800  0.52796198  1
  Cl  Cl10  1  0.52536899  0.53514600  0.72636898  1
  Cl  Cl11  1  0.00721500  0.01443000  0.79307898  1
  Cl  Cl12  1  0.74613400  0.49226800  0.96042897  1
  Cl  Cl13  1  0.00977699  0.53514600  0.72636898  1
  Cl  Cl14  1  0.47463099  0.46485400  0.22636899  1
  Cl  Cl15  1  0.99022300  0.46485400  0.22636899  1
  Cl  Cl16  1  0.51229501  0.02459000  0.30494899  1
  Cl  Cl17  1  0.99278498  0.98557000  0.29307899  1
  Cl  Cl18  1  0.25942900  0.03183800  0.52796198  1
  Cl  Cl19  1  0.26551599  0.53103200  0.94822697  1
