# generated using pymatgen
data_SbTeO6
_symmetry_space_group_name_H-M   'P 1'
_cell_length_a   5.40001822
_cell_length_b   5.44034004
_cell_length_c   7.79665756
_cell_angle_alpha   89.52433014
_cell_angle_beta   89.10702515
_cell_angle_gamma   87.86537170
_symmetry_Int_Tables_number   1
_chemical_formula_structural   SbTeO6
_chemical_formula_sum   'Sb2 Te2 O12'
_cell_volume   228.85612366
_cell_formula_units_Z   2
loop_
 _symmetry_equiv_pos_site_id
 _symmetry_equiv_pos_as_xyz
  1  'x, y, z'
loop_
 _atom_site_type_symbol
 _atom_site_label
 _atom_site_symmetry_multiplicity
 _atom_site_fract_x
 _atom_site_fract_y
 _atom_site_fract_z
 _atom_site_occupancy
  Te  Te0  1  0.47727198  0.98955804  0.97529002  1
  Sb  Sb1  1  0.96781996  0.48131002  0.98504304  1
  Te  Te2  1  0.97867496  0.48677902  0.47495103  1
  Sb  Sb3  1  0.46175598  0.99663304  0.48530802  1
  O  O4  1  0.28804199  0.28684301  0.53918901  1
  O  O5  1  0.78872497  0.22691001  0.47339903  1
  O  O6  1  0.23256499  0.78156403  0.97453802  1
  O  O7  1  0.73531297  0.73018803  0.03787202  1
  O  O8  1  0.73615097  0.73144403  0.48224902  1
  O  O9  1  0.22850899  0.78270903  0.53242101  1
  O  O10  1  0.78637497  0.22246901  0.03367602  1
  O  O11  1  0.29010999  0.28201401  0.98143802  1
  O  O12  1  0.94877696  0.49332902  0.75832803  1
  O  O13  1  0.44772098  0.00903000  0.25838801  1
  O  O14  1  0.06655200  0.50684002  0.25392900  1
  O  O15  1  0.56564097  0.99237704  0.75397702  1
