# generated using pymatgen
data_KMgCdH2O
_symmetry_space_group_name_H-M   'P 1'
_cell_length_a   3.93668294
_cell_length_b   4.01334381
_cell_length_c   5.80570745
_cell_angle_alpha   69.77926636
_cell_angle_beta   90.00000000
_cell_angle_gamma   90.00000000
_symmetry_Int_Tables_number   1
_chemical_formula_structural   KMgCdH2O
_chemical_formula_sum   'K1 Mg1 Cd1 H2 O1'
_cell_volume   86.07264428
_cell_formula_units_Z   1
loop_
 _symmetry_equiv_pos_site_id
 _symmetry_equiv_pos_as_xyz
  1  'x, y, z'
loop_
 _atom_site_type_symbol
 _atom_site_label
 _atom_site_symmetry_multiplicity
 _atom_site_fract_x
 _atom_site_fract_y
 _atom_site_fract_z
 _atom_site_occupancy
  K  K0  1  0.76280901  0.64304302  0.71391400  1
  Cd  Cd1  1  0.26280900  0.35695701  0.28608600  1
  Mg  Mg2  1  0.89834101  0.96098404  0.07803202  1
  H  H3  1  0.39834101  0.03901600  0.92196799  1
  O  O4  1  0.74426501  0.88980303  0.22039401  1
  H  H5  1  0.24426500  0.11019700  0.77960599  1
