# generated using pymatgen
data_V3O4
_symmetry_space_group_name_H-M   'P 1'
_cell_length_a   2.92492890
_cell_length_b   4.92362690
_cell_length_c   9.30053997
_cell_angle_alpha   90.00000000
_cell_angle_beta   90.00000000
_cell_angle_gamma   90.00000000
_symmetry_Int_Tables_number   1
_chemical_formula_structural   V3O4
_chemical_formula_sum   'V6 O8'
_cell_volume   133.93948151
_cell_formula_units_Z   2
loop_
 _symmetry_equiv_pos_site_id
 _symmetry_equiv_pos_as_xyz
  1  'x, y, z'
loop_
 _atom_site_type_symbol
 _atom_site_label
 _atom_site_symmetry_multiplicity
 _atom_site_fract_x
 _atom_site_fract_y
 _atom_site_fract_z
 _atom_site_occupancy
  V  V0  1  0.50000002  0.98244802  0.28946500  1
  V  V1  1  0.50000002  0.01755200  0.71053500  1
  V  V2  1  0.50000002  0.48244801  0.21053500  1
  V  V3  1  0.50000002  0.51755201  0.78946500  1
  V  V4  1  -0.00000000  0.50000001  0.50000000  1
  V  V5  1  0.00000000  0.00000000  0.00000000  1
  O  O6  1  0.50000002  0.70598801  0.58711000  1
  O  O7  1  0.50000002  0.29401201  0.41289000  1
  O  O8  1  0.50000002  0.20598800  0.91289000  1
  O  O9  1  0.50000002  0.79401202  0.08711000  1
  O  O10  1  -0.00000000  0.71785701  0.32298400  1
  O  O11  1  -0.00000000  0.28214301  0.67701600  1
  O  O12  1  -0.00000000  0.21785700  0.17701600  1
  O  O13  1  -0.00000000  0.78214302  0.82298400  1
