# generated using pymatgen
data_K2Br3
_symmetry_space_group_name_H-M   'P 1'
_cell_length_a   4.62362814
_cell_length_b   7.99887609
_cell_length_c   11.76035786
_cell_angle_alpha   90.00000000
_cell_angle_beta   90.00000000
_cell_angle_gamma   106.79913330
_symmetry_Int_Tables_number   1
_chemical_formula_structural   K2Br3
_chemical_formula_sum   'K4 Br6'
_cell_volume   416.38137247
_cell_formula_units_Z   2
loop_
 _symmetry_equiv_pos_site_id
 _symmetry_equiv_pos_as_xyz
  1  'x, y, z'
loop_
 _atom_site_type_symbol
 _atom_site_label
 _atom_site_symmetry_multiplicity
 _atom_site_fract_x
 _atom_site_fract_y
 _atom_site_fract_z
 _atom_site_occupancy
  K  K0  1  0.00000000  0.00000000  0.00000000  1
  K  K1  1  0.00000000  0.00000000  0.50000001  1
  K  K2  1  0.75052494  0.50105000  0.75000001  1
  K  K3  1  0.24947496  0.49895000  0.25000000  1
  Br  Br4  1  0.36475394  0.72950800  0.94551901  1
  Br  Br5  1  0.63524596  0.27049200  0.05448100  1
  Br  Br6  1  0.63524596  0.27049200  0.44551901  1
  Br  Br7  1  0.36475394  0.72950800  0.55448101  1
  Br  Br8  1  0.07738399  0.15476800  0.75000001  1
  Br  Br9  1  0.92261592  0.84523200  0.25000000  1
