# generated using pymatgen
data_Li3MoWO8
_symmetry_space_group_name_H-M   'P 1'
_cell_length_a   5.93684149
_cell_length_b   5.94529629
_cell_length_c   6.00421238
_cell_angle_alpha   92.56945038
_cell_angle_beta   117.30196381
_cell_angle_gamma   118.66677856
_symmetry_Int_Tables_number   1
_chemical_formula_structural   Li3MoWO8
_chemical_formula_sum   'Li3 Mo1 W1 O8'
_cell_volume   155.40837399
_cell_formula_units_Z   1
loop_
 _symmetry_equiv_pos_site_id
 _symmetry_equiv_pos_as_xyz
  1  'x, y, z'
loop_
 _atom_site_type_symbol
 _atom_site_label
 _atom_site_symmetry_multiplicity
 _atom_site_fract_x
 _atom_site_fract_y
 _atom_site_fract_z
 _atom_site_occupancy
  Li  Li0  1  0.00000003  0.50000002  0.49999997  1
  Li  Li1  1  0.50000001  0.50000002  0.49999997  1
  Li  Li2  1  0.00000000  0.00000000  0.00000000  1
  W  W3  1  1.00000002  1.00000004  0.49999995  1
  Mo  Mo4  1  0.50000001  0.50000002  0.99999996  1
  O  O5  1  0.50218100  0.29097701  0.74099698  1
  O  O6  1  0.49781902  0.70902303  0.25900297  1
  O  O7  1  0.93767001  0.75183603  0.69009996  1
  O  O8  1  0.06233001  0.24816401  0.30989999  1
  O  O9  1  0.50053900  0.26619501  0.21782098  1
  O  O10  1  0.95598401  0.74530903  0.24030996  1
  O  O11  1  0.49946102  0.73380503  0.78217896  1
  O  O12  1  0.04401601  0.25469101  0.75968998  1
