# generated using pymatgen
data_LaCrTeO6
_symmetry_space_group_name_H-M   'P 1'
_cell_length_a   6.07858992
_cell_length_b   6.07858992
_cell_length_c   6.21345520
_cell_angle_alpha   90.00000000
_cell_angle_beta   90.00000000
_cell_angle_gamma   90.00000000
_symmetry_Int_Tables_number   1
_chemical_formula_structural   LaCrTeO6
_chemical_formula_sum   'La2 Cr2 Te2 O12'
_cell_volume   229.58254292
_cell_formula_units_Z   2
loop_
 _symmetry_equiv_pos_site_id
 _symmetry_equiv_pos_as_xyz
  1  'x, y, z'
loop_
 _atom_site_type_symbol
 _atom_site_label
 _atom_site_symmetry_multiplicity
 _atom_site_fract_x
 _atom_site_fract_y
 _atom_site_fract_z
 _atom_site_occupancy
  La  La0  1  0.50000001  0.00000000  0.74999998  1
  La  La1  1  0.50000001  0.00000000  0.24999999  1
  Cr  Cr2  1  0.00000000  0.50000001  0.74999998  1
  Cr  Cr3  1  0.00000000  0.50000001  0.24999999  1
  Te  Te4  1  0.50000001  0.50000001  0.49999998  1
  Te  Te5  1  0.00000000  0.00000000  0.00000000  1
  O  O6  1  0.69945401  0.93907801  0.00000000  1
  O  O7  1  0.56092201  0.80054601  0.49999998  1
  O  O8  1  0.50000001  0.50000001  0.21078199  1
  O  O9  1  0.50000001  0.50000001  0.78921797  1
  O  O10  1  0.93907801  0.30054600  -0.00000000  1
  O  O11  1  0.80054601  0.43907801  0.49999998  1
  O  O12  1  0.19945400  0.56092201  0.49999998  1
  O  O13  1  0.06092200  0.69945401  0.00000000  1
  O  O14  1  0.00000000  0.00000000  0.71078198  1
  O  O15  1  0.00000000  0.00000000  0.28921799  1
  O  O16  1  0.30054600  0.06092200  -0.00000000  1
  O  O17  1  0.43907801  0.19945400  0.49999998  1
