# generated using pymatgen
data_KRbZrNpTl2MoSe13
_symmetry_space_group_name_H-M   'P 1'
_cell_length_a   7.91369534
_cell_length_b   7.91369534
_cell_length_c   7.91369534
_cell_angle_alpha   109.47122192
_cell_angle_beta   109.47122192
_cell_angle_gamma   109.47122192
_symmetry_Int_Tables_number   1
_chemical_formula_structural   KRbZrNpTl2MoSe13
_chemical_formula_sum   'Rb1 K1 Zr1 Np1 Tl2 Mo1 Se13'
_cell_volume   381.51890973
_cell_formula_units_Z   1
loop_
 _symmetry_equiv_pos_site_id
 _symmetry_equiv_pos_as_xyz
  1  'x, y, z'
loop_
 _atom_site_type_symbol
 _atom_site_label
 _atom_site_symmetry_multiplicity
 _atom_site_fract_x
 _atom_site_fract_y
 _atom_site_fract_z
 _atom_site_occupancy
  Zr  Zr0  1  0.74999999  0.12500000  0.37500001  1
  Np  Np1  1  0.37500003  0.62500001  0.75000002  1
  Rb  Rb2  1  0.12500005  0.87500001  0.25000004  1
  K  K3  1  0.87500003  0.75000001  0.62500004  1
  Tl  Tl4  1  0.62500000  0.25000000  0.87500000  1
  Tl  Tl5  1  0.25000002  0.37500000  0.12500002  1
  Se  Se6  1  0.87499999  0.12500000  0.75000001  1
  Mo  Mo7  1  0.25000005  0.87500001  0.62500004  1
  Se  Se8  1  0.62500001  0.37500000  0.25000003  1
  Se  Se9  1  0.37500004  0.75000001  0.12500005  1
  Se  Se10  1  0.12500001  0.25000000  0.37500001  1
  Se  Se11  1  0.75000002  0.62500001  0.87500003  1
  Se  Se12  1  0.16535701  0.16535700  0.66535699  1
  Se  Se13  1  0.83464305  1.00000001  1.00000005  1
  Se  Se14  1  0.00000003  0.50000001  0.83464300  1
  Se  Se15  1  0.50000001  0.33464300  0.50000002  1
  Se  Se16  1  0.00000003  0.50000001  0.33464302  1
  Se  Se17  1  0.50000004  0.83464301  0.50000004  1
  Se  Se18  1  0.66535703  0.66535701  0.16535705  1
  Se  Se19  1  0.33464306  1.00000001  1.00000004  1
