# generated using pymatgen
data_Ba2LaO3
_symmetry_space_group_name_H-M   'P 1'
_cell_length_a   4.21505785
_cell_length_b   7.54876280
_cell_length_c   10.97762394
_cell_angle_alpha   90.00000000
_cell_angle_beta   90.00000000
_cell_angle_gamma   106.21178436
_symmetry_Int_Tables_number   1
_chemical_formula_structural   Ba2LaO3
_chemical_formula_sum   'Ba4 La2 O6'
_cell_volume   335.40210178
_cell_formula_units_Z   2
loop_
 _symmetry_equiv_pos_site_id
 _symmetry_equiv_pos_as_xyz
  1  'x, y, z'
loop_
 _atom_site_type_symbol
 _atom_site_label
 _atom_site_symmetry_multiplicity
 _atom_site_fract_x
 _atom_site_fract_y
 _atom_site_fract_z
 _atom_site_occupancy
  Ba  Ba0  1  0.00000000  0.00000000  0.50000000  1
  Ba  Ba1  1  0.00000000  0.00000000  0.00000000  1
  Ba  Ba2  1  0.74847598  0.49695200  0.75000000  1
  Ba  Ba3  1  0.25152396  0.50304800  0.25000000  1
  La  La4  1  0.46535793  0.93071601  0.75000000  1
  La  La5  1  0.53464201  0.06928400  0.25000000  1
  O  O6  1  0.36954594  0.73909201  0.56517200  1
  O  O7  1  0.63045400  0.26090800  0.43482800  1
  O  O8  1  0.36954594  0.73909201  0.93482801  1
  O  O9  1  0.63045400  0.26090800  0.06517200  1
  O  O10  1  0.06647299  0.13294600  0.75000000  1
  O  O11  1  0.93352695  0.86705401  0.25000000  1
