# generated using pymatgen
data_MgBeZn3SiC5N
_symmetry_space_group_name_H-M   'P 1'
_cell_length_a   4.90214396
_cell_length_b   4.90214396
_cell_length_c   6.41926432
_cell_angle_alpha   112.44712830
_cell_angle_beta   112.44712830
_cell_angle_gamma   90.00000000
_symmetry_Int_Tables_number   1
_chemical_formula_structural   MgBeZn3SiC5N
_chemical_formula_sum   'Mg1 Be1 Zn3 Si1 C5 N1'
_cell_volume   129.83742755
_cell_formula_units_Z   1
loop_
 _symmetry_equiv_pos_site_id
 _symmetry_equiv_pos_as_xyz
  1  'x, y, z'
loop_
 _atom_site_type_symbol
 _atom_site_label
 _atom_site_symmetry_multiplicity
 _atom_site_fract_x
 _atom_site_fract_y
 _atom_site_fract_z
 _atom_site_occupancy
  Mg  Mg0  1  0.37500005  0.62500003  0.25000007  1
  Zn  Zn1  1  0.62500005  0.37500002  0.75000007  1
  Zn  Zn2  1  0.87500004  0.12500001  0.25000006  1
  Zn  Zn3  1  0.12500006  0.87500004  0.75000008  1
  Si  Si4  1  0.69299005  0.37182002  0.41282207  1
  Be  Be5  1  0.21983201  0.04100100  0.41282202  1
  C  C6  1  0.37182103  0.21983201  0.91282205  1
  C  C7  1  0.04100205  0.69299003  0.91282206  1
  C  C8  1  0.30701005  0.62818003  0.58717807  1
  C  C9  1  0.78016809  0.95899905  0.58717812  1
  N  N10  1  0.62817907  0.78016804  0.08717809  1
  C  C11  1  0.95899805  0.30701001  0.08717808  1
