# generated using pymatgen
data_CaTiF8
_symmetry_space_group_name_H-M   'P 1'
_cell_length_a   5.89743233
_cell_length_b   5.89743233
_cell_length_c   5.89743137
_cell_angle_alpha   61.15391159
_cell_angle_beta   61.15391159
_cell_angle_gamma   61.15390396
_symmetry_Int_Tables_number   1
_chemical_formula_structural   CaTiF8
_chemical_formula_sum   'Ca1 Ti1 F8'
_cell_volume   148.80110014
_cell_formula_units_Z   1
loop_
 _symmetry_equiv_pos_site_id
 _symmetry_equiv_pos_as_xyz
  1  'x, y, z'
loop_
 _atom_site_type_symbol
 _atom_site_label
 _atom_site_symmetry_multiplicity
 _atom_site_fract_x
 _atom_site_fract_y
 _atom_site_fract_z
 _atom_site_occupancy
  Ca  Ca0  1  0.50000002  0.49999999  0.49999998  1
  Ti  Ti1  1  0.23632201  0.23632200  0.23632199  1
  F  F2  1  0.76367803  0.76367799  0.76367798  1
  F  F3  1  0.00000000  0.00000000  0.00000000  1
  F  F4  1  0.65461701  0.21704000  0.87190000  1
  F  F5  1  0.21704004  0.87189998  0.65461698  1
  F  F6  1  0.87190002  0.65461699  0.21703996  1
  F  F7  1  0.34538303  0.78295999  0.12809996  1
  F  F8  1  0.12810001  0.34538299  0.78296001  1
  F  F9  1  0.78296000  0.12810000  0.34538299  1
