# generated using pymatgen
data_CsBaHC2S2IBrN3(O2F)2
_symmetry_space_group_name_H-M   'P 1'
_cell_length_a   4.89584780
_cell_length_b   4.89584923
_cell_length_c   23.48484039
_cell_angle_alpha   90.00000000
_cell_angle_beta   90.00000000
_cell_angle_gamma   119.99999237
_symmetry_Int_Tables_number   1
_chemical_formula_structural   CsBaHC2S2IBrN3(O2F)2
_chemical_formula_sum   'Cs1 Ba1 H1 C2 S2 I1 Br1 N3 O4 F2'
_cell_volume   487.49955195
_cell_formula_units_Z   1
loop_
 _symmetry_equiv_pos_site_id
 _symmetry_equiv_pos_as_xyz
  1  'x, y, z'
loop_
 _atom_site_type_symbol
 _atom_site_label
 _atom_site_symmetry_multiplicity
 _atom_site_fract_x
 _atom_site_fract_y
 _atom_site_fract_z
 _atom_site_occupancy
  Cs  Cs0  1  1.00000004  0.30050399  0.33333334  1
  Ba  Ba1  1  0.69949603  0.69949598  0.66666668  1
  S  S2  1  0.30050401  0.00000000  0.00000000  1
  S  S3  1  0.01999700  0.30191199  0.78362902  1
  H  H4  1  0.69808803  0.71808498  0.11696200  1
  C  C5  1  0.28191501  0.98000297  0.45029601  1
  O  O6  1  0.98000304  0.28191499  0.88303802  1
  C  C7  1  0.71808503  0.69808798  0.21637101  1
  I  I8  1  0.30191201  0.01999700  0.54970401  1
  N  N9  1  1.00000004  0.18088399  0.83333302  1
  N  N10  1  0.81911603  0.81911597  0.16666700  1
  N  N11  1  0.18088401  0.00000000  0.50000001  1
  O  O12  1  0.03825500  0.38218299  0.73538902  1
  Br  Br13  1  0.61781702  0.65607198  0.06872200  1
  O  O14  1  0.34392801  0.96174497  0.40205501  1
  O  O15  1  0.96174504  0.34392799  0.93127802  1
  F  F16  1  0.65607202  0.61781698  0.26461101  1
  F  F17  1  0.38218302  0.03825500  0.59794502  1
