# generated using pymatgen
data_HfZn(PO4)2
_symmetry_space_group_name_H-M   'P 1'
_cell_length_a   5.33619976
_cell_length_b   5.33619928
_cell_length_c   7.70731401
_cell_angle_alpha   90.00000000
_cell_angle_beta   90.00000000
_cell_angle_gamma   120.00000763
_symmetry_Int_Tables_number   1
_chemical_formula_structural   HfZn(PO4)2
_chemical_formula_sum   'Hf1 Zn1 P2 O8'
_cell_volume   190.06308362
_cell_formula_units_Z   1
loop_
 _symmetry_equiv_pos_site_id
 _symmetry_equiv_pos_as_xyz
  1  'x, y, z'
loop_
 _atom_site_type_symbol
 _atom_site_label
 _atom_site_symmetry_multiplicity
 _atom_site_fract_x
 _atom_site_fract_y
 _atom_site_fract_z
 _atom_site_occupancy
  Zn  Zn0  1  0.00000000  0.00000000  0.00000000  1
  Hf  Hf1  1  0.00000000  0.00000000  0.50000000  1
  P  P2  1  0.66666672  0.33333335  0.25841100  1
  P  P3  1  0.33333340  0.66666670  0.74158900  1
  O  O4  1  0.17593807  0.82406304  0.67004000  1
  O  O5  1  0.82406208  0.64812403  0.32996000  1
  O  O6  1  0.82406205  0.17593701  0.32996000  1
  O  O7  1  0.64812509  0.82406304  0.67004000  1
  O  O8  1  0.17593803  0.35187602  0.67004000  1
  O  O9  1  0.33333340  0.66666670  0.93868700  1
  O  O10  1  0.66666672  0.33333335  0.06131300  1
  O  O11  1  0.35187503  0.17593701  0.32996000  1
