# generated using pymatgen
data_Zn9S11
_symmetry_space_group_name_H-M   'P 1'
_cell_length_a   3.85405397
_cell_length_b   3.85405350
_cell_length_c   31.48751259
_cell_angle_alpha   90.00000000
_cell_angle_beta   90.00000000
_cell_angle_gamma   120.00000763
_symmetry_Int_Tables_number   1
_chemical_formula_structural   Zn9S11
_chemical_formula_sum   'Zn9 S11'
_cell_volume   405.04612676
_cell_formula_units_Z   1
loop_
 _symmetry_equiv_pos_site_id
 _symmetry_equiv_pos_as_xyz
  1  'x, y, z'
loop_
 _atom_site_type_symbol
 _atom_site_label
 _atom_site_symmetry_multiplicity
 _atom_site_fract_x
 _atom_site_fract_y
 _atom_site_fract_z
 _atom_site_occupancy
  Zn  Zn0  1  0.33333337  0.66666667  0.80000501  1
  Zn  Zn1  1  0.00000000  0.00000000  0.20001400  1
  Zn  Zn2  1  0.33333337  0.66666667  0.10001300  1
  Zn  Zn3  1  0.66666669  0.33333334  0.30000500  1
  Zn  Zn4  1  0.66666669  0.33333334  0.90000501  1
  Zn  Zn5  1  0.33333337  0.66666667  0.40000501  1
  Zn  Zn6  1  0.00000000  0.00000000  0.99998301  1
  Zn  Zn7  1  0.66666669  0.33333334  0.60001301  1
  Zn  Zn8  1  0.00000000  0.00000000  0.70001401  1
  S  S9  1  0.00000000  0.00000000  0.49998301  1
  S  S10  1  0.33333337  0.66666667  0.72499601  1
  S  S11  1  0.00000000  0.00000000  0.92499901  1
  S  S12  1  0.33333337  0.66666667  0.32499500  1
  S  S13  1  0.00000000  0.00000000  0.12505400  1
  S  S14  1  0.66666669  0.33333334  0.22499600  1
  S  S15  1  0.00000000  0.00000000  0.42499901  1
  S  S16  1  0.66666669  0.33333334  0.82499501  1
  S  S17  1  0.66666669  0.33333334  0.52493701  1
  S  S18  1  0.33333337  0.66666667  0.02493700  1
  S  S19  1  0.00000000  0.00000000  0.62505401  1
