# generated using pymatgen
data_Cs9Ba(H3Br2)2
_symmetry_space_group_name_H-M   'P 1'
_cell_length_a   9.02272701
_cell_length_b   10.85380173
_cell_length_c   10.85380173
_cell_angle_alpha   90.00000000
_cell_angle_beta   90.00000000
_cell_angle_gamma   90.00000000
_symmetry_Int_Tables_number   1
_chemical_formula_structural   Cs9Ba(H3Br2)2
_chemical_formula_sum   'Cs9 Ba1 H6 Br4'
_cell_volume   1062.92246341
_cell_formula_units_Z   1
loop_
 _symmetry_equiv_pos_site_id
 _symmetry_equiv_pos_as_xyz
  1  'x, y, z'
loop_
 _atom_site_type_symbol
 _atom_site_label
 _atom_site_symmetry_multiplicity
 _atom_site_fract_x
 _atom_site_fract_y
 _atom_site_fract_z
 _atom_site_occupancy
  Cs  Cs0  1  0.50000000  0.00000000  0.00000000  1
  Cs  Cs1  1  0.00000000  0.00000000  0.00000000  1
  Cs  Cs2  1  0.50000000  0.23313801  0.58812101  1
  Cs  Cs3  1  0.50000000  0.76686202  0.41187901  1
  Cs  Cs4  1  1.00000000  0.41187901  0.23313801  1
  Cs  Cs5  1  1.00000000  0.58812101  0.76686202  1
  Cs  Cs6  1  0.50000000  0.50000001  0.00000000  1
  Ba  Ba7  1  1.00000000  0.00000000  0.50000001  1
  Cs  Cs8  1  0.74923900  0.69941602  0.06150800  1
  Cs  Cs9  1  0.74923900  0.30058401  0.93849202  1
  Br  Br10  1  0.24923900  0.93849202  0.69941602  1
  Br  Br11  1  0.24923900  0.06150800  0.30058401  1
  Br  Br12  1  0.25076100  0.30058401  0.93849202  1
  Br  Br13  1  0.25076100  0.69941602  0.06150800  1
  H  H14  1  0.75076100  0.06150800  0.30058401  1
  H  H15  1  0.75076100  0.93849202  0.69941602  1
  H  H16  1  0.50000000  0.57096201  0.71705102  1
  H  H17  1  0.50000000  0.42903801  0.28294901  1
  H  H18  1  1.00000000  0.28294901  0.57096201  1
  H  H19  1  1.00000000  0.71705102  0.42903801  1
