# generated using pymatgen
data_SrTi2O6
_symmetry_space_group_name_H-M   'P 1'
_cell_length_a   5.39109993
_cell_length_b   5.39110041
_cell_length_c   5.87193394
_cell_angle_alpha   90.00000000
_cell_angle_beta   90.00000000
_cell_angle_gamma   120.00000000
_symmetry_Int_Tables_number   1
_chemical_formula_structural   SrTi2O6
_chemical_formula_sum   'Sr1 Ti2 O6'
_cell_volume   147.79733222
_cell_formula_units_Z   1
loop_
 _symmetry_equiv_pos_site_id
 _symmetry_equiv_pos_as_xyz
  1  'x, y, z'
loop_
 _atom_site_type_symbol
 _atom_site_label
 _atom_site_symmetry_multiplicity
 _atom_site_fract_x
 _atom_site_fract_y
 _atom_site_fract_z
 _atom_site_occupancy
  Sr  Sr0  1  0.00000000  0.00000000  0.00000000  1
  Ti  Ti1  1  0.33333337  0.66666668  0.50000001  1
  Ti  Ti2  1  0.66666669  0.33333334  0.50000001  1
  O  O3  1  0.61394506  1.00000002  0.30573000  1
  O  O4  1  0.38605502  0.38605501  0.30573000  1
  O  O5  1  1.00000004  0.61394501  0.30573000  1
  O  O6  1  0.61394504  0.61394501  0.69427001  1
  O  O7  1  1.00000003  0.38605501  0.69427001  1
  O  O8  1  0.38605505  1.00000002  0.69427001  1
