# generated using pymatgen
data_SrCaBr3
_symmetry_space_group_name_H-M   'P 1'
_cell_length_a   4.65819407
_cell_length_b   7.26054811
_cell_length_c   9.06471157
_cell_angle_alpha   90.00000000
_cell_angle_beta   104.88863373
_cell_angle_gamma   90.00000000
_symmetry_Int_Tables_number   1
_chemical_formula_structural   SrCaBr3
_chemical_formula_sum   'Sr2 Ca2 Br6'
_cell_volume   296.28527054
_cell_formula_units_Z   2
loop_
 _symmetry_equiv_pos_site_id
 _symmetry_equiv_pos_as_xyz
  1  'x, y, z'
loop_
 _atom_site_type_symbol
 _atom_site_label
 _atom_site_symmetry_multiplicity
 _atom_site_fract_x
 _atom_site_fract_y
 _atom_site_fract_z
 _atom_site_occupancy
  Sr  Sr0  1  0.47901399  0.72104099  0.95802804  1
  Sr  Sr1  1  0.52098599  0.22104100  0.04197200  1
  Ca  Ca2  1  0.69736099  0.53071399  0.39472201  1
  Ca  Ca3  1  0.30263899  0.03071400  0.60527802  1
  Br  Br4  1  0.90144198  0.39527999  0.80288403  1
  Br  Br5  1  0.09855800  0.89527999  0.19711601  1
  Br  Br6  1  0.32069799  0.51194599  0.64139603  1
  Br  Br7  1  0.67930199  0.01194600  0.35860401  1
  Br  Br8  1  0.06797900  0.49852899  0.13595801  1
  Br  Br9  1  0.93202098  0.99852898  0.86404203  1
