# generated using pymatgen
data_Sr2CoRuO6
_symmetry_space_group_name_H-M   'P 1'
_cell_length_a   5.70865393
_cell_length_b   5.75264788
_cell_length_c   7.80412817
_cell_angle_alpha   90.65056610
_cell_angle_beta   90.00000000
_cell_angle_gamma   90.00000000
_symmetry_Int_Tables_number   1
_chemical_formula_structural   Sr2CoRuO6
_chemical_formula_sum   'Sr4 Co2 Ru2 O12'
_cell_volume   256.27007983
_cell_formula_units_Z   2
loop_
 _symmetry_equiv_pos_site_id
 _symmetry_equiv_pos_as_xyz
  1  'x, y, z'
loop_
 _atom_site_type_symbol
 _atom_site_label
 _atom_site_symmetry_multiplicity
 _atom_site_fract_x
 _atom_site_fract_y
 _atom_site_fract_z
 _atom_site_occupancy
  Sr  Sr0  1  0.49406701  0.00175400  0.24941300  1
  Sr  Sr1  1  0.50593301  0.99824602  0.75058701  1
  Sr  Sr2  1  0.99406701  0.49824601  0.25058701  1
  Sr  Sr3  1  0.00593300  0.50175401  0.74941300  1
  Co  Co4  1  1.00000001  0.00000000  0.49999999  1
  Co  Co5  1  0.50000001  0.50000001  1.00000000  1
  Ru  Ru6  1  0.00000000  0.00000000  0.00000000  1
  Ru  Ru7  1  0.50000001  0.50000001  0.50000000  1
  O  O8  1  0.00361400  0.94606702  0.25695102  1
  O  O9  1  0.99638601  0.05393300  0.74304899  1
  O  O10  1  0.50361401  0.55393301  0.24304901  1
  O  O11  1  0.49638601  0.44606701  0.75695100  1
  O  O12  1  0.23758700  0.25188401  0.02939300  1
  O  O13  1  0.76241301  0.74811602  0.97060700  1
  O  O14  1  0.73758701  0.24811601  0.47060700  1
  O  O15  1  0.26241300  0.75188402  0.52939301  1
  O  O16  1  0.74569101  0.23497201  0.02994500  1
  O  O17  1  0.25430900  0.76502802  0.97005500  1
  O  O18  1  0.24569100  0.26502801  0.47005500  1
  O  O19  1  0.75430901  0.73497202  0.52994501  1
