# generated using pymatgen
data_Tl3In(SnI5)2
_symmetry_space_group_name_H-M   'P 1'
_cell_length_a   9.20791245
_cell_length_b   10.06203556
_cell_length_c   9.20791245
_cell_angle_alpha   117.22958374
_cell_angle_beta   90.00000000
_cell_angle_gamma   117.22958374
_symmetry_Int_Tables_number   1
_chemical_formula_structural   Tl3In(SnI5)2
_chemical_formula_sum   'Tl3 In1 Sn2 I10'
_cell_volume   650.43218033
_cell_formula_units_Z   1
loop_
 _symmetry_equiv_pos_site_id
 _symmetry_equiv_pos_as_xyz
  1  'x, y, z'
loop_
 _atom_site_type_symbol
 _atom_site_label
 _atom_site_symmetry_multiplicity
 _atom_site_fract_x
 _atom_site_fract_y
 _atom_site_fract_z
 _atom_site_occupancy
  In  In0  1  0.15602499  0.00000000  0.34397498  1
  Tl  Tl1  1  0.65602497  0.00000000  0.15602499  1
  Tl  Tl2  1  0.84397495  1.00000002  0.65602496  1
  Tl  Tl3  1  0.34397498  0.00000000  0.84397496  1
  Sn  Sn4  1  0.74999996  0.50000001  0.74999996  1
  Sn  Sn5  1  0.24999998  0.50000001  0.24999998  1
  I  I6  1  0.49999998  0.00000000  0.49999998  1
  I  I7  1  0.00000000  0.00000000  0.00000000  1
  I  I8  1  0.48728597  0.27583001  0.28854398  1
  I  I9  1  0.98728595  0.27583001  0.48728597  1
  I  I10  1  0.28854398  0.27583001  0.78854396  1
  I  I11  1  0.01271399  0.72417001  0.51271397  1
  I  I12  1  0.71145596  0.72417001  0.21145598  1
  I  I13  1  0.21145598  0.72417001  0.01271399  1
  I  I14  1  0.51271397  0.72417001  0.71145596  1
  I  I15  1  0.78854396  0.27583001  0.98728595  1
