# generated using pymatgen
data_Ca3La3(WO6)2
_symmetry_space_group_name_H-M   'P 1'
_cell_length_a   5.60329103
_cell_length_b   5.87336111
_cell_length_c   8.13002300
_cell_angle_alpha   90.00000000
_cell_angle_beta   89.52302551
_cell_angle_gamma   90.00000000
_symmetry_Int_Tables_number   1
_chemical_formula_structural   Ca3La3(WO6)2
_chemical_formula_sum   'Ca3 La3 W2 O12'
_cell_volume   267.55101881
_cell_formula_units_Z   1
loop_
 _symmetry_equiv_pos_site_id
 _symmetry_equiv_pos_as_xyz
  1  'x, y, z'
loop_
 _atom_site_type_symbol
 _atom_site_label
 _atom_site_symmetry_multiplicity
 _atom_site_fract_x
 _atom_site_fract_y
 _atom_site_fract_z
 _atom_site_occupancy
  Ca  Ca0  1  0.00000000  0.49999999  0.49999998  1
  Ca  Ca1  1  0.98416699  0.94461098  0.74159699  1
  Ca  Ca2  1  0.51583300  0.44461099  0.75840298  1
  La  La3  1  0.50000000  0.99999998  0.00000001  1
  La  La4  1  0.48416700  0.55538899  0.24159700  1
  La  La5  1  0.01583300  0.05538900  0.25840299  1
  W  W6  1  0.00000000  0.49999999  0.99999996  1
  W  W7  1  0.50000000  0.00000000  0.49999999  1
  O  O8  1  0.88287199  0.44154299  0.22496500  1
  O  O9  1  0.83096699  0.22494800  0.92533598  1
  O  O10  1  0.78496799  0.17601700  0.55001299  1
  O  O11  1  0.71503200  0.67601699  0.94998698  1
  O  O12  1  0.66903300  0.72494799  0.57466399  1
  O  O13  1  0.61712800  0.94154298  0.27503500  1
  O  O14  1  0.38287200  0.05845700  0.72496498  1
  O  O15  1  0.33096700  0.27505199  0.42533599  1
  O  O16  1  0.28496800  0.32398299  0.05001300  1
  O  O17  1  0.21503200  0.82398298  0.44998699  1
  O  O18  1  0.16903300  0.77505199  0.07466400  1
  O  O19  1  0.11712800  0.55845699  0.77503497  1
