# generated using pymatgen
data_Sr2BeCSO7
_symmetry_space_group_name_H-M   'P 1'
_cell_length_a   5.56825399
_cell_length_b   5.56825447
_cell_length_c   6.79288387
_cell_angle_alpha   90.00000000
_cell_angle_beta   90.00000000
_cell_angle_gamma   120.00000000
_symmetry_Int_Tables_number   1
_chemical_formula_structural   Sr2BeCSO7
_chemical_formula_sum   'Sr2 Be1 C1 S1 O7'
_cell_volume   182.39920185
_cell_formula_units_Z   1
loop_
 _symmetry_equiv_pos_site_id
 _symmetry_equiv_pos_as_xyz
  1  'x, y, z'
loop_
 _atom_site_type_symbol
 _atom_site_label
 _atom_site_symmetry_multiplicity
 _atom_site_fract_x
 _atom_site_fract_y
 _atom_site_fract_z
 _atom_site_occupancy
  Sr  Sr0  1  0.00000000  0.00000000  0.50000001  1
  Sr  Sr1  1  0.00000000  0.00000000  0.00000000  1
  Be  Be2  1  0.66666669  0.33333335  0.71012101  1
  C  C3  1  0.33333337  0.66666669  0.28987901  1
  S  S4  1  0.81398904  0.62797802  0.75564001  1
  O  O5  1  0.81398901  0.18601101  0.75564001  1
  O  O6  1  0.37202201  0.18601101  0.75564001  1
  O  O7  1  0.18601102  0.37202201  0.24436000  1
  O  O8  1  0.18601105  0.81398903  0.24436000  1
  O  O9  1  0.62797805  0.81398903  0.24436000  1
  O  O10  1  0.66666669  0.33333335  0.47061401  1
  O  O11  1  0.33333337  0.66666669  0.52938601  1
