# generated using pymatgen
data_YAg3S2
_symmetry_space_group_name_H-M   'P 1'
_cell_length_a   4.27993917
_cell_length_b   7.20731306
_cell_length_c   7.77681923
_cell_angle_alpha   90.00000000
_cell_angle_beta   90.00000000
_cell_angle_gamma   90.00000000
_symmetry_Int_Tables_number   1
_chemical_formula_structural   YAg3S2
_chemical_formula_sum   'Y2 Ag6 S4'
_cell_volume   239.89046577
_cell_formula_units_Z   2
loop_
 _symmetry_equiv_pos_site_id
 _symmetry_equiv_pos_as_xyz
  1  'x, y, z'
loop_
 _atom_site_type_symbol
 _atom_site_label
 _atom_site_symmetry_multiplicity
 _atom_site_fract_x
 _atom_site_fract_y
 _atom_site_fract_z
 _atom_site_occupancy
  Y  Y0  1  0.74999997  0.48536800  0.68341198  1
  Y  Y1  1  0.24999999  0.51463200  0.31658799  1
  Ag  Ag2  1  0.74999997  0.98536799  0.81658798  1
  Ag  Ag3  1  0.24999999  0.01463200  0.18341199  1
  Ag  Ag4  1  0.74999997  0.35649200  0.07178900  1
  Ag  Ag5  1  0.24999999  0.64350799  0.92821097  1
  Ag  Ag6  1  0.74999997  0.85649199  0.42821099  1
  Ag  Ag7  1  0.24999999  0.14350800  0.57178898  1
  S  S8  1  0.74999997  0.72123499  0.10701400  1
  S  S9  1  0.24999999  0.27876500  0.89298597  1
  S  S10  1  0.74999997  0.22123500  0.39298599  1
  S  S11  1  0.24999999  0.77876499  0.60701398  1
