# generated using pymatgen
data_Tl3CdI4
_symmetry_space_group_name_H-M   'P 1'
_cell_length_a   4.54274702
_cell_length_b   7.87220716
_cell_length_c   8.43723011
_cell_angle_alpha   108.28425598
_cell_angle_beta   90.00000000
_cell_angle_gamma   90.00000000
_symmetry_Int_Tables_number   1
_chemical_formula_structural   Tl3CdI4
_chemical_formula_sum   'Tl3 Cd1 I4'
_cell_volume   286.49384181
_cell_formula_units_Z   1
loop_
 _symmetry_equiv_pos_site_id
 _symmetry_equiv_pos_as_xyz
  1  'x, y, z'
loop_
 _atom_site_type_symbol
 _atom_site_label
 _atom_site_symmetry_multiplicity
 _atom_site_fract_x
 _atom_site_fract_y
 _atom_site_fract_z
 _atom_site_occupancy
  Tl  Tl0  1  -0.00000000  0.50000000  0.50000002  1
  Tl  Tl1  1  0.50000000  0.00000000  0.50000000  1
  Tl  Tl2  1  0.00000000  0.00000000  0.00000000  1
  Cd  Cd3  1  0.50000000  0.50000000  0.00000002  1
  I  I4  1  0.50000000  0.24490200  0.21857201  1
  I  I5  1  -0.00000000  0.73403299  0.21595703  1
  I  I6  1  0.50000000  0.75509799  0.78142803  1
  I  I7  1  1.00000000  0.26596700  0.78404301  1
