# generated using pymatgen
data_Ca3TaO6
_symmetry_space_group_name_H-M   'P 1'
_cell_length_a   5.65498114
_cell_length_b   6.02678585
_cell_length_c   8.12922001
_cell_angle_alpha   90.00000000
_cell_angle_beta   90.69332123
_cell_angle_gamma   90.00000000
_symmetry_Int_Tables_number   1
_chemical_formula_structural   Ca3TaO6
_chemical_formula_sum   'Ca6 Ta2 O12'
_cell_volume   277.03459203
_cell_formula_units_Z   2
loop_
 _symmetry_equiv_pos_site_id
 _symmetry_equiv_pos_as_xyz
  1  'x, y, z'
loop_
 _atom_site_type_symbol
 _atom_site_label
 _atom_site_symmetry_multiplicity
 _atom_site_fract_x
 _atom_site_fract_y
 _atom_site_fract_z
 _atom_site_occupancy
  Ca  Ca0  1  0.49999999  0.50000001  0.50000002  1
  Ca  Ca1  1  0.00000000  0.00000000  0.00000000  1
  Ca  Ca2  1  0.48143899  0.93348102  0.25339201  1
  Ca  Ca3  1  0.01856100  0.43348101  0.24660800  1
  Ca  Ca4  1  0.98143898  0.56651901  0.75339203  1
  Ca  Ca5  1  0.51856099  0.06651900  0.74660802  1
  Ta  Ta6  1  0.49999999  0.50000001  0.00000001  1
  Ta  Ta7  1  -0.00000000  1.00000002  0.50000001  1
  O  O8  1  0.83444098  0.27828401  0.56803902  1
  O  O9  1  0.66555898  0.77828402  0.93196103  1
  O  O10  1  0.16555900  0.72171602  0.43196101  1
  O  O11  1  0.33444099  0.22171601  0.06803901  1
  O  O12  1  0.11600300  0.95024502  0.72942302  1
  O  O13  1  0.38399699  0.45024501  0.77057702  1
  O  O14  1  0.88399698  0.04975500  0.27057702  1
  O  O15  1  0.61600299  0.54975501  0.22942301  1
  O  O16  1  0.21073299  0.67384502  0.05096700  1
  O  O17  1  0.28926699  0.17384500  0.44903301  1
  O  O18  1  0.78926698  0.32615501  0.94903303  1
  O  O19  1  0.71073298  0.82615502  0.55096702  1
