# generated using pymatgen
data_Hf2N
_symmetry_space_group_name_H-M   'P 1'
_cell_length_a   3.77229595
_cell_length_b   4.16289711
_cell_length_c   9.88207817
_cell_angle_alpha   90.00000000
_cell_angle_beta   90.00000000
_cell_angle_gamma   90.00000000
_symmetry_Int_Tables_number   1
_chemical_formula_structural   Hf2N
_chemical_formula_sum   'Hf4 N2'
_cell_volume   155.18499250
_cell_formula_units_Z   2
loop_
 _symmetry_equiv_pos_site_id
 _symmetry_equiv_pos_as_xyz
  1  'x, y, z'
loop_
 _atom_site_type_symbol
 _atom_site_label
 _atom_site_symmetry_multiplicity
 _atom_site_fract_x
 _atom_site_fract_y
 _atom_site_fract_z
 _atom_site_occupancy
  Hf  Hf0  1  0.00000000  0.49999999  0.91348598  1
  Hf  Hf1  1  0.50000001  0.00000000  0.08651400  1
  Hf  Hf2  1  0.50000001  0.49999999  0.67851299  1
  Hf  Hf3  1  0.00000000  0.00000000  0.32148699  1
  N  N4  1  0.00000000  0.00000000  0.97550698  1
  N  N5  1  0.50000001  0.49999999  0.02449300  1
