# generated using pymatgen
data_Mn2Nb2O7
_symmetry_space_group_name_H-M   'P 1'
_cell_length_a   3.77605009
_cell_length_b   3.90943503
_cell_length_c   9.94040203
_cell_angle_alpha   89.86700439
_cell_angle_beta   100.94895935
_cell_angle_gamma   90.00000000
_symmetry_Int_Tables_number   1
_chemical_formula_structural   Mn2Nb2O7
_chemical_formula_sum   'Mn2 Nb2 O7'
_cell_volume   144.07083813
_cell_formula_units_Z   1
loop_
 _symmetry_equiv_pos_site_id
 _symmetry_equiv_pos_as_xyz
  1  'x, y, z'
loop_
 _atom_site_type_symbol
 _atom_site_label
 _atom_site_symmetry_multiplicity
 _atom_site_fract_x
 _atom_site_fract_y
 _atom_site_fract_z
 _atom_site_occupancy
  Nb  Nb0  1  0.81021198  0.58826398  0.62042403  1
  Nb  Nb1  1  0.18978800  0.41173599  0.37957602  1
  Mn  Mn2  1  0.00000000  0.49999999  0.00000001  1
  Mn  Mn3  1  0.49999999  0.49999999  1.00000005  1
  O  O4  1  0.00000000  0.00000000  0.00000000  1
  O  O5  1  0.81139798  0.00625200  0.62279602  1
  O  O6  1  0.18860200  0.99374797  0.37720403  1
  O  O7  1  0.90132898  0.50545099  0.80265804  1
  O  O8  1  0.09867100  0.49454899  0.19734201  1
  O  O9  1  0.70914699  0.49239999  0.41829402  1
  O  O10  1  0.29085300  0.50759999  0.58170603  1
