# generated using pymatgen
data_Sc2O3
_symmetry_space_group_name_H-M   'P 1'
_cell_length_a   4.51156998
_cell_length_b   4.51367474
_cell_length_c   4.51367474
_cell_angle_alpha   89.90937805
_cell_angle_beta   90.00000000
_cell_angle_gamma   90.00000000
_symmetry_Int_Tables_number   1
_chemical_formula_structural   Sc2O3
_chemical_formula_sum   'Sc2 O3'
_cell_volume   91.91527147
_cell_formula_units_Z   1
loop_
 _symmetry_equiv_pos_site_id
 _symmetry_equiv_pos_as_xyz
  1  'x, y, z'
loop_
 _atom_site_type_symbol
 _atom_site_label
 _atom_site_symmetry_multiplicity
 _atom_site_fract_x
 _atom_site_fract_y
 _atom_site_fract_z
 _atom_site_occupancy
  Sc  Sc0  1  -0.00000000  0.50470100  0.50470098  1
  Sc  Sc1  1  0.50000000  0.01055800  0.01055800  1
  O  O2  1  0.00000000  0.00424300  0.50195500  1
  O  O3  1  0.50000000  0.49138500  0.49138499  1
  O  O4  1  -0.00000000  0.50195500  0.00424299  1
