# generated using pymatgen
data_Rb(TlBr2)5
_symmetry_space_group_name_H-M   'P 1'
_cell_length_a   8.45601177
_cell_length_b   9.54454041
_cell_length_c   8.45601177
_cell_angle_alpha   63.70605850
_cell_angle_beta   90.00000000
_cell_angle_gamma   116.29393768
_symmetry_Int_Tables_number   1
_chemical_formula_structural   Rb(TlBr2)5
_chemical_formula_sum   'Rb1 Tl5 Br10'
_cell_volume   531.95513431
_cell_formula_units_Z   1
loop_
 _symmetry_equiv_pos_site_id
 _symmetry_equiv_pos_as_xyz
  1  'x, y, z'
loop_
 _atom_site_type_symbol
 _atom_site_label
 _atom_site_symmetry_multiplicity
 _atom_site_fract_x
 _atom_site_fract_y
 _atom_site_fract_z
 _atom_site_occupancy
  Tl  Tl0  1  0.24999999  0.50000002  0.75000001  1
  Rb  Rb1  1  0.75000000  0.50000002  0.24999999  1
  Tl  Tl2  1  0.82439602  0.00000000  0.67560402  1
  Tl  Tl3  1  0.32439601  0.00000000  0.82439502  1
  Tl  Tl4  1  0.67560398  0.99999904  0.17560497  1
  Tl  Tl5  1  0.17560400  0.00000000  0.32439601  1
  Br  Br6  1  0.20378398  0.73071703  0.29621599  1
  Br  Br7  1  0.70378399  0.73071703  0.47306699  1
  Br  Br8  1  0.50000001  0.00000000  0.50000001  1
  Br  Br9  1  0.02693297  0.73071703  0.79621600  1
  Br  Br10  1  0.79621601  0.26928301  0.70378401  1
  Br  Br11  1  0.52693299  0.73071703  0.97306700  1
  Br  Br12  1  0.29621600  0.26928301  0.52693301  1
  Br  Br13  1  0.97306702  0.26928301  0.20378400  1
  Br  Br14  1  0.00000000  0.00000000  0.00000000  1
  Br  Br15  1  0.47306700  0.26928301  0.02693299  1
