# generated using pymatgen
data_K3TlBr6
_symmetry_space_group_name_H-M   'P 1'
_cell_length_a   4.61859608
_cell_length_b   7.91148758
_cell_length_c   11.72547626
_cell_angle_alpha   90.00000000
_cell_angle_beta   90.00000000
_cell_angle_gamma   106.97124481
_symmetry_Int_Tables_number   1
_chemical_formula_structural   K3TlBr6
_chemical_formula_sum   'K3 Tl1 Br6'
_cell_volume   409.79015257
_cell_formula_units_Z   1
loop_
 _symmetry_equiv_pos_site_id
 _symmetry_equiv_pos_as_xyz
  1  'x, y, z'
loop_
 _atom_site_type_symbol
 _atom_site_label
 _atom_site_symmetry_multiplicity
 _atom_site_fract_x
 _atom_site_fract_y
 _atom_site_fract_z
 _atom_site_occupancy
  Tl  Tl0  1  0.00000000  0.00000000  0.00000000  1
  K  K1  1  0.00000000  0.00000000  0.49999999  1
  K  K2  1  0.75168396  0.50336799  0.74999998  1
  K  K3  1  0.24831597  0.49663199  0.24999999  1
  Br  Br4  1  0.36277795  0.72555599  0.94464498  1
  Br  Br5  1  0.63722197  0.27444400  0.05535500  1
  Br  Br6  1  0.63722197  0.27444400  0.44464499  1
  Br  Br7  1  0.36277795  0.72555599  0.55535499  1
  Br  Br8  1  0.08000299  0.16000600  0.74999998  1
  Br  Br9  1  0.91999693  0.83999399  0.24999999  1
