# generated using pymatgen
data_TiTlSnSb2O5
_symmetry_space_group_name_H-M   'P 1'
_cell_length_a   6.29858017
_cell_length_b   6.29947424
_cell_length_c   7.59302187
_cell_angle_alpha   82.28313446
_cell_angle_beta   74.41938782
_cell_angle_gamma   60.00469589
_symmetry_Int_Tables_number   1
_chemical_formula_structural   TiTlSnSb2O5
_chemical_formula_sum   'Ti1 Tl1 Sn1 Sb2 O5'
_cell_volume   251.33524618
_cell_formula_units_Z   1
loop_
 _symmetry_equiv_pos_site_id
 _symmetry_equiv_pos_as_xyz
  1  'x, y, z'
loop_
 _atom_site_type_symbol
 _atom_site_label
 _atom_site_symmetry_multiplicity
 _atom_site_fract_x
 _atom_site_fract_y
 _atom_site_fract_z
 _atom_site_occupancy
  Tl  Tl0  1  0.33315599  0.33368801  -0.00000002  1
  Sb  Sb1  1  0.66684399  0.66631202  -0.00000003  1
  Sb  Sb2  1  0.04995500  0.00000000  0.84568699  1
  Sn  Sn3  1  0.95004498  1.00000003  0.15431295  1
  Ti  Ti4  1  0.38634299  0.68914702  0.76661897  1
  O  O5  1  0.92450998  0.68914702  0.23338096  1
  O  O6  1  0.23569799  1.00000003  0.23293297  1
  O  O7  1  0.76430198  1.00000003  0.76706695  1
  O  O8  1  0.61365699  0.31085301  0.23338097  1
  O  O9  1  0.07549000  0.31085301  0.76661899  1
