# generated using pymatgen
data_Li2Cd2F11
_symmetry_space_group_name_H-M   'P 1'
_cell_length_a   5.81516981
_cell_length_b   5.81516981
_cell_length_c   7.80855417
_cell_angle_alpha   98.93328094
_cell_angle_beta   111.59158325
_cell_angle_gamma   107.29881287
_symmetry_Int_Tables_number   1
_chemical_formula_structural   Li2Cd2F11
_chemical_formula_sum   'Li2 Cd2 F11'
_cell_volume   223.75785674
_cell_formula_units_Z   1
loop_
 _symmetry_equiv_pos_site_id
 _symmetry_equiv_pos_as_xyz
  1  'x, y, z'
loop_
 _atom_site_type_symbol
 _atom_site_label
 _atom_site_symmetry_multiplicity
 _atom_site_fract_x
 _atom_site_fract_y
 _atom_site_fract_z
 _atom_site_occupancy
  Cd  Cd0  1  0.00617794  0.99403395  0.00021197  1
  Li  Li1  1  0.73699796  0.49195697  0.22895501  1
  Li  Li2  1  0.27374997  0.48875797  0.76250799  1
  Cd  Cd3  1  0.50761794  0.99017495  0.49779298  1
  F  F4  1  0.51338398  0.21739899  0.30551801  1
  F  F5  1  0.08811895  0.79213396  0.30551798  1
  F  F6  1  0.49717695  0.76925996  0.69125999  1
  F  F7  1  0.92199998  0.19408299  0.69126002  1
  F  F8  1  0.81831597  0.25657799  0.07489402  1
  F  F9  1  0.15224296  0.72462796  0.87687098  1
  F  F10  1  0.39990598  0.24360699  0.64351300  1
  F  F11  1  0.62348095  0.73757596  0.36105699  1
  F  F12  1  0.33467798  0.33113198  0.99998399  1
  F  F13  1  0.66885195  0.66530597  0.99998399  1
  F  F14  1  0.01609997  0.46347198  0.47957198  1
