# generated using pymatgen
data_NbV5Cu2(Se2O)4
_symmetry_space_group_name_H-M   'P 1'
_cell_length_a   3.75736189
_cell_length_b   8.52884769
_cell_length_c   11.29895687
_cell_angle_alpha   90.00000000
_cell_angle_beta   90.00000000
_cell_angle_gamma   90.00000000
_symmetry_Int_Tables_number   1
_chemical_formula_structural   NbV5Cu2(Se2O)4
_chemical_formula_sum   'Nb1 V5 Cu2 Se8 O4'
_cell_volume   362.08600222
_cell_formula_units_Z   1
loop_
 _symmetry_equiv_pos_site_id
 _symmetry_equiv_pos_as_xyz
  1  'x, y, z'
loop_
 _atom_site_type_symbol
 _atom_site_label
 _atom_site_symmetry_multiplicity
 _atom_site_fract_x
 _atom_site_fract_y
 _atom_site_fract_z
 _atom_site_occupancy
  V  V0  1  0.25000101  0.54622102  0.35224000  1
  Nb  Nb1  1  0.74999902  0.45377902  0.64776001  1
  V  V2  1  0.25000101  0.04622000  0.14776000  1
  V  V3  1  0.74999902  0.95377903  0.85224001  1
  V  V4  1  0.25000101  0.66968402  0.02848000  1
  V  V5  1  0.74999902  0.33031601  0.97152001  1
  Cu  Cu6  1  0.25000101  0.16968401  0.47152001  1
  Cu  Cu7  1  0.74999902  0.83031603  0.52847901  1
  Se  Se8  1  0.74999902  0.24246301  0.33091200  1
  Se  Se9  1  0.25000101  0.75753703  0.66908801  1
  Se  Se10  1  0.25000101  0.25753801  0.83091201  1
  Se  Se11  1  0.74999902  0.74246303  0.16908800  1
  Se  Se12  1  0.74999902  0.59715402  0.89817301  1
  Se  Se13  1  0.25000101  0.40284701  0.10182700  1
  Se  Se14  1  0.25000101  0.90284603  0.39817300  1
  Se  Se15  1  0.74999902  0.09715400  0.60182701  1
  O  O16  1  0.25000101  0.88734803  0.96361801  1
  O  O17  1  0.74999902  0.11265200  0.03638200  1
  O  O18  1  0.25000101  0.38734801  0.53638201  1
  O  O19  1  0.74999902  0.61265202  0.46361801  1
