# generated using pymatgen
data_Ba2GaCu5(NiO3)3
_symmetry_space_group_name_H-M   'P 1'
_cell_length_a   5.81329203
_cell_length_b   6.63140345
_cell_length_c   7.57495451
_cell_angle_alpha   102.64980316
_cell_angle_beta   98.05387115
_cell_angle_gamma   106.57706451
_symmetry_Int_Tables_number   1
_chemical_formula_structural   Ba2GaCu5(NiO3)3
_chemical_formula_sum   'Ba2 Ga1 Cu5 Ni3 O9'
_cell_volume   266.60138171
_cell_formula_units_Z   1
loop_
 _symmetry_equiv_pos_site_id
 _symmetry_equiv_pos_as_xyz
  1  'x, y, z'
loop_
 _atom_site_type_symbol
 _atom_site_label
 _atom_site_symmetry_multiplicity
 _atom_site_fract_x
 _atom_site_fract_y
 _atom_site_fract_z
 _atom_site_occupancy
  Ba  Ba0  1  0.69610697  0.76754098  0.37390299  1
  Ba  Ba1  1  0.69606100  0.26758199  0.37388700  1
  Cu  Cu2  1  0.30389299  0.23245899  0.62609700  1
  Ga  Ga3  1  0.30393897  0.73241798  0.62611300  1
  Cu  Cu4  1  0.36826696  0.85485798  0.05145599  1
  Cu  Cu5  1  0.36836899  0.35504499  0.05144399  1
  Cu  Cu6  1  0.63173300  0.14514100  0.94854401  1
  Cu  Cu7  1  0.63163098  0.64495598  0.94855700  1
  Ni  Ni8  1  0.92205897  0.93453998  0.81602899  1
  Ni  Ni9  1  0.07794200  0.06545900  0.18397000  1
  O  O10  1  0.92209499  0.43447999  0.81571300  1
  Ni  Ni11  1  0.07790397  0.56551999  0.18428800  1
  O  O12  1  0.26858600  0.04657300  0.91790201  1
  O  O13  1  0.26836898  0.54654799  0.91804201  1
  O  O14  1  0.73141396  0.95342698  0.08209898  1
  O  O15  1  0.73163099  0.45345099  0.08195699  1
  O  O16  1  0.22383296  0.88083098  0.29923099  1
  O  O17  1  0.22359399  0.38068499  0.29937100  1
  O  O18  1  0.77616700  0.11916900  0.70076900  1
  O  O19  1  0.77640598  0.61931499  0.70062800  1
