# generated using pymatgen
data_Li2TbYBi2(O2F)4
_symmetry_space_group_name_H-M   'P 1'
_cell_length_a   5.37333918
_cell_length_b   6.99613094
_cell_length_c   7.65928745
_cell_angle_alpha   67.80772400
_cell_angle_beta   69.69458008
_cell_angle_gamma   81.72205353
_symmetry_Int_Tables_number   1
_chemical_formula_structural   Li2TbYBi2(O2F)4
_chemical_formula_sum   'Li2 Tb1 Y1 Bi2 O8 F4'
_cell_volume   250.00749340
_cell_formula_units_Z   1
loop_
 _symmetry_equiv_pos_site_id
 _symmetry_equiv_pos_as_xyz
  1  'x, y, z'
loop_
 _atom_site_type_symbol
 _atom_site_label
 _atom_site_symmetry_multiplicity
 _atom_site_fract_x
 _atom_site_fract_y
 _atom_site_fract_z
 _atom_site_occupancy
  Li  Li0  1  0.28654300  0.87523196  0.48036402  1
  Li  Li1  1  0.80142999  0.88526296  0.96324700  1
  Y  Y2  1  0.71008599  0.12188299  0.52374398  1
  Bi  Bi3  1  0.20626900  0.11011600  0.03860099  1
  Tb  Tb4  1  0.74019899  0.50802698  0.74794799  1
  Bi  Bi5  1  0.27625400  0.52404698  0.24300400  1
  O  O6  1  0.15632000  0.61688697  0.55723802  1
  O  O7  1  0.84523999  0.38754498  0.43311798  1
  O  O8  1  0.01473500  0.03888000  0.32641801  1
  O  O9  1  0.98576299  0.94558496  0.68216499  1
  O  O10  1  0.29397000  0.37162398  0.01944999  1
  O  O11  1  0.69509699  0.63078097  0.98537000  1
  F  F12  1  0.55760499  0.81430397  0.59174900  1
  O  O13  1  0.43635600  0.18446899  0.40687199  1
  O  O14  1  0.47347699  0.89458296  0.19007000  1
  F  F15  1  0.52505900  0.09962800  0.80854400  1
  F  F16  1  0.92524599  0.18308399  0.93054598  1
  F  F17  1  0.07035100  0.80806197  0.07155201  1
