# generated using pymatgen
data_Bi5Te7
_symmetry_space_group_name_H-M   'P 1'
_cell_length_a   4.47490597
_cell_length_b   4.47490597
_cell_length_c   24.66414261
_cell_angle_alpha   90.00000000
_cell_angle_beta   90.00000000
_cell_angle_gamma   120.00000000
_symmetry_Int_Tables_number   1
_chemical_formula_structural   Bi5Te7
_chemical_formula_sum   'Bi5 Te7'
_cell_volume   427.72484948
_cell_formula_units_Z   1
loop_
 _symmetry_equiv_pos_site_id
 _symmetry_equiv_pos_as_xyz
  1  'x, y, z'
loop_
 _atom_site_type_symbol
 _atom_site_label
 _atom_site_symmetry_multiplicity
 _atom_site_fract_x
 _atom_site_fract_y
 _atom_site_fract_z
 _atom_site_occupancy
  Bi  Bi0  1  0.66666666  0.33333331  0.16381800  1
  Bi  Bi1  1  0.33333331  0.66666662  0.58227501  1
  Bi  Bi2  1  0.33333331  0.66666662  0.83618201  1
  Bi  Bi3  1  0.66666666  0.33333331  0.41772501  1
  Bi  Bi4  1  0.33333331  0.66666662  0.34856301  1
  Te  Te5  1  0.66666666  0.33333331  0.91911301  1
  Te  Te6  1  0.00000000  0.00000000  0.76718201  1
  Te  Te7  1  0.66666666  0.33333331  0.65143701  1
  Te  Te8  1  0.33333331  0.66666662  0.08088700  1
  Te  Te9  1  0.00000000  0.00000000  0.50000001  1
  Te  Te10  1  0.00000000  0.00000000  0.23281800  1
  Te  Te11  1  0.00000000  0.00000000  0.00000000  1
