# generated using pymatgen
data_KYBeF6
_symmetry_space_group_name_H-M   'P 1'
_cell_length_a   5.73175383
_cell_length_b   6.39184141
_cell_length_c   7.00500774
_cell_angle_alpha   113.12277222
_cell_angle_beta   90.00000000
_cell_angle_gamma   90.00000000
_symmetry_Int_Tables_number   1
_chemical_formula_structural   KYBeF6
_chemical_formula_sum   'K2 Y2 Be2 F12'
_cell_volume   236.02175243
_cell_formula_units_Z   2
loop_
 _symmetry_equiv_pos_site_id
 _symmetry_equiv_pos_as_xyz
  1  'x, y, z'
loop_
 _atom_site_type_symbol
 _atom_site_label
 _atom_site_symmetry_multiplicity
 _atom_site_fract_x
 _atom_site_fract_y
 _atom_site_fract_z
 _atom_site_occupancy
  K  K0  1  0.75000002  0.07113800  0.20316199  1
  K  K1  1  0.25000001  0.92886199  0.79683796  1
  Y  Y2  1  0.75000002  0.39054900  0.82172997  1
  Y  Y3  1  0.25000001  0.60945100  0.17826998  1
  Be  Be4  1  0.75000002  0.76614100  0.53557597  1
  Be  Be5  1  0.25000001  0.23385900  0.46442399  1
  F  F6  1  0.96918703  0.76501700  0.40150697  1
  F  F7  1  0.03081300  0.23498300  0.59849298  1
  F  F8  1  0.46918701  0.23498300  0.59849298  1
  F  F9  1  0.53081302  0.76501700  0.40150697  1
  F  F10  1  0.75000002  0.55821900  0.59522597  1
  F  F11  1  0.25000001  0.44178100  0.40477398  1
  F  F12  1  0.99893803  0.67497800  0.96601796  1
  F  F13  1  0.00106200  0.32502200  0.03398199  1
  F  F14  1  0.49893802  0.32502200  0.03398199  1
  F  F15  1  0.50106202  0.67497800  0.96601796  1
  F  F16  1  0.75000002  0.99035599  0.73825096  1
  F  F17  1  0.25000001  0.00964400  0.26174900  1
