# generated using pymatgen
data_Nb(PtCl4)3
_symmetry_space_group_name_H-M   'P 1'
_cell_length_a   5.65562820
_cell_length_b   7.99832106
_cell_length_c   7.99832106
_cell_angle_alpha   90.00000000
_cell_angle_beta   90.00000000
_cell_angle_gamma   90.00000000
_symmetry_Int_Tables_number   1
_chemical_formula_structural   Nb(PtCl4)3
_chemical_formula_sum   'Nb1 Pt3 Cl12'
_cell_volume   361.80829332
_cell_formula_units_Z   1
loop_
 _symmetry_equiv_pos_site_id
 _symmetry_equiv_pos_as_xyz
  1  'x, y, z'
loop_
 _atom_site_type_symbol
 _atom_site_label
 _atom_site_symmetry_multiplicity
 _atom_site_fract_x
 _atom_site_fract_y
 _atom_site_fract_z
 _atom_site_occupancy
  Nb  Nb0  1  0.00000000  0.00000000  0.00000000  1
  Pt  Pt1  1  0.99999996  0.50000000  0.50000000  1
  Pt  Pt2  1  0.99999996  0.25206200  0.74793799  1
  Pt  Pt3  1  0.99999996  0.74793799  0.25206200  1
  Cl  Cl4  1  -0.00000000  0.25206200  0.25206200  1
  Cl  Cl5  1  0.99999996  0.74793799  0.74793799  1
  Cl  Cl6  1  0.49999998  0.00000000  0.00000000  1
  Cl  Cl7  1  0.49999998  0.50000000  0.50000000  1
  Cl  Cl8  1  0.75827197  0.50000000  0.25864800  1
  Cl  Cl9  1  0.74880697  0.00000000  0.74839399  1
  Cl  Cl10  1  0.75827197  0.50000000  0.74135199  1
  Cl  Cl11  1  0.74880697  0.00000000  0.25160600  1
  Cl  Cl12  1  0.25119299  0.74839399  0.00000000  1
  Cl  Cl13  1  0.24172799  0.25864800  0.50000000  1
  Cl  Cl14  1  0.25119299  0.25160600  -0.00000000  1
  Cl  Cl15  1  0.24172799  0.74135199  0.50000000  1
