# generated using pymatgen
data_LiP5
_symmetry_space_group_name_H-M   'P 1'
_cell_length_a   4.86336851
_cell_length_b   4.86336756
_cell_length_c   6.33640289
_cell_angle_alpha   90.00000000
_cell_angle_beta   90.00000000
_cell_angle_gamma   92.05701447
_symmetry_Int_Tables_number   1
_chemical_formula_structural   LiP5
_chemical_formula_sum   'Li2 P10'
_cell_volume   149.77423420
_cell_formula_units_Z   2
loop_
 _symmetry_equiv_pos_site_id
 _symmetry_equiv_pos_as_xyz
  1  'x, y, z'
loop_
 _atom_site_type_symbol
 _atom_site_label
 _atom_site_symmetry_multiplicity
 _atom_site_fract_x
 _atom_site_fract_y
 _atom_site_fract_z
 _atom_site_occupancy
  Li  Li0  1  0.96442594  0.96442500  1.00000002  1
  Li  Li1  1  0.03557700  0.03557700  0.50000001  1
  P  P2  1  0.50000097  0.50000000  0.74999901  1
  P  P3  1  0.50000097  0.50000200  0.25000200  1
  P  P4  1  0.33471098  0.33471100  0.50000001  1
  P  P5  1  0.66528796  0.66528800  0.00000000  1
  P  P6  1  0.79624899  0.20375000  0.75000001  1
  P  P7  1  0.79624899  0.20375000  0.25000000  1
  P  P8  1  0.28193998  0.28194000  0.00000000  1
  P  P9  1  0.71805896  0.71805900  0.50000001  1
  P  P10  1  0.20374995  0.79624900  0.75000001  1
  P  P11  1  0.20374995  0.79624900  0.25000000  1
