# generated using pymatgen
data_CdBO3
_symmetry_space_group_name_H-M   'P 1'
_cell_length_a   4.91051865
_cell_length_b   4.91051865
_cell_length_c   6.07512379
_cell_angle_alpha   66.16213989
_cell_angle_beta   66.16213989
_cell_angle_gamma   59.99999237
_symmetry_Int_Tables_number   1
_chemical_formula_structural   CdBO3
_chemical_formula_sum   'Cd2 B2 O6'
_cell_volume   112.20291996
_cell_formula_units_Z   2
loop_
 _symmetry_equiv_pos_site_id
 _symmetry_equiv_pos_as_xyz
  1  'x, y, z'
loop_
 _atom_site_type_symbol
 _atom_site_label
 _atom_site_symmetry_multiplicity
 _atom_site_fract_x
 _atom_site_fract_y
 _atom_site_fract_z
 _atom_site_occupancy
  Cd  Cd0  1  0.49999997  0.49999999  0.50000002  1
  Cd  Cd1  1  0.00000000  0.00000000  0.00000000  1
  B  B2  1  0.74499296  0.74499298  0.76502103  1
  B  B3  1  0.25500699  0.25500699  0.23497901  1
  O  O4  1  0.45411999  0.01845300  0.76097003  1
  O  O5  1  0.76645697  0.45411999  0.76097003  1
  O  O6  1  0.01845298  0.76645698  0.76097003  1
  O  O7  1  0.23354298  0.54587999  0.23903001  1
  O  O8  1  0.98154697  0.23354299  0.23903000  1
  O  O9  1  0.54587996  0.98154698  0.23903001  1
