# generated using pymatgen
data_Li5UO6
_symmetry_space_group_name_H-M   'P 1'
_cell_length_a   4.15381908
_cell_length_b   5.15815973
_cell_length_c   5.88144445
_cell_angle_alpha   108.06108856
_cell_angle_beta   90.00893402
_cell_angle_gamma   113.73609161
_symmetry_Int_Tables_number   1
_chemical_formula_structural   Li5UO6
_chemical_formula_sum   'Li5 U1 O6'
_cell_volume   108.53616077
_cell_formula_units_Z   1
loop_
 _symmetry_equiv_pos_site_id
 _symmetry_equiv_pos_as_xyz
  1  'x, y, z'
loop_
 _atom_site_type_symbol
 _atom_site_label
 _atom_site_symmetry_multiplicity
 _atom_site_fract_x
 _atom_site_fract_y
 _atom_site_fract_z
 _atom_site_occupancy
  Li  Li0  1  0.33484593  0.66960495  0.16578095  1
  Li  Li1  1  0.33558693  0.67123695  0.66952594  1
  Li  Li2  1  0.99793389  0.99590793  0.49863791  1
  Li  Li3  1  0.66616396  0.33228098  0.83598494  1
  Li  Li4  1  0.98194190  0.96389093  0.00024993  1
  U  U5  1  0.67978096  0.35938897  0.33371896  1
  O  O6  1  0.83561193  0.67111395  0.16479994  1
  O  O7  1  0.83385893  0.66797095  0.66549093  1
  O  O8  1  0.16268897  0.32541198  0.31926297  1
  O  O9  1  0.50605799  0.01219400  0.01196199  1
  O  O10  1  0.51222299  0.02441100  0.50196897  1
  O  O11  1  0.15330397  0.30659098  0.83261795  1
