# generated using pymatgen
data_Al4HNO8
_symmetry_space_group_name_H-M   'P 1'
_cell_length_a   4.88863802
_cell_length_b   5.52074480
_cell_length_c   7.41905975
_cell_angle_alpha   90.00000000
_cell_angle_beta   109.23628998
_cell_angle_gamma   90.00000000
_symmetry_Int_Tables_number   1
_chemical_formula_structural   Al4HNO8
_chemical_formula_sum   'Al4 H1 N1 O8'
_cell_volume   189.05303140
_cell_formula_units_Z   1
loop_
 _symmetry_equiv_pos_site_id
 _symmetry_equiv_pos_as_xyz
  1  'x, y, z'
loop_
 _atom_site_type_symbol
 _atom_site_label
 _atom_site_symmetry_multiplicity
 _atom_site_fract_x
 _atom_site_fract_y
 _atom_site_fract_z
 _atom_site_occupancy
  Al  Al0  1  0.63747798  0.59740102  0.40478499  1
  Al  Al1  1  0.23269299  0.40259901  0.59521501  1
  Al  Al2  1  0.13747800  0.90259903  0.40478501  1
  Al  Al3  1  0.73269298  0.09740100  0.59521499  1
  H  H4  1  0.48364099  0.50000002  1.00000001  1
  N  N5  1  0.98364098  0.00000000  0.99999999  1
  O  O6  1  0.57510099  0.53078802  0.17114898  1
  O  O7  1  0.40395199  0.46921202  0.82885101  1
  O  O8  1  0.81798798  0.87393603  0.45683998  1
  O  O9  1  0.36114799  0.12606400  0.54316000  1
  O  O10  1  0.31798799  0.62606402  0.45684000  1
  O  O11  1  0.86114798  0.37393601  0.54315998  1
  O  O12  1  0.90395198  0.03078800  0.82885099  1
  O  O13  1  0.07510100  0.96921204  0.17114900  1
