# generated using pymatgen
data_NaAl4TlO6
_symmetry_space_group_name_H-M   'P 1'
_cell_length_a   5.18649721
_cell_length_b   5.77263308
_cell_length_c   5.77263308
_cell_angle_alpha   119.16635132
_cell_angle_beta   90.00000000
_cell_angle_gamma   90.00000000
_symmetry_Int_Tables_number   1
_chemical_formula_structural   NaAl4TlO6
_chemical_formula_sum   'Na1 Al4 Tl1 O6'
_cell_volume   150.91763084
_cell_formula_units_Z   1
loop_
 _symmetry_equiv_pos_site_id
 _symmetry_equiv_pos_as_xyz
  1  'x, y, z'
loop_
 _atom_site_type_symbol
 _atom_site_label
 _atom_site_symmetry_multiplicity
 _atom_site_fract_x
 _atom_site_fract_y
 _atom_site_fract_z
 _atom_site_occupancy
  Tl  Tl0  1  0.49528698  0.33869199  0.33869198  1
  Na  Na1  1  0.99528696  0.66130798  0.66130796  1
  Al  Al2  1  0.02446300  0.32412799  0.98831697  1
  Al  Al3  1  0.52446298  0.67587198  0.01168296  1
  Al  Al4  1  0.52446298  0.01168300  0.67587200  1
  Al  Al5  1  0.02446300  0.98831697  0.32412794  1
  O  O6  1  0.95434596  0.25796399  0.25796398  1
  O  O7  1  0.45434598  0.74203597  0.74203595  1
  O  O8  1  0.37972098  0.92395597  0.34133994  1
  O  O9  1  0.37972098  0.34133999  0.92395597  1
  O  O10  1  0.87972096  0.65865998  0.07604396  1
  O  O11  1  0.87972096  0.07604400  0.65865999  1
