# generated using pymatgen
data_Ge2Te7
_symmetry_space_group_name_H-M   'P 1'
_cell_length_a   4.87128019
_cell_length_b   4.87128067
_cell_length_c   12.06574821
_cell_angle_alpha   90.00000000
_cell_angle_beta   90.00000000
_cell_angle_gamma   119.99999237
_symmetry_Int_Tables_number   1
_chemical_formula_structural   Ge2Te7
_chemical_formula_sum   'Ge2 Te7'
_cell_volume   247.95403912
_cell_formula_units_Z   1
loop_
 _symmetry_equiv_pos_site_id
 _symmetry_equiv_pos_as_xyz
  1  'x, y, z'
loop_
 _atom_site_type_symbol
 _atom_site_label
 _atom_site_symmetry_multiplicity
 _atom_site_fract_x
 _atom_site_fract_y
 _atom_site_fract_z
 _atom_site_occupancy
  Ge  Ge0  1  0.34297997  0.34299199  0.99998898  1
  Ge  Ge1  1  0.65700891  0.99998897  0.66666665  1
  Te  Te2  1  0.00001196  0.65702098  0.33333333  1
  Te  Te3  1  0.67522997  0.00895800  0.91590098  1
  Te  Te4  1  0.99104192  0.66627198  0.58256699  1
  Te  Te5  1  0.33372797  0.32476999  0.24923400  1
  Te  Te6  1  0.00895496  0.67526398  0.08407700  1
  Te  Te7  1  0.66630891  0.99104397  0.41741099  1
  Te  Te8  1  0.32473497  0.33368999  0.75074399  1
