# generated using pymatgen
data_Mg2Br6O
_symmetry_space_group_name_H-M   'P 1'
_cell_length_a   4.61647415
_cell_length_b   4.61647415
_cell_length_c   6.61749601
_cell_angle_alpha   90.00000000
_cell_angle_beta   90.00000000
_cell_angle_gamma   120.00000000
_symmetry_Int_Tables_number   1
_chemical_formula_structural   Mg2Br6O
_chemical_formula_sum   'Mg2 Br6 O1'
_cell_volume   122.13640607
_cell_formula_units_Z   1
loop_
 _symmetry_equiv_pos_site_id
 _symmetry_equiv_pos_as_xyz
  1  'x, y, z'
loop_
 _atom_site_type_symbol
 _atom_site_label
 _atom_site_symmetry_multiplicity
 _atom_site_fract_x
 _atom_site_fract_y
 _atom_site_fract_z
 _atom_site_occupancy
  Mg  Mg0  1  0.83605199  0.67210402  0.16666700  1
  Mg  Mg1  1  0.67210300  0.83605102  0.83333300  1
  Br  Br2  1  0.16394802  0.83605102  0.50000000  1
  Br  Br3  1  0.16394800  0.32789601  0.16666700  1
  Br  Br4  1  0.32789699  0.16394900  0.83333300  1
  O  O5  1  0.83605198  0.16394900  0.50000000  1
  Br  Br6  1  0.50000000  0.50000001  0.50000000  1
  Br  Br7  1  0.99999998  0.50000001  0.83333300  1
  Br  Br8  1  0.50000001  1.00000003  0.16666700  1
