# generated using pymatgen
data_KNa(HO4)2
_symmetry_space_group_name_H-M   'P 1'
_cell_length_a   4.59876776
_cell_length_b   4.59876776
_cell_length_c   7.47685909
_cell_angle_alpha   72.08935547
_cell_angle_beta   72.08935547
_cell_angle_gamma   60.00000763
_symmetry_Int_Tables_number   1
_chemical_formula_structural   KNa(HO4)2
_chemical_formula_sum   'K1 Na1 H2 O8'
_cell_volume   128.01565716
_cell_formula_units_Z   1
loop_
 _symmetry_equiv_pos_site_id
 _symmetry_equiv_pos_as_xyz
  1  'x, y, z'
loop_
 _atom_site_type_symbol
 _atom_site_label
 _atom_site_symmetry_multiplicity
 _atom_site_fract_x
 _atom_site_fract_y
 _atom_site_fract_z
 _atom_site_occupancy
  K  K0  1  0.49999997  0.49999997  0.50000004  1
  Na  Na1  1  0.00000000  0.00000000  0.00000000  1
  H  H2  1  0.73865196  0.73865195  0.78404406  1
  H  H3  1  0.26134798  0.26134798  0.21595602  1
  O  O4  1  0.68031596  0.68031596  0.95905206  1
  O  O5  1  0.31968398  0.31968398  0.04094802  1
  O  O6  1  0.46821097  0.90396594  0.72385706  1
  O  O7  1  0.90396595  0.46821097  0.72385706  1
  O  O8  1  0.90396595  0.90396594  0.72385707  1
  O  O9  1  0.09603400  0.53178897  0.27614302  1
  O  O10  1  0.09603399  0.09603399  0.27614301  1
  O  O11  1  0.53178897  0.09603399  0.27614302  1
