# generated using pymatgen
data_Li3Mn5(O4F)2
_symmetry_space_group_name_H-M   'P 1'
_cell_length_a   5.20214653
_cell_length_b   5.22471571
_cell_length_c   7.78964472
_cell_angle_alpha   70.67129517
_cell_angle_beta   83.10530090
_cell_angle_gamma   68.03908539
_symmetry_Int_Tables_number   1
_chemical_formula_structural   Li3Mn5(O4F)2
_chemical_formula_sum   'Li3 Mn5 O8 F2'
_cell_volume   185.28852933
_cell_formula_units_Z   1
loop_
 _symmetry_equiv_pos_site_id
 _symmetry_equiv_pos_as_xyz
  1  'x, y, z'
loop_
 _atom_site_type_symbol
 _atom_site_label
 _atom_site_symmetry_multiplicity
 _atom_site_fract_x
 _atom_site_fract_y
 _atom_site_fract_z
 _atom_site_occupancy
  Li  Li0  1  0.25915900  0.24031201  0.99566001  1
  Li  Li1  1  0.78326500  0.39105702  0.79331200  1
  Li  Li2  1  0.75169600  0.91669304  0.58409199  1
  Mn  Mn3  1  0.24002200  0.49082902  0.55996500  1
  Mn  Mn4  1  0.75997500  0.50916102  0.44003299  1
  Mn  Mn5  1  0.24830400  0.08329900  0.41590801  1
  Mn  Mn6  1  0.21673400  0.60893203  0.20668499  1
  Mn  Mn7  1  0.74084100  0.75968203  0.00433298  1
  O  O8  1  0.22009400  0.83761604  0.77358099  1
  O  O9  1  0.77985600  0.16244201  0.22641300  1
  O  O10  1  0.33913600  0.84270704  0.97679700  1
  F  F11  1  0.00126300  0.62697603  0.80647800  1
  O  O12  1  0.48613500  0.69792103  0.61755699  1
  O  O13  1  0.02593300  0.19334601  0.62528001  1
  O  O14  1  0.97408100  0.80663904  0.37472499  1
  O  O15  1  0.51387400  0.30207701  0.38243400  1
  F  F16  1  0.99874800  0.37303402  0.19351499  1
  O  O17  1  0.66088200  0.15727601  0.02323200  1
