# generated using pymatgen
data_Ge7PN11Cl
_symmetry_space_group_name_H-M   'P 1'
_cell_length_a   5.37987614
_cell_length_b   5.48333645
_cell_length_c   8.37093163
_cell_angle_alpha   90.00000000
_cell_angle_beta   90.00000000
_cell_angle_gamma   118.30905151
_symmetry_Int_Tables_number   1
_chemical_formula_structural   Ge7PN11Cl
_chemical_formula_sum   'Ge7 P1 N11 Cl1'
_cell_volume   217.40634085
_cell_formula_units_Z   1
loop_
 _symmetry_equiv_pos_site_id
 _symmetry_equiv_pos_as_xyz
  1  'x, y, z'
loop_
 _atom_site_type_symbol
 _atom_site_label
 _atom_site_symmetry_multiplicity
 _atom_site_fract_x
 _atom_site_fract_y
 _atom_site_fract_z
 _atom_site_occupancy
  Ge  Ge0  1  0.94822597  0.73264703  0.54251102  1
  Ge  Ge1  1  0.94822597  0.23264701  0.95748904  1
  Ge  Ge2  1  0.53578398  0.74037203  0.84366004  1
  Ge  Ge3  1  0.46421598  0.75962803  0.34366002  1
  Ge  Ge4  1  0.53578398  0.24037201  0.65634003  1
  Ge  Ge5  1  0.46421598  0.25962801  0.15634001  1
  P  P6  1  0.05177399  0.76735303  0.04251100  1
  Ge  Ge7  1  0.05177400  0.26735301  0.45748902  1
  N  N8  1  0.17545999  0.10566100  0.60881003  1
  N  N9  1  0.31898698  0.90034203  0.20526601  1
  N  N10  1  0.17545999  0.60566102  0.89119004  1
  Cl  Cl11  1  0.24968099  0.17120801  0.98087604  1
  N  N12  1  0.75031898  0.32879201  0.48087602  1
  N  N13  1  0.31898699  0.40034201  0.29473401  1
  N  N14  1  0.68101298  0.59965802  0.70526603  1
  N  N15  1  0.24968099  0.67120802  0.51912402  1
  N  N16  1  0.75031897  0.82879203  0.01912400  1
  N  N17  1  0.82453997  0.39433901  0.10881000  1
  N  N18  1  0.68101298  0.09965800  0.79473404  1
  N  N19  1  0.82453997  0.89433903  0.39119002  1
