# generated using pymatgen
data_Cs4RbTl2Cl7F5
_symmetry_space_group_name_H-M   'P 1'
_cell_length_a   7.56550312
_cell_length_b   9.09708691
_cell_length_c   9.14643192
_cell_angle_alpha   91.23752594
_cell_angle_beta   108.74808502
_cell_angle_gamma   95.49657440
_symmetry_Int_Tables_number   1
_chemical_formula_structural   Cs4RbTl2Cl7F5
_chemical_formula_sum   'Cs4 Rb1 Tl2 Cl7 F5'
_cell_volume   592.43608666
_cell_formula_units_Z   1
loop_
 _symmetry_equiv_pos_site_id
 _symmetry_equiv_pos_as_xyz
  1  'x, y, z'
loop_
 _atom_site_type_symbol
 _atom_site_label
 _atom_site_symmetry_multiplicity
 _atom_site_fract_x
 _atom_site_fract_y
 _atom_site_fract_z
 _atom_site_occupancy
  Cs  Cs0  1  0.00000000  0.00000000  0.00000000  1
  Cs  Cs1  1  0.24281897  0.64413901  0.14765399  1
  Cs  Cs2  1  0.23770896  0.92859802  0.43509899  1
  Cs  Cs3  1  0.75718097  0.35586101  0.85234600  1
  Tl  Tl4  1  0.20786498  0.29632001  0.77969401  1
  Tl  Tl5  1  0.79213495  0.70368001  0.22030598  1
  Rb  Rb6  1  0.76229098  0.07140200  0.56490099  1
  Cl  Cl7  1  0.66941998  0.07622400  0.80989600  1
  Cl  Cl8  1  0.08449199  0.31183001  0.01272900  1
  Cl  Cl9  1  0.91550795  0.68817001  0.98727099  1
  Cl  Cl10  1  0.91244294  0.98252802  0.27501998  1
  Cl  Cl11  1  0.10195397  0.64424601  0.39171200  1
  Cl  Cl12  1  0.89804596  0.35575401  0.60828799  1
  F  F13  1  0.33057996  0.92377602  0.19010399  1
  Cl  Cl14  1  0.08755700  0.01747200  0.72498001  1
  F  F15  1  0.35182297  0.66846101  0.85998000  1
  F  F16  1  0.64565896  0.72780801  0.54099299  1
  F  F17  1  0.64817697  0.33153901  0.14001999  1
  F  F18  1  0.35434098  0.27219200  0.45900700  1
