# generated using pymatgen
data_Rb2BiI5
_symmetry_space_group_name_H-M   'P 1'
_cell_length_a   9.01045036
_cell_length_b   10.24725056
_cell_length_c   9.01045036
_cell_angle_alpha   63.91831589
_cell_angle_beta   90.00000000
_cell_angle_gamma   116.08168793
_symmetry_Int_Tables_number   1
_chemical_formula_structural   Rb2BiI5
_chemical_formula_sum   'Rb4 Bi2 I10'
_cell_volume   651.59314491
_cell_formula_units_Z   2
loop_
 _symmetry_equiv_pos_site_id
 _symmetry_equiv_pos_as_xyz
  1  'x, y, z'
loop_
 _atom_site_type_symbol
 _atom_site_label
 _atom_site_symmetry_multiplicity
 _atom_site_fract_x
 _atom_site_fract_y
 _atom_site_fract_z
 _atom_site_occupancy
  Rb  Rb0  1  0.25000003  0.50000001  0.74999997  1
  Rb  Rb1  1  0.75000000  0.50000001  0.24999999  1
  Rb  Rb2  1  0.67776404  0.99999902  0.17776499  1
  Rb  Rb3  1  0.17776406  1.00000002  0.32223598  1
  Bi  Bi4  1  0.82223597  0.00000000  0.67776397  1
  Bi  Bi5  1  0.32223599  0.00000100  0.82223497  1
  I  I6  1  0.00000000  0.00000000  0.00000000  1
  I  I7  1  0.49999998  0.00000000  0.49999998  1
  I  I8  1  0.02330505  0.72912601  0.79417897  1
  I  I9  1  0.52330503  0.72912601  0.97669496  1
  I  I10  1  0.20582104  0.72912601  0.29417899  1
  I  I11  1  0.47669500  0.27087400  0.02330500  1
  I  I12  1  0.79417899  0.27087400  0.70582097  1
  I  I13  1  0.29417901  0.27087400  0.52330498  1
  I  I14  1  0.97669498  0.27087400  0.20582099  1
  I  I15  1  0.70582102  0.72912601  0.47669498  1
