# generated using pymatgen
data_Zn4Sn4PN11
_symmetry_space_group_name_H-M   'P 1'
_cell_length_a   4.96477318
_cell_length_b   6.65204382
_cell_length_c   7.37223816
_cell_angle_alpha   90.00000000
_cell_angle_beta   90.00000000
_cell_angle_gamma   90.00000000
_symmetry_Int_Tables_number   1
_chemical_formula_structural   Zn4Sn4PN11
_chemical_formula_sum   'Zn4 Sn4 P1 N11'
_cell_volume   243.47471717
_cell_formula_units_Z   1
loop_
 _symmetry_equiv_pos_site_id
 _symmetry_equiv_pos_as_xyz
  1  'x, y, z'
loop_
 _atom_site_type_symbol
 _atom_site_label
 _atom_site_symmetry_multiplicity
 _atom_site_fract_x
 _atom_site_fract_y
 _atom_site_fract_z
 _atom_site_occupancy
  Zn  Zn0  1  0.27542599  0.75000002  0.24999999  1
  Zn  Zn1  1  0.72457397  0.25000001  0.74999998  1
  Zn  Zn2  1  0.74797997  0.50008001  0.43315299  1
  Zn  Zn3  1  0.74797997  0.50008001  0.06684700  1
  Sn  Sn4  1  0.74797997  0.99992003  0.43315299  1
  Sn  Sn5  1  0.74797997  0.99992003  0.06684700  1
  Sn  Sn6  1  0.25201999  0.49992001  0.56684699  1
  Sn  Sn7  1  0.25201999  0.49992001  0.93315298  1
  P  P8  1  0.25201999  0.00008000  0.56684699  1
  N  N9  1  0.25201999  0.00008000  0.93315298  1
  N  N10  1  0.26349499  0.25000001  0.24999999  1
  N  N11  1  0.73650497  0.75000002  0.74999998  1
  N  N12  1  0.03770000  0.99881303  0.24999999  1
  N  N13  1  0.03770000  0.50118701  0.24999999  1
  N  N14  1  0.96229997  0.00118700  0.74999998  1
  N  N15  1  0.96229997  0.49881301  0.74999998  1
  N  N16  1  0.50138598  0.25000001  0.50070999  1
  N  N17  1  0.50138598  0.25000001  0.99928998  1
  N  N18  1  0.49861398  0.75000002  0.49928999  1
  N  N19  1  0.49861398  0.75000002  0.00071000  1
