# generated using pymatgen
data_LiNbF6
_symmetry_space_group_name_H-M   'P 1'
_cell_length_a   5.33156824
_cell_length_b   5.33156824
_cell_length_c   5.61595631
_cell_angle_alpha   61.66145706
_cell_angle_beta   61.66145706
_cell_angle_gamma   59.99999619
_symmetry_Int_Tables_number   1
_chemical_formula_structural   LiNbF6
_chemical_formula_sum   'Li1 Nb1 F6'
_cell_volume   115.63260065
_cell_formula_units_Z   1
loop_
 _symmetry_equiv_pos_site_id
 _symmetry_equiv_pos_as_xyz
  1  'x, y, z'
loop_
 _atom_site_type_symbol
 _atom_site_label
 _atom_site_symmetry_multiplicity
 _atom_site_fract_x
 _atom_site_fract_y
 _atom_site_fract_z
 _atom_site_occupancy
  Li  Li0  1  0.50000003  0.50000001  0.49999999  1
  Nb  Nb1  1  0.00000000  0.00000000  0.00000000  1
  F  F2  1  0.36208001  0.13100500  0.75348498  1
  F  F3  1  0.75343003  0.36208001  0.75348499  1
  F  F4  1  0.86899503  0.24657001  0.24651501  1
  F  F5  1  0.24657002  0.63792001  0.24651500  1
  F  F6  1  0.63792004  0.86899502  0.24651501  1
  F  F7  1  0.13100502  0.75343002  0.75348498  1
