# generated using pymatgen
data_Cd4Ag2As5I9
_symmetry_space_group_name_H-M   'P 1'
_cell_length_a   6.95269394
_cell_length_b   6.95269442
_cell_length_c   12.32368755
_cell_angle_alpha   90.00000000
_cell_angle_beta   90.00000000
_cell_angle_gamma   120.00000000
_symmetry_Int_Tables_number   1
_chemical_formula_structural   Cd4Ag2As5I9
_chemical_formula_sum   'Cd4 Ag2 As5 I9'
_cell_volume   515.91429841
_cell_formula_units_Z   1
loop_
 _symmetry_equiv_pos_site_id
 _symmetry_equiv_pos_as_xyz
  1  'x, y, z'
loop_
 _atom_site_type_symbol
 _atom_site_label
 _atom_site_symmetry_multiplicity
 _atom_site_fract_x
 _atom_site_fract_y
 _atom_site_fract_z
 _atom_site_occupancy
  Cd  Cd0  1  0.33333336  0.66666667  0.95911803  1
  Ag  Ag1  1  0.66666668  0.33333333  0.45911802  1
  Cd  Cd2  1  0.66666668  0.33333333  0.04088200  1
  Ag  Ag3  1  0.33333336  0.66666667  0.54088202  1
  Cd  Cd4  1  0.00000000  0.00000000  0.75000003  1
  Cd  Cd5  1  0.00000000  0.00000000  0.25000001  1
  As  As6  1  0.66666668  0.33333333  0.75000003  1
  As  As7  1  0.33333336  0.66666667  0.25000001  1
  As  As8  1  0.68150303  0.62829400  0.86827703  1
  As  As9  1  0.37170600  0.05320900  0.86827703  1
  As  As10  1  0.94679102  0.31849700  0.86827703  1
  I  I11  1  0.62829403  0.68150300  0.36827701  1
  I  I12  1  0.31849703  0.94679100  0.36827701  1
  I  I13  1  0.05320901  0.37170600  0.36827701  1
  I  I14  1  0.31849701  0.37170600  0.13172300  1
  I  I15  1  0.62829403  0.94679100  0.13172300  1
  I  I16  1  0.05320902  0.68150300  0.13172300  1
  I  I17  1  0.37170601  0.31849700  0.63172302  1
  I  I18  1  0.68150301  0.05320900  0.63172302  1
  I  I19  1  0.94679103  0.62829400  0.63172302  1
