# generated using pymatgen
data_CsAlNiF6
_symmetry_space_group_name_H-M   'P 1'
_cell_length_a   7.14876413
_cell_length_b   7.23604059
_cell_length_c   7.23604059
_cell_angle_alpha   60.92004395
_cell_angle_beta   60.39818954
_cell_angle_gamma   60.39818954
_symmetry_Int_Tables_number   1
_chemical_formula_structural   CsAlNiF6
_chemical_formula_sum   'Cs2 Al2 Ni2 F12'
_cell_volume   268.08420190
_cell_formula_units_Z   2
loop_
 _symmetry_equiv_pos_site_id
 _symmetry_equiv_pos_as_xyz
  1  'x, y, z'
loop_
 _atom_site_type_symbol
 _atom_site_label
 _atom_site_symmetry_multiplicity
 _atom_site_fract_x
 _atom_site_fract_y
 _atom_site_fract_z
 _atom_site_occupancy
  Cs  Cs0  1  0.87453098  0.87546901  0.37546897  1
  Cs  Cs1  1  0.12546900  0.12453100  0.62453099  1
  Al  Al2  1  0.99999999  0.50000000  -0.00000003  1
  Al  Al3  1  0.49999999  0.50000000  -0.00000002  1
  Ni  Ni4  1  0.49999999  0.50000000  0.49999998  1
  Ni  Ni5  1  0.50000000  0.00000000  -0.00000002  1
  F  F6  1  0.79960599  0.45039400  0.95039397  1
  F  F7  1  0.41930298  0.83069701  0.33069698  1
  F  F8  1  0.42225398  0.79863301  0.94335998  1
  F  F9  1  0.83575299  0.44336000  0.29863297  1
  F  F10  1  0.42225399  0.44336000  0.29863298  1
  F  F11  1  0.83575298  0.79863301  0.94335997  1
  F  F12  1  0.20039399  0.54960600  0.04960599  1
  F  F13  1  0.58069700  0.16930300  0.66930298  1
  F  F14  1  0.57774599  0.20136700  0.05663998  1
  F  F15  1  0.16424699  0.55664000  0.70136699  1
  F  F16  1  0.57774599  0.55664000  0.70136698  1
  F  F17  1  0.16424700  0.20136700  0.05663999  1
