# generated using pymatgen
data_TaNb2N5O2
_symmetry_space_group_name_H-M   'P 1'
_cell_length_a   5.06927109
_cell_length_b   5.33312035
_cell_length_c   6.37817240
_cell_angle_alpha   113.58654785
_cell_angle_beta   110.85047913
_cell_angle_gamma   90.01892853
_symmetry_Int_Tables_number   1
_chemical_formula_structural   TaNb2N5O2
_chemical_formula_sum   'Ta1 Nb2 N5 O2'
_cell_volume   145.61364984
_cell_formula_units_Z   1
loop_
 _symmetry_equiv_pos_site_id
 _symmetry_equiv_pos_as_xyz
  1  'x, y, z'
loop_
 _atom_site_type_symbol
 _atom_site_label
 _atom_site_symmetry_multiplicity
 _atom_site_fract_x
 _atom_site_fract_y
 _atom_site_fract_z
 _atom_site_occupancy
  Nb  Nb0  1  0.98195795  0.46363300  0.02675896  1
  Ta  Ta1  1  0.53978994  0.96287699  0.02550998  1
  Nb  Nb2  1  0.65553595  0.60663699  0.81300800  1
  O  O3  1  0.90061493  0.84465799  0.25070997  1
  N  N4  1  0.29256698  0.25427900  0.16986899  1
  N  N5  1  0.35841395  0.75533999  0.17078499  1
  N  N6  1  0.08053698  0.33439400  0.74596802  1
  N  N7  1  0.18948996  0.83378299  0.74425902  1
  N  N8  1  0.67585797  0.10764400  0.81382100  1
  O  O9  1  0.82241496  0.34411700  0.25184298  1
