# generated using pymatgen
data_Zn7CuSe12
_symmetry_space_group_name_H-M   'P 1'
_cell_length_a   6.21358109
_cell_length_b   6.36201382
_cell_length_c   8.97381306
_cell_angle_alpha   90.00000000
_cell_angle_beta   90.00000000
_cell_angle_gamma   90.00000000
_symmetry_Int_Tables_number   1
_chemical_formula_structural   Zn7CuSe12
_chemical_formula_sum   'Zn7 Cu1 Se12'
_cell_volume   354.74280531
_cell_formula_units_Z   1
loop_
 _symmetry_equiv_pos_site_id
 _symmetry_equiv_pos_as_xyz
  1  'x, y, z'
loop_
 _atom_site_type_symbol
 _atom_site_label
 _atom_site_symmetry_multiplicity
 _atom_site_fract_x
 _atom_site_fract_y
 _atom_site_fract_z
 _atom_site_occupancy
  Zn  Zn0  1  0.60627499  0.10510600  0.84711399  1
  Zn  Zn1  1  0.95501799  0.75000002  0.00000000  1
  Zn  Zn2  1  0.45501799  0.75000002  0.50000000  1
  Zn  Zn3  1  0.10627500  0.10510600  0.65288600  1
  Zn  Zn4  1  0.89372499  0.89489403  0.34711400  1
  Zn  Zn5  1  0.54498199  0.25000001  0.50000000  1
  Cu  Cu6  1  0.39372499  0.60510602  0.84711399  1
  Zn  Zn7  1  0.04498200  0.25000001  0.00000000  1
  Se  Se8  1  0.39372499  0.89489403  0.15288600  1
  Se  Se9  1  0.60627499  0.39489401  0.15288600  1
  Se  Se10  1  0.10627500  0.39489401  0.34711400  1
  Se  Se11  1  0.89372499  0.60510602  0.65288600  1
  Se  Se12  1  0.75278899  0.03142400  0.11208400  1
  Se  Se13  1  0.74721099  0.53142402  0.38791600  1
  Se  Se14  1  0.25278900  0.03142400  0.38791600  1
  Se  Se15  1  0.74721099  0.96857603  0.61208400  1
  Se  Se16  1  0.75278899  0.46857601  0.88791599  1
  Se  Se17  1  0.25278900  0.46857601  0.61208400  1
  Se  Se18  1  0.24721100  0.96857603  0.88791599  1
  Se  Se19  1  0.24721100  0.53142402  0.11208400  1
