# generated using pymatgen
data_MgSi3PC3
_symmetry_space_group_name_H-M   'P 1'
_cell_length_a   3.00325918
_cell_length_b   3.00325918
_cell_length_c   9.85543060
_cell_angle_alpha   81.23595428
_cell_angle_beta   81.23595428
_cell_angle_gamma   60.00000000
_symmetry_Int_Tables_number   1
_chemical_formula_structural   MgSi3PC3
_chemical_formula_sum   'Mg1 Si3 P1 C3'
_cell_volume   75.78166098
_cell_formula_units_Z   1
loop_
 _symmetry_equiv_pos_site_id
 _symmetry_equiv_pos_as_xyz
  1  'x, y, z'
loop_
 _atom_site_type_symbol
 _atom_site_label
 _atom_site_symmetry_multiplicity
 _atom_site_fract_x
 _atom_site_fract_y
 _atom_site_fract_z
 _atom_site_occupancy
  Mg  Mg0  1  0.00000000  0.00000000  0.00000000  1
  Si  Si1  1  0.50000002  0.50000002  0.49999998  1
  Si  Si2  1  0.25000001  0.25000001  0.24999999  1
  Si  Si3  1  0.75000003  0.75000003  0.74999997  1
  C  C4  1  0.37464002  0.37464001  0.87607898  1
  C  C5  1  0.87464004  0.87464003  0.37607897  1
  C  C6  1  0.12536001  0.12536000  0.62392099  1
  P  P7  1  0.62536003  0.62536002  0.12392098  1
