# generated using pymatgen
data_KNaAu2O5
_symmetry_space_group_name_H-M   'P 1'
_cell_length_a   5.60965776
_cell_length_b   5.60965776
_cell_length_c   7.81885576
_cell_angle_alpha   90.00000000
_cell_angle_beta   90.00000000
_cell_angle_gamma   90.00000000
_symmetry_Int_Tables_number   1
_chemical_formula_structural   KNaAu2O5
_chemical_formula_sum   'K2 Na2 Au4 O10'
_cell_volume   246.04578787
_cell_formula_units_Z   2
loop_
 _symmetry_equiv_pos_site_id
 _symmetry_equiv_pos_as_xyz
  1  'x, y, z'
loop_
 _atom_site_type_symbol
 _atom_site_label
 _atom_site_symmetry_multiplicity
 _atom_site_fract_x
 _atom_site_fract_y
 _atom_site_fract_z
 _atom_site_occupancy
  K  K0  1  0.00000000  0.00000000  0.00000000  1
  K  K1  1  0.50000002  0.50000002  -0.00000000  1
  Na  Na2  1  0.00000000  0.00000000  0.50000002  1
  Na  Na3  1  0.50000002  0.50000002  0.50000002  1
  Au  Au4  1  0.00000000  0.50000002  0.25864701  1
  Au  Au5  1  0.50000002  0.00000000  0.74135302  1
  Au  Au6  1  0.00000000  0.50000002  0.72353902  1
  Au  Au7  1  0.50000002  0.00000000  0.27646101  1
  O  O8  1  0.24399001  0.74399003  0.67791402  1
  O  O9  1  0.75601003  0.74399003  0.67791402  1
  O  O10  1  0.24399001  0.25601001  0.67791402  1
  O  O11  1  0.75601003  0.25601001  0.67791402  1
  O  O12  1  0.25601001  0.75601003  0.32208601  1
  O  O13  1  0.74399003  0.75601003  0.32208601  1
  O  O14  1  0.25601001  0.24399001  0.32208601  1
  O  O15  1  0.74399003  0.24399001  0.32208601  1
  O  O16  1  0.00000000  0.50000002  0.99377903  1
  O  O17  1  0.50000002  0.00000000  0.00622100  1
