# generated using pymatgen
data_LiMn3F12
_symmetry_space_group_name_H-M   'P 1'
_cell_length_a   4.99974585
_cell_length_b   4.99974585
_cell_length_c   8.77617741
_cell_angle_alpha   90.00000000
_cell_angle_beta   90.00000000
_cell_angle_gamma   90.00000000
_symmetry_Int_Tables_number   1
_chemical_formula_structural   LiMn3F12
_chemical_formula_sum   'Li1 Mn3 F12'
_cell_volume   219.38213070
_cell_formula_units_Z   1
loop_
 _symmetry_equiv_pos_site_id
 _symmetry_equiv_pos_as_xyz
  1  'x, y, z'
loop_
 _atom_site_type_symbol
 _atom_site_label
 _atom_site_symmetry_multiplicity
 _atom_site_fract_x
 _atom_site_fract_y
 _atom_site_fract_z
 _atom_site_occupancy
  Mn  Mn0  1  0.00000000  0.00000000  0.82634596  1
  Li  Li1  1  0.50000002  0.50000002  0.67365397  1
  Mn  Mn2  1  0.50000002  0.50000002  0.32634598  1
  Mn  Mn3  1  0.00000000  0.00000000  0.17365399  1
  F  F4  1  0.82679103  0.82679103  -0.00000000  1
  F  F5  1  0.69932602  0.30067401  0.81377696  1
  F  F6  1  0.30067401  0.69932602  0.81377696  1
  F  F7  1  0.19932601  0.19932601  0.68622297  1
  F  F8  1  0.80067402  0.80067402  0.68622297  1
  F  F9  1  0.67320902  0.32679101  0.49999998  1
  F  F10  1  0.32679101  0.67320902  0.49999998  1
  F  F11  1  0.19932601  0.19932601  0.31377699  1
  F  F12  1  0.80067402  0.80067402  0.31377699  1
  F  F13  1  0.69932602  0.30067401  0.18622299  1
  F  F14  1  0.30067401  0.69932602  0.18622299  1
  F  F15  1  0.17320901  0.17320901  -0.00000000  1
