# generated using pymatgen
data_NaUS2
_symmetry_space_group_name_H-M   'P 1'
_cell_length_a   3.52963209
_cell_length_b   3.52963114
_cell_length_c   13.69012260
_cell_angle_alpha   90.00000000
_cell_angle_beta   90.00000000
_cell_angle_gamma   120.00000763
_symmetry_Int_Tables_number   1
_chemical_formula_structural   NaUS2
_chemical_formula_sum   'Na2 U2 S4'
_cell_volume   147.70551027
_cell_formula_units_Z   2
loop_
 _symmetry_equiv_pos_site_id
 _symmetry_equiv_pos_as_xyz
  1  'x, y, z'
loop_
 _atom_site_type_symbol
 _atom_site_label
 _atom_site_symmetry_multiplicity
 _atom_site_fract_x
 _atom_site_fract_y
 _atom_site_fract_z
 _atom_site_occupancy
  Na  Na0  1  0.00000000  0.00000000  0.00000000  1
  Na  Na1  1  0.00000000  0.00000000  0.50000001  1
  U  U2  1  0.00000000  0.00000000  0.75000002  1
  U  U3  1  0.00000000  0.00000000  0.25000001  1
  S  S4  1  0.66666665  0.33333333  0.87248903  1
  S  S5  1  0.33333332  0.66666667  0.12751100  1
  S  S6  1  0.33333332  0.66666667  0.37248901  1
  S  S7  1  0.66666665  0.33333333  0.62751102  1
