# generated using pymatgen
data_KGdAgTe3
_symmetry_space_group_name_H-M   'P 1'
_cell_length_a   4.55520582
_cell_length_b   7.91766644
_cell_length_c   11.56613255
_cell_angle_alpha   90.00000000
_cell_angle_beta   90.00000000
_cell_angle_gamma   106.71797180
_symmetry_Int_Tables_number   1
_chemical_formula_structural   KGdAgTe3
_chemical_formula_sum   'K2 Gd2 Ag2 Te6'
_cell_volume   399.51906729
_cell_formula_units_Z   2
loop_
 _symmetry_equiv_pos_site_id
 _symmetry_equiv_pos_as_xyz
  1  'x, y, z'
loop_
 _atom_site_type_symbol
 _atom_site_label
 _atom_site_symmetry_multiplicity
 _atom_site_fract_x
 _atom_site_fract_y
 _atom_site_fract_z
 _atom_site_occupancy
  K  K0  1  0.75485607  0.50971200  0.75000003  1
  K  K1  1  0.24514405  0.49028800  0.25000001  1
  Gd  Gd2  1  0.00000000  0.00000000  0.50000002  1
  Gd  Gd3  1  0.00000000  0.00000000  0.00000000  1
  Ag  Ag4  1  0.46868610  0.93737200  0.75000003  1
  Ag  Ag5  1  0.53131403  0.06262800  0.25000001  1
  Te  Te6  1  0.36125408  0.72250800  0.55161902  1
  Te  Te7  1  0.63874605  0.27749200  0.44838102  1
  Te  Te8  1  0.36125408  0.72250800  0.94838104  1
  Te  Te9  1  0.63874605  0.27749200  0.05161900  1
  Te  Te10  1  0.07956502  0.15913000  0.75000003  1
  Te  Te11  1  0.92043511  0.84087000  0.25000001  1
