# generated using pymatgen
data_NaNdFeWO6
_symmetry_space_group_name_H-M   'P 1'
_cell_length_a   5.63942003
_cell_length_b   5.71115398
_cell_length_c   8.10666370
_cell_angle_alpha   90.00000000
_cell_angle_beta   89.82865143
_cell_angle_gamma   90.00000000
_symmetry_Int_Tables_number   1
_chemical_formula_structural   NaNdFeWO6
_chemical_formula_sum   'Na2 Nd2 Fe2 W2 O12'
_cell_volume   261.09498342
_cell_formula_units_Z   2
loop_
 _symmetry_equiv_pos_site_id
 _symmetry_equiv_pos_as_xyz
  1  'x, y, z'
loop_
 _atom_site_type_symbol
 _atom_site_label
 _atom_site_symmetry_multiplicity
 _atom_site_fract_x
 _atom_site_fract_y
 _atom_site_fract_z
 _atom_site_occupancy
  Na  Na0  1  0.74634200  0.22604500  0.49974999  1
  Na  Na1  1  0.25365800  0.72604500  0.50024998  1
  Nd  Nd2  1  0.75724700  0.28698500  0.99993396  1
  Nd  Nd3  1  0.24275300  0.78698500  0.00006601  1
  Fe  Fe4  1  0.25021200  0.25039400  0.26237599  1
  Fe  Fe5  1  0.74978800  0.75039400  0.73762398  1
  W  W6  1  0.25408700  0.24402400  0.73912196  1
  W  W7  1  0.74591300  0.74402400  0.26087800  1
  O  O8  1  0.83475000  0.77137600  0.48192999  1
  O  O9  1  0.16525000  0.27137600  0.51806997  1
  O  O10  1  0.66398000  0.72028200  0.00981002  1
  O  O11  1  0.33602000  0.22028200  0.99018995  1
  O  O12  1  0.57181800  0.45477600  0.28247800  1
  O  O13  1  0.42818200  0.95477600  0.71752197  1
  O  O14  1  0.53429400  0.42950900  0.72264197  1
  O  O15  1  0.46570600  0.92950900  0.27735800  1
  O  O16  1  0.04887500  0.50963600  0.80844396  1
  O  O17  1  0.95112499  0.00963600  0.19155601  1
  O  O18  1  0.97881799  0.04037500  0.80690298  1
  O  O19  1  0.02118200  0.54037500  0.19309699  1
