# generated using pymatgen
data_Si3NiP4
_symmetry_space_group_name_H-M   'P 1'
_cell_length_a   5.13912010
_cell_length_b   5.13912010
_cell_length_c   6.25961494
_cell_angle_alpha   114.23612976
_cell_angle_beta   114.23612976
_cell_angle_gamma   90.00000000
_symmetry_Int_Tables_number   1
_chemical_formula_structural   Si3NiP4
_chemical_formula_sum   'Si3 Ni1 P4'
_cell_volume   134.60965598
_cell_formula_units_Z   1
loop_
 _symmetry_equiv_pos_site_id
 _symmetry_equiv_pos_as_xyz
  1  'x, y, z'
loop_
 _atom_site_type_symbol
 _atom_site_label
 _atom_site_symmetry_multiplicity
 _atom_site_fract_x
 _atom_site_fract_y
 _atom_site_fract_z
 _atom_site_occupancy
  Si  Si0  1  0.00000000  0.00000000  0.00000000  1
  Si  Si1  1  0.75000001  0.25000000  0.50000004  1
  Si  Si2  1  0.50000002  0.50000000  0.00000004  1
  Ni  Ni3  1  0.25000003  0.75000000  0.50000005  1
  P  P4  1  0.64002502  0.62500000  0.75000005  1
  P  P5  1  0.87500001  0.35997500  0.25000004  1
  P  P6  1  0.37500003  0.89002500  0.25000005  1
  P  P7  1  0.10997500  0.12500000  0.75000002  1
