# generated using pymatgen
data_Li2FePO4
_symmetry_space_group_name_H-M   'P 1'
_cell_length_a   4.97488594
_cell_length_b   5.30782557
_cell_length_c   6.21696377
_cell_angle_alpha   90.00000000
_cell_angle_beta   90.00000000
_cell_angle_gamma   89.64942169
_symmetry_Int_Tables_number   1
_chemical_formula_structural   Li2FePO4
_chemical_formula_sum   'Li4 Fe2 P2 O8'
_cell_volume   164.16099529
_cell_formula_units_Z   2
loop_
 _symmetry_equiv_pos_site_id
 _symmetry_equiv_pos_as_xyz
  1  'x, y, z'
loop_
 _atom_site_type_symbol
 _atom_site_label
 _atom_site_symmetry_multiplicity
 _atom_site_fract_x
 _atom_site_fract_y
 _atom_site_fract_z
 _atom_site_occupancy
  Li  Li0  1  0.49067200  0.84440497  0.00000000  1
  Li  Li1  1  0.99204101  0.67343197  0.75098803  1
  Li  Li2  1  0.49057300  0.32655899  0.74613603  1
  Li  Li3  1  0.49057300  0.32655899  0.25386401  1
  Fe  Fe4  1  0.99204101  0.67343197  0.24901201  1
  Fe  Fe5  1  0.99357301  0.17210699  0.50000002  1
  P  P6  1  0.99975201  0.17423699  0.00000000  1
  P  P7  1  0.49862900  0.81858297  0.50000002  1
  O  O8  1  0.89887801  0.89686097  0.00000000  1
  O  O9  1  0.31220700  0.18052199  1.00000004  1
  O  O10  1  0.88929001  0.31800899  0.79840703  1
  O  O11  1  0.39030300  0.68695197  0.70699503  1
  O  O12  1  0.81103300  0.80077797  0.50000002  1
  O  O13  1  0.41343600  0.10260200  0.50000002  1
  O  O14  1  0.39030300  0.68695197  0.29300501  1
  O  O15  1  0.88929001  0.31800899  0.20159301  1
