# generated using pymatgen
data_TlHgCl3
_symmetry_space_group_name_H-M   'P 1'
_cell_length_a   4.49179220
_cell_length_b   9.51238155
_cell_length_c   14.15843582
_cell_angle_alpha   90.00000000
_cell_angle_beta   90.00000000
_cell_angle_gamma   90.00000000
_symmetry_Int_Tables_number   1
_chemical_formula_structural   TlHgCl3
_chemical_formula_sum   'Tl4 Hg4 Cl12'
_cell_volume   604.95656694
_cell_formula_units_Z   4
loop_
 _symmetry_equiv_pos_site_id
 _symmetry_equiv_pos_as_xyz
  1  'x, y, z'
loop_
 _atom_site_type_symbol
 _atom_site_label
 _atom_site_symmetry_multiplicity
 _atom_site_fract_x
 _atom_site_fract_y
 _atom_site_fract_z
 _atom_site_occupancy
  Tl  Tl0  1  0.24999999  0.45062602  0.33280800  1
  Tl  Tl1  1  0.24999999  0.95062604  0.16719200  1
  Tl  Tl2  1  0.74999997  0.54937403  0.66719201  1
  Tl  Tl3  1  0.74999997  0.04937400  0.83280801  1
  Hg  Hg4  1  0.24999999  0.17452101  0.54596001  1
  Hg  Hg5  1  0.24999999  0.67452103  0.95404001  1
  Hg  Hg6  1  0.74999997  0.82547904  0.45404001  1
  Hg  Hg7  1  0.74999997  0.32547902  0.04596000  1
  Cl  Cl8  1  0.24999999  0.27119301  0.70411001  1
  Cl  Cl9  1  0.24999999  0.77119304  0.79589001  1
  Cl  Cl10  1  0.74999997  0.72880703  0.29589000  1
  Cl  Cl11  1  0.74999997  0.22880701  0.20411000  1
  Cl  Cl12  1  0.24999999  0.15551701  0.98451301  1
  Cl  Cl13  1  0.24999999  0.65551703  0.51548701  1
  Cl  Cl14  1  0.74999997  0.84448304  0.01548700  1
  Cl  Cl15  1  0.74999997  0.34448302  0.48451301  1
  Cl  Cl16  1  0.24999999  0.04295400  0.39834601  1
  Cl  Cl17  1  0.24999999  0.54295403  0.10165400  1
  Cl  Cl18  1  0.74999997  0.95704604  0.60165401  1
  Cl  Cl19  1  0.74999997  0.45704602  0.89834601  1
