# generated using pymatgen
data_SrCeO3
_symmetry_space_group_name_H-M   'P 1'
_cell_length_a   6.28692198
_cell_length_b   6.30357122
_cell_length_c   8.88500977
_cell_angle_alpha   90.00000000
_cell_angle_beta   90.00000000
_cell_angle_gamma   90.00000000
_symmetry_Int_Tables_number   1
_chemical_formula_structural   SrCeO3
_chemical_formula_sum   'Sr4 Ce4 O12'
_cell_volume   352.11347428
_cell_formula_units_Z   4
loop_
 _symmetry_equiv_pos_site_id
 _symmetry_equiv_pos_as_xyz
  1  'x, y, z'
loop_
 _atom_site_type_symbol
 _atom_site_label
 _atom_site_symmetry_multiplicity
 _atom_site_fract_x
 _atom_site_fract_y
 _atom_site_fract_z
 _atom_site_occupancy
  Sr  Sr0  1  0.49392100  0.97659797  0.25000001  1
  Sr  Sr1  1  0.00607900  0.47659798  0.25000001  1
  Sr  Sr2  1  0.50607900  0.02340200  0.75000002  1
  Sr  Sr3  1  0.99392100  0.52340198  0.75000002  1
  Ce  Ce4  1  0.50000000  0.49999998  -0.00000000  1
  Ce  Ce5  1  0.00000000  0.00000000  0.50000001  1
  Ce  Ce6  1  0.50000000  0.49999998  0.50000001  1
  Ce  Ce7  1  0.00000000  0.00000000  0.00000000  1
  O  O8  1  0.57567700  0.51791598  0.25000001  1
  O  O9  1  0.92432300  0.01791600  0.25000001  1
  O  O10  1  0.42432300  0.48208398  0.75000002  1
  O  O11  1  0.07567700  0.98208397  0.75000002  1
  O  O12  1  0.22226100  0.72138797  0.04067300  1
  O  O13  1  0.27773900  0.22138799  0.45932701  1
  O  O14  1  0.77773900  0.27861199  0.54067301  1
  O  O15  1  0.72226100  0.77861197  0.95932703  1
  O  O16  1  0.77773900  0.27861199  0.95932703  1
  O  O17  1  0.72226100  0.77861197  0.54067301  1
  O  O18  1  0.22226100  0.72138797  0.45932701  1
  O  O19  1  0.27773900  0.22138799  0.04067300  1
