# generated using pymatgen
data_Li2Mn3O5
_symmetry_space_group_name_H-M   'P 1'
_cell_length_a   3.12975526
_cell_length_b   7.59899473
_cell_length_c   7.79802322
_cell_angle_alpha   86.14742279
_cell_angle_beta   89.85638428
_cell_angle_gamma   89.50933075
_symmetry_Int_Tables_number   1
_chemical_formula_structural   Li2Mn3O5
_chemical_formula_sum   'Li4 Mn6 O10'
_cell_volume   185.03410817
_cell_formula_units_Z   2
loop_
 _symmetry_equiv_pos_site_id
 _symmetry_equiv_pos_as_xyz
  1  'x, y, z'
loop_
 _atom_site_type_symbol
 _atom_site_label
 _atom_site_symmetry_multiplicity
 _atom_site_fract_x
 _atom_site_fract_y
 _atom_site_fract_z
 _atom_site_occupancy
  Li  Li0  1  0.00019005  0.35118599  0.98340000  1
  Li  Li1  1  0.49881207  0.59860698  0.23362700  1
  Li  Li2  1  0.49981200  0.10008500  0.73499999  1
  Li  Li3  1  0.99838608  0.84675598  0.48527499  1
  Mn  Mn4  1  0.49970604  0.39881499  0.76659799  1
  Mn  Mn5  1  0.00013409  0.64991098  0.01500300  1
  Mn  Mn6  1  0.00111102  0.15139500  0.51637300  1
  Mn  Mn7  1  0.50152111  0.90324697  0.26472900  1
  Mn  Mn8  1  0.99976203  0.49957499  0.49976799  1
  Mn  Mn9  1  0.50017402  0.25043499  0.25021900  1
  O  O10  1  0.49986409  0.75021598  0.75036500  1
  O  O11  1  0.00006214  0.99976697  0.99963900  1
  O  O12  1  0.99423704  0.54874598  0.79238699  1
  O  O13  1  0.49518209  0.79788098  0.04230200  1
  O  O14  1  0.49864102  0.30167799  0.54240000  1
  O  O15  1  0.99923397  0.05133200  0.29183299  1
  O  O16  1  0.50563601  0.20125499  0.95761599  1
  O  O17  1  0.00128506  0.44832499  0.20759900  1
  O  O18  1  0.00479313  0.95211697  0.70770100  1
  O  O19  1  0.50066408  0.69866898  0.45816800  1
