# generated using pymatgen
data_BaSrI6
_symmetry_space_group_name_H-M   'P 1'
_cell_length_a   5.99639463
_cell_length_b   5.99639463
_cell_length_c   10.07547760
_cell_angle_alpha   72.68806458
_cell_angle_beta   72.68806458
_cell_angle_gamma   59.99999237
_symmetry_Int_Tables_number   1
_chemical_formula_structural   BaSrI6
_chemical_formula_sum   'Ba1 Sr1 I6'
_cell_volume   294.64188801
_cell_formula_units_Z   1
loop_
 _symmetry_equiv_pos_site_id
 _symmetry_equiv_pos_as_xyz
  1  'x, y, z'
loop_
 _atom_site_type_symbol
 _atom_site_label
 _atom_site_symmetry_multiplicity
 _atom_site_fract_x
 _atom_site_fract_y
 _atom_site_fract_z
 _atom_site_occupancy
  Ba  Ba0  1  0.50000006  0.50000001  0.49999996  1
  Sr  Sr1  1  0.36484204  0.36484201  0.90547397  1
  I  I2  1  0.63515807  0.63515802  0.09452595  1
  I  I3  1  0.21679303  0.21679301  0.34962098  1
  I  I4  1  0.78320709  0.78320702  0.65037894  1
  I  I5  1  0.00000000  0.00000000  0.00000000  1
  I  I6  1  0.08842801  0.08842800  0.73471599  1
  I  I7  1  0.91157211  0.91157202  0.26528393  1
