# generated using pymatgen
data_Ba2SeS4
_symmetry_space_group_name_H-M   'P 1'
_cell_length_a   6.77126789
_cell_length_b   6.79484892
_cell_length_c   8.28602505
_cell_angle_alpha   107.97041321
_cell_angle_beta   90.00000000
_cell_angle_gamma   90.00000000
_symmetry_Int_Tables_number   1
_chemical_formula_structural   Ba2SeS4
_chemical_formula_sum   'Ba4 Se2 S8'
_cell_volume   362.63955403
_cell_formula_units_Z   2
loop_
 _symmetry_equiv_pos_site_id
 _symmetry_equiv_pos_as_xyz
  1  'x, y, z'
loop_
 _atom_site_type_symbol
 _atom_site_label
 _atom_site_symmetry_multiplicity
 _atom_site_fract_x
 _atom_site_fract_y
 _atom_site_fract_z
 _atom_site_occupancy
  Ba  Ba0  1  0.25000000  0.76174300  0.56544697  1
  Ba  Ba1  1  0.75000001  0.23825700  0.43455298  1
  Ba  Ba2  1  0.25000000  0.72202000  0.05328798  1
  Ba  Ba3  1  0.75000001  0.27798000  0.94671197  1
  Se  Se4  1  0.25000000  0.26954800  0.19812399  1
  Se  Se5  1  0.75000001  0.73045200  0.80187596  1
  S  S6  1  0.49727901  0.50962700  0.74147097  1
  S  S7  1  0.99727902  0.49037300  0.25852898  1
  S  S8  1  0.50272101  0.49037300  0.25852898  1
  S  S9  1  0.00272100  0.50962700  0.74147097  1
  S  S10  1  0.25000000  0.07749700  0.37318999  1
  S  S11  1  0.75000001  0.92250300  0.62680996  1
  S  S12  1  0.75000001  0.90499800  0.07688498  1
  S  S13  1  0.25000000  0.09500200  0.92311497  1
