# generated using pymatgen
data_Li2MgTi5O2
_symmetry_space_group_name_H-M   'P 1'
_cell_length_a   6.22081375
_cell_length_b   6.32259941
_cell_length_c   6.32259941
_cell_angle_alpha   88.74996185
_cell_angle_beta   62.38755417
_cell_angle_gamma   117.61244202
_symmetry_Int_Tables_number   1
_chemical_formula_structural   Li2MgTi5O2
_chemical_formula_sum   'Li2 Mg1 Ti5 O2'
_cell_volume   186.17846372
_cell_formula_units_Z   1
loop_
 _symmetry_equiv_pos_site_id
 _symmetry_equiv_pos_as_xyz
  1  'x, y, z'
loop_
 _atom_site_type_symbol
 _atom_site_label
 _atom_site_symmetry_multiplicity
 _atom_site_fract_x
 _atom_site_fract_y
 _atom_site_fract_z
 _atom_site_occupancy
  Mg  Mg0  1  -0.00000006  0.49999998  0.50000007  1
  Ti  Ti1  1  0.99999997  0.00000000  0.50000000  1
  Ti  Ti2  1  0.49999992  0.49999998  0.50000006  1
  Li  Li3  1  0.49999992  0.49999998  1.00000007  1
  Ti  Ti4  1  0.24999988  0.88395096  0.88395112  1
  Ti  Ti5  1  0.74999996  0.11604900  0.11604901  1
  Ti  Ti6  1  0.26085096  0.24904199  0.86376404  1
  Li  Li7  1  0.73914888  0.75095797  0.13623608  1
  O  O8  1  0.23914888  0.86376396  0.24904210  1
  O  O9  1  0.76085096  0.13623599  0.75095802  1
