# generated using pymatgen
data_Rb2Cl3
_symmetry_space_group_name_H-M   'P 1'
_cell_length_a   5.72807932
_cell_length_b   5.78863049
_cell_length_c   5.78863049
_cell_angle_alpha   89.59522247
_cell_angle_beta   88.19674683
_cell_angle_gamma   91.80325317
_symmetry_Int_Tables_number   1
_chemical_formula_structural   Rb2Cl3
_chemical_formula_sum   'Rb2 Cl3'
_cell_volume   191.74158269
_cell_formula_units_Z   1
loop_
 _symmetry_equiv_pos_site_id
 _symmetry_equiv_pos_as_xyz
  1  'x, y, z'
loop_
 _atom_site_type_symbol
 _atom_site_label
 _atom_site_symmetry_multiplicity
 _atom_site_fract_x
 _atom_site_fract_y
 _atom_site_fract_z
 _atom_site_occupancy
  Rb  Rb0  1  0.59346098  0.89898304  0.10101700  1
  Rb  Rb1  1  0.12967399  0.36908201  0.63091802  1
  Cl  Cl2  1  0.57835498  0.40879302  0.59120703  1
  Cl  Cl3  1  0.10280499  0.92460804  0.61566602  1
  Cl  Cl4  1  0.10280499  0.38433402  0.07539200  1
