# generated using pymatgen
data_Al3Pt(CO7)2
_symmetry_space_group_name_H-M   'P 1'
_cell_length_a   4.67756844
_cell_length_b   7.07296991
_cell_length_c   7.07294226
_cell_angle_alpha   68.36139679
_cell_angle_beta   70.87498474
_cell_angle_gamma   70.87467957
_symmetry_Int_Tables_number   1
_chemical_formula_structural   Al3Pt(CO7)2
_chemical_formula_sum   'Al3 Pt1 C2 O14'
_cell_volume   199.72730561
_cell_formula_units_Z   1
loop_
 _symmetry_equiv_pos_site_id
 _symmetry_equiv_pos_as_xyz
  1  'x, y, z'
loop_
 _atom_site_type_symbol
 _atom_site_label
 _atom_site_symmetry_multiplicity
 _atom_site_fract_x
 _atom_site_fract_y
 _atom_site_fract_z
 _atom_site_occupancy
  Al  Al0  1  0.74998989  0.91782300  0.58212811  1
  Al  Al1  1  0.25000795  0.41787500  0.08217504  1
  Al  Al2  1  0.49999390  0.84176300  0.15823808  1
  Pt  Pt3  1  0.00002697  0.34183500  0.65816004  1
  C  C4  1  0.12050291  0.88037900  0.88269908  1
  C  C5  1  0.62023295  0.38069100  0.38218006  1
  O  O6  1  0.37977093  0.61782200  0.61930807  1
  O  O7  1  0.87948897  0.11729800  0.11962304  1
  O  O8  1  0.52471494  0.48133800  0.75886407  1
  O  O9  1  0.02434390  0.98122800  0.25897408  1
  O  O10  1  0.48767594  0.52839400  0.24158306  1
  O  O11  1  0.98962297  0.02779400  0.74130605  1
  O  O12  1  0.01036597  0.25869100  0.97220804  1
  O  O13  1  0.51232491  0.75841900  0.47160308  1
  O  O14  1  0.09936294  0.61189600  0.62816406  1
  O  O15  1  0.59878597  0.11096600  0.12807903  1
  O  O16  1  0.40121090  0.87192500  0.88903209  1
  O  O17  1  0.90063094  0.37183300  0.38811207  1
  O  O18  1  0.97565190  0.74102800  0.01877209  1
  O  O19  1  0.47529096  0.24113500  0.51865904  1
