# generated using pymatgen
data_Zn8PS7
_symmetry_space_group_name_H-M   'P 1'
_cell_length_a   3.85220003
_cell_length_b   3.85220075
_cell_length_c   25.21722603
_cell_angle_alpha   90.00000000
_cell_angle_beta   90.00000000
_cell_angle_gamma   119.99999237
_symmetry_Int_Tables_number   1
_chemical_formula_structural   Zn8PS7
_chemical_formula_sum   'Zn8 P1 S7'
_cell_volume   324.07514031
_cell_formula_units_Z   1
loop_
 _symmetry_equiv_pos_site_id
 _symmetry_equiv_pos_as_xyz
  1  'x, y, z'
loop_
 _atom_site_type_symbol
 _atom_site_label
 _atom_site_symmetry_multiplicity
 _atom_site_fract_x
 _atom_site_fract_y
 _atom_site_fract_z
 _atom_site_occupancy
  Zn  Zn0  1  0.66666666  0.33333334  0.87496300  1
  Zn  Zn1  1  0.00000000  0.00000000  0.99994900  1
  Zn  Zn2  1  0.33333332  0.66666667  0.37497100  1
  Zn  Zn3  1  0.33333332  0.66666667  0.12495600  1
  Zn  Zn4  1  0.00000000  0.00000000  0.24995600  1
  Zn  Zn5  1  0.66666666  0.33333334  0.62494800  1
  Zn  Zn6  1  0.00000000  0.00000000  0.49996400  1
  Zn  Zn7  1  0.33333332  0.66666667  0.74997100  1
  P  P8  1  0.33333332  0.66666667  0.65619800  1
  S  S9  1  0.33333332  0.66666667  0.03120300  1
  S  S10  1  0.66666666  0.33333334  0.78127200  1
  S  S11  1  0.00000000  0.00000000  0.40627900  1
  S  S12  1  0.00000000  0.00000000  0.90624500  1
  S  S13  1  0.00000000  0.00000000  0.15624800  1
  S  S14  1  0.66666666  0.33333334  0.53124200  1
  S  S15  1  0.33333332  0.66666667  0.28123600  1
