# generated using pymatgen
data_Na3In2PdBr5Cl4
_symmetry_space_group_name_H-M   'P 1'
_cell_length_a   8.02147198
_cell_length_b   8.02147198
_cell_length_c   8.02147198
_cell_angle_alpha   60.00000000
_cell_angle_beta   60.00000000
_cell_angle_gamma   60.00000000
_symmetry_Int_Tables_number   1
_chemical_formula_structural   Na3In2PdBr5Cl4
_chemical_formula_sum   'Na3 In2 Pd1 Br5 Cl4'
_cell_volume   364.96163547
_cell_formula_units_Z   1
loop_
 _symmetry_equiv_pos_site_id
 _symmetry_equiv_pos_as_xyz
  1  'x, y, z'
loop_
 _atom_site_type_symbol
 _atom_site_label
 _atom_site_symmetry_multiplicity
 _atom_site_fract_x
 _atom_site_fract_y
 _atom_site_fract_z
 _atom_site_occupancy
  Na  Na0  1  0.49999998  0.99999996  0.49999998  1
  Na  Na1  1  -0.00000000  0.49999998  0.99999996  1
  Na  Na2  1  0.49999998  0.99999996  0.99999996  1
  In  In3  1  -0.00000000  0.49999998  0.49999998  1
  In  In4  1  0.49999998  0.49999998  0.00000000  1
  Pd  Pd5  1  0.99999996  0.99999996  0.49999998  1
  Cl  Cl6  1  0.00000000  0.00000000  0.00000000  1
  Br  Br7  1  0.74999997  0.74999997  0.74999997  1
  Br  Br8  1  0.24999999  0.24999999  0.24999999  1
  Cl  Cl9  1  0.22499399  0.77500597  0.22499399  1
  Cl  Cl10  1  0.77500597  0.22499399  0.77500597  1
  Cl  Cl11  1  0.22499399  0.77500597  0.77500597  1
  Br  Br12  1  0.77500597  0.22499399  0.22499399  1
  Br  Br13  1  0.22499399  0.22499399  0.77500597  1
  Br  Br14  1  0.77500597  0.77500597  0.22499399  1
