# generated using pymatgen
data_KLaRhS7
_symmetry_space_group_name_H-M   'P 1'
_cell_length_a   4.16589880
_cell_length_b   7.58206797
_cell_length_c   10.52964115
_cell_angle_alpha   90.00000000
_cell_angle_beta   90.00000000
_cell_angle_gamma   90.00000000
_symmetry_Int_Tables_number   1
_chemical_formula_structural   KLaRhS7
_chemical_formula_sum   'K2 La2 Rh2 S14'
_cell_volume   332.59059154
_cell_formula_units_Z   2
loop_
 _symmetry_equiv_pos_site_id
 _symmetry_equiv_pos_as_xyz
  1  'x, y, z'
loop_
 _atom_site_type_symbol
 _atom_site_label
 _atom_site_symmetry_multiplicity
 _atom_site_fract_x
 _atom_site_fract_y
 _atom_site_fract_z
 _atom_site_occupancy
  K  K0  1  0.25000001  0.26678600  0.66869099  1
  K  K1  1  0.75000004  0.73321400  0.33130900  1
  La  La2  1  0.25000001  0.76678600  0.83130899  1
  La  La3  1  0.75000004  0.23321400  0.16869100  1
  Rh  Rh4  1  0.25000001  0.09520300  0.96978799  1
  Rh  Rh5  1  0.75000004  0.90479700  0.03021200  1
  S  S6  1  0.25000001  0.59520300  0.53021199  1
  S  S7  1  0.75000004  0.40479700  0.46978799  1
  S  S8  1  0.25000001  0.52935100  0.15981300  1
  S  S9  1  0.75000004  0.47064900  0.84018699  1
  S  S10  1  0.25000001  0.02935100  0.34018700  1
  S  S11  1  0.75000004  0.97064900  0.65981299  1
  S  S12  1  0.75000004  0.11019600  0.45045699  1
  S  S13  1  0.25000001  0.88980400  0.54954299  1
  S  S14  1  0.75000004  0.61019600  0.04954300  1
  S  S15  1  0.25000001  0.38980400  0.95045699  1
  S  S16  1  0.25000001  0.86744300  0.13222200  1
  S  S17  1  0.75000004  0.13255700  0.86777799  1
  S  S18  1  0.25000001  0.36744300  0.36777799  1
  S  S19  1  0.75000004  0.63255700  0.63222199  1
