# generated using pymatgen
data_In5Te5As2
_symmetry_space_group_name_H-M   'P 1'
_cell_length_a   7.31767893
_cell_length_b   7.68243980
_cell_length_c   8.03896332
_cell_angle_alpha   61.45653534
_cell_angle_beta   90.00000000
_cell_angle_gamma   90.00000000
_symmetry_Int_Tables_number   1
_chemical_formula_structural   In5Te5As2
_chemical_formula_sum   'In5 Te5 As2'
_cell_volume   397.00138911
_cell_formula_units_Z   1
loop_
 _symmetry_equiv_pos_site_id
 _symmetry_equiv_pos_as_xyz
  1  'x, y, z'
loop_
 _atom_site_type_symbol
 _atom_site_label
 _atom_site_symmetry_multiplicity
 _atom_site_fract_x
 _atom_site_fract_y
 _atom_site_fract_z
 _atom_site_occupancy
  In  In0  1  0.77021801  0.81750303  0.67670201  1
  In  In1  1  0.77021801  0.49420502  0.32329800  1
  In  In2  1  0.27021800  0.50579502  0.67670201  1
  In  In3  1  0.27021800  0.18249701  0.32329801  1
  In  In4  1  0.41419400  0.97556304  -0.00000003  1
  As  As5  1  0.91419401  0.02443700  -0.00000000  1
  Te  Te6  1  0.68512701  0.79706803  -0.00000002  1
  Te  Te7  1  0.18512700  0.20293201  -0.00000001  1
  Te  Te8  1  0.16722200  0.86198803  0.68156200  1
  Te  Te9  1  0.16722200  0.54355002  0.31843800  1
  As  As10  1  0.66722201  0.13801201  0.31843801  1
  Te  Te11  1  0.66722201  0.45645002  0.68156202  1
