# generated using pymatgen
data_Pr3UPaBiO10
_symmetry_space_group_name_H-M   'P 1'
_cell_length_a   5.46866798
_cell_length_b   6.81735516
_cell_length_c   6.81735516
_cell_angle_alpha   111.40428162
_cell_angle_beta   90.00000000
_cell_angle_gamma   90.00000000
_symmetry_Int_Tables_number   1
_chemical_formula_structural   Pr3UPaBiO10
_chemical_formula_sum   'Pr3 U1 Pa1 Bi1 O10'
_cell_volume   236.63359050
_cell_formula_units_Z   1
loop_
 _symmetry_equiv_pos_site_id
 _symmetry_equiv_pos_as_xyz
  1  'x, y, z'
loop_
 _atom_site_type_symbol
 _atom_site_label
 _atom_site_symmetry_multiplicity
 _atom_site_fract_x
 _atom_site_fract_y
 _atom_site_fract_z
 _atom_site_occupancy
  Pr  Pr0  1  1.00000000  0.75000003  0.75000006  1
  Bi  Bi1  1  -0.00000000  0.25000001  0.25000002  1
  Pr  Pr2  1  0.47362200  0.75000003  0.25000005  1
  Pr  Pr3  1  0.52637800  0.25000001  0.75000003  1
  U  U4  1  0.74255400  0.43933902  0.18497603  1
  Pa  Pa5  1  0.74255400  0.06066100  0.31502401  1
  O  O6  1  0.25744600  0.18497601  0.43933902  1
  O  O7  1  0.25744600  0.31502401  0.06066102  1
  O  O8  1  0.84488300  0.42652802  0.57347203  1
  O  O9  1  0.84488300  0.07347200  0.92652802  1
  O  O10  1  0.15511700  0.57347202  0.42652804  1
  O  O11  1  0.15511700  0.92652803  0.07347205  1
  O  O12  1  0.74255400  0.68497603  0.93933905  1
  O  O13  1  0.74255400  0.81502403  0.56066106  1
  O  O14  1  0.25744600  0.93933904  0.68497607  1
  O  O15  1  0.25744600  0.56066102  0.81502405  1
