# generated using pymatgen
data_Lu2Mg2ZnFe3(PO)4
_symmetry_space_group_name_H-M   'P 1'
_cell_length_a   3.25646305
_cell_length_b   7.91428137
_cell_length_c   8.01997471
_cell_angle_alpha   107.96776581
_cell_angle_beta   90.09860992
_cell_angle_gamma   90.70115662
_symmetry_Int_Tables_number   1
_chemical_formula_structural   Lu2Mg2ZnFe3(PO)4
_chemical_formula_sum   'Lu2 Mg2 Zn1 Fe3 P4 O4'
_cell_volume   196.59682832
_cell_formula_units_Z   1
loop_
 _symmetry_equiv_pos_site_id
 _symmetry_equiv_pos_as_xyz
  1  'x, y, z'
loop_
 _atom_site_type_symbol
 _atom_site_label
 _atom_site_symmetry_multiplicity
 _atom_site_fract_x
 _atom_site_fract_y
 _atom_site_fract_z
 _atom_site_occupancy
  Zn  Zn0  1  0.74831796  0.20268001  0.56921000  1
  Lu  Lu1  1  0.25168188  0.79732003  0.43079002  1
  Mg  Mg2  1  0.26123999  0.06481100  0.18654500  1
  Lu  Lu3  1  0.73875985  0.93518903  0.81345502  1
  Mg  Mg4  1  0.24254791  0.56642002  0.69498701  1
  Fe  Fe5  1  0.24911795  0.31920001  0.94087301  1
  Fe  Fe6  1  0.75088189  0.68080002  0.05912701  1
  Fe  Fe7  1  0.75745192  0.43358001  0.30501301  1
  P  P8  1  0.30386091  0.55265502  0.17928201  1
  P  P9  1  0.22325488  0.79732503  0.94606102  1
  P  P10  1  0.77674496  0.20267501  0.05393900  1
  P  P11  1  0.69613892  0.44734502  0.82071801  1
  O  O12  1  0.76230389  0.66925202  0.57290901  1
  O  O13  1  0.24272199  0.06553700  0.68795300  1
  O  O14  1  0.23769595  0.33074801  0.42709101  1
  O  O15  1  0.75727785  0.93446303  0.31204702  1
