# generated using pymatgen
data_KAl2Ge5Se8
_symmetry_space_group_name_H-M   'P 1'
_cell_length_a   6.49502802
_cell_length_b   6.51545000
_cell_length_c   10.78688717
_cell_angle_alpha   79.89862823
_cell_angle_beta   79.66224670
_cell_angle_gamma   68.02750397
_symmetry_Int_Tables_number   1
_chemical_formula_structural   KAl2Ge5Se8
_chemical_formula_sum   'K1 Al2 Ge5 Se8'
_cell_volume   413.50913763
_cell_formula_units_Z   1
loop_
 _symmetry_equiv_pos_site_id
 _symmetry_equiv_pos_as_xyz
  1  'x, y, z'
loop_
 _atom_site_type_symbol
 _atom_site_label
 _atom_site_symmetry_multiplicity
 _atom_site_fract_x
 _atom_site_fract_y
 _atom_site_fract_z
 _atom_site_occupancy
  K  K0  1  0.99883994  0.99893299  0.00073903  1
  Al  Al1  1  0.50019297  0.50041400  0.49850403  1
  Al  Al2  1  0.90303294  0.90164599  0.40259804  1
  Ge  Ge3  1  0.59746896  0.59423200  0.09966602  1
  Ge  Ge4  1  0.09795899  0.10071300  0.59525502  1
  Ge  Ge5  1  0.40096197  0.40177900  0.90148004  1
  Ge  Ge6  1  0.75403595  0.75157000  0.74619705  1
  Ge  Ge7  1  0.24584798  0.24853800  0.25388502  1
  Se  Se8  1  0.75938398  0.37197300  0.76647303  1
  Se  Se9  1  0.22454995  0.87595899  0.27823604  1
  Se  Se10  1  0.53902194  0.92431599  0.93504506  1
  Se  Se11  1  0.03876297  0.43767600  0.43657203  1
  Se  Se12  1  0.62956998  0.23469100  0.23664401  1
  Se  Se13  1  0.13406495  0.74503000  0.73299505  1
  Se  Se14  1  0.07237797  0.45836900  0.06603802  1
  Se  Se15  1  0.60392694  0.95416199  0.54967205  1
