# generated using pymatgen
data_HfInTe2I7
_symmetry_space_group_name_H-M   'P 1'
_cell_length_a   4.41363811
_cell_length_b   9.65353775
_cell_length_c   9.82219982
_cell_angle_alpha   62.96062469
_cell_angle_beta   77.01613617
_cell_angle_gamma   76.78521729
_symmetry_Int_Tables_number   1
_chemical_formula_structural   HfInTe2I7
_chemical_formula_sum   'Hf1 In1 Te2 I7'
_cell_volume   359.34610823
_cell_formula_units_Z   1
loop_
 _symmetry_equiv_pos_site_id
 _symmetry_equiv_pos_as_xyz
  1  'x, y, z'
loop_
 _atom_site_type_symbol
 _atom_site_label
 _atom_site_symmetry_multiplicity
 _atom_site_fract_x
 _atom_site_fract_y
 _atom_site_fract_z
 _atom_site_occupancy
  Hf  Hf0  1  0.99555997  0.01075200  0.99812799  1
  In  In1  1  0.75257900  0.47618502  0.01865701  1
  Te  Te2  1  0.49552701  0.47315302  0.53579300  1
  Te  Te3  1  0.23313905  0.99291304  0.54080900  1
  I  I4  1  0.00383702  0.28489501  0.70743099  1
  I  I5  1  0.63171303  0.90059504  0.83597899  1
  I  I6  1  0.36167000  0.17686901  0.09979100  1
  I  I7  1  0.87139602  0.83850203  0.41870600  1
  I  I8  1  0.11903103  0.59333302  0.16860500  1
  I  I9  1  0.68735499  0.24243101  0.38285900  1
  I  I10  1  0.30671903  0.61867903  0.76788299  1
