# generated using pymatgen
data_CsCN2
_symmetry_space_group_name_H-M   'P 1'
_cell_length_a   6.80142307
_cell_length_b   6.89400101
_cell_length_c   7.85072184
_cell_angle_alpha   90.00000000
_cell_angle_beta   90.00000000
_cell_angle_gamma   90.00000000
_symmetry_Int_Tables_number   1
_chemical_formula_structural   CsCN2
_chemical_formula_sum   'Cs4 C4 N8'
_cell_volume   368.11263367
_cell_formula_units_Z   4
loop_
 _symmetry_equiv_pos_site_id
 _symmetry_equiv_pos_as_xyz
  1  'x, y, z'
loop_
 _atom_site_type_symbol
 _atom_site_label
 _atom_site_symmetry_multiplicity
 _atom_site_fract_x
 _atom_site_fract_y
 _atom_site_fract_z
 _atom_site_occupancy
  Cs  Cs0  1  0.25000000  0.71018600  -0.00000000  1
  Cs  Cs1  1  0.74999999  0.28981400  -0.00000000  1
  Cs  Cs2  1  0.74999999  0.28981400  0.50000001  1
  Cs  Cs3  1  0.25000000  0.71018600  0.50000001  1
  C  C4  1  0.21443400  0.26730400  0.25000001  1
  C  C5  1  0.78556599  0.73269600  0.75000002  1
  C  C6  1  0.71443399  0.73269600  0.25000001  1
  C  C7  1  0.28556600  0.26730400  0.75000002  1
  N  N8  1  0.38974800  0.10572700  0.25000001  1
  N  N9  1  0.61025199  0.89427300  0.75000002  1
  N  N10  1  0.88974799  0.89427300  0.25000001  1
  N  N11  1  0.11025200  0.10572700  0.75000002  1
  N  N12  1  0.08600100  0.38545300  0.25000001  1
  N  N13  1  0.91399899  0.61454700  0.75000002  1
  N  N14  1  0.58600099  0.61454700  0.25000001  1
  N  N15  1  0.41399900  0.38545300  0.75000002  1
