# generated using pymatgen
data_Cd5Sn3S8
_symmetry_space_group_name_H-M   'P 1'
_cell_length_a   6.66225719
_cell_length_b   6.96638680
_cell_length_c   8.36314297
_cell_angle_alpha   90.00000000
_cell_angle_beta   90.00000000
_cell_angle_gamma   90.00000000
_symmetry_Int_Tables_number   1
_chemical_formula_structural   Cd5Sn3S8
_chemical_formula_sum   'Cd5 Sn3 S8'
_cell_volume   388.14902511
_cell_formula_units_Z   1
loop_
 _symmetry_equiv_pos_site_id
 _symmetry_equiv_pos_as_xyz
  1  'x, y, z'
loop_
 _atom_site_type_symbol
 _atom_site_label
 _atom_site_symmetry_multiplicity
 _atom_site_fract_x
 _atom_site_fract_y
 _atom_site_fract_z
 _atom_site_occupancy
  Cd  Cd0  1  0.11921900  0.91122303  0.62164300  1
  Cd  Cd1  1  0.61921898  0.08877700  0.37835700  1
  Cd  Cd2  1  0.61921898  0.58877702  0.12164300  1
  Cd  Cd3  1  0.11921900  0.41122301  0.87835700  1
  Sn  Sn4  1  0.62239598  0.57325902  0.62612600  1
  Cd  Cd5  1  0.12239600  0.42674101  0.37387400  1
  Sn  Sn6  1  0.12239600  0.92674103  0.12612600  1
  Sn  Sn7  1  0.62239598  0.07325900  0.87387400  1
  S  S8  1  0.50591699  0.90690703  0.63371500  1
  S  S9  1  0.00591700  0.09309300  0.36628500  1
  S  S10  1  0.00591700  0.59309302  0.13371500  1
  S  S11  1  0.50591699  0.40690701  0.86628500  1
  S  S12  1  0.99046797  0.06636500  0.88077500  1
  S  S13  1  0.49046799  0.93363503  0.11922500  1
  S  S14  1  0.49046799  0.43363501  0.38077500  1
  S  S15  1  0.99046797  0.56636502  0.61922500  1
