# generated using pymatgen
data_BiH2CClO2F11
_symmetry_space_group_name_H-M   'P 1'
_cell_length_a   4.90990686
_cell_length_b   6.19930696
_cell_length_c   8.25975132
_cell_angle_alpha   90.00000000
_cell_angle_beta   107.00392914
_cell_angle_gamma   90.00000000
_symmetry_Int_Tables_number   1
_chemical_formula_structural   BiH2CClO2F11
_chemical_formula_sum   'Bi1 H2 C1 Cl1 O2 F11'
_cell_volume   240.41999106
_cell_formula_units_Z   1
loop_
 _symmetry_equiv_pos_site_id
 _symmetry_equiv_pos_as_xyz
  1  'x, y, z'
loop_
 _atom_site_type_symbol
 _atom_site_label
 _atom_site_symmetry_multiplicity
 _atom_site_fract_x
 _atom_site_fract_y
 _atom_site_fract_z
 _atom_site_occupancy
  Bi  Bi0  1  0.00000000  0.00000000  0.00000000  1
  H  H1  1  0.00000000  0.50000000  0.50000000  1
  H  H2  1  0.71876303  0.31532300  0.17583302  1
  C  C3  1  0.71876303  0.18467700  0.67583302  1
  O  O4  1  0.28123701  0.68467700  0.82416701  1
  Cl  Cl5  1  0.28123701  0.81532300  0.32416701  1
  F  F6  1  0.69039003  0.19108700  0.04627501  1
  O  O7  1  0.69039003  0.30891300  0.54627502  1
  F  F8  1  0.30961001  0.80891300  0.95372502  1
  F  F9  1  0.30961001  0.69108700  0.45372501  1
  F  F10  1  0.96579004  0.31345300  0.29086702  1
  F  F11  1  0.96579004  0.18654700  0.79086703  1
  F  F12  1  0.03421000  0.68654700  0.70913301  1
  F  F13  1  0.03421000  0.81345300  0.20913300  1
  F  F14  1  0.51771302  0.42622900  0.18464001  1
  F  F15  1  0.51771302  0.07377100  0.68464002  1
  F  F16  1  0.48228702  0.57377100  0.81536002  1
  F  F17  1  0.48228702  0.92622901  0.31536001  1
