# generated using pymatgen
data_Na2P
_symmetry_space_group_name_H-M   'P 1'
_cell_length_a   4.52438688
_cell_length_b   4.52438688
_cell_length_c   6.38675785
_cell_angle_alpha   90.00000000
_cell_angle_beta   90.00000000
_cell_angle_gamma   90.00000000
_symmetry_Int_Tables_number   1
_chemical_formula_structural   Na2P
_chemical_formula_sum   'Na4 P2'
_cell_volume   130.73742284
_cell_formula_units_Z   2
loop_
 _symmetry_equiv_pos_site_id
 _symmetry_equiv_pos_as_xyz
  1  'x, y, z'
loop_
 _atom_site_type_symbol
 _atom_site_label
 _atom_site_symmetry_multiplicity
 _atom_site_fract_x
 _atom_site_fract_y
 _atom_site_fract_z
 _atom_site_occupancy
  Na  Na0  1  0.50000001  0.00000000  0.74927002  1
  Na  Na1  1  0.00000000  0.50000001  0.25073001  1
  Na  Na2  1  0.50000001  0.00000000  0.25073001  1
  Na  Na3  1  0.00000000  0.50000001  0.74927002  1
  P  P4  1  0.50000001  0.50000001  0.50000001  1
  P  P5  1  0.00000000  0.00000000  0.00000000  1
