# generated using pymatgen
data_LiMn2(WO6)2
_symmetry_space_group_name_H-M   'P 1'
_cell_length_a   5.14683819
_cell_length_b   5.33954763
_cell_length_c   7.58296108
_cell_angle_alpha   86.83283997
_cell_angle_beta   89.47336578
_cell_angle_gamma   87.85469818
_symmetry_Int_Tables_number   1
_chemical_formula_structural   LiMn2(WO6)2
_chemical_formula_sum   'Li1 Mn2 W2 O12'
_cell_volume   207.92388861
_cell_formula_units_Z   1
loop_
 _symmetry_equiv_pos_site_id
 _symmetry_equiv_pos_as_xyz
  1  'x, y, z'
loop_
 _atom_site_type_symbol
 _atom_site_label
 _atom_site_symmetry_multiplicity
 _atom_site_fract_x
 _atom_site_fract_y
 _atom_site_fract_z
 _atom_site_occupancy
  Li  Li0  1  0.49325399  0.08315900  0.80189903  1
  Mn  Mn1  1  0.01208005  0.97317796  0.50232604  1
  Mn  Mn2  1  0.47514501  0.46850398  0.49907803  1
  W  W3  1  0.48473201  0.51657198  0.02618902  1
  W  W4  1  0.99509596  0.00466900  0.00407102  1
  O  O5  1  0.20676903  0.71401997  0.54197903  1
  O  O6  1  0.29832000  0.20788699  0.55241402  1
  O  O7  1  0.29337803  0.81895297  0.94326405  1
  O  O8  1  0.41166401  0.49679698  0.24660103  1
  O  O9  1  0.71814198  0.20641399  0.02507302  1
  O  O10  1  0.10305000  0.01163400  0.25159501  1
  O  O11  1  0.21188501  0.30583699  0.93814603  1
  O  O12  1  0.58937000  0.48485098  0.74685204  1
  O  O13  1  0.69911002  0.78394597  0.45694504  1
  O  O14  1  0.80374999  0.28632199  0.44929703  1
  O  O15  1  0.80287001  0.69800697  0.05167604  1
  O  O16  1  0.86995302  0.99462496  0.74260106  1
