# generated using pymatgen
data_Cs4HgP5
_symmetry_space_group_name_H-M   'P 1'
_cell_length_a   6.98115873
_cell_length_b   6.98115873
_cell_length_c   9.03955650
_cell_angle_alpha   111.29535675
_cell_angle_beta   111.29535675
_cell_angle_gamma   93.41017151
_symmetry_Int_Tables_number   1
_chemical_formula_structural   Cs4HgP5
_chemical_formula_sum   'Cs4 Hg1 P5'
_cell_volume   373.03948116
_cell_formula_units_Z   1
loop_
 _symmetry_equiv_pos_site_id
 _symmetry_equiv_pos_as_xyz
  1  'x, y, z'
loop_
 _atom_site_type_symbol
 _atom_site_label
 _atom_site_symmetry_multiplicity
 _atom_site_fract_x
 _atom_site_fract_y
 _atom_site_fract_z
 _atom_site_occupancy
  Cs  Cs0  1  0.75000003  0.25000001  0.50000001  1
  Cs  Cs1  1  0.25000007  0.75000002  0.50000002  1
  Cs  Cs2  1  0.28177206  0.71822802  0.00000002  1
  Cs  Cs3  1  0.71822803  0.28177201  0.00000001  1
  Hg  Hg4  1  0.12509001  0.12509000  0.85865600  1
  P  P5  1  0.26643403  0.26643401  0.14134401  1
  P  P6  1  0.87491008  0.87491003  0.14134403  1
  P  P7  1  0.73356607  0.73356602  0.85865603  1
  P  P8  1  0.85794108  0.85794103  0.71588203  1
  P  P9  1  0.14205901  0.14205900  0.28411800  1
