# generated using pymatgen
data_Sr2NiMoO6
_symmetry_space_group_name_H-M   'P 1'
_cell_length_a   5.69685364
_cell_length_b   5.72486591
_cell_length_c   8.00409031
_cell_angle_alpha   89.69788361
_cell_angle_beta   90.05107880
_cell_angle_gamma   89.61082458
_symmetry_Int_Tables_number   1
_chemical_formula_structural   Sr2NiMoO6
_chemical_formula_sum   'Sr4 Ni2 Mo2 O12'
_cell_volume   261.03342291
_cell_formula_units_Z   2
loop_
 _symmetry_equiv_pos_site_id
 _symmetry_equiv_pos_as_xyz
  1  'x, y, z'
loop_
 _atom_site_type_symbol
 _atom_site_label
 _atom_site_symmetry_multiplicity
 _atom_site_fract_x
 _atom_site_fract_y
 _atom_site_fract_z
 _atom_site_occupancy
  Sr  Sr0  1  0.48229800  0.49611900  0.74974798  1
  Sr  Sr1  1  0.01845601  0.99466899  0.25047303  1
  Sr  Sr2  1  0.51770200  0.50388100  0.25025200  1
  Sr  Sr3  1  0.98154399  0.00533100  0.74952695  1
  Ni  Ni4  1  0.49999999  0.00000000  0.49999997  1
  Ni  Ni5  1  0.00000001  0.50000000  0.00000002  1
  Mo  Mo6  1  0.49999999  0.00000000  -0.00000001  1
  Mo  Mo7  1  0.00000001  0.50000000  0.50000000  1
  O  O8  1  0.22183600  0.24160500  0.53257198  1
  O  O9  1  0.71974600  0.25762200  0.96675895  1
  O  O10  1  0.77816400  0.75839499  0.46742800  1
  O  O11  1  0.28025401  0.74237799  0.03324103  1
  O  O12  1  0.74037000  0.28233200  0.53278597  1
  O  O13  1  0.76236800  0.78193899  0.03304202  1
  O  O14  1  0.23763200  0.21806100  0.96695796  1
  O  O15  1  0.25963001  0.71766799  0.46721400  1
  O  O16  1  0.99210699  0.43852500  0.25998599  1
  O  O17  1  0.50623101  0.93785099  0.75955100  1
  O  O18  1  0.00789301  0.56147499  0.74001399  1
  O  O19  1  0.49376900  0.06214900  0.24044898  1
