# generated using pymatgen
data_Zn2SiP5
_symmetry_space_group_name_H-M   'P 1'
_cell_length_a   6.15460587
_cell_length_b   6.45041180
_cell_length_c   7.37368822
_cell_angle_alpha   90.00000000
_cell_angle_beta   90.00000000
_cell_angle_gamma   90.00000000
_symmetry_Int_Tables_number   1
_chemical_formula_structural   Zn2SiP5
_chemical_formula_sum   'Zn4 Si2 P10'
_cell_volume   292.73352201
_cell_formula_units_Z   2
loop_
 _symmetry_equiv_pos_site_id
 _symmetry_equiv_pos_as_xyz
  1  'x, y, z'
loop_
 _atom_site_type_symbol
 _atom_site_label
 _atom_site_symmetry_multiplicity
 _atom_site_fract_x
 _atom_site_fract_y
 _atom_site_fract_z
 _atom_site_occupancy
  Zn  Zn0  1  0.34336601  0.65112702  0.49999999  1
  Zn  Zn1  1  0.84336602  0.34887301  -0.00000000  1
  Zn  Zn2  1  0.33505401  0.17302401  0.24774499  1
  Zn  Zn3  1  0.33505401  0.17302401  0.75225498  1
  Si  Si4  1  0.83505402  0.82697603  0.25225499  1
  Si  Si5  1  0.83505402  0.82697603  0.74774498  1
  P  P6  1  0.34486301  0.67092702  0.00000000  1
  P  P7  1  0.84486302  0.32907301  0.49999999  1
  P  P8  1  0.45935601  0.35546001  -0.00000000  1
  P  P9  1  0.46323501  0.83450803  0.23669499  1
  P  P10  1  0.46323501  0.83450803  0.76330498  1
  P  P11  1  0.49373801  0.31808801  0.49999999  1
  P  P12  1  0.95935602  0.64454002  0.49999999  1
  P  P13  1  0.96323502  0.16549201  0.26330499  1
  P  P14  1  0.96323502  0.16549201  0.73669498  1
  P  P15  1  0.99373802  0.68191202  -0.00000000  1
