# generated using pymatgen
data_K2LiEuTiNbO10
_symmetry_space_group_name_H-M   'P 1'
_cell_length_a   3.89855194
_cell_length_b   7.70435619
_cell_length_c   7.70435619
_cell_angle_alpha   90.00000000
_cell_angle_beta   90.00000000
_cell_angle_gamma   90.00000000
_symmetry_Int_Tables_number   1
_chemical_formula_structural   K2LiEuTiNbO10
_chemical_formula_sum   'K2 Li1 Eu1 Ti1 Nb1 O10'
_cell_volume   231.40675440
_cell_formula_units_Z   1
loop_
 _symmetry_equiv_pos_site_id
 _symmetry_equiv_pos_as_xyz
  1  'x, y, z'
loop_
 _atom_site_type_symbol
 _atom_site_label
 _atom_site_symmetry_multiplicity
 _atom_site_fract_x
 _atom_site_fract_y
 _atom_site_fract_z
 _atom_site_occupancy
  K  K0  1  0.03588200  0.74016898  0.24016899  1
  Li  Li1  1  0.03588200  0.25983099  0.75983098  1
  Nb  Nb2  1  0.96411801  0.75983098  0.74016898  1
  Eu  Eu3  1  0.96411801  0.24016899  0.25983099  1
  Ti  Ti4  1  0.50774001  0.74455898  0.24455899  1
  K  K5  1  0.49226001  0.24455899  0.25544099  1
  O  O6  1  0.50774001  0.25544099  0.75544098  1
  O  O7  1  0.49226001  0.75544098  0.74455898  1
  O  O8  1  0.00113400  0.25016599  0.00420000  1
  O  O9  1  0.99886602  0.24983399  0.50419999  1
  O  O10  1  0.99886602  0.99579997  0.25016599  1
  O  O11  1  0.00113400  0.74983398  0.99579997  1
  O  O12  1  0.99886602  0.00420000  0.74983398  1
  O  O13  1  0.00113400  0.49579999  0.24983399  1
  O  O14  1  0.00113400  0.50419999  0.75016598  1
  O  O15  1  0.99886602  0.75016598  0.49579999  1
