# generated using pymatgen
data_Zn3SiP4
_symmetry_space_group_name_H-M   'P 1'
_cell_length_a   6.30037022
_cell_length_b   6.59662104
_cell_length_c   7.93769598
_cell_angle_alpha   90.00000000
_cell_angle_beta   90.00000000
_cell_angle_gamma   90.00000000
_symmetry_Int_Tables_number   1
_chemical_formula_structural   Zn3SiP4
_chemical_formula_sum   'Zn6 Si2 P8'
_cell_volume   329.89981065
_cell_formula_units_Z   2
loop_
 _symmetry_equiv_pos_site_id
 _symmetry_equiv_pos_as_xyz
  1  'x, y, z'
loop_
 _atom_site_type_symbol
 _atom_site_label
 _atom_site_symmetry_multiplicity
 _atom_site_fract_x
 _atom_site_fract_y
 _atom_site_fract_z
 _atom_site_occupancy
  Zn  Zn0  1  0.61833298  0.58532100  0.12236100  1
  Zn  Zn1  1  0.11833300  0.91467899  0.62236100  1
  Zn  Zn2  1  0.61833298  0.08532100  0.37763900  1
  Zn  Zn3  1  0.11833300  0.41467900  0.87763900  1
  Zn  Zn4  1  0.62189598  0.57319500  0.62592400  1
  Si  Si5  1  0.12189600  0.42680500  0.37407600  1
  Si  Si6  1  0.12189600  0.92680499  0.12592400  1
  Zn  Zn7  1  0.62189598  0.07319500  0.87407600  1
  P  P8  1  0.98854697  0.06703400  0.88336300  1
  P  P9  1  0.98854697  0.56703400  0.61663700  1
  P  P10  1  0.48854698  0.93296599  0.11663700  1
  P  P11  1  0.48854698  0.43296600  0.38336300  1
  P  P12  1  0.50743298  0.90553799  0.63595600  1
  P  P13  1  0.00743300  0.09446200  0.36404400  1
  P  P14  1  0.00743300  0.59446200  0.13595600  1
  P  P15  1  0.50743298  0.40553800  0.86404400  1
