# generated using pymatgen
data_LuVO4
_symmetry_space_group_name_H-M   'P 1'
_cell_length_a   5.86951303
_cell_length_b   5.86951303
_cell_length_c   5.86951303
_cell_angle_alpha   106.61874390
_cell_angle_beta   106.61874390
_cell_angle_gamma   115.34046936
_symmetry_Int_Tables_number   1
_chemical_formula_structural   LuVO4
_chemical_formula_sum   'Lu2 V2 O8'
_cell_volume   154.42503177
_cell_formula_units_Z   2
loop_
 _symmetry_equiv_pos_site_id
 _symmetry_equiv_pos_as_xyz
  1  'x, y, z'
loop_
 _atom_site_type_symbol
 _atom_site_label
 _atom_site_symmetry_multiplicity
 _atom_site_fract_x
 _atom_site_fract_y
 _atom_site_fract_z
 _atom_site_occupancy
  Lu  Lu0  1  0.00000000  0.00000000  0.00000000  1
  Lu  Lu1  1  0.75000003  0.25000001  0.50000007  1
  V  V2  1  0.25000000  0.75000003  0.50000007  1
  V  V3  1  0.50000002  0.50000002  1.00000008  1
  O  O4  1  0.68137202  0.86479603  0.18342409  1
  O  O5  1  0.61479602  0.93137204  0.68342410  1
  O  O6  1  0.24794800  0.93137204  0.31657607  1
  O  O7  1  0.68137203  0.49794802  0.81657609  1
  O  O8  1  0.13520400  0.31862801  0.81657605  1
  O  O9  1  0.06862800  0.38520402  0.31657603  1
  O  O10  1  0.06862800  0.75205203  0.68342406  1
  O  O11  1  0.50205202  0.31862801  0.18342405  1
