# generated using pymatgen
data_Ba2Sb4Br2O3
_symmetry_space_group_name_H-M   'P 1'
_cell_length_a   6.54321909
_cell_length_b   6.66778231
_cell_length_c   6.66778231
_cell_angle_alpha   81.98902893
_cell_angle_beta   84.05487061
_cell_angle_gamma   95.94512939
_symmetry_Int_Tables_number   1
_chemical_formula_structural   Ba2Sb4Br2O3
_chemical_formula_sum   'Ba2 Sb4 Br2 O3'
_cell_volume   284.45475037
_cell_formula_units_Z   1
loop_
 _symmetry_equiv_pos_site_id
 _symmetry_equiv_pos_as_xyz
  1  'x, y, z'
loop_
 _atom_site_type_symbol
 _atom_site_label
 _atom_site_symmetry_multiplicity
 _atom_site_fract_x
 _atom_site_fract_y
 _atom_site_fract_z
 _atom_site_occupancy
  Ba  Ba0  1  1.00000001  0.55465300  0.55465298  1
  Ba  Ba1  1  0.50000000  0.14716600  0.14716599  1
  Sb  Sb2  1  0.91128701  0.70587801  0.10443298  1
  Sb  Sb3  1  0.08871300  0.10443300  0.70587800  1
  Sb  Sb4  1  0.70999901  0.69249801  0.36147499  1
  Sb  Sb5  1  0.29000101  0.36147500  0.69249800  1
  Br  Br6  1  0.83233500  0.18012000  0.58309799  1
  Br  Br7  1  0.16766501  0.58309800  0.18012000  1
  O  O8  1  1.00000000  0.03193600  0.03193598  1
  O  O9  1  0.75825501  0.60094600  0.88271699  1
  O  O10  1  0.24174502  0.88271701  0.60094600  1
