# generated using pymatgen
data_CsRb4Te3(PbI3)2
_symmetry_space_group_name_H-M   'P 1'
_cell_length_a   7.08261299
_cell_length_b   7.54190207
_cell_length_c   14.09632015
_cell_angle_alpha   90.00000000
_cell_angle_beta   90.00000000
_cell_angle_gamma   90.00000000
_symmetry_Int_Tables_number   1
_chemical_formula_structural   CsRb4Te3(PbI3)2
_chemical_formula_sum   'Cs1 Rb4 Te3 Pb2 I6'
_cell_volume   752.97430289
_cell_formula_units_Z   1
loop_
 _symmetry_equiv_pos_site_id
 _symmetry_equiv_pos_as_xyz
  1  'x, y, z'
loop_
 _atom_site_type_symbol
 _atom_site_label
 _atom_site_symmetry_multiplicity
 _atom_site_fract_x
 _atom_site_fract_y
 _atom_site_fract_z
 _atom_site_occupancy
  Rb  Rb0  1  0.16603300  0.00000000  0.75382899  1
  Rb  Rb1  1  0.16603300  0.00000000  0.24617100  1
  Rb  Rb2  1  0.43549100  0.50000000  0.49999999  1
  Rb  Rb3  1  0.56450900  0.00000000  0.00000000  1
  Cs  Cs4  1  0.83396700  0.50000000  0.25382900  1
  Pb  Pb5  1  0.83396700  0.50000000  0.74617099  1
  Pb  Pb6  1  0.05125700  0.28111500  0.00000000  1
  I  I7  1  0.05125700  0.71888499  0.00000000  1
  I  I8  1  0.34520600  0.50000000  0.88380999  1
  I  I9  1  0.34520600  0.50000000  0.11619000  1
  Te  Te10  1  0.65479400  0.00000000  0.38381000  1
  Te  Te11  1  0.65479400  0.00000000  0.61618999  1
  I  I12  1  0.94874300  0.78111499  0.49999999  1
  I  I13  1  0.94874300  0.21888500  0.49999999  1
  Te  Te14  1  0.30155700  0.00000000  0.49999999  1
  I  I15  1  0.69844300  0.50000000  -0.00000000  1
