# generated using pymatgen
data_NbBiSeO6
_symmetry_space_group_name_H-M   'P 1'
_cell_length_a   4.63224983
_cell_length_b   5.03009415
_cell_length_c   5.03009367
_cell_angle_alpha   120.00000000
_cell_angle_beta   90.00000000
_cell_angle_gamma   90.00000000
_symmetry_Int_Tables_number   1
_chemical_formula_structural   NbBiSeO6
_chemical_formula_sum   'Nb1 Bi1 Se1 O6'
_cell_volume   101.50204498
_cell_formula_units_Z   1
loop_
 _symmetry_equiv_pos_site_id
 _symmetry_equiv_pos_as_xyz
  1  'x, y, z'
loop_
 _atom_site_type_symbol
 _atom_site_label
 _atom_site_symmetry_multiplicity
 _atom_site_fract_x
 _atom_site_fract_y
 _atom_site_fract_z
 _atom_site_occupancy
  Bi  Bi0  1  0.50000002  0.33333332  0.66666668  1
  Nb  Nb1  1  0.50000002  0.66666664  0.33333333  1
  Se  Se2  1  0.00000000  0.00000000  0.00000000  1
  O  O3  1  0.74713703  0.67479197  1.00000002  1
  O  O4  1  0.25286301  0.32520799  1.00000003  1
  O  O5  1  0.74713703  0.32520799  0.32520800  1
  O  O6  1  0.25286301  0.67479197  0.67479201  1
  O  O7  1  0.74713703  0.00000000  0.67479202  1
  O  O8  1  0.25286301  0.99999996  0.32520799  1
