# generated using pymatgen
data_Tb2Ag4F9
_symmetry_space_group_name_H-M   'P 1'
_cell_length_a   4.04090023
_cell_length_b   7.00917244
_cell_length_c   9.43336391
_cell_angle_alpha   96.80400085
_cell_angle_beta   101.20017242
_cell_angle_gamma   90.23957825
_symmetry_Int_Tables_number   1
_chemical_formula_structural   Tb2Ag4F9
_chemical_formula_sum   'Tb2 Ag4 F9'
_cell_volume   260.14865755
_cell_formula_units_Z   1
loop_
 _symmetry_equiv_pos_site_id
 _symmetry_equiv_pos_as_xyz
  1  'x, y, z'
loop_
 _atom_site_type_symbol
 _atom_site_label
 _atom_site_symmetry_multiplicity
 _atom_site_fract_x
 _atom_site_fract_y
 _atom_site_fract_z
 _atom_site_occupancy
  Tb  Tb0  1  0.49518602  0.49445199  0.01773102  1
  Tb  Tb1  1  0.97772603  0.99771598  0.99055707  1
  Ag  Ag2  1  0.83652901  0.59975899  0.67597705  1
  Ag  Ag3  1  0.62706604  0.89504398  0.32710204  1
  Ag  Ag4  1  0.35063699  0.12202600  0.65733703  1
  Ag  Ag5  1  0.17412902  0.36220599  0.34515202  1
  F  F6  1  0.58420302  0.55537899  0.29672503  1
  F  F7  1  0.52756605  0.85407998  0.09261103  1
  F  F8  1  0.95246400  0.63596399  0.90691806  1
  F  F9  1  0.79625104  0.92585698  0.70313106  1
  F  F10  1  0.65608498  0.22477900  0.48551903  1
  F  F11  1  0.11095900  0.02806500  0.28067201  1
  F  F12  1  0.43864399  0.15980200  0.89544204  1
  F  F13  1  0.03590603  0.33304399  0.10727001  1
  F  F14  1  0.36559902  0.45483899  0.70971504  1
