# generated using pymatgen
data_Ag3SnS4
_symmetry_space_group_name_H-M   'P 1'
_cell_length_a   6.65035009
_cell_length_b   6.86060190
_cell_length_c   8.12441063
_cell_angle_alpha   90.00000000
_cell_angle_beta   90.00000000
_cell_angle_gamma   90.00000000
_symmetry_Int_Tables_number   1
_chemical_formula_structural   Ag3SnS4
_chemical_formula_sum   'Ag6 Sn2 S8'
_cell_volume   370.67952131
_cell_formula_units_Z   2
loop_
 _symmetry_equiv_pos_site_id
 _symmetry_equiv_pos_as_xyz
  1  'x, y, z'
loop_
 _atom_site_type_symbol
 _atom_site_label
 _atom_site_symmetry_multiplicity
 _atom_site_fract_x
 _atom_site_fract_y
 _atom_site_fract_z
 _atom_site_occupancy
  Ag  Ag0  1  0.51139099  0.82380801  0.75254603  1
  Ag  Ag1  1  0.01139100  0.17619200  0.74745403  1
  Ag  Ag2  1  0.01139100  0.17619200  0.25254601  1
  Ag  Ag3  1  0.51139099  0.82380801  0.24745401  1
  Ag  Ag4  1  0.00031100  0.67889501  -0.00000000  1
  Ag  Ag5  1  0.50031099  0.32110500  0.50000002  1
  Sn  Sn6  1  0.51383299  0.34904800  0.00000000  1
  Sn  Sn7  1  0.01383300  0.65095201  0.50000002  1
  S  S8  1  0.91784899  0.34898600  0.00000000  1
  S  S9  1  0.41784899  0.65101401  0.50000002  1
  S  S10  1  0.87380199  0.84473801  0.77301104  1
  S  S11  1  0.37380199  0.15526200  0.72698903  1
  S  S12  1  0.37380199  0.15526200  0.27301101  1
  S  S13  1  0.87380199  0.84473801  0.22698901  1
  S  S14  1  0.35012100  0.70852701  0.00000000  1
  S  S15  1  0.85012099  0.29147300  0.50000002  1
