# generated using pymatgen
data_NaLa2Zr2O7
_symmetry_space_group_name_H-M   'P 1'
_cell_length_a   4.19130182
_cell_length_b   4.19130182
_cell_length_c   10.98071003
_cell_angle_alpha   101.00229645
_cell_angle_beta   101.00229645
_cell_angle_gamma   90.00000000
_symmetry_Int_Tables_number   1
_chemical_formula_structural   NaLa2Zr2O7
_chemical_formula_sum   'Na1 La2 Zr2 O7'
_cell_volume   185.73946585
_cell_formula_units_Z   1
loop_
 _symmetry_equiv_pos_site_id
 _symmetry_equiv_pos_as_xyz
  1  'x, y, z'
loop_
 _atom_site_type_symbol
 _atom_site_label
 _atom_site_symmetry_multiplicity
 _atom_site_fract_x
 _atom_site_fract_y
 _atom_site_fract_z
 _atom_site_occupancy
  Na  Na0  1  0.50000000  0.50000001  -0.00000002  1
  La  La1  1  0.68640300  0.68640302  0.37280598  1
  La  La2  1  0.31359700  0.31359701  0.62719401  1
  Zr  Zr3  1  0.89959801  0.89959803  0.79919598  1
  Zr  Zr4  1  0.10040200  0.10040200  0.20080400  1
  O  O5  1  0.40156899  0.90156903  0.80313800  1
  O  O6  1  0.59843102  0.09843100  0.19686199  1
  O  O7  1  0.90156902  0.40156901  0.80313800  1
  O  O8  1  0.09843099  0.59843102  0.19686199  1
  O  O9  1  0.80016301  0.80016302  0.60032598  1
  O  O10  1  0.19983700  0.19983701  0.39967400  1
  O  O11  1  0.00000000  0.00000000  0.00000000  1
