# generated using pymatgen
data_LuOF
_symmetry_space_group_name_H-M   'P 1'
_cell_length_a   3.82136130
_cell_length_b   3.82136130
_cell_length_c   6.74230051
_cell_angle_alpha   73.53754425
_cell_angle_beta   73.53754425
_cell_angle_gamma   60.00001144
_symmetry_Int_Tables_number   1
_chemical_formula_structural   LuOF
_chemical_formula_sum   'Lu2 O2 F2'
_cell_volume   80.57157427
_cell_formula_units_Z   2
loop_
 _symmetry_equiv_pos_site_id
 _symmetry_equiv_pos_as_xyz
  1  'x, y, z'
loop_
 _atom_site_type_symbol
 _atom_site_label
 _atom_site_symmetry_multiplicity
 _atom_site_fract_x
 _atom_site_fract_y
 _atom_site_fract_z
 _atom_site_occupancy
  Lu  Lu0  1  0.25914301  0.25914300  0.22257100  1
  Lu  Lu1  1  0.74085703  0.74085701  0.77742898  1
  O  O2  1  0.37809601  0.37809601  0.86571198  1
  O  O3  1  0.62190402  0.62190401  0.13428800  1
  F  F4  1  0.12996800  0.12996800  0.61009598  1
  F  F5  1  0.87003203  0.87003201  0.38990400  1
