# generated using pymatgen
data_VH3O4
_symmetry_space_group_name_H-M   'P 1'
_cell_length_a   3.23680067
_cell_length_b   4.78128290
_cell_length_c   5.26040840
_cell_angle_alpha   80.56531525
_cell_angle_beta   84.02767944
_cell_angle_gamma   74.07944489
_symmetry_Int_Tables_number   1
_chemical_formula_structural   VH3O4
_chemical_formula_sum   'V1 H3 O4'
_cell_volume   77.07880935
_cell_formula_units_Z   1
loop_
 _symmetry_equiv_pos_site_id
 _symmetry_equiv_pos_as_xyz
  1  'x, y, z'
loop_
 _atom_site_type_symbol
 _atom_site_label
 _atom_site_symmetry_multiplicity
 _atom_site_fract_x
 _atom_site_fract_y
 _atom_site_fract_z
 _atom_site_occupancy
  V  V0  1  0.56387702  0.98194395  0.48852508  1
  H  H1  1  0.06387501  0.98194695  0.98852406  1
  H  H2  1  0.32144501  0.44854698  0.74154504  1
  H  H3  1  0.82144602  0.44854698  0.24154406  1
  O  O4  1  0.43104701  0.21675999  0.77792403  1
  O  O5  1  0.93104702  0.21675999  0.27792505  1
  O  O6  1  0.68214702  0.76795996  0.19529407  1
  O  O7  1  0.18214701  0.76796096  0.69529305  1
