# generated using pymatgen
data_Mg4TiV3O12
_symmetry_space_group_name_H-M   'P 1'
_cell_length_a   5.10626221
_cell_length_b   5.49689531
_cell_length_c   8.84711170
_cell_angle_alpha   105.53829956
_cell_angle_beta   90.01316833
_cell_angle_gamma   117.66117096
_symmetry_Int_Tables_number   1
_chemical_formula_structural   Mg4TiV3O12
_chemical_formula_sum   'Mg4 Ti1 V3 O12'
_cell_volume   209.63493182
_cell_formula_units_Z   1
loop_
 _symmetry_equiv_pos_site_id
 _symmetry_equiv_pos_as_xyz
  1  'x, y, z'
loop_
 _atom_site_type_symbol
 _atom_site_label
 _atom_site_symmetry_multiplicity
 _atom_site_fract_x
 _atom_site_fract_y
 _atom_site_fract_z
 _atom_site_occupancy
  Mg  Mg0  1  0.72323301  0.44651804  0.57516205  1
  Mg  Mg1  1  0.52573999  0.05064000  0.17416202  1
  Mg  Mg2  1  0.27749303  0.55266005  0.42715704  1
  Mg  Mg3  1  0.77486502  0.55249305  0.92332907  1
  V  V4  1  0.22494203  0.45050004  0.07475302  1
  Ti  Ti5  1  0.02216100  0.04521300  0.67478104  1
  V  V6  1  0.97698404  0.95146608  0.32417306  1
  V  V7  1  0.47556306  0.95436508  0.82689908  1
  O  O8  1  0.77537800  0.24716802  0.72280605  1
  O  O9  1  0.27635601  0.25005302  0.22319902  1
  O  O10  1  0.82247899  0.24836802  0.37509504  1
  O  O11  1  0.67845803  0.74833307  0.12442904  1
  O  O12  1  0.22474705  0.74990007  0.97322508  1
  O  O13  1  0.72567603  0.75185907  0.47266806  1
  O  O14  1  0.27476301  0.24576902  0.52645304  1
  O  O15  1  0.77812300  0.25192602  0.02647902  1
  O  O16  1  0.31968801  0.24842202  0.87469906  1
  O  O17  1  0.17889505  0.75276707  0.62760806  1
  O  O18  1  0.72227303  0.75354807  0.77654707  1
  O  O19  1  0.22218405  0.74803007  0.27637704  1
