# generated using pymatgen
data_CsMgNiF6
_symmetry_space_group_name_H-M   'P 1'
_cell_length_a   7.28267622
_cell_length_b   7.34147501
_cell_length_c   7.34147501
_cell_angle_alpha   60.16048431
_cell_angle_beta   60.26458740
_cell_angle_gamma   60.26458740
_symmetry_Int_Tables_number   1
_chemical_formula_structural   CsMgNiF6
_chemical_formula_sum   'Cs2 Mg2 Ni2 F12'
_cell_volume   278.99481113
_cell_formula_units_Z   2
loop_
 _symmetry_equiv_pos_site_id
 _symmetry_equiv_pos_as_xyz
  1  'x, y, z'
loop_
 _atom_site_type_symbol
 _atom_site_label
 _atom_site_symmetry_multiplicity
 _atom_site_fract_x
 _atom_site_fract_y
 _atom_site_fract_z
 _atom_site_occupancy
  Cs  Cs0  1  0.61786299  0.13213700  0.63213699  1
  Cs  Cs1  1  0.38213696  0.86786300  0.36786303  1
  Mg  Mg2  1  0.49999997  0.50000000  0.00000001  1
  Mg  Mg3  1  -0.00000002  0.50000000  1.00000003  1
  Ni  Ni4  1  0.00000000  0.00000000  0.00000000  1
  Ni  Ni5  1  0.99999997  0.50000000  0.49999999  1
  F  F6  1  0.06727499  0.18272500  0.68272501  1
  F  F7  1  0.67962197  0.57037800  0.07037801  1
  F  F8  1  0.06774498  0.57070500  0.67351403  1
  F  F9  1  0.68803498  0.17351400  0.07070599  1
  F  F10  1  0.68803597  0.57070500  0.67351401  1
  F  F11  1  0.06774399  0.17351400  0.07070601  1
  F  F12  1  0.93272496  0.81727500  0.31727501  1
  F  F13  1  0.32037798  0.42962200  0.92962202  1
  F  F14  1  0.93225497  0.42929500  0.32648599  1
  F  F15  1  0.31196496  0.82648600  0.92929404  1
  F  F16  1  0.31196398  0.42929500  0.32648601  1
  F  F17  1  0.93225596  0.82648600  0.92929401  1
