# generated using pymatgen
data_MnBi3S3O13
_symmetry_space_group_name_H-M   'P 1'
_cell_length_a   4.77061176
_cell_length_b   7.12248278
_cell_length_c   9.06278610
_cell_angle_alpha   90.00000000
_cell_angle_beta   90.00000000
_cell_angle_gamma   90.00000000
_symmetry_Int_Tables_number   1
_chemical_formula_structural   MnBi3S3O13
_chemical_formula_sum   'Mn1 Bi3 S3 O13'
_cell_volume   307.94078491
_cell_formula_units_Z   1
loop_
 _symmetry_equiv_pos_site_id
 _symmetry_equiv_pos_as_xyz
  1  'x, y, z'
loop_
 _atom_site_type_symbol
 _atom_site_label
 _atom_site_symmetry_multiplicity
 _atom_site_fract_x
 _atom_site_fract_y
 _atom_site_fract_z
 _atom_site_occupancy
  Bi  Bi0  1  0.75260804  0.32300001  0.69764499  1
  Mn  Mn1  1  0.25260801  0.67700002  0.80235499  1
  Bi  Bi2  1  0.25260801  0.67700002  0.19764500  1
  Bi  Bi3  1  0.75260804  0.32300001  0.30235500  1
  S  S4  1  0.17381201  0.02720700  0.49999999  1
  S  S5  1  0.67381203  0.97279303  -0.00000000  1
  S  S6  1  0.27041001  0.83152003  0.49999999  1
  O  O7  1  0.77041004  0.16848001  -0.00000000  1
  O  O8  1  0.11321301  0.41084201  0.76216599  1
  O  O9  1  0.61321303  0.58915802  0.73783399  1
  O  O10  1  0.61321303  0.58915802  0.26216600  1
  O  O11  1  0.11321301  0.41084201  0.23783400  1
  O  O12  1  0.99620205  0.05821200  0.36384700  1
  O  O13  1  0.49620202  0.94178803  0.13615300  1
  O  O14  1  0.49620202  0.94178803  0.86384699  1
  O  O15  1  0.99620205  0.05821200  0.63615299  1
  O  O16  1  0.90687305  0.83399003  0.00000000  1
  O  O17  1  0.40687302  0.16601001  0.49999999  1
  O  O18  1  0.33615802  0.58368602  0.00000000  1
  O  O19  1  0.83615804  0.41631401  0.49999999  1
