# generated using pymatgen
data_Li3UW(IO4)3
_symmetry_space_group_name_H-M   'P 1'
_cell_length_a   5.61184359
_cell_length_b   7.37297821
_cell_length_c   7.37297821
_cell_angle_alpha   85.19783020
_cell_angle_beta   80.64112854
_cell_angle_gamma   80.64112854
_symmetry_Int_Tables_number   1
_chemical_formula_structural   Li3UW(IO4)3
_chemical_formula_sum   'Li3 U1 W1 I3 O12'
_cell_volume   296.48273125
_cell_formula_units_Z   1
loop_
 _symmetry_equiv_pos_site_id
 _symmetry_equiv_pos_as_xyz
  1  'x, y, z'
loop_
 _atom_site_type_symbol
 _atom_site_label
 _atom_site_symmetry_multiplicity
 _atom_site_fract_x
 _atom_site_fract_y
 _atom_site_fract_z
 _atom_site_occupancy
  Li  Li0  1  0.24999994  0.68817799  0.31182195  1
  Li  Li1  1  0.74999995  0.31182200  0.68817793  1
  U  U2  1  0.24999998  0.10922000  0.89077996  1
  Li  Li3  1  0.74999991  0.89077999  0.10921992  1
  I  I4  1  0.23347295  0.61046899  0.80577694  1
  I  I5  1  0.26652698  0.19422300  0.38953097  1
  I  I6  1  0.76652695  0.38953099  0.19422294  1
  W  W7  1  0.73347292  0.80577699  0.61046891  1
  O  O8  1  0.47487594  0.68053399  0.62179293  1
  O  O9  1  0.02512397  0.37820699  0.31946597  1
  O  O10  1  0.52512396  0.31946599  0.37820695  1
  O  O11  1  0.97487593  0.62179299  0.68053391  1
  O  O12  1  0.86166991  0.84236099  0.38062391  1
  O  O13  1  0.63832994  0.61937599  0.15763894  1
  O  O14  1  0.13832998  0.15763900  0.61937597  1
  O  O15  1  0.36166996  0.38062399  0.84236094  1
  O  O16  1  0.15747494  0.73201999  0.00311996  1
  O  O17  1  0.34252492  0.99687998  0.26797993  1
  O  O18  1  0.84252496  0.26798000  0.99687992  1
  O  O19  1  0.65747498  0.00312000  0.73201995  1
