# generated using pymatgen
data_CaH5C
_symmetry_space_group_name_H-M   'P 1'
_cell_length_a   3.92295003
_cell_length_b   3.92294979
_cell_length_c   8.36958599
_cell_angle_alpha   90.00000000
_cell_angle_beta   90.00000000
_cell_angle_gamma   120.00000000
_symmetry_Int_Tables_number   1
_chemical_formula_structural   CaH5C
_chemical_formula_sum   'Ca1 H5 C1'
_cell_volume   111.54757499
_cell_formula_units_Z   1
loop_
 _symmetry_equiv_pos_site_id
 _symmetry_equiv_pos_as_xyz
  1  'x, y, z'
loop_
 _atom_site_type_symbol
 _atom_site_label
 _atom_site_symmetry_multiplicity
 _atom_site_fract_x
 _atom_site_fract_y
 _atom_site_fract_z
 _atom_site_occupancy
  C  C0  1  0.33333330  0.66666663  0.18041400  1
  Ca  Ca1  1  0.66666664  0.33333332  0.81958600  1
  H  H2  1  0.00000000  0.00000000  0.50000000  1
  H  H3  1  0.00000000  0.00000000  0.64786400  1
  H  H4  1  0.00000000  0.00000000  0.35213600  1
  H  H5  1  0.33333330  0.66666663  0.89648700  1
  H  H6  1  0.66666664  0.33333332  0.10351300  1
