# generated using pymatgen
data_NaLiO2
_symmetry_space_group_name_H-M   'P 1'
_cell_length_a   5.67690945
_cell_length_b   6.20979977
_cell_length_c   6.20979977
_cell_angle_alpha   98.35085297
_cell_angle_beta   111.31071472
_cell_angle_gamma   111.31071472
_symmetry_Int_Tables_number   1
_chemical_formula_structural   NaLiO2
_chemical_formula_sum   'Na2 Li2 O4'
_cell_volume   180.03815650
_cell_formula_units_Z   2
loop_
 _symmetry_equiv_pos_site_id
 _symmetry_equiv_pos_as_xyz
  1  'x, y, z'
loop_
 _atom_site_type_symbol
 _atom_site_label
 _atom_site_symmetry_multiplicity
 _atom_site_fract_x
 _atom_site_fract_y
 _atom_site_fract_z
 _atom_site_occupancy
  Na  Na0  1  0.75000000  0.35715900  0.64284100  1
  Na  Na1  1  0.24999998  0.64284100  0.35715901  1
  Li  Li2  1  0.25000000  0.08485200  0.91514801  1
  Li  Li3  1  0.74999999  0.91514800  0.08485200  1
  O  O4  1  0.78756299  0.86985600  0.77575701  1
  O  O5  1  0.71243701  0.22424300  0.13014399  1
  O  O6  1  0.28756298  0.77575700  0.86985602  1
  O  O7  1  0.21243700  0.13014400  0.22424300  1
