# generated using pymatgen
data_K2Na2LiClF6
_symmetry_space_group_name_H-M   'P 1'
_cell_length_a   6.60457706
_cell_length_b   6.60457706
_cell_length_c   7.60418987
_cell_angle_alpha   98.61316681
_cell_angle_beta   98.61316681
_cell_angle_gamma   118.10202789
_symmetry_Int_Tables_number   1
_chemical_formula_structural   K2Na2LiClF6
_chemical_formula_sum   'K2 Na2 Li1 Cl1 F6'
_cell_volume   279.91287823
_cell_formula_units_Z   1
loop_
 _symmetry_equiv_pos_site_id
 _symmetry_equiv_pos_as_xyz
  1  'x, y, z'
loop_
 _atom_site_type_symbol
 _atom_site_label
 _atom_site_symmetry_multiplicity
 _atom_site_fract_x
 _atom_site_fract_y
 _atom_site_fract_z
 _atom_site_occupancy
  Na  Na0  1  0.66261304  0.33738702  0.00000002  1
  K  K1  1  0.33738706  0.66261304  0.00000003  1
  K  K2  1  0.81589904  0.18410101  0.50000001  1
  Na  Na3  1  0.18410106  0.81589906  0.50000002  1
  Cl  Cl4  1  0.94602310  0.94602306  0.84208603  1
  Li  Li5  1  0.05397701  0.05397700  0.15791400  1
  F  F6  1  0.20505402  0.20505401  0.75715100  1
  F  F7  1  0.79494608  0.79494605  0.24284904  1
  F  F8  1  0.62674308  0.92748806  0.76907603  1
  F  F9  1  0.92748807  0.62674304  0.76907602  1
  F  F10  1  0.37325702  0.07251200  0.23092401  1
  F  F11  1  0.07251203  0.37325703  0.23092401  1
