# generated using pymatgen
data_Li2NiO4
_symmetry_space_group_name_H-M   'P 1'
_cell_length_a   5.66156673
_cell_length_b   5.66156673
_cell_length_c   5.72277164
_cell_angle_alpha   60.35315323
_cell_angle_beta   60.35315323
_cell_angle_gamma   59.99999237
_symmetry_Int_Tables_number   1
_chemical_formula_structural   Li2NiO4
_chemical_formula_sum   'Li4 Ni2 O8'
_cell_volume   130.39543031
_cell_formula_units_Z   2
loop_
 _symmetry_equiv_pos_site_id
 _symmetry_equiv_pos_as_xyz
  1  'x, y, z'
loop_
 _atom_site_type_symbol
 _atom_site_label
 _atom_site_symmetry_multiplicity
 _atom_site_fract_x
 _atom_site_fract_y
 _atom_site_fract_z
 _atom_site_occupancy
  Li  Li0  1  0.13333600  0.13333600  0.59999199  1
  Li  Li1  1  0.86666402  0.86666400  0.40000794  1
  Li  Li2  1  0.50000001  0.50000000  0.49999996  1
  Li  Li3  1  0.00000001  0.50000000  -0.00000002  1
  Ni  Ni4  1  0.50000003  0.99999999  -0.00000006  1
  Ni  Ni5  1  0.50000001  0.50000000  -0.00000004  1
  O  O6  1  0.73692202  0.73692200  0.78923395  1
  O  O7  1  0.26307801  0.26307800  0.21076598  1
  O  O8  1  0.26588202  0.74054600  0.25302596  1
  O  O9  1  0.74054601  0.26588200  0.25302597  1
  O  O10  1  0.74054602  0.74054600  0.25302595  1
  O  O11  1  0.73411801  0.25945400  0.74697397  1
  O  O12  1  0.25945402  0.73411800  0.74697396  1
  O  O13  1  0.25945401  0.25945400  0.74697398  1
