# generated using pymatgen
data_Na5Al(SiO6)2
_symmetry_space_group_name_H-M   'P 1'
_cell_length_a   5.30973148
_cell_length_b   6.79926205
_cell_length_c   6.79926443
_cell_angle_alpha   84.67961121
_cell_angle_beta   78.86880493
_cell_angle_gamma   78.86830902
_symmetry_Int_Tables_number   1
_chemical_formula_structural   Na5Al(SiO6)2
_chemical_formula_sum   'Na5 Al1 Si2 O12'
_cell_volume   235.92724372
_cell_formula_units_Z   1
loop_
 _symmetry_equiv_pos_site_id
 _symmetry_equiv_pos_as_xyz
  1  'x, y, z'
loop_
 _atom_site_type_symbol
 _atom_site_label
 _atom_site_symmetry_multiplicity
 _atom_site_fract_x
 _atom_site_fract_y
 _atom_site_fract_z
 _atom_site_occupancy
  Na  Na0  1  0.75000199  0.29766000  0.70234000  1
  Na  Na1  1  0.24999997  0.70234601  0.29764998  1
  Na  Na2  1  0.74997796  0.91031901  0.08969497  1
  Na  Na3  1  0.25000700  0.08961800  0.91038601  1
  Al  Al4  1  0.26419599  0.19655500  0.38182500  1
  Na  Na5  1  0.23580798  0.61817601  0.80344699  1
  Si  Si6  1  0.76419798  0.38182801  0.19653599  1
  Si  Si7  1  0.73580297  0.80346201  0.61817198  1
  O  O8  1  0.50276399  0.33118701  0.36808700  1
  O  O9  1  0.99723897  0.63191201  0.66881099  1
  O  O10  1  0.49723397  0.66882301  0.63189699  1
  O  O11  1  0.00277099  0.36810501  0.33117299  1
  O  O12  1  0.17365800  0.11967600  0.60978001  1
  O  O13  1  0.32634498  0.39021901  0.88032500  1
  O  O14  1  0.82634597  0.88033001  0.39021098  1
  O  O15  1  0.67365498  0.60978601  0.11966598  1
  O  O16  1  0.84655699  0.21380200  0.02992700  1
  O  O17  1  0.65344496  0.97007401  0.78619498  1
  O  O18  1  0.34656100  0.02993100  0.21380900  1
  O  O19  1  0.15342797  0.78619301  0.97006699  1
