# generated using pymatgen
data_K3BaSr2Ce2S7O
_symmetry_space_group_name_H-M   'P 1'
_cell_length_a   6.59965897
_cell_length_b   8.42698288
_cell_length_c   8.74758244
_cell_angle_alpha   90.00000000
_cell_angle_beta   90.00000000
_cell_angle_gamma   90.00000000
_symmetry_Int_Tables_number   1
_chemical_formula_structural   K3BaSr2Ce2S7O
_chemical_formula_sum   'K3 Ba1 Sr2 Ce2 S7 O1'
_cell_volume   486.49866143
_cell_formula_units_Z   1
loop_
 _symmetry_equiv_pos_site_id
 _symmetry_equiv_pos_as_xyz
  1  'x, y, z'
loop_
 _atom_site_type_symbol
 _atom_site_label
 _atom_site_symmetry_multiplicity
 _atom_site_fract_x
 _atom_site_fract_y
 _atom_site_fract_z
 _atom_site_occupancy
  Ce  Ce0  1  0.45346100  0.12129700  0.86695596  1
  Sr  Sr1  1  0.95346100  0.37870301  0.13304399  1
  Sr  Sr2  1  0.54653900  0.62129701  0.63304397  1
  K  K3  1  0.04653900  0.87870301  0.36695598  1
  Ce  Ce4  1  0.54653900  0.87870301  0.13304399  1
  K  K5  1  0.04653900  0.62129701  0.86695596  1
  Ba  Ba6  1  0.45346100  0.37870301  0.36695598  1
  K  K7  1  0.95346100  0.12129700  0.63304397  1
  S  S8  1  0.13867000  0.07303500  0.10367199  1
  S  S9  1  0.63867000  0.42696501  0.89632796  1
  S  S10  1  0.86133000  0.57303501  0.39632798  1
  S  S11  1  0.36133000  0.92696501  0.60367197  1
  S  S12  1  0.86133000  0.92696501  0.89632796  1
  S  S13  1  0.36133000  0.57303501  0.10367199  1
  O  O14  1  0.13867000  0.42696501  0.60367197  1
  S  S15  1  0.63867000  0.07303500  0.39632798  1
