# generated using pymatgen
data_K5Na(TlAg2)2
_symmetry_space_group_name_H-M   'P 1'
_cell_length_a   6.08316994
_cell_length_b   8.30078697
_cell_length_c   11.45684624
_cell_angle_alpha   90.00000000
_cell_angle_beta   105.39558411
_cell_angle_gamma   90.00000000
_symmetry_Int_Tables_number   1
_chemical_formula_structural   K5Na(TlAg2)2
_chemical_formula_sum   'K5 Na1 Tl2 Ag4'
_cell_volume   557.75507774
_cell_formula_units_Z   1
loop_
 _symmetry_equiv_pos_site_id
 _symmetry_equiv_pos_as_xyz
  1  'x, y, z'
loop_
 _atom_site_type_symbol
 _atom_site_label
 _atom_site_symmetry_multiplicity
 _atom_site_fract_x
 _atom_site_fract_y
 _atom_site_fract_z
 _atom_site_occupancy
  K  K0  1  0.83747699  0.42050000  0.67495397  1
  K  K1  1  0.16252300  0.92050000  0.32504599  1
  K  K2  1  0.59099500  0.50121800  0.18198998  1
  K  K3  1  0.40900500  0.00121800  0.81800998  1
  Tl  Tl4  1  0.90948999  0.03354900  0.81897996  1
  K  K5  1  0.53946900  0.85756100  0.07893798  1
  Na  Na6  1  0.66903999  0.19033200  0.33807997  1
  Tl  Tl7  1  0.71259899  0.70654700  0.42519797  1
  Ag  Ag8  1  0.09051000  0.53354900  0.18102000  1
  Ag  Ag9  1  0.28740100  0.20654700  0.57480199  1
  Ag  Ag10  1  0.46053100  0.35756100  0.92106198  1
  Ag  Ag11  1  0.33096000  0.69033200  0.66191998  1
