# generated using pymatgen
data_Na2CdO4
_symmetry_space_group_name_H-M   'P 1'
_cell_length_a   6.41541862
_cell_length_b   6.41541862
_cell_length_c   6.41541862
_cell_angle_alpha   60.00000000
_cell_angle_beta   60.00000000
_cell_angle_gamma   60.00000000
_symmetry_Int_Tables_number   1
_chemical_formula_structural   Na2CdO4
_chemical_formula_sum   'Na4 Cd2 O8'
_cell_volume   186.70674346
_cell_formula_units_Z   2
loop_
 _symmetry_equiv_pos_site_id
 _symmetry_equiv_pos_as_xyz
  1  'x, y, z'
loop_
 _atom_site_type_symbol
 _atom_site_label
 _atom_site_symmetry_multiplicity
 _atom_site_fract_x
 _atom_site_fract_y
 _atom_site_fract_z
 _atom_site_occupancy
  Na  Na0  1  0.37500000  0.87500000  0.37500000  1
  Na  Na1  1  0.87500000  0.37500000  0.37500000  1
  Na  Na2  1  0.75000000  0.75000000  0.75000000  1
  Na  Na3  1  0.37500000  0.37500000  0.37500000  1
  Cd  Cd4  1  0.00000000  0.00000000  0.00000000  1
  Cd  Cd5  1  0.37500000  0.37500000  0.87500000  1
  O  O6  1  0.13277800  0.60166800  0.13277700  1
  O  O7  1  0.13277800  0.13277700  0.13277700  1
  O  O8  1  0.13277800  0.13277700  0.60166800  1
  O  O9  1  0.60166900  0.13277700  0.13277700  1
  O  O10  1  0.14833100  0.61722300  0.61722300  1
  O  O11  1  0.61722200  0.61722300  0.14833200  1
  O  O12  1  0.61722200  0.14833200  0.61722300  1
  O  O13  1  0.61722200  0.61722300  0.61722300  1
