# generated using pymatgen
data_CoNiH2
_symmetry_space_group_name_H-M   'P 1'
_cell_length_a   3.20028210
_cell_length_b   3.20028162
_cell_length_c   5.29809284
_cell_angle_alpha   90.00000000
_cell_angle_beta   90.00000000
_cell_angle_gamma   120.00000763
_symmetry_Int_Tables_number   1
_chemical_formula_structural   CoNiH2
_chemical_formula_sum   'Co1 Ni1 H2'
_cell_volume   46.99229138
_cell_formula_units_Z   1
loop_
 _symmetry_equiv_pos_site_id
 _symmetry_equiv_pos_as_xyz
  1  'x, y, z'
loop_
 _atom_site_type_symbol
 _atom_site_label
 _atom_site_symmetry_multiplicity
 _atom_site_fract_x
 _atom_site_fract_y
 _atom_site_fract_z
 _atom_site_occupancy
  H  H0  1  0.33333336  0.66666667  0.49972601  1
  Co  Co1  1  0.66666667  0.33333334  0.99972603  1
  H  H2  1  0.33333336  0.66666667  0.12527400  1
  Ni  Ni3  1  0.66666667  0.33333334  0.62527402  1
