# generated using pymatgen
data_K2Rb2IBr9
_symmetry_space_group_name_H-M   'P 1'
_cell_length_a   8.62070274
_cell_length_b   8.62070274
_cell_length_c   11.89194012
_cell_angle_alpha   69.63154602
_cell_angle_beta   69.63154602
_cell_angle_gamma   70.37821198
_symmetry_Int_Tables_number   1
_chemical_formula_structural   K2Rb2IBr9
_chemical_formula_sum   'K2 Rb2 I1 Br9'
_cell_volume   753.17939646
_cell_formula_units_Z   1
loop_
 _symmetry_equiv_pos_site_id
 _symmetry_equiv_pos_as_xyz
  1  'x, y, z'
loop_
 _atom_site_type_symbol
 _atom_site_label
 _atom_site_symmetry_multiplicity
 _atom_site_fract_x
 _atom_site_fract_y
 _atom_site_fract_z
 _atom_site_occupancy
  K  K0  1  0.55871704  0.44128300  0.74999994  1
  Rb  Rb1  1  0.44128305  0.55871700  0.24999995  1
  Rb  Rb2  1  0.00000000  0.00000000  0.00000000  1
  K  K3  1  0.00000000  0.00000000  0.49999999  1
  Br  Br4  1  0.25407502  0.21239000  0.87826896  1
  Br  Br5  1  0.31683406  0.71053900  0.52950494  1
  I  I6  1  0.21239002  0.25407500  0.37826897  1
  Br  Br7  1  0.92083502  0.07916500  0.74999994  1
  Br  Br8  1  0.28946105  0.68316600  0.97049493  1
  Br  Br9  1  0.71053903  0.31683400  0.02950495  1
  Br  Br10  1  0.07916507  0.92083499  0.24999994  1
  Br  Br11  1  0.78761006  0.74592500  0.62173091  1
  Br  Br12  1  0.68316603  0.28946100  0.47049495  1
  Br  Br13  1  0.74592507  0.78761000  0.12173092  1
