# generated using pymatgen
data_Li2O2
_symmetry_space_group_name_H-M   'P 1'
_cell_length_a   5.96170759
_cell_length_b   5.96170759
_cell_length_c   5.99865055
_cell_angle_alpha   91.43740082
_cell_angle_beta   119.16111755
_cell_angle_gamma   118.97796631
_symmetry_Int_Tables_number   1
_chemical_formula_structural   Li2O2
_chemical_formula_sum   'Li8 O8'
_cell_volume   153.05949059
_cell_formula_units_Z   4
loop_
 _symmetry_equiv_pos_site_id
 _symmetry_equiv_pos_as_xyz
  1  'x, y, z'
loop_
 _atom_site_type_symbol
 _atom_site_label
 _atom_site_symmetry_multiplicity
 _atom_site_fract_x
 _atom_site_fract_y
 _atom_site_fract_z
 _atom_site_occupancy
  Li  Li0  1  0.50000010  1.00000002  0.00000006  1
  Li  Li1  1  0.00000005  0.50000001  0.00000002  1
  Li  Li2  1  0.50000000  0.00000000  0.50000004  1
  Li  Li3  1  0.00000000  0.00000000  0.00000000  1
  Li  Li4  1  0.50000005  0.50000001  0.50000006  1
  Li  Li5  1  1.00000010  1.00000002  0.50000011  1
  Li  Li6  1  0.00000005  0.50000001  0.50000003  1
  Li  Li7  1  0.50000005  0.50000001  0.00000004  1
  O  O8  1  0.49560803  0.26089301  0.75650106  1
  O  O9  1  0.97320907  0.73583901  0.23558709  1
  O  O10  1  0.49974803  0.26237801  0.23558704  1
  O  O11  1  0.50439207  0.73910701  0.24349906  1
  O  O12  1  0.98378107  0.74988102  0.73366210  1
  O  O13  1  0.02679103  0.26416101  0.76441304  1
  O  O14  1  0.50025207  0.73762201  0.76441308  1
  O  O15  1  0.01621902  0.25011901  0.26633802  1
