# generated using pymatgen
data_SiP3O8
_symmetry_space_group_name_H-M   'P 1'
_cell_length_a   5.08853817
_cell_length_b   5.22988749
_cell_length_c   8.33443546
_cell_angle_alpha   90.00000000
_cell_angle_beta   90.00000000
_cell_angle_gamma   119.10990143
_symmetry_Int_Tables_number   1
_chemical_formula_structural   SiP3O8
_chemical_formula_sum   'Si1 P3 O8'
_cell_volume   193.78404772
_cell_formula_units_Z   1
loop_
 _symmetry_equiv_pos_site_id
 _symmetry_equiv_pos_as_xyz
  1  'x, y, z'
loop_
 _atom_site_type_symbol
 _atom_site_label
 _atom_site_symmetry_multiplicity
 _atom_site_fract_x
 _atom_site_fract_y
 _atom_site_fract_z
 _atom_site_occupancy
  P  P0  1  0.58656499  0.33425501  0.43747598  1
  Si  Si1  1  0.25231000  0.66574503  0.56252397  1
  P  P2  1  0.41343500  0.66574503  0.93747595  1
  P  P3  1  0.74768998  0.33425501  0.06252400  1
  O  O4  1  0.88959798  0.51423902  0.54387497  1
  O  O5  1  0.37535900  0.48576102  0.45612497  1
  O  O6  1  0.11040201  0.48576102  0.04387500  1
  O  O7  1  0.62464099  0.51423902  0.95612495  1
  O  O8  1  0.33021000  0.66042103  0.74999996  1
  O  O9  1  0.66978998  0.33958001  0.24999999  1
  O  O10  1  0.59636400  1.00000004  0.00000000  1
  O  O11  1  0.40363599  0.00000000  0.49999997  1
