# generated using pymatgen
data_La5Ce3Nd2SnPb5
_symmetry_space_group_name_H-M   'P 1'
_cell_length_a   8.84607601
_cell_length_b   9.43577862
_cell_length_c   8.84607601
_cell_angle_alpha   117.95330048
_cell_angle_beta   90.00000000
_cell_angle_gamma   117.95330048
_symmetry_Int_Tables_number   1
_chemical_formula_structural   La5Ce3Nd2SnPb5
_chemical_formula_sum   'La5 Ce3 Nd2 Sn1 Pb5'
_cell_volume   552.82003281
_cell_formula_units_Z   1
loop_
 _symmetry_equiv_pos_site_id
 _symmetry_equiv_pos_as_xyz
  1  'x, y, z'
loop_
 _atom_site_type_symbol
 _atom_site_label
 _atom_site_symmetry_multiplicity
 _atom_site_fract_x
 _atom_site_fract_y
 _atom_site_fract_z
 _atom_site_occupancy
  Ce  Ce0  1  0.72080196  0.72982596  0.22080196  1
  La  La1  1  0.22080196  0.72982596  0.00902396  1
  Nd  Nd2  1  0.50902396  0.72982596  0.72080196  1
  Nd  Nd3  1  0.77919798  0.27017398  0.99097598  1
  Ce  Ce4  1  0.00902396  0.72982596  0.50902396  1
  La  La5  1  0.27919798  0.27017398  0.77919798  1
  La  La6  1  0.99097598  0.27017398  0.49097598  1
  Ce  Ce7  1  0.49097598  0.27017398  0.27919798  1
  La  La8  1  0.00000000  0.00000000  0.00000000  1
  La  La9  1  0.49999994  0.99999994  0.49999994  1
  Pb  Pb10  1  0.16195594  0.99999994  0.33804394  1
  Pb  Pb11  1  0.66195600  0.00000000  0.16195600  1
  Sn  Sn12  1  0.33804394  0.99999994  0.83804394  1
  Pb  Pb13  1  0.83804394  0.99999994  0.66195594  1
  Pb  Pb14  1  0.74999997  0.49999997  0.74999997  1
  Pb  Pb15  1  0.24999997  0.49999997  0.24999997  1
