# generated using pymatgen
data_Li5MnO5F3
_symmetry_space_group_name_H-M   'P 1'
_cell_length_a   5.94650221
_cell_length_b   5.94650221
_cell_length_c   5.94650269
_cell_angle_alpha   60.15491104
_cell_angle_beta   60.15491104
_cell_angle_gamma   60.15490723
_symmetry_Int_Tables_number   1
_chemical_formula_structural   Li5MnO5F3
_chemical_formula_sum   'Li5 Mn1 O5 F3'
_cell_volume   149.20760265
_cell_formula_units_Z   1
loop_
 _symmetry_equiv_pos_site_id
 _symmetry_equiv_pos_as_xyz
  1  'x, y, z'
loop_
 _atom_site_type_symbol
 _atom_site_label
 _atom_site_symmetry_multiplicity
 _atom_site_fract_x
 _atom_site_fract_y
 _atom_site_fract_z
 _atom_site_occupancy
  Li  Li0  1  0.87869898  0.87869899  0.87869902  1
  Li  Li1  1  0.50191399  0.50191399  0.50191401  1
  Li  Li2  1  0.98976498  0.50293599  0.50293603  1
  Li  Li3  1  0.50293599  0.98976499  0.50293603  1
  Li  Li4  1  0.50293599  0.50293599  0.98976500  1
  Mn  Mn5  1  0.11987700  0.11987700  0.11987700  1
  O  O6  1  0.74507899  0.28164600  0.74507900  1
  O  O7  1  0.74507898  0.74507899  0.28164604  1
  O  O8  1  0.28164599  0.74507899  0.74507901  1
  O  O9  1  0.74193598  0.74193599  0.74193602  1
  O  O10  1  0.25506899  0.25506900  0.25506901  1
  F  F11  1  0.72722699  0.25391600  0.25391602  1
  F  F12  1  0.25391599  0.25391600  0.72722699  1
  F  F13  1  0.25391599  0.72722699  0.25391602  1
