# generated using pymatgen
data_K2Na5ZnS8
_symmetry_space_group_name_H-M   'P 1'
_cell_length_a   4.03038216
_cell_length_b   7.17603827
_cell_length_c   13.92419243
_cell_angle_alpha   90.00000000
_cell_angle_beta   90.00000000
_cell_angle_gamma   106.30928040
_symmetry_Int_Tables_number   1
_chemical_formula_structural   K2Na5ZnS8
_chemical_formula_sum   'K2 Na5 Zn1 S8'
_cell_volume   386.51250877
_cell_formula_units_Z   1
loop_
 _symmetry_equiv_pos_site_id
 _symmetry_equiv_pos_as_xyz
  1  'x, y, z'
loop_
 _atom_site_type_symbol
 _atom_site_label
 _atom_site_symmetry_multiplicity
 _atom_site_fract_x
 _atom_site_fract_y
 _atom_site_fract_z
 _atom_site_occupancy
  K  K0  1  0.89165288  0.78330598  0.74999998  1
  K  K1  1  0.10834697  0.21669399  0.24999999  1
  Na  Na2  1  0.36552691  0.73105398  0.06281200  1
  Na  Na3  1  0.63447295  0.26894599  0.56281198  1
  Na  Na4  1  0.36552691  0.73105398  0.43718799  1
  Na  Na5  1  0.63447295  0.26894599  0.93718797  1
  Zn  Zn6  1  0.83783290  0.67566598  0.24999999  1
  Na  Na7  1  0.16216696  0.32433399  0.74999998  1
  S  S8  1  0.00000000  0.00000000  0.49999998  1
  S  S9  1  0.00000000  0.00000000  0.00000000  1
  S  S10  1  0.26278993  0.52557999  0.88632697  1
  S  S11  1  0.73720992  0.47441999  0.11367300  1
  S  S12  1  0.43052189  0.86104398  0.24999999  1
  S  S13  1  0.26278993  0.52557999  0.61367298  1
  S  S14  1  0.56947796  0.13895600  0.74999998  1
  S  S15  1  0.73720992  0.47441999  0.38632699  1
