# generated using pymatgen
data_Li5NiPO9
_symmetry_space_group_name_H-M   'P 1'
_cell_length_a   5.62236786
_cell_length_b   5.62236786
_cell_length_c   7.56830263
_cell_angle_alpha   109.60636139
_cell_angle_beta   109.60636139
_cell_angle_gamma   93.95890045
_symmetry_Int_Tables_number   1
_chemical_formula_structural   Li5NiPO9
_chemical_formula_sum   'Li5 Ni1 P1 O9'
_cell_volume   207.80867768
_cell_formula_units_Z   1
loop_
 _symmetry_equiv_pos_site_id
 _symmetry_equiv_pos_as_xyz
  1  'x, y, z'
loop_
 _atom_site_type_symbol
 _atom_site_label
 _atom_site_symmetry_multiplicity
 _atom_site_fract_x
 _atom_site_fract_y
 _atom_site_fract_z
 _atom_site_occupancy
  Li  Li0  1  0.30840791  0.69159195  0.24999994  1
  Li  Li1  1  0.69159194  0.30840798  0.74999995  1
  Li  Li2  1  0.00000000  0.00000000  0.00000000  1
  Li  Li3  1  0.00000000  0.00000000  0.50000000  1
  Li  Li4  1  0.35952992  0.64046996  0.74999994  1
  P  P5  1  0.64046993  0.35952998  0.24999995  1
  O  O6  1  0.23826491  0.76533395  0.55939893  1
  Ni  Ni7  1  0.76173494  0.23466598  0.44060095  1
  O  O8  1  0.76533394  0.23826498  0.05939895  1
  O  O9  1  0.29978695  0.30298298  0.14977597  1
  O  O10  1  0.06650190  0.93349794  0.24999993  1
  O  O11  1  0.93349795  0.06650200  0.74999995  1
  O  O12  1  0.69701690  0.70021295  0.35022392  1
  O  O13  1  0.30298296  0.29978698  0.64977596  1
  O  O14  1  0.70021290  0.69701695  0.85022392  1
  O  O15  1  0.23466591  0.76173495  0.94060093  1
