# generated using pymatgen
data_Na4Ca(AsO4)3
_symmetry_space_group_name_H-M   'P 1'
_cell_length_a   5.37756920
_cell_length_b   6.42439890
_cell_length_c   8.31644630
_cell_angle_alpha   90.00000000
_cell_angle_beta   90.00000000
_cell_angle_gamma   90.00000000
_symmetry_Int_Tables_number   1
_chemical_formula_structural   Na4Ca(AsO4)3
_chemical_formula_sum   'Na4 Ca1 As3 O12'
_cell_volume   287.31367317
_cell_formula_units_Z   1
loop_
 _symmetry_equiv_pos_site_id
 _symmetry_equiv_pos_as_xyz
  1  'x, y, z'
loop_
 _atom_site_type_symbol
 _atom_site_label
 _atom_site_symmetry_multiplicity
 _atom_site_fract_x
 _atom_site_fract_y
 _atom_site_fract_z
 _atom_site_occupancy
  Na  Na0  1  0.00000000  0.00000000  0.49999998  1
  Na  Na1  1  0.49999998  0.50000001  0.49999998  1
  Ca  Ca2  1  0.49999998  0.50000001  0.00000000  1
  Na  Na3  1  0.00000000  0.00000000  0.00000000  1
  Na  Na4  1  0.48355298  0.96816202  0.74999997  1
  As  As5  1  0.98355296  0.53183801  0.24999999  1
  As  As6  1  0.01644700  0.46816201  0.74999997  1
  As  As7  1  0.51644698  0.03183800  0.24999999  1
  O  O8  1  0.63205698  0.17626400  0.41201698  1
  O  O9  1  0.13205700  0.32373601  0.58798298  1
  O  O10  1  0.86794297  0.67626401  0.08798300  1
  O  O11  1  0.36794299  0.82373601  0.91201697  1
  O  O12  1  0.36794299  0.82373601  0.58798298  1
  O  O13  1  0.86794297  0.67626401  0.41201698  1
  O  O14  1  0.13205700  0.32373601  0.91201697  1
  O  O15  1  0.63205698  0.17626400  0.08798300  1
  O  O16  1  0.20173299  0.09233700  0.24999999  1
  O  O17  1  0.70173297  0.40766301  0.74999997  1
  O  O18  1  0.29826699  0.59233701  0.24999999  1
  O  O19  1  0.79826697  0.90766301  0.74999997  1
