# generated using pymatgen
data_Na2O2
_symmetry_space_group_name_H-M   'P 1'
_cell_length_a   6.00871611
_cell_length_b   6.00871611
_cell_length_c   6.09947395
_cell_angle_alpha   112.52433014
_cell_angle_beta   112.52433014
_cell_angle_gamma   93.82630157
_symmetry_Int_Tables_number   1
_chemical_formula_structural   Na2O2
_chemical_formula_sum   'Na4 O4'
_cell_volume   181.92681384
_cell_formula_units_Z   2
loop_
 _symmetry_equiv_pos_site_id
 _symmetry_equiv_pos_as_xyz
  1  'x, y, z'
loop_
 _atom_site_type_symbol
 _atom_site_label
 _atom_site_symmetry_multiplicity
 _atom_site_fract_x
 _atom_site_fract_y
 _atom_site_fract_z
 _atom_site_occupancy
  Na  Na0  1  0.63469897  0.36530099  0.24999995  1
  Na  Na1  1  0.36530097  0.63469898  0.74999995  1
  Na  Na2  1  0.90873598  0.09126400  0.74999995  1
  Na  Na3  1  0.09126397  0.90873597  0.24999994  1
  O  O4  1  0.24608199  0.12192600  0.71508498  1
  O  O5  1  0.87807395  0.75391798  0.78491492  1
  O  O6  1  0.12192599  0.24608199  0.21508498  1
  O  O7  1  0.75391795  0.87807397  0.28491492  1
