# generated using pymatgen
data_Na5TiO6
_symmetry_space_group_name_H-M   'P 1'
_cell_length_a   5.70013237
_cell_length_b   5.74851465
_cell_length_c   5.74851465
_cell_angle_alpha   60.64739609
_cell_angle_beta   79.59673309
_cell_angle_gamma   100.40326691
_symmetry_Int_Tables_number   1
_chemical_formula_structural   Na5TiO6
_chemical_formula_sum   'Na5 Ti1 O6'
_cell_volume   153.32107436
_cell_formula_units_Z   1
loop_
 _symmetry_equiv_pos_site_id
 _symmetry_equiv_pos_as_xyz
  1  'x, y, z'
loop_
 _atom_site_type_symbol
 _atom_site_label
 _atom_site_symmetry_multiplicity
 _atom_site_fract_x
 _atom_site_fract_y
 _atom_site_fract_z
 _atom_site_occupancy
  Na  Na0  1  -0.00000005  0.83340698  0.83340703  1
  Na  Na1  1  -0.00000001  0.16659300  0.16659301  1
  Na  Na2  1  0.49999995  0.67061298  0.67061304  1
  Na  Na3  1  0.49999997  0.32938699  0.32938703  1
  Na  Na4  1  0.49999999  0.00000000  0.00000002  1
  Ti  Ti5  1  0.99999995  0.49999999  0.50000005  1
  O  O6  1  0.21462395  0.84567498  0.43054704  1
  O  O7  1  0.78537597  0.15432500  0.56945303  1
  O  O8  1  0.78537596  0.43054699  0.84567504  1
  O  O9  1  0.21462396  0.56945299  0.15432503  1
  O  O10  1  0.20246998  0.29770899  0.70229102  1
  O  O11  1  0.79752994  0.70229098  0.29770905  1
