# generated using pymatgen
data_LiBe2CrH6
_symmetry_space_group_name_H-M   'P 1'
_cell_length_a   4.76502371
_cell_length_b   4.76502371
_cell_length_c   5.82632446
_cell_angle_alpha   65.86286926
_cell_angle_beta   65.86286926
_cell_angle_gamma   60.00000763
_symmetry_Int_Tables_number   1
_chemical_formula_structural   LiBe2CrH6
_chemical_formula_sum   'Li1 Be2 Cr1 H6'
_cell_volume   100.98996158
_cell_formula_units_Z   1
loop_
 _symmetry_equiv_pos_site_id
 _symmetry_equiv_pos_as_xyz
  1  'x, y, z'
loop_
 _atom_site_type_symbol
 _atom_site_label
 _atom_site_symmetry_multiplicity
 _atom_site_fract_x
 _atom_site_fract_y
 _atom_site_fract_z
 _atom_site_occupancy
  H  H0  1  0.49999998  0.49999997  0.50000004  1
  Li  Li1  1  0.00000000  0.00000000  0.00000000  1
  Cr  Cr2  1  0.74999998  0.74999996  0.75000006  1
  Be  Be3  1  0.24999999  0.24999999  0.25000002  1
  Be  Be4  1  0.01582501  0.48417498  0.75000003  1
  H  H5  1  0.74999997  0.01582500  0.75000004  1
  H  H6  1  0.48417499  0.74999996  0.75000005  1
  H  H7  1  0.98417496  0.51582497  0.25000005  1
  H  H8  1  0.25000000  0.98417495  0.25000004  1
  H  H9  1  0.51582498  0.24999999  0.25000003  1
