# generated using pymatgen
data_CeThSnSb2TeMo3
_symmetry_space_group_name_H-M   'P 1'
_cell_length_a   3.47692800
_cell_length_b   3.47692704
_cell_length_c   32.12532043
_cell_angle_alpha   90.00000000
_cell_angle_beta   90.00000000
_cell_angle_gamma   120.00000763
_symmetry_Int_Tables_number   1
_chemical_formula_structural   CeThSnSb2TeMo3
_chemical_formula_sum   'Ce1 Th1 Sn1 Sb2 Te1 Mo3'
_cell_volume   336.33289167
_cell_formula_units_Z   1
loop_
 _symmetry_equiv_pos_site_id
 _symmetry_equiv_pos_as_xyz
  1  'x, y, z'
loop_
 _atom_site_type_symbol
 _atom_site_label
 _atom_site_symmetry_multiplicity
 _atom_site_fract_x
 _atom_site_fract_y
 _atom_site_fract_z
 _atom_site_occupancy
  Ce  Ce0  1  0.00000000  0.00000000  0.59541901  1
  Th  Th1  1  0.66666667  0.33333334  0.47927701  1
  Mo  Mo2  1  0.66666667  0.33333334  0.36408601  1
  Sn  Sn3  1  0.00000000  0.00000000  0.71063201  1
  Mo  Mo4  1  0.00000000  0.00000000  0.88436502  1
  Sb  Sb5  1  0.00000000  0.00000000  0.42166201  1
  Mo  Mo6  1  0.66666667  0.33333334  0.65304901  1
  Te  Te7  1  0.66666667  0.33333334  0.93507202  1
  Sb  Sb8  1  0.66666667  0.33333334  0.83359701  1
