# generated using pymatgen
data_K8TlOF6
_symmetry_space_group_name_H-M   'P 1'
_cell_length_a   5.23233700
_cell_length_b   8.65356731
_cell_length_c   12.34424496
_cell_angle_alpha   104.02977753
_cell_angle_beta   90.00000000
_cell_angle_gamma   90.00000000
_symmetry_Int_Tables_number   1
_chemical_formula_structural   K8TlOF6
_chemical_formula_sum   'K8 Tl1 O1 F6'
_cell_volume   542.25453859
_cell_formula_units_Z   1
loop_
 _symmetry_equiv_pos_site_id
 _symmetry_equiv_pos_as_xyz
  1  'x, y, z'
loop_
 _atom_site_type_symbol
 _atom_site_label
 _atom_site_symmetry_multiplicity
 _atom_site_fract_x
 _atom_site_fract_y
 _atom_site_fract_z
 _atom_site_occupancy
  K  K0  1  0.13437000  0.43836998  0.24974198  1
  K  K1  1  0.63437000  0.06163000  0.25025799  1
  K  K2  1  0.86563000  0.56162997  0.75025796  1
  K  K3  1  0.36563000  0.93836996  0.74974195  1
  K  K4  1  0.47555900  0.63464997  0.35043397  1
  K  K5  1  0.97555900  0.86534996  0.14956597  1
  K  K6  1  0.52444100  0.36534998  0.64956597  1
  K  K7  1  0.02444100  0.13464999  0.85043397  1
  Tl  Tl8  1  0.28865000  0.93326996  0.34685497  1
  F  F9  1  0.78865000  0.56672997  0.15314498  1
  O  O10  1  0.71135000  0.06673000  0.65314498  1
  F  F11  1  0.21135000  0.43326998  0.84685496  1
  F  F12  1  0.88145500  0.29563099  0.38662298  1
  F  F13  1  0.38145500  0.20436899  0.11337699  1
  F  F14  1  0.11854500  0.70436897  0.61337696  1
  F  F15  1  0.61854500  0.79563096  0.88662295  1
