# generated using pymatgen
data_KNa5SrCe2ScBiO9
_symmetry_space_group_name_H-M   'P 1'
_cell_length_a   3.85405397
_cell_length_b   3.85405350
_cell_length_c   31.48751259
_cell_angle_alpha   90.00000000
_cell_angle_beta   90.00000000
_cell_angle_gamma   120.00000763
_symmetry_Int_Tables_number   1
_chemical_formula_structural   KNa5SrCe2ScBiO9
_chemical_formula_sum   'K1 Na5 Sr1 Ce2 Sc1 Bi1 O9'
_cell_volume   405.04612676
_cell_formula_units_Z   1
loop_
 _symmetry_equiv_pos_site_id
 _symmetry_equiv_pos_as_xyz
  1  'x, y, z'
loop_
 _atom_site_type_symbol
 _atom_site_label
 _atom_site_symmetry_multiplicity
 _atom_site_fract_x
 _atom_site_fract_y
 _atom_site_fract_z
 _atom_site_occupancy
  Na  Na0  1  0.33333337  0.66666667  0.80000501  1
  Sr  Sr1  1  0.00000000  0.00000000  0.20001400  1
  Na  Na2  1  0.33333337  0.66666667  0.10001300  1
  Sc  Sc3  1  0.66666669  0.33333334  0.30000500  1
  Na  Na4  1  0.66666669  0.33333334  0.90000501  1
  K  K5  1  0.33333337  0.66666667  0.40000501  1
  Ce  Ce6  1  0.00000000  0.00000000  0.99998301  1
  Na  Na7  1  0.66666669  0.33333334  0.60001301  1
  Na  Na8  1  0.00000000  0.00000000  0.70001401  1
  Ce  Ce9  1  0.00000000  0.00000000  0.49998301  1
  O  O10  1  0.33333337  0.66666667  0.72499601  1
  O  O11  1  0.00000000  0.00000000  0.92499901  1
  O  O12  1  0.33333337  0.66666667  0.32499500  1
  O  O13  1  0.00000000  0.00000000  0.12505400  1
  O  O14  1  0.66666669  0.33333334  0.22499600  1
  O  O15  1  0.00000000  0.00000000  0.42499901  1
  O  O16  1  0.66666669  0.33333334  0.82499501  1
  O  O17  1  0.66666669  0.33333334  0.52493701  1
  O  O18  1  0.33333337  0.66666667  0.02493700  1
  Bi  Bi19  1  0.00000000  0.00000000  0.62505401  1
