# generated using pymatgen
data_Ba5Sr2CaCeNi3Sn3GePb4
_symmetry_space_group_name_H-M   'P 1'
_cell_length_a   7.68866205
_cell_length_b   9.09494209
_cell_length_c   9.09494209
_cell_angle_alpha   90.00000000
_cell_angle_beta   90.00000000
_cell_angle_gamma   90.00000000
_symmetry_Int_Tables_number   1
_chemical_formula_structural   Ba5Sr2CaCeNi3Sn3GePb4
_chemical_formula_sum   'Ba5 Sr2 Ca1 Ce1 Ni3 Sn3 Ge1 Pb4'
_cell_volume   635.99052983
_cell_formula_units_Z   1
loop_
 _symmetry_equiv_pos_site_id
 _symmetry_equiv_pos_as_xyz
  1  'x, y, z'
loop_
 _atom_site_type_symbol
 _atom_site_label
 _atom_site_symmetry_multiplicity
 _atom_site_fract_x
 _atom_site_fract_y
 _atom_site_fract_z
 _atom_site_occupancy
  Ce  Ce0  1  0.99999999  0.49999999  0.49999999  1
  Ba  Ba1  1  0.50000000  0.49999999  0.49999999  1
  Ba  Ba2  1  0.99999999  0.26309200  0.08390500  1
  Ba  Ba3  1  -0.00000000  0.73690799  0.91609499  1
  Ba  Ba4  1  0.50000000  0.08390500  0.73690799  1
  Sr  Sr5  1  0.50000000  0.91609499  0.26309200  1
  Sr  Sr6  1  -0.00000000  0.99999999  0.49999999  1
  Ca  Ca7  1  0.50000000  0.49999999  0.00000000  1
  Ni  Ni8  1  0.24930000  0.56322499  0.20238400  1
  Ni  Ni9  1  0.24930000  0.43677500  0.79761599  1
  Pb  Pb10  1  0.74929999  0.20238400  0.43677500  1
  Pb  Pb11  1  0.74929999  0.79761599  0.56322499  1
  Ni  Ni12  1  0.75069999  0.43677500  0.79761599  1
  Ba  Ba13  1  0.75069999  0.56322499  0.20238400  1
  Pb  Pb14  1  0.25070000  0.79761599  0.56322499  1
  Pb  Pb15  1  0.25070000  0.20238400  0.43677500  1
  Sn  Sn16  1  0.50000000  0.20692600  0.06349800  1
  Ge  Ge17  1  0.50000000  0.79307399  0.93650199  1
  Sn  Sn18  1  -0.00000000  0.06349800  0.79307399  1
  Sn  Sn19  1  0.99999999  0.93650199  0.20692600  1
