# generated using pymatgen
data_KBa2Bi(IBr7)2
_symmetry_space_group_name_H-M   'P 1'
_cell_length_a   8.65009022
_cell_length_b   8.72100067
_cell_length_c   27.59240723
_cell_angle_alpha   89.58238220
_cell_angle_beta   85.27414703
_cell_angle_gamma   87.45202637
_symmetry_Int_Tables_number   1
_chemical_formula_structural   KBa2Bi(IBr7)2
_chemical_formula_sum   'K1 Ba2 Bi1 I2 Br14'
_cell_volume   2072.35955946
_cell_formula_units_Z   1
loop_
 _symmetry_equiv_pos_site_id
 _symmetry_equiv_pos_as_xyz
  1  'x, y, z'
loop_
 _atom_site_type_symbol
 _atom_site_label
 _atom_site_symmetry_multiplicity
 _atom_site_fract_x
 _atom_site_fract_y
 _atom_site_fract_z
 _atom_site_occupancy
  K  K0  1  0.87539798  0.15218101  0.05900200  1
  Ba  Ba1  1  0.12460202  0.84781903  0.94099800  1
  Ba  Ba2  1  0.61143701  0.86251404  0.17343401  1
  Bi  Bi3  1  0.38856299  0.13748601  0.82656599  1
  Br  Br4  1  0.11871002  0.88773004  0.04584801  1
  Br  Br5  1  0.88128998  0.11227000  0.95415199  1
  Br  Br6  1  0.65208601  0.88663904  0.06890701  1
  Br  Br7  1  0.34791399  0.11336100  0.93109299  1
  Br  Br8  1  0.87108198  0.09262500  0.16239700  1
  Br  Br9  1  0.12891802  0.90737504  0.83760300  1
  Br  Br10  1  0.80477800  0.68288403  0.22462301  1
  I  I11  1  0.19522200  0.31711601  0.77537700  1
  Br  Br12  1  0.10541201  0.35474901  0.06206200  1
  Br  Br13  1  0.89458800  0.64525103  0.93793800  1
  Br  Br14  1  0.62517199  0.35308201  0.05644401  1
  Br  Br15  1  0.37482801  0.64691803  0.94355600  1
  Br  Br16  1  0.43820599  0.07730900  0.22712100  1
  I  I17  1  0.56179401  0.92269104  0.77287901  1
  Br  Br18  1  0.38900801  0.65596903  0.16170901  1
  Br  Br19  1  0.61099199  0.34403101  0.83829100  1
