# generated using pymatgen
data_Na2SbAuO8
_symmetry_space_group_name_H-M   'P 1'
_cell_length_a   5.48878813
_cell_length_b   5.48878813
_cell_length_c   7.23921108
_cell_angle_alpha   112.27802277
_cell_angle_beta   112.27802277
_cell_angle_gamma   90.00000000
_symmetry_Int_Tables_number   1
_chemical_formula_structural   Na2SbAuO8
_chemical_formula_sum   'Na2 Sb1 Au1 O8'
_cell_volume   184.10104892
_cell_formula_units_Z   1
loop_
 _symmetry_equiv_pos_site_id
 _symmetry_equiv_pos_as_xyz
  1  'x, y, z'
loop_
 _atom_site_type_symbol
 _atom_site_label
 _atom_site_symmetry_multiplicity
 _atom_site_fract_x
 _atom_site_fract_y
 _atom_site_fract_z
 _atom_site_occupancy
  Na  Na0  1  0.49999998  0.49999999  1.00000000  1
  Na  Na1  1  0.24999999  0.74999998  0.50000000  1
  Sb  Sb2  1  0.00000000  0.00000000  0.00000000  1
  Au  Au3  1  0.74999998  0.24999999  0.50000000  1
  O  O4  1  0.53301098  0.40555999  0.33594300  1
  O  O5  1  0.94706697  0.31961599  0.16405599  1
  O  O6  1  0.59443998  0.19706699  0.66405600  1
  O  O7  1  0.06961699  0.46698999  0.66405700  1
  O  O8  1  0.68038298  0.78300998  0.83594300  1
  O  O9  1  0.21698899  0.84443998  0.16405699  1
  O  O10  1  0.80293297  0.93038397  0.33594399  1
  O  O11  1  0.15556000  0.05293300  0.83594401  1
