# generated using pymatgen
data_Fe2Ni(H2N)2
_symmetry_space_group_name_H-M   'P 1'
_cell_length_a   5.39109993
_cell_length_b   5.39110041
_cell_length_c   5.87193394
_cell_angle_alpha   90.00000000
_cell_angle_beta   90.00000000
_cell_angle_gamma   120.00000000
_symmetry_Int_Tables_number   1
_chemical_formula_structural   Fe2Ni(H2N)2
_chemical_formula_sum   'Fe2 Ni1 H4 N2'
_cell_volume   147.79733222
_cell_formula_units_Z   1
loop_
 _symmetry_equiv_pos_site_id
 _symmetry_equiv_pos_as_xyz
  1  'x, y, z'
loop_
 _atom_site_type_symbol
 _atom_site_label
 _atom_site_symmetry_multiplicity
 _atom_site_fract_x
 _atom_site_fract_y
 _atom_site_fract_z
 _atom_site_occupancy
  H  H0  1  0.00000000  0.00000000  0.00000000  1
  Fe  Fe1  1  0.33333337  0.66666668  0.50000001  1
  Fe  Fe2  1  0.66666669  0.33333334  0.50000001  1
  Ni  Ni3  1  0.61394506  1.00000002  0.30573000  1
  H  H4  1  0.38605502  0.38605501  0.30573000  1
  H  H5  1  1.00000004  0.61394501  0.30573000  1
  H  H6  1  0.61394504  0.61394501  0.69427001  1
  N  N7  1  1.00000003  0.38605501  0.69427001  1
  N  N8  1  0.38605505  1.00000002  0.69427001  1
