# generated using pymatgen
data_Mg4Zn7Ag2Sb4As2P
_symmetry_space_group_name_H-M   'P 1'
_cell_length_a   8.34573936
_cell_length_b   8.34573936
_cell_length_c   8.34574032
_cell_angle_alpha   107.01832581
_cell_angle_beta   107.01832581
_cell_angle_gamma   107.01833344
_symmetry_Int_Tables_number   1
_chemical_formula_structural   Mg4Zn7Ag2Sb4As2P
_chemical_formula_sum   'Mg4 Zn7 Ag2 Sb4 As2 P1'
_cell_volume   483.86347049
_cell_formula_units_Z   1
loop_
 _symmetry_equiv_pos_site_id
 _symmetry_equiv_pos_as_xyz
  1  'x, y, z'
loop_
 _atom_site_type_symbol
 _atom_site_label
 _atom_site_symmetry_multiplicity
 _atom_site_fract_x
 _atom_site_fract_y
 _atom_site_fract_z
 _atom_site_occupancy
  Mg  Mg0  1  0.10132200  0.02295100  0.30940298  1
  Mg  Mg1  1  0.30940300  0.10132200  0.02295099  1
  Mg  Mg2  1  0.02295100  0.30940300  0.10132199  1
  Mg  Mg3  1  0.89867801  0.97704901  0.69059692  1
  Zn  Zn4  1  0.69059701  0.89867801  0.97704891  1
  Zn  Zn5  1  0.97704901  0.69059701  0.89867791  1
  Zn  Zn6  1  0.50000001  0.50000000  0.49999995  1
  P  P7  1  0.00000000  0.00000000  0.00000000  1
  Sb  Sb8  1  0.45855400  0.17034200  0.38434897  1
  Zn  Zn9  1  0.38434901  0.45855400  0.17034197  1
  Sb  Sb10  1  0.17034200  0.38434900  0.45855396  1
  Zn  Zn11  1  0.54144601  0.82965801  0.61565094  1
  Ag  Ag12  1  0.61565101  0.54144600  0.82965793  1
  Zn  Zn13  1  0.82965801  0.61565101  0.54144594  1
  As  As14  1  0.78390001  0.93066701  0.32121794  1
  Ag  Ag15  1  0.32121801  0.78390001  0.93066693  1
  Sb  Sb16  1  0.93066701  0.32121800  0.78389993  1
  Sb  Sb17  1  0.21610000  0.06933300  0.67878196  1
  Zn  Zn18  1  0.67878201  0.21610000  0.06933297  1
  As  As19  1  0.06933301  0.67878201  0.21609997  1
