# generated using pymatgen
data_Li2AlS4
_symmetry_space_group_name_H-M   'P 1'
_cell_length_a   5.58485985
_cell_length_b   5.58485985
_cell_length_c   6.67538118
_cell_angle_alpha   114.72842407
_cell_angle_beta   114.72842407
_cell_angle_gamma   90.00000000
_symmetry_Int_Tables_number   1
_chemical_formula_structural   Li2AlS4
_chemical_formula_sum   'Li2 Al1 S4'
_cell_volume   167.86655358
_cell_formula_units_Z   1
loop_
 _symmetry_equiv_pos_site_id
 _symmetry_equiv_pos_as_xyz
  1  'x, y, z'
loop_
 _atom_site_type_symbol
 _atom_site_label
 _atom_site_symmetry_multiplicity
 _atom_site_fract_x
 _atom_site_fract_y
 _atom_site_fract_z
 _atom_site_occupancy
  Li  Li0  1  0.25000007  0.75000005  0.50000009  1
  Li  Li1  1  0.00000000  0.00000000  0.00000000  1
  Al  Al2  1  0.50000006  0.50000003  0.00000007  1
  S  S3  1  0.39436205  0.37085603  0.26421806  1
  S  S4  1  0.86985611  0.89336206  0.26421813  1
  S  S5  1  0.10663805  0.60563804  0.73578208  1
  S  S6  1  0.62914404  0.13014401  0.73578207  1
