# generated using pymatgen
data_Ce2YErGaSiGe6
_symmetry_space_group_name_H-M   'P 1'
_cell_length_a   4.14923811
_cell_length_b   7.05347204
_cell_length_c   7.95879412
_cell_angle_alpha   90.00000000
_cell_angle_beta   90.00000000
_cell_angle_gamma   90.00000000
_symmetry_Int_Tables_number   1
_chemical_formula_structural   Ce2YErGaSiGe6
_chemical_formula_sum   'Ce2 Y1 Er1 Ga1 Si1 Ge6'
_cell_volume   232.92632660
_cell_formula_units_Z   1
loop_
 _symmetry_equiv_pos_site_id
 _symmetry_equiv_pos_as_xyz
  1  'x, y, z'
loop_
 _atom_site_type_symbol
 _atom_site_label
 _atom_site_symmetry_multiplicity
 _atom_site_fract_x
 _atom_site_fract_y
 _atom_site_fract_z
 _atom_site_occupancy
  Ce  Ce0  1  0.24999999  0.52978600  0.30857700  1
  Y  Y1  1  0.24999999  0.02978600  0.19142300  1
  Ce  Ce2  1  0.74999998  0.47021400  0.69142299  1
  Er  Er3  1  0.74999998  0.97021399  0.80857699  1
  Ga  Ga4  1  0.24999999  0.24992400  0.88014099  1
  Ge  Ge5  1  0.24999999  0.74992400  0.61985899  1
  Ge  Ge6  1  0.74999998  0.75007600  0.11985900  1
  Si  Si7  1  0.74999998  0.25007600  0.38014099  1
  Ge  Ge8  1  0.24999999  0.64483600  0.93718499  1
  Ge  Ge9  1  0.24999999  0.14483600  0.56281499  1
  Ge  Ge10  1  0.74999998  0.35516400  0.06281500  1
  Ge  Ge11  1  0.74999998  0.85516399  0.43718499  1
