# generated using pymatgen
data_Li4Cu(NiO4)2
_symmetry_space_group_name_H-M   'P 1'
_cell_length_a   6.07458019
_cell_length_b   6.07458019
_cell_length_c   6.07457972
_cell_angle_alpha   61.55458069
_cell_angle_beta   61.55458069
_cell_angle_gamma   61.55458069
_symmetry_Int_Tables_number   1
_chemical_formula_structural   Li4Cu(NiO4)2
_chemical_formula_sum   'Li4 Cu1 Ni2 O8'
_cell_volume   164.03065587
_cell_formula_units_Z   1
loop_
 _symmetry_equiv_pos_site_id
 _symmetry_equiv_pos_as_xyz
  1  'x, y, z'
loop_
 _atom_site_type_symbol
 _atom_site_label
 _atom_site_symmetry_multiplicity
 _atom_site_fract_x
 _atom_site_fract_y
 _atom_site_fract_z
 _atom_site_occupancy
  Li  Li0  1  0.00000000  0.00000000  0.00000000  1
  Li  Li1  1  0.49999996  0.49999998  0.00000002  1
  Li  Li2  1  0.49999995  0.99999997  0.50000005  1
  Li  Li3  1  -0.00000002  0.49999998  0.50000003  1
  Cu  Cu4  1  0.00000000  0.00000000  0.50000002  1
  Ni  Ni5  1  -0.00000002  0.49999998  1.00000005  1
  Ni  Ni6  1  0.49999995  0.99999997  0.00000003  1
  O  O7  1  0.24178098  0.24178099  0.78713604  1
  O  O8  1  0.75043594  0.75043597  0.75043606  1
  O  O9  1  0.78713596  0.24178099  0.24178103  1
  O  O10  1  0.75821896  0.21286399  0.75821904  1
  O  O11  1  0.24178096  0.78713597  0.24178103  1
  O  O12  1  0.21286397  0.75821897  0.75821905  1
  O  O13  1  0.24956398  0.24956399  0.24956402  1
  O  O14  1  0.75821894  0.75821897  0.21286404  1
