# generated using pymatgen
data_KNa8Li(ClF4)2
_symmetry_space_group_name_H-M   'P 1'
_cell_length_a   3.71703696
_cell_length_b   9.50240040
_cell_length_c   14.26097298
_cell_angle_alpha   90.00000000
_cell_angle_beta   90.00000000
_cell_angle_gamma   90.00000000
_symmetry_Int_Tables_number   1
_chemical_formula_structural   KNa8Li(ClF4)2
_chemical_formula_sum   'K1 Na8 Li1 Cl2 F8'
_cell_volume   503.70859658
_cell_formula_units_Z   1
loop_
 _symmetry_equiv_pos_site_id
 _symmetry_equiv_pos_as_xyz
  1  'x, y, z'
loop_
 _atom_site_type_symbol
 _atom_site_label
 _atom_site_symmetry_multiplicity
 _atom_site_fract_x
 _atom_site_fract_y
 _atom_site_fract_z
 _atom_site_occupancy
  Na  Na0  1  0.75000001  0.34458299  0.45085100  1
  Na  Na1  1  0.25000000  0.65541697  0.54914900  1
  Na  Na2  1  0.75000001  0.84458296  0.04914900  1
  Li  Li3  1  0.25000000  0.15541699  0.95085100  1
  K  K4  1  0.75000001  0.94361396  0.66620600  1
  Na  Na5  1  0.25000000  0.05638600  0.33379400  1
  Na  Na6  1  0.75000001  0.44361398  0.83379400  1
  Na  Na7  1  0.25000000  0.55638598  0.16620600  1
  Na  Na8  1  0.25000000  0.01394500  0.10447800  1
  Na  Na9  1  0.75000001  0.98605496  0.89552200  1
  Cl  Cl10  1  0.25000000  0.51394498  0.39552200  1
  Cl  Cl11  1  0.75000001  0.48605498  0.60447800  1
  F  F12  1  0.25000000  0.17990299  0.50553000  1
  F  F13  1  0.75000001  0.82009697  0.49447000  1
  F  F14  1  0.25000000  0.67990297  0.99447000  1
  F  F15  1  0.75000001  0.32009699  0.00553000  1
  F  F16  1  0.75000001  0.23815499  0.28838100  1
  F  F17  1  0.25000000  0.76184497  0.71161900  1
  F  F18  1  0.75000001  0.73815497  0.21161900  1
  F  F19  1  0.25000000  0.26184499  0.78838100  1
