# generated using pymatgen
data_K4As2SeS7
_symmetry_space_group_name_H-M   'P 1'
_cell_length_a   5.87104607
_cell_length_b   7.76306677
_cell_length_c   9.21531296
_cell_angle_alpha   83.08159637
_cell_angle_beta   71.42484283
_cell_angle_gamma   67.78150940
_symmetry_Int_Tables_number   1
_chemical_formula_structural   K4As2SeS7
_chemical_formula_sum   'K4 As2 Se1 S7'
_cell_volume   368.56790771
_cell_formula_units_Z   1
loop_
 _symmetry_equiv_pos_site_id
 _symmetry_equiv_pos_as_xyz
  1  'x, y, z'
loop_
 _atom_site_type_symbol
 _atom_site_label
 _atom_site_symmetry_multiplicity
 _atom_site_fract_x
 _atom_site_fract_y
 _atom_site_fract_z
 _atom_site_occupancy
  K  K0  1  0.08312800  0.00347900  0.33630400  1
  K  K1  1  0.42291104  0.99652097  0.66369604  1
  K  K2  1  0.83660700  0.49652099  0.83630404  1
  K  K3  1  0.16943202  0.50347899  0.16369602  1
  As  As4  1  0.49418501  0.49999999  0.50000003  1
  As  As5  1  0.74418498  0.00000000  0.00000002  1
  S  S6  1  0.07954801  0.33854199  0.49807601  1
  S  S7  1  0.91616601  0.66145798  0.50192405  1
  S  S8  1  0.16809000  0.16145800  0.99807601  1
  S  S9  1  0.32762403  0.83854198  0.00192404  1
  S  S10  1  0.00512104  0.81678598  0.65383403  1
  S  S11  1  0.47574200  0.18321300  0.34616502  1
  Se  Se12  1  0.40895400  0.31678699  0.84616602  1
  S  S13  1  0.57190602  0.68321398  0.15383504  1
