# generated using pymatgen
data_NaSO4
_symmetry_space_group_name_H-M   'P 1'
_cell_length_a   6.13533688
_cell_length_b   6.13533688
_cell_length_c   6.13533688
_cell_angle_alpha   106.27778625
_cell_angle_beta   106.27778625
_cell_angle_gamma   116.06630707
_symmetry_Int_Tables_number   1
_chemical_formula_structural   NaSO4
_chemical_formula_sum   'Na2 S2 O8'
_cell_volume   175.99782577
_cell_formula_units_Z   2
loop_
 _symmetry_equiv_pos_site_id
 _symmetry_equiv_pos_as_xyz
  1  'x, y, z'
loop_
 _atom_site_type_symbol
 _atom_site_label
 _atom_site_symmetry_multiplicity
 _atom_site_fract_x
 _atom_site_fract_y
 _atom_site_fract_z
 _atom_site_occupancy
  Na  Na0  1  0.00000000  0.00000000  0.00000000  1
  Na  Na1  1  0.75000002  0.25000001  0.50000005  1
  S  S2  1  0.25000010  0.75000004  0.50000008  1
  S  S3  1  0.50000006  0.50000003  1.00000004  1
  O  O4  1  0.07445311  0.75330904  0.67885606  1
  O  O5  1  0.51822404  0.33288202  0.18534206  1
  O  O6  1  0.14754005  0.33288202  0.81465802  1
  O  O7  1  0.07445306  0.39559702  0.32114404  1
  O  O8  1  0.66711805  0.48177603  0.81465806  1
  O  O9  1  0.24669113  0.92554705  0.32114411  1
  O  O10  1  0.60440312  0.92554705  0.67885611  1
  O  O11  1  0.66711811  0.85246005  0.18534212  1
