# generated using pymatgen
data_Na2O2
_symmetry_space_group_name_H-M   'P 1'
_cell_length_a   5.36973000
_cell_length_b   5.36973000
_cell_length_c   6.53254747
_cell_angle_alpha   114.26755524
_cell_angle_beta   114.26755524
_cell_angle_gamma   90.00000000
_symmetry_Int_Tables_number   1
_chemical_formula_structural   Na2O2
_chemical_formula_sum   'Na4 O4'
_cell_volume   153.27427158
_cell_formula_units_Z   2
loop_
 _symmetry_equiv_pos_site_id
 _symmetry_equiv_pos_as_xyz
  1  'x, y, z'
loop_
 _atom_site_type_symbol
 _atom_site_label
 _atom_site_symmetry_multiplicity
 _atom_site_fract_x
 _atom_site_fract_y
 _atom_site_fract_z
 _atom_site_occupancy
  Na  Na0  1  0.50000003  0.50000001  1.00000005  1
  Na  Na1  1  0.25000004  0.75000002  0.50000005  1
  Na  Na2  1  0.00000000  0.00000000  0.00000000  1
  Na  Na3  1  0.75000002  0.25000001  0.50000004  1
  O  O4  1  0.37500002  0.37434001  0.25000003  1
  O  O5  1  0.87500005  0.87566002  0.25000008  1
  O  O6  1  0.62566002  0.12500000  0.75000003  1
  O  O7  1  0.12434003  0.62500002  0.75000004  1
