# generated using pymatgen
data_Li3CoNi3(O2F)3
_symmetry_space_group_name_H-M   'P 1'
_cell_length_a   5.30032492
_cell_length_b   5.42230940
_cell_length_c   7.39266539
_cell_angle_alpha   92.51329803
_cell_angle_beta   89.99440765
_cell_angle_gamma   89.98789215
_symmetry_Int_Tables_number   1
_chemical_formula_structural   Li3CoNi3(O2F)3
_chemical_formula_sum   'Li3 Co1 Ni3 O6 F3'
_cell_volume   212.26083268
_cell_formula_units_Z   1
loop_
 _symmetry_equiv_pos_site_id
 _symmetry_equiv_pos_as_xyz
  1  'x, y, z'
loop_
 _atom_site_type_symbol
 _atom_site_label
 _atom_site_symmetry_multiplicity
 _atom_site_fract_x
 _atom_site_fract_y
 _atom_site_fract_z
 _atom_site_occupancy
  Li  Li0  1  0.48784100  0.49985302  0.53033003  1
  Li  Li1  1  0.51219600  0.49996702  0.03039302  1
  Co  Co2  1  0.01223000  0.00000900  0.96963202  1
  Li  Li3  1  0.98788602  0.00014400  0.46963605  1
  Ni  Ni4  1  0.56749900  0.50011202  0.25297303  1
  Ni  Ni5  1  0.06770300  0.00017700  0.74703002  1
  Ni  Ni6  1  0.93199302  0.00079000  0.24695604  1
  O  O7  1  0.43238100  0.49929302  0.75278004  1
  F  F8  1  0.69790501  0.19603101  0.96086405  1
  O  O9  1  0.19101499  0.69310803  0.46100202  1
  O  O10  1  0.69121800  0.80679203  0.53929704  1
  O  O11  1  0.19796300  0.30388401  0.03911501  1
  F  F12  1  0.80692300  0.69500603  0.96083506  1
  O  O13  1  0.30433800  0.19376301  0.46097302  1
  O  O14  1  0.80427401  0.30621801  0.53886405  1
  F  F15  1  0.30663699  0.80485303  0.03931902  1
