# generated using pymatgen
data_ScTl2CuSn
_symmetry_space_group_name_H-M   'P 1'
_cell_length_a   5.59874105
_cell_length_b   5.59874105
_cell_length_c   5.61290598
_cell_angle_alpha   90.59500885
_cell_angle_beta   90.59500885
_cell_angle_gamma   90.03880310
_symmetry_Int_Tables_number   1
_chemical_formula_structural   ScTl2CuSn
_chemical_formula_sum   'Sc1 Tl2 Cu1 Sn1'
_cell_volume   175.92256933
_cell_formula_units_Z   1
loop_
 _symmetry_equiv_pos_site_id
 _symmetry_equiv_pos_as_xyz
  1  'x, y, z'
loop_
 _atom_site_type_symbol
 _atom_site_label
 _atom_site_symmetry_multiplicity
 _atom_site_fract_x
 _atom_site_fract_y
 _atom_site_fract_z
 _atom_site_occupancy
  Sc  Sc0  1  0.99033302  0.99033299  0.01806198  1
  Cu  Cu1  1  0.50878701  0.50878699  0.47938997  1
  Tl  Tl2  1  0.50467701  0.50467700  0.99246895  1
  Tl  Tl3  1  0.00904202  0.51456999  0.47522697  1
  Sn  Sn4  1  0.51457000  0.00904200  0.47522697  1
