# generated using pymatgen
data_H2
_symmetry_space_group_name_H-M   'P 1'
_cell_length_a   3.68945003
_cell_length_b   4.80392313
_cell_length_c   6.14959717
_cell_angle_alpha   112.99112701
_cell_angle_beta   107.45610046
_cell_angle_gamma   90.00000000
_symmetry_Int_Tables_number   1
_chemical_formula_structural   H2
_chemical_formula_sum   H11
_cell_volume   94.85995923
_cell_formula_units_Z   5
loop_
 _symmetry_equiv_pos_site_id
 _symmetry_equiv_pos_as_xyz
  1  'x, y, z'
loop_
 _atom_site_type_symbol
 _atom_site_label
 _atom_site_symmetry_multiplicity
 _atom_site_fract_x
 _atom_site_fract_y
 _atom_site_fract_z
 _atom_site_occupancy
  H  H0  1  0.32793102  0.32656900  0.65586203  1
  H  H1  1  0.67206905  0.67070701  0.34413807  1
  H  H2  1  0.68083302  0.17987300  0.36166603  1
  H  H3  1  0.31916705  0.81820701  0.63833407  1
  H  H4  1  0.00000003  0.47491500  0.00000003  1
  H  H5  1  0.50000001  0.05897400  0.00000002  1
  H  H6  1  0.89328006  0.79568101  0.78656008  1
  H  H7  1  0.10672000  0.00912100  0.21344000  1
  H  H8  1  0.50000002  0.27307800  0.00000003  1
  H  H9  1  0.83275204  0.56718900  0.66550407  1
  H  H10  1  0.16724806  0.90168601  0.33449607  1
