# generated using pymatgen
data_KTe2SeSI
_symmetry_space_group_name_H-M   'P 1'
_cell_length_a   4.63545179
_cell_length_b   4.63545179
_cell_length_c   7.60628319
_cell_angle_alpha   90.00000000
_cell_angle_beta   90.00000000
_cell_angle_gamma   90.00000000
_symmetry_Int_Tables_number   1
_chemical_formula_structural   KTe2SeSI
_chemical_formula_sum   'K1 Te2 Se1 S1 I1'
_cell_volume   163.43935077
_cell_formula_units_Z   1
loop_
 _symmetry_equiv_pos_site_id
 _symmetry_equiv_pos_as_xyz
  1  'x, y, z'
loop_
 _atom_site_type_symbol
 _atom_site_label
 _atom_site_symmetry_multiplicity
 _atom_site_fract_x
 _atom_site_fract_y
 _atom_site_fract_z
 _atom_site_occupancy
  K  K0  1  -0.00000000  0.50000002  0.33726199  1
  I  I1  1  0.50000002  0.00000000  0.66273798  1
  Te  Te2  1  0.00000000  0.00000000  0.00000000  1
  Te  Te3  1  0.50000002  0.50000002  0.00000000  1
  Se  Se4  1  0.50000002  0.00000000  0.18046600  1
  S  S5  1  -0.00000000  0.50000002  0.81953398  1
