# generated using pymatgen
data_Na4CdAg
_symmetry_space_group_name_H-M   'P 1'
_cell_length_a   4.99073505
_cell_length_b   8.08762360
_cell_length_c   9.24130344
_cell_angle_alpha   90.46311188
_cell_angle_beta   90.00000000
_cell_angle_gamma   90.00000000
_symmetry_Int_Tables_number   1
_chemical_formula_structural   Na4CdAg
_chemical_formula_sum   'Na8 Cd2 Ag2'
_cell_volume   372.99627055
_cell_formula_units_Z   2
loop_
 _symmetry_equiv_pos_site_id
 _symmetry_equiv_pos_as_xyz
  1  'x, y, z'
loop_
 _atom_site_type_symbol
 _atom_site_label
 _atom_site_symmetry_multiplicity
 _atom_site_fract_x
 _atom_site_fract_y
 _atom_site_fract_z
 _atom_site_occupancy
  Na  Na0  1  0.74999999  0.47678501  0.82329305  1
  Na  Na1  1  0.74999999  0.97857402  0.68283707  1
  Na  Na2  1  0.25000000  0.52420701  0.17367503  1
  Na  Na3  1  0.25000000  0.01706900  0.32060401  1
  Na  Na4  1  0.74999999  0.34815101  0.42392403  1
  Na  Na5  1  0.74999999  0.85388602  0.07236904  1
  Na  Na6  1  0.25000000  0.65017302  0.57571005  1
  Na  Na7  1  0.25000000  0.14664600  0.92656504  1
  Ag  Ag8  1  0.74999999  0.23082201  0.09663901  1
  Cd  Cd9  1  0.74999999  0.74257502  0.39434405  1
  Ag  Ag10  1  0.25000000  0.76639802  0.89590307  1
  Cd  Cd11  1  0.25000000  0.26471401  0.61413503  1
