# generated using pymatgen
data_Li4CuNiO6
_symmetry_space_group_name_H-M   'P 1'
_cell_length_a   2.95839834
_cell_length_b   4.21782541
_cell_length_c   8.89639282
_cell_angle_alpha   90.05686951
_cell_angle_beta   89.99881744
_cell_angle_gamma   89.99977875
_symmetry_Int_Tables_number   1
_chemical_formula_structural   Li4CuNiO6
_chemical_formula_sum   'Li4 Cu1 Ni1 O6'
_cell_volume   111.00920351
_cell_formula_units_Z   1
loop_
 _symmetry_equiv_pos_site_id
 _symmetry_equiv_pos_as_xyz
  1  'x, y, z'
loop_
 _atom_site_type_symbol
 _atom_site_label
 _atom_site_symmetry_multiplicity
 _atom_site_fract_x
 _atom_site_fract_y
 _atom_site_fract_z
 _atom_site_occupancy
  Li  Li0  1  0.99996996  0.99934202  0.66677300  1
  Li  Li1  1  0.49995798  0.50036901  0.50017500  1
  Li  Li2  1  0.99998796  0.99985302  0.35261799  1
  Li  Li3  1  0.49997098  0.50086501  0.81447301  1
  Cu  Cu4  1  0.50005398  0.49983001  0.17639100  1
  Ni  Ni5  1  0.00000900  0.00048600  0.99054102  1
  O  O6  1  0.50001496  0.99872902  0.84122001  1
  O  O7  1  0.00000499  0.50090401  0.32539301  1
  O  O8  1  0.50000299  0.00005600  0.15385200  1
  O  O9  1  0.00002599  0.50025101  0.01290500  1
  O  O10  1  0.49999999  0.00000300  0.50482101  1
  O  O11  1  0.99999997  0.49931201  0.66083800  1
