# generated using pymatgen
data_Na7Li(SBr5)2
_symmetry_space_group_name_H-M   'P 1'
_cell_length_a   4.10931015
_cell_length_b   11.42379475
_cell_length_c   11.85729980
_cell_angle_alpha   90.00000000
_cell_angle_beta   90.00000000
_cell_angle_gamma   90.00000000
_symmetry_Int_Tables_number   1
_chemical_formula_structural   Na7Li(SBr5)2
_chemical_formula_sum   'Na7 Li1 S2 Br10'
_cell_volume   556.62808252
_cell_formula_units_Z   1
loop_
 _symmetry_equiv_pos_site_id
 _symmetry_equiv_pos_as_xyz
  1  'x, y, z'
loop_
 _atom_site_type_symbol
 _atom_site_label
 _atom_site_symmetry_multiplicity
 _atom_site_fract_x
 _atom_site_fract_y
 _atom_site_fract_z
 _atom_site_occupancy
  Na  Na0  1  0.49999998  0.20927300  0.65902501  1
  Li  Li1  1  0.49999998  0.79072702  0.15902500  1
  Na  Na2  1  -0.00000000  0.28504701  0.34132501  1
  Na  Na3  1  -0.00000000  0.71495302  0.84132501  1
  Na  Na4  1  -0.00000000  0.92033402  0.52060901  1
  Na  Na5  1  -0.00000000  0.07966600  0.02060900  1
  Na  Na6  1  0.49999998  0.58536901  0.48382101  1
  Na  Na7  1  0.49999998  0.41463101  0.98382102  1
  Br  Br8  1  0.49999998  0.44807701  0.27970800  1
  Br  Br9  1  0.49999998  0.55192301  0.77970801  1
  Br  Br10  1  -0.00000000  0.38191201  0.55400301  1
  Br  Br11  1  -0.00000000  0.61808801  0.05400300  1
  S  S12  1  0.49999998  0.11350100  0.44660901  1
  Br  Br13  1  0.49999998  0.88649902  0.94660902  1
  Br  Br14  1  0.49999998  0.80536502  0.62105901  1
  Br  Br15  1  0.49999998  0.19463500  0.12105900  1
  Br  Br16  1  -0.00000000  0.69854902  0.38257401  1
  Br  Br17  1  -0.00000000  0.30145101  0.88257401  1
  S  S18  1  -0.00000000  0.05663400  0.71126701  1
  Br  Br19  1  -0.00000000  0.94336602  0.21126700  1
