# generated using pymatgen
data_Li2CuPO8
_symmetry_space_group_name_H-M   'P 1'
_cell_length_a   5.02889299
_cell_length_b   5.02889299
_cell_length_c   6.45702696
_cell_angle_alpha   90.00000000
_cell_angle_beta   90.00000000
_cell_angle_gamma   111.28593445
_symmetry_Int_Tables_number   1
_chemical_formula_structural   Li2CuPO8
_chemical_formula_sum   'Li2 Cu1 P1 O8'
_cell_volume   152.15665344
_cell_formula_units_Z   1
loop_
 _symmetry_equiv_pos_site_id
 _symmetry_equiv_pos_as_xyz
  1  'x, y, z'
loop_
 _atom_site_type_symbol
 _atom_site_label
 _atom_site_symmetry_multiplicity
 _atom_site_fract_x
 _atom_site_fract_y
 _atom_site_fract_z
 _atom_site_occupancy
  Li  Li0  1  0.00000000  0.00000000  0.00000000  1
  Li  Li1  1  0.00000000  0.00000000  0.50000000  1
  P  P2  1  0.64857398  0.35142599  0.75000000  1
  Cu  Cu3  1  0.35142597  0.64857399  0.25000000  1
  O  O4  1  0.22763097  0.77236899  0.03706100  1
  O  O5  1  0.73133997  0.78529399  0.25000000  1
  O  O6  1  0.21470599  0.26866000  0.25000000  1
  O  O7  1  0.26865999  0.21470600  0.75000000  1
  O  O8  1  0.22763097  0.77236899  0.46293900  1
  O  O9  1  0.77236899  0.22763100  0.53706100  1
  O  O10  1  0.78529397  0.73133999  0.75000000  1
  O  O11  1  0.77236899  0.22763100  0.96293901  1
