# generated using pymatgen
data_AlCuAs3PS12
_symmetry_space_group_name_H-M   'P 1'
_cell_length_a   5.36672783
_cell_length_b   6.60246515
_cell_length_c   7.61240387
_cell_angle_alpha   107.11547089
_cell_angle_beta   90.00000000
_cell_angle_gamma   113.98004913
_symmetry_Int_Tables_number   1
_chemical_formula_structural   AlCuAs3PS12
_chemical_formula_sum   'Al1 Cu1 As3 P1 S12'
_cell_volume   233.31892876
_cell_formula_units_Z   1
loop_
 _symmetry_equiv_pos_site_id
 _symmetry_equiv_pos_as_xyz
  1  'x, y, z'
loop_
 _atom_site_type_symbol
 _atom_site_label
 _atom_site_symmetry_multiplicity
 _atom_site_fract_x
 _atom_site_fract_y
 _atom_site_fract_z
 _atom_site_occupancy
  Al  Al0  1  0.16733501  0.00000000  0.49999999  1
  Cu  Cu1  1  0.16065701  0.00000000  0.99999998  1
  As  As2  1  0.50270703  0.66672201  0.66797795  1
  As  As3  1  0.83598503  0.33327801  0.33202198  1
  As  As4  1  0.49730403  0.66144201  0.16284596  1
  S  S5  1  0.83586203  0.33855801  0.83715396  1
  P  P6  1  0.27279602  0.67883401  0.39905496  1
  S  S7  1  0.59907603  0.36279801  0.06870698  1
  S  S8  1  0.91239903  0.02691400  0.74892198  1
  S  S9  1  0.41759801  0.01428000  0.24331499  1
  S  S10  1  0.75675404  0.67608401  0.90962594  1
  S  S11  1  0.09343001  0.34504101  0.57924697  1
  S  S12  1  0.40331804  0.98572002  0.75668493  1
  S  S13  1  0.74838904  0.65495901  0.42075296  1
  S  S14  1  0.08067001  0.32391601  0.09037398  1
  S  S15  1  0.23627802  0.63720201  0.93129295  1
  S  S16  1  0.59396203  0.32116601  0.60094497  1
  S  S17  1  0.88548505  0.97308602  0.25107795  1
