# generated using pymatgen
data_K5H2BrO12
_symmetry_space_group_name_H-M   'P 1'
_cell_length_a   5.60223484
_cell_length_b   6.40508509
_cell_length_c   9.26819611
_cell_angle_alpha   90.00000000
_cell_angle_beta   90.00000000
_cell_angle_gamma   90.00000000
_symmetry_Int_Tables_number   1
_chemical_formula_structural   K5H2BrO12
_chemical_formula_sum   'K5 H2 Br1 O12'
_cell_volume   332.56874223
_cell_formula_units_Z   1
loop_
 _symmetry_equiv_pos_site_id
 _symmetry_equiv_pos_as_xyz
  1  'x, y, z'
loop_
 _atom_site_type_symbol
 _atom_site_label
 _atom_site_symmetry_multiplicity
 _atom_site_fract_x
 _atom_site_fract_y
 _atom_site_fract_z
 _atom_site_occupancy
  K  K0  1  0.25000001  0.13596600  0.38995400  1
  K  K1  1  0.75000002  0.36403400  0.88995399  1
  K  K2  1  0.25000001  0.63596599  0.11004600  1
  K  K3  1  0.75000002  0.86403399  0.61004599  1
  Br  Br4  1  0.75000002  0.88537099  0.13414700  1
  K  K5  1  0.25000001  0.61462899  0.63414699  1
  H  H6  1  0.25000001  0.11462900  0.86585299  1
  H  H7  1  0.75000002  0.38537099  0.36585300  1
  O  O8  1  0.25000001  0.77409599  0.55169599  1
  O  O9  1  0.55371402  0.46398499  0.32576200  1
  O  O10  1  0.44628601  0.53601499  0.67423799  1
  O  O11  1  0.94628603  0.46398499  0.32576200  1
  O  O12  1  0.44628601  0.03601500  0.82576199  1
  O  O13  1  0.05371400  0.03601500  0.82576199  1
  O  O14  1  0.05371400  0.53601499  0.67423799  1
  O  O15  1  0.55371402  0.96398499  0.17423800  1
  O  O16  1  0.25000001  0.27409600  0.94830399  1
  O  O17  1  0.75000002  0.22590400  0.44830399  1
  O  O18  1  0.75000002  0.72590399  0.05169600  1
  O  O19  1  0.94628603  0.96398499  0.17423800  1
