# generated using pymatgen
data_Ta
_symmetry_space_group_name_H-M   'P 1'
_cell_length_a   4.10789585
_cell_length_b   4.11187983
_cell_length_c   6.20842505
_cell_angle_alpha   70.66121674
_cell_angle_beta   90.00000000
_cell_angle_gamma   90.00000000
_symmetry_Int_Tables_number   1
_chemical_formula_structural   Ta
_chemical_formula_sum   Ta4
_cell_volume   98.95064546
_cell_formula_units_Z   4
loop_
 _symmetry_equiv_pos_site_id
 _symmetry_equiv_pos_as_xyz
  1  'x, y, z'
loop_
 _atom_site_type_symbol
 _atom_site_label
 _atom_site_symmetry_multiplicity
 _atom_site_fract_x
 _atom_site_fract_y
 _atom_site_fract_z
 _atom_site_occupancy
  Ta  Ta0  1  0.25000001  0.87361102  0.25277804  1
  Ta  Ta1  1  0.75000003  0.12638900  0.74722200  1
  Ta  Ta2  1  0.25000001  0.65139701  0.69720603  1
  Ta  Ta3  1  0.75000003  0.34860301  0.30279401  1
