# generated using pymatgen
data_K3NbPb2SeBr(OF5)2
_symmetry_space_group_name_H-M   'P 1'
_cell_length_a   6.64295197
_cell_length_b   7.70283985
_cell_length_c   9.60378361
_cell_angle_alpha   90.00000000
_cell_angle_beta   93.38807678
_cell_angle_gamma   90.00000000
_symmetry_Int_Tables_number   1
_chemical_formula_structural   K3NbPb2SeBr(OF5)2
_chemical_formula_sum   'K3 Nb1 Pb2 Se1 Br1 O2 F10'
_cell_volume   490.56278644
_cell_formula_units_Z   1
loop_
 _symmetry_equiv_pos_site_id
 _symmetry_equiv_pos_as_xyz
  1  'x, y, z'
loop_
 _atom_site_type_symbol
 _atom_site_label
 _atom_site_symmetry_multiplicity
 _atom_site_fract_x
 _atom_site_fract_y
 _atom_site_fract_z
 _atom_site_occupancy
  K  K0  1  0.30271600  0.53480801  0.49272201  1
  K  K1  1  0.69728400  0.03480800  0.50727800  1
  Pb  Pb2  1  0.18767900  0.25235600  0.01619399  1
  K  K3  1  0.81232100  0.75235601  0.98380602  1
  Nb  Nb4  1  0.31013700  0.83546602  0.18131800  1
  Pb  Pb5  1  0.19425100  0.05097200  0.31416501  1
  Br  Br6  1  0.80574900  0.55097201  0.68583500  1
  Se  Se7  1  0.68986300  0.33546601  0.81868201  1
  F  F8  1  0.34230200  0.94990302  0.98650103  1
  F  F9  1  0.94512000  0.12844000  0.18847498  1
  F  F10  1  0.13467200  0.95187902  0.49630002  1
  O  O11  1  0.86532800  0.45187901  0.50369999  1
  O  O12  1  0.40766000  0.23709900  0.29999000  1
  F  F13  1  0.05488000  0.62844001  0.81152503  1
  F  F14  1  0.09118800  0.64394501  0.17302800  1
  F  F15  1  0.56788000  0.74183401  0.26913299  1
  F  F16  1  0.90881200  0.14394500  0.82697201  1
  F  F17  1  0.43212000  0.24183400  0.73086702  1
  F  F18  1  0.65769800  0.44990301  0.01349898  1
  F  F19  1  0.59234000  0.73709901  0.70001001  1
