# generated using pymatgen
data_RbNa7ClF11
_symmetry_space_group_name_H-M   'P 1'
_cell_length_a   5.70355320
_cell_length_b   5.82929516
_cell_length_c   11.85341072
_cell_angle_alpha   90.00000000
_cell_angle_beta   90.00000000
_cell_angle_gamma   90.00000000
_symmetry_Int_Tables_number   1
_chemical_formula_structural   RbNa7ClF11
_chemical_formula_sum   'Rb1 Na7 Cl1 F11'
_cell_volume   394.09858498
_cell_formula_units_Z   1
loop_
 _symmetry_equiv_pos_site_id
 _symmetry_equiv_pos_as_xyz
  1  'x, y, z'
loop_
 _atom_site_type_symbol
 _atom_site_label
 _atom_site_symmetry_multiplicity
 _atom_site_fract_x
 _atom_site_fract_y
 _atom_site_fract_z
 _atom_site_occupancy
  Na  Na0  1  0.05053700  0.18563099  0.62796501  1
  Na  Na1  1  0.55053698  0.31436899  0.87203502  1
  Na  Na2  1  0.94946297  0.31436899  0.12796500  1
  Na  Na3  1  0.44946298  0.18563099  0.37203501  1
  Na  Na4  1  0.94946297  0.81436898  0.37203501  1
  Rb  Rb5  1  0.44946298  0.68563098  0.12796500  1
  Na  Na6  1  0.05053700  0.68563098  0.87203502  1
  Na  Na7  1  0.55053698  0.81436898  0.62796501  1
  Cl  Cl8  1  0.74999997  0.05318200  0.50000001  1
  F  F9  1  0.24999999  0.44681799  0.00000000  1
  F  F10  1  0.24999999  0.94681797  0.50000001  1
  F  F11  1  0.74999997  0.55318198  0.00000000  1
  F  F12  1  0.61246598  0.40888599  0.21527601  1
  F  F13  1  0.11246600  0.09111400  0.28472401  1
  F  F14  1  0.38753399  0.09111400  0.71527602  1
  F  F15  1  0.88753397  0.40888599  0.78472402  1
  F  F16  1  0.38753399  0.59111398  0.78472402  1
  F  F17  1  0.88753397  0.90888598  0.71527602  1
  F  F18  1  0.61246598  0.90888598  0.28472401  1
  F  F19  1  0.11246600  0.59111398  0.21527601  1
