# generated using pymatgen
data_KNaMg2Zn2CuNi2As3
_symmetry_space_group_name_H-M   'P 1'
_cell_length_a   3.94636202
_cell_length_b   8.38487053
_cell_length_c   10.28629494
_cell_angle_alpha   90.00000000
_cell_angle_beta   90.00000000
_cell_angle_gamma   103.61086273
_symmetry_Int_Tables_number   1
_chemical_formula_structural   KNaMg2Zn2CuNi2As3
_chemical_formula_sum   'K1 Na1 Mg2 Zn2 Cu1 Ni2 As3'
_cell_volume   330.81193364
_cell_formula_units_Z   1
loop_
 _symmetry_equiv_pos_site_id
 _symmetry_equiv_pos_as_xyz
  1  'x, y, z'
loop_
 _atom_site_type_symbol
 _atom_site_label
 _atom_site_symmetry_multiplicity
 _atom_site_fract_x
 _atom_site_fract_y
 _atom_site_fract_z
 _atom_site_occupancy
  K  K0  1  0.25384903  0.50769799  0.75000000  1
  Na  Na1  1  0.74615102  0.49230199  0.25000000  1
  Mg  Mg2  1  0.00000000  0.00000000  0.50000000  1
  Mg  Mg3  1  0.00000000  0.00000000  0.00000000  1
  Zn  Zn4  1  0.46943505  0.93886998  0.25000000  1
  Zn  Zn5  1  0.53056500  0.06113000  0.75000000  1
  As  As6  1  0.38809504  0.77618998  0.44757200  1
  Ni  Ni7  1  0.61190501  0.22380999  0.55242800  1
  Ni  Ni8  1  0.93986204  0.87972398  0.75000000  1
  Cu  Cu9  1  0.06013801  0.12027600  0.25000000  1
  As  As10  1  0.38809504  0.77618998  0.05242800  1
  As  As11  1  0.61190501  0.22380999  0.94757201  1
