# generated using pymatgen
data_Na2PO5
_symmetry_space_group_name_H-M   'P 1'
_cell_length_a   5.48159885
_cell_length_b   5.60987616
_cell_length_c   8.40834045
_cell_angle_alpha   70.51318359
_cell_angle_beta   90.00000000
_cell_angle_gamma   90.00000000
_symmetry_Int_Tables_number   1
_chemical_formula_structural   Na2PO5
_chemical_formula_sum   'Na4 P2 O10'
_cell_volume   243.75455389
_cell_formula_units_Z   2
loop_
 _symmetry_equiv_pos_site_id
 _symmetry_equiv_pos_as_xyz
  1  'x, y, z'
loop_
 _atom_site_type_symbol
 _atom_site_label
 _atom_site_symmetry_multiplicity
 _atom_site_fract_x
 _atom_site_fract_y
 _atom_site_fract_z
 _atom_site_occupancy
  Na  Na0  1  0.69152702  0.31480099  0.99999999  1
  Na  Na1  1  0.19152701  0.68519898  0.00000001  1
  Na  Na2  1  0.24613701  0.38771999  0.66180399  1
  Na  Na3  1  0.74613702  0.61227998  0.33819600  1
  P  P4  1  0.74613702  0.95047597  0.66180400  1
  P  P5  1  0.24613701  0.04952400  0.33819599  1
  O  O6  1  0.47005101  0.73676497  0.50129800  1
  O  O7  1  0.97005103  0.26323499  0.49870199  1
  O  O8  1  0.97005103  0.76193697  0.50129800  1
  O  O9  1  0.47005101  0.23806299  0.49870199  1
  O  O10  1  0.64023402  0.26424599  0.80844099  1
  O  O11  1  0.14023400  0.73575397  0.19155901  1
  O  O12  1  0.50705901  0.58595698  0.00000001  1
  O  O13  1  0.00705900  0.41404299  0.00000001  1
  O  O14  1  0.64023402  0.07268700  0.19155900  1
  O  O15  1  0.14023400  0.92731297  0.80844100  1
