# generated using pymatgen
data_KTlBiI9
_symmetry_space_group_name_H-M   'P 1'
_cell_length_a   5.23426580
_cell_length_b   8.53212833
_cell_length_c   9.79099560
_cell_angle_alpha   90.00000000
_cell_angle_beta   90.00000000
_cell_angle_gamma   90.00000000
_symmetry_Int_Tables_number   1
_chemical_formula_structural   KTlBiI9
_chemical_formula_sum   'K1 Tl1 Bi1 I9'
_cell_volume   437.26025881
_cell_formula_units_Z   1
loop_
 _symmetry_equiv_pos_site_id
 _symmetry_equiv_pos_as_xyz
  1  'x, y, z'
loop_
 _atom_site_type_symbol
 _atom_site_label
 _atom_site_symmetry_multiplicity
 _atom_site_fract_x
 _atom_site_fract_y
 _atom_site_fract_z
 _atom_site_occupancy
  K  K0  1  0.75000003  0.97827296  0.68112303  1
  Tl  Tl1  1  0.25000001  0.02172700  0.31887701  1
  Bi  Bi2  1  0.75000003  0.47827298  0.81887703  1
  I  I3  1  0.25000001  0.52172698  0.18112301  1
  I  I4  1  0.75000003  0.85116997  0.06919400  1
  I  I5  1  0.25000001  0.14882999  0.93080604  1
  I  I6  1  0.75000003  0.35116999  0.43080602  1
  I  I7  1  0.25000001  0.64882997  0.56919402  1
  I  I8  1  0.75000003  0.73740297  0.38881302  1
  I  I9  1  0.25000001  0.26259699  0.61118703  1
  I  I10  1  0.75000003  0.23740299  0.11118700  1
  I  I11  1  0.25000001  0.76259697  0.88881304  1
