# generated using pymatgen
data_Na6BrClF6
_symmetry_space_group_name_H-M   'P 1'
_cell_length_a   7.45763159
_cell_length_b   7.45763159
_cell_length_c   7.45763159
_cell_angle_alpha   60.00000000
_cell_angle_beta   60.00000000
_cell_angle_gamma   60.00000000
_symmetry_Int_Tables_number   1
_chemical_formula_structural   Na6BrClF6
_chemical_formula_sum   'Na6 Br1 Cl1 F6'
_cell_volume   293.28359931
_cell_formula_units_Z   1
loop_
 _symmetry_equiv_pos_site_id
 _symmetry_equiv_pos_as_xyz
  1  'x, y, z'
loop_
 _atom_site_type_symbol
 _atom_site_label
 _atom_site_symmetry_multiplicity
 _atom_site_fract_x
 _atom_site_fract_y
 _atom_site_fract_z
 _atom_site_occupancy
  Na  Na0  1  0.50000001  0.50000001  0.50000001  1
  Na  Na1  1  0.25000001  0.25000001  0.25000001  1
  Na  Na2  1  0.37500001  0.87500002  0.87500002  1
  Na  Na3  1  0.87500002  0.87500002  0.87500002  1
  Na  Na4  1  0.87500002  0.87500002  0.37500001  1
  Na  Na5  1  0.87500002  0.37500001  0.87500002  1
  F  F6  1  0.64342202  0.06973200  0.64342302  1
  F  F7  1  0.64342202  0.64342302  0.06973200  1
  F  F8  1  0.64342202  0.64342302  0.64342302  1
  Cl  Cl9  1  0.68026902  0.10657700  0.10657700  1
  F  F10  1  0.06973100  0.64342302  0.64342302  1
  F  F11  1  0.10657800  0.10657700  0.10657700  1
  F  F12  1  0.10657800  0.10657700  0.68026802  1
  Br  Br13  1  0.10657800  0.68026802  0.10657700  1
