# generated using pymatgen
data_K2ZrTiTeSeS4
_symmetry_space_group_name_H-M   'P 1'
_cell_length_a   6.28123283
_cell_length_b   7.44183397
_cell_length_c   7.44183397
_cell_angle_alpha   120.00000000
_cell_angle_beta   90.00000000
_cell_angle_gamma   90.00000000
_symmetry_Int_Tables_number   1
_chemical_formula_structural   K2ZrTiTeSeS4
_chemical_formula_sum   'K2 Zr1 Ti1 Te1 Se1 S4'
_cell_volume   301.25584181
_cell_formula_units_Z   1
loop_
 _symmetry_equiv_pos_site_id
 _symmetry_equiv_pos_as_xyz
  1  'x, y, z'
loop_
 _atom_site_type_symbol
 _atom_site_label
 _atom_site_symmetry_multiplicity
 _atom_site_fract_x
 _atom_site_fract_y
 _atom_site_fract_z
 _atom_site_occupancy
  K  K0  1  0.75000002  0.33333333  0.66666664  1
  K  K1  1  0.25000001  0.66666666  0.33333331  1
  Zr  Zr2  1  0.50000001  0.00000000  -0.00000000  1
  Ti  Ti3  1  0.00000000  0.00000000  0.00000000  1
  S  S4  1  0.75000002  0.31365900  0.15682899  1
  Te  Te5  1  0.25000001  0.15683000  0.31365999  1
  S  S6  1  0.75000002  0.84316999  0.68633996  1
  Se  Se7  1  0.25000001  0.68634099  0.84317096  1
  S  S8  1  0.25000001  0.15683000  0.84317097  1
  S  S9  1  0.75000002  0.84316999  0.15682898  1
