# generated using pymatgen
data_K8Tl4HgBiPb2
_symmetry_space_group_name_H-M   'P 1'
_cell_length_a   6.50757790
_cell_length_b   10.32944107
_cell_length_c   10.32944107
_cell_angle_alpha   84.30540466
_cell_angle_beta   71.63909912
_cell_angle_gamma   71.63909912
_symmetry_Int_Tables_number   1
_chemical_formula_structural   K8Tl4HgBiPb2
_chemical_formula_sum   'K8 Tl4 Hg1 Bi1 Pb2'
_cell_volume   625.44468488
_cell_formula_units_Z   1
loop_
 _symmetry_equiv_pos_site_id
 _symmetry_equiv_pos_as_xyz
  1  'x, y, z'
loop_
 _atom_site_type_symbol
 _atom_site_label
 _atom_site_symmetry_multiplicity
 _atom_site_fract_x
 _atom_site_fract_y
 _atom_site_fract_z
 _atom_site_occupancy
  K  K0  1  0.25000001  0.50000000  0.50000002  1
  K  K1  1  0.75000001  0.50000000  0.50000003  1
  K  K2  1  0.58813901  0.13060400  0.69311801  1
  K  K3  1  0.28125701  0.30688200  0.13060401  1
  K  K4  1  0.71874301  0.69311800  0.86939603  1
  K  K5  1  0.41186101  0.86939600  0.30688203  1
  K  K6  1  0.22431501  0.86712800  0.68424203  1
  K  K7  1  0.90855701  0.31575800  0.86712802  1
  Tl  Tl8  1  0.09144301  0.68424200  0.13287202  1
  Tl  Tl9  1  0.77568501  0.13287200  0.31575801  1
  Tl  Tl10  1  0.84388602  0.81080700  0.50142104  1
  Tl  Tl11  1  0.34530701  0.49857900  0.81080702  1
  Pb  Pb12  1  0.65469301  0.50142100  0.18919302  1
  Pb  Pb13  1  0.15611400  0.18919300  0.49857901  1
  Hg  Hg14  1  0.21882500  0.00000000  1.00000001  1
  Bi  Bi15  1  0.78117501  0.00000000  0.00000001  1
