# generated using pymatgen
data_Hf4AlSi6P
_symmetry_space_group_name_H-M   'P 1'
_cell_length_a   3.92305994
_cell_length_b   7.85910606
_cell_length_c   7.95020247
_cell_angle_alpha   89.87061310
_cell_angle_beta   90.00000000
_cell_angle_gamma   90.00000000
_symmetry_Int_Tables_number   1
_chemical_formula_structural   Hf4AlSi6P
_chemical_formula_sum   'Hf4 Al1 Si6 P1'
_cell_volume   245.11798347
_cell_formula_units_Z   1
loop_
 _symmetry_equiv_pos_site_id
 _symmetry_equiv_pos_as_xyz
  1  'x, y, z'
loop_
 _atom_site_type_symbol
 _atom_site_label
 _atom_site_symmetry_multiplicity
 _atom_site_fract_x
 _atom_site_fract_y
 _atom_site_fract_z
 _atom_site_occupancy
  Hf  Hf0  1  0.28459000  0.62885199  0.72509995  1
  Hf  Hf1  1  0.78459001  0.87114799  0.27489996  1
  Hf  Hf2  1  0.71541001  0.37114800  0.27489998  1
  Hf  Hf3  1  0.21541000  0.12885200  0.72509998  1
  Al  Al4  1  0.25987000  0.62520599  0.36853296  1
  Si  Si5  1  0.75987001  0.87479399  0.63146695  1
  P  P6  1  0.74013001  0.37479400  0.63146697  1
  Si  Si7  1  0.24013000  0.12520600  0.36853299  1
  Si  Si8  1  0.83637001  0.61096400  0.99716595  1
  Si  Si9  1  0.33637001  0.88903599  0.00283396  1
  Si  Si10  1  0.16363000  0.38903600  0.00283398  1
  Si  Si11  1  0.66363001  0.11096400  0.99716597  1
