# generated using pymatgen
data_Na2Ca2Ni4CO3
_symmetry_space_group_name_H-M   'P 1'
_cell_length_a   6.40794897
_cell_length_b   6.40794897
_cell_length_c   6.40794897
_cell_angle_alpha   90.00000000
_cell_angle_beta   90.00000000
_cell_angle_gamma   90.00000000
_symmetry_Int_Tables_number   1
_chemical_formula_structural   Na2Ca2Ni4CO3
_chemical_formula_sum   'Na2 Ca2 Ni4 C1 O3'
_cell_volume   263.12198321
_cell_formula_units_Z   1
loop_
 _symmetry_equiv_pos_site_id
 _symmetry_equiv_pos_as_xyz
  1  'x, y, z'
loop_
 _atom_site_type_symbol
 _atom_site_label
 _atom_site_symmetry_multiplicity
 _atom_site_fract_x
 _atom_site_fract_y
 _atom_site_fract_z
 _atom_site_occupancy
  Na  Na0  1  0.50000000  0.50000000  0.00000000  1
  Na  Na1  1  0.50000000  0.00000000  0.50000000  1
  Ca  Ca2  1  -0.00000000  0.50000000  0.50000000  1
  Ca  Ca3  1  0.00000000  0.00000000  0.00000000  1
  Ni  Ni4  1  0.09417400  0.90582600  0.40582600  1
  O  O5  1  0.90582600  0.40582600  0.09417400  1
  O  O6  1  0.40582600  0.09417400  0.90582600  1
  Ni  Ni7  1  0.59417400  0.59417400  0.59417400  1
  C  C8  1  0.90582600  0.09417400  0.59417400  1
  Ni  Ni9  1  0.09417400  0.59417400  0.90582600  1
  Ni  Ni10  1  0.59417400  0.90582600  0.09417400  1
  O  O11  1  0.40582600  0.40582600  0.40582600  1
