# generated using pymatgen
data_KTl3BiIBr8
_symmetry_space_group_name_H-M   'P 1'
_cell_length_a   8.45140648
_cell_length_b   8.45140648
_cell_length_c   8.45140648
_cell_angle_alpha   109.78049469
_cell_angle_beta   109.31680298
_cell_angle_gamma   109.31680298
_symmetry_Int_Tables_number   1
_chemical_formula_structural   KTl3BiIBr8
_chemical_formula_sum   'K1 Tl3 Bi1 I1 Br8'
_cell_volume   464.68174070
_cell_formula_units_Z   1
loop_
 _symmetry_equiv_pos_site_id
 _symmetry_equiv_pos_as_xyz
  1  'x, y, z'
loop_
 _atom_site_type_symbol
 _atom_site_label
 _atom_site_symmetry_multiplicity
 _atom_site_fract_x
 _atom_site_fract_y
 _atom_site_fract_z
 _atom_site_occupancy
  K  K0  1  0.88113896  0.25076499  0.87377594  1
  Tl  Tl1  1  0.99999993  0.49999998  0.49999993  1
  Tl  Tl2  1  0.37698898  0.12622499  0.00736298  1
  Tl  Tl3  1  0.11886091  0.99263695  0.36962496  1
  I  I4  1  0.62301193  0.63037497  0.74923594  1
  Bi  Bi5  1  0.49999992  0.74999996  0.24999995  1
  Br  Br6  1  0.24556296  0.36592498  0.76479297  1
  Br  Br7  1  0.75583298  0.03641100  0.12356396  1
  Br  Br8  1  0.39886691  0.87963696  0.63407395  1
  Br  Br9  1  0.75443694  0.51922997  0.12036295  1
  Br  Br10  1  0.08715293  0.71942197  0.96358896  1
  Br  Br11  1  0.60113297  0.23520699  0.48077096  1
  Br  Br12  1  0.91284690  0.87643596  0.63226892  1
  Br  Br13  1  0.24416696  0.36773098  0.28057797  1
