# generated using pymatgen
data_AcInBi
_symmetry_space_group_name_H-M   'P 1'
_cell_length_a   3.56773663
_cell_length_b   3.56773663
_cell_length_c   8.65648842
_cell_angle_alpha   92.92123413
_cell_angle_beta   99.36260986
_cell_angle_gamma   118.79174042
_symmetry_Int_Tables_number   1
_chemical_formula_structural   AcInBi
_chemical_formula_sum   'Ac1 In1 Bi1'
_cell_volume   94.20673121
_cell_formula_units_Z   1
loop_
 _symmetry_equiv_pos_site_id
 _symmetry_equiv_pos_as_xyz
  1  'x, y, z'
loop_
 _atom_site_type_symbol
 _atom_site_label
 _atom_site_symmetry_multiplicity
 _atom_site_fract_x
 _atom_site_fract_y
 _atom_site_fract_z
 _atom_site_occupancy
  Ac  Ac0  1  0.57152597  0.76478698  0.33631299  1
  Bi  Bi1  1  0.42847400  0.23521300  0.66368700  1
  In  In2  1  0.00000000  0.00000000  0.00000000  1
