# generated using pymatgen
data_Na2AlFeO8
_symmetry_space_group_name_H-M   'P 1'
_cell_length_a   5.16017199
_cell_length_b   5.35072184
_cell_length_c   6.63018560
_cell_angle_alpha   112.17744446
_cell_angle_beta   111.23198700
_cell_angle_gamma   93.83629608
_symmetry_Int_Tables_number   1
_chemical_formula_structural   Na2AlFeO8
_chemical_formula_sum   'Na2 Al1 Fe1 O8'
_cell_volume   153.55476575
_cell_formula_units_Z   1
loop_
 _symmetry_equiv_pos_site_id
 _symmetry_equiv_pos_as_xyz
  1  'x, y, z'
loop_
 _atom_site_type_symbol
 _atom_site_label
 _atom_site_symmetry_multiplicity
 _atom_site_fract_x
 _atom_site_fract_y
 _atom_site_fract_z
 _atom_site_occupancy
  Na  Na0  1  0.62197503  0.37197501  0.74394999  1
  Na  Na1  1  0.37802503  0.62802502  0.25604999  1
  Fe  Fe2  1  0.14122904  0.89122903  0.78245798  1
  Al  Al3  1  0.85877102  0.10877100  0.21754201  1
  O  O4  1  0.98421005  0.78281203  0.06537900  1
  O  O5  1  0.58116902  0.28256701  0.06537900  1
  O  O6  1  0.01579001  0.21718801  0.93462098  1
  O  O7  1  0.41883104  0.71743302  0.93462098  1
  O  O8  1  0.70967401  0.05003600  0.42061301  1
  O  O9  1  0.21093902  0.37057701  0.42061299  1
  O  O10  1  0.29032605  0.94996403  0.57938698  1
  O  O11  1  0.78906104  0.62942302  0.57938699  1
