# generated using pymatgen
data_RbNa3O4
_symmetry_space_group_name_H-M   'P 1'
_cell_length_a   3.63791203
_cell_length_b   3.63791275
_cell_length_c   12.69308758
_cell_angle_alpha   90.00000000
_cell_angle_beta   90.00000000
_cell_angle_gamma   119.99999237
_symmetry_Int_Tables_number   1
_chemical_formula_structural   RbNa3O4
_chemical_formula_sum   'Rb1 Na3 O4'
_cell_volume   145.47970582
_cell_formula_units_Z   1
loop_
 _symmetry_equiv_pos_site_id
 _symmetry_equiv_pos_as_xyz
  1  'x, y, z'
loop_
 _atom_site_type_symbol
 _atom_site_label
 _atom_site_symmetry_multiplicity
 _atom_site_fract_x
 _atom_site_fract_y
 _atom_site_fract_z
 _atom_site_occupancy
  Na  Na0  1  0.66666665  0.33333332  0.25000001  1
  Rb  Rb1  1  0.33333331  0.66666665  0.75000002  1
  Na  Na2  1  0.00000000  0.00000000  0.00000000  1
  Na  Na3  1  0.00000000  0.00000000  0.50000002  1
  O  O4  1  0.66666665  0.33333332  0.59511302  1
  O  O5  1  0.66666665  0.33333332  0.90488703  1
  O  O6  1  0.33333331  0.66666665  0.40488701  1
  O  O7  1  0.33333331  0.66666665  0.09511300  1
