# generated using pymatgen
data_NaLi6NO11
_symmetry_space_group_name_H-M   'P 1'
_cell_length_a   6.03948307
_cell_length_b   6.10469103
_cell_length_c   6.10919285
_cell_angle_alpha   100.76291656
_cell_angle_beta   100.60633087
_cell_angle_gamma   99.96849823
_symmetry_Int_Tables_number   1
_chemical_formula_structural   NaLi6NO11
_chemical_formula_sum   'Na1 Li6 N1 O11'
_cell_volume   212.41806335
_cell_formula_units_Z   1
loop_
 _symmetry_equiv_pos_site_id
 _symmetry_equiv_pos_as_xyz
  1  'x, y, z'
loop_
 _atom_site_type_symbol
 _atom_site_label
 _atom_site_symmetry_multiplicity
 _atom_site_fract_x
 _atom_site_fract_y
 _atom_site_fract_z
 _atom_site_occupancy
  Na  Na0  1  0.86970996  0.67564500  0.40201894  1
  Li  Li1  1  0.66943897  0.38400000  0.85161296  1
  Li  Li2  1  0.39696096  0.87603899  0.68372395  1
  Li  Li3  1  0.14223599  0.31993600  0.59643298  1
  Li  Li4  1  0.57885598  0.14497900  0.33438497  1
  Li  Li5  1  0.28757597  0.62630100  0.11210896  1
  Li  Li6  1  0.00339096  0.99032799  0.00164496  1
  N  N7  1  0.31598596  0.94942499  0.12282995  1
  O  O8  1  0.90106996  0.65744200  0.04001794  1
  O  O9  1  0.96629398  0.10415900  0.29685996  1
  O  O10  1  0.56024298  0.39996100  0.18956496  1
  O  O11  1  0.81612297  0.37355000  0.56658395  1
  O  O12  1  0.61767396  0.85230499  0.40898994  1
  O  O13  1  0.40576099  0.18317100  0.59824498  1
  O  O14  1  0.70288399  0.04638600  0.89685697  1
  O  O15  1  0.19810697  0.60966000  0.39307497  1
  O  O16  1  0.39584597  0.60795400  0.83764496  1
  O  O17  1  0.04530097  0.88110899  0.70577896  1
  O  O18  1  0.12654399  0.31765200  0.96162298  1
