# generated using pymatgen
data_KNa3BeH3O8
_symmetry_space_group_name_H-M   'P 1'
_cell_length_a   5.01319695
_cell_length_b   6.21755886
_cell_length_c   7.02209997
_cell_angle_alpha   90.00000000
_cell_angle_beta   90.00000000
_cell_angle_gamma   90.00000000
_symmetry_Int_Tables_number   1
_chemical_formula_structural   KNa3BeH3O8
_chemical_formula_sum   'K1 Na3 Be1 H3 O8'
_cell_volume   218.87778235
_cell_formula_units_Z   1
loop_
 _symmetry_equiv_pos_site_id
 _symmetry_equiv_pos_as_xyz
  1  'x, y, z'
loop_
 _atom_site_type_symbol
 _atom_site_label
 _atom_site_symmetry_multiplicity
 _atom_site_fract_x
 _atom_site_fract_y
 _atom_site_fract_z
 _atom_site_occupancy
  Na  Na0  1  0.25103100  0.50020501  0.12422400  1
  Na  Na1  1  0.75103101  0.99979502  0.87577600  1
  K  K2  1  0.74896901  0.00020500  0.37577600  1
  Na  Na3  1  0.24896900  0.49979501  0.62422400  1
  Be  Be4  1  0.64288801  0.50422401  0.37568500  1
  H  H5  1  0.14288800  0.99577602  0.62431500  1
  H  H6  1  0.35711200  0.00422400  0.12431500  1
  H  H7  1  0.85711201  0.49577601  0.87568500  1
  O  O8  1  0.46720501  0.59074901  0.37497300  1
  O  O9  1  0.03279500  0.40925101  0.87497300  1
  O  O10  1  0.53279501  0.09074900  0.12502700  1
  O  O11  1  0.96720501  0.90925102  0.62502700  1
  O  O12  1  0.40213800  0.10833000  0.62481800  1
  O  O13  1  0.59786201  0.60833001  0.87518200  1
  O  O14  1  0.90213801  0.39167001  0.37518200  1
  O  O15  1  0.09786200  0.89167002  0.12481800  1
