# generated using pymatgen
data_KNaTlAgSClF6
_symmetry_space_group_name_H-M   'P 1'
_cell_length_a   6.66990995
_cell_length_b   6.79280710
_cell_length_c   7.19998217
_cell_angle_alpha   91.82630157
_cell_angle_beta   104.14796448
_cell_angle_gamma   118.81264496
_symmetry_Int_Tables_number   1
_chemical_formula_structural   KNaTlAgSClF6
_chemical_formula_sum   'K1 Na1 Tl1 Ag1 S1 Cl1 F6'
_cell_volume   272.82339251
_cell_formula_units_Z   1
loop_
 _symmetry_equiv_pos_site_id
 _symmetry_equiv_pos_as_xyz
  1  'x, y, z'
loop_
 _atom_site_type_symbol
 _atom_site_label
 _atom_site_symmetry_multiplicity
 _atom_site_fract_x
 _atom_site_fract_y
 _atom_site_fract_z
 _atom_site_occupancy
  Na  Na0  1  0.06423203  0.31616601  0.49084601  1
  K  K1  1  0.93576806  0.68383402  0.50915400  1
  Ag  Ag2  1  0.48674502  0.29089301  0.49678500  1
  Tl  Tl3  1  0.51325506  0.70910702  0.50321501  1
  F  F4  1  0.25534903  0.38640201  0.22383201  1
  Cl  Cl5  1  0.74465105  0.61359802  0.77616800  1
  F  F6  1  0.72589203  0.34274301  0.25542000  1
  S  S7  1  0.27410805  0.65725702  0.74458001  1
  F  F8  1  0.22038901  0.10654100  0.70845200  1
  F  F9  1  0.77961107  0.89345902  0.29154801  1
  F  F10  1  0.75078801  0.13443900  0.68247399  1
  F  F11  1  0.24921207  0.86556102  0.31752602  1
