# generated using pymatgen
data_KNa3VTeO12
_symmetry_space_group_name_H-M   'P 1'
_cell_length_a   7.23764181
_cell_length_b   7.23764181
_cell_length_c   7.24426556
_cell_angle_alpha   60.29513168
_cell_angle_beta   60.29513168
_cell_angle_gamma   60.28859329
_symmetry_Int_Tables_number   1
_chemical_formula_structural   KNa3VTeO12
_chemical_formula_sum   'K1 Na3 V1 Te1 O12'
_cell_volume   270.11159134
_cell_formula_units_Z   1
loop_
 _symmetry_equiv_pos_site_id
 _symmetry_equiv_pos_as_xyz
  1  'x, y, z'
loop_
 _atom_site_type_symbol
 _atom_site_label
 _atom_site_symmetry_multiplicity
 _atom_site_fract_x
 _atom_site_fract_y
 _atom_site_fract_z
 _atom_site_occupancy
  Na  Na0  1  0.49587902  0.50412100  0.99999999  1
  Na  Na1  1  0.82248803  0.89350900  0.38794697  1
  K  K2  1  0.10649100  0.17751200  0.61205300  1
  Na  Na3  1  0.99905302  0.50097400  0.99920699  1
  Te  Te4  1  0.49902600  0.00094700  0.00079299  1
  V  V5  1  0.49827802  0.50172200  0.49999999  1
  O  O6  1  0.18050001  0.56359400  0.06670799  1
  O  O7  1  0.57176101  0.17610500  0.67530000  1
  O  O8  1  0.56624001  0.18062400  0.06629399  1
  O  O9  1  0.17390101  0.57140900  0.67424699  1
  O  O10  1  0.17397001  0.17512300  0.07244199  1
  O  O11  1  0.56784502  0.56457700  0.67992399  1
  O  O12  1  0.81937602  0.43376000  0.93370599  1
  O  O13  1  0.42859102  0.82609900  0.32575298  1
  O  O14  1  0.43640602  0.81950000  0.93329199  1
  O  O15  1  0.82389502  0.42823900  0.32469998  1
  O  O16  1  0.82487702  0.82603000  0.92755798  1
  O  O17  1  0.43542301  0.43215500  0.32007599  1
