# generated using pymatgen
data_K2RbNa2LiBeZnP3HO2
_symmetry_space_group_name_H-M   'P 1'
_cell_length_a   6.40921211
_cell_length_b   6.40921164
_cell_length_c   8.38426113
_cell_angle_alpha   90.00000000
_cell_angle_beta   90.00000000
_cell_angle_gamma   120.00000000
_symmetry_Int_Tables_number   1
_chemical_formula_structural   K2RbNa2LiBeZnP3HO2
_chemical_formula_sum   'K2 Rb1 Na2 Li1 Be1 Zn1 P3 H1 O2'
_cell_volume   298.26664218
_cell_formula_units_Z   1
loop_
 _symmetry_equiv_pos_site_id
 _symmetry_equiv_pos_as_xyz
  1  'x, y, z'
loop_
 _atom_site_type_symbol
 _atom_site_label
 _atom_site_symmetry_multiplicity
 _atom_site_fract_x
 _atom_site_fract_y
 _atom_site_fract_z
 _atom_site_occupancy
  Na  Na0  1  0.66666664  0.33333333  0.18425200  1
  K  K1  1  0.00000000  0.00000000  0.00000000  1
  Rb  Rb2  1  0.33333330  0.66666665  0.81574799  1
  K  K3  1  0.00000000  0.00000000  0.49999999  1
  Zn  Zn4  1  0.33333330  0.66666665  0.31138400  1
  Li  Li5  1  0.66666664  0.33333333  0.68861599  1
  Na  Na6  1  0.81920398  0.18079500  0.76193699  1
  H  H7  1  0.33333330  0.66666665  0.52611199  1
  P  P8  1  0.18079598  0.36159199  0.23806300  1
  Be  Be9  1  0.18079597  0.81920499  0.23806300  1
  P  P10  1  0.36159099  0.18079500  0.76193699  1
  P  P11  1  0.63840896  0.81920499  0.23806300  1
  O  O12  1  0.81920396  0.63840799  0.76193699  1
  O  O13  1  0.66666664  0.33333333  0.47388799  1
