# generated using pymatgen
data_H2
_symmetry_space_group_name_H-M   'P 1'
_cell_length_a   4.02246618
_cell_length_b   4.02246618
_cell_length_c   6.16336918
_cell_angle_alpha   90.00000000
_cell_angle_beta   90.00000000
_cell_angle_gamma   120.00000000
_symmetry_Int_Tables_number   1
_chemical_formula_structural   H2
_chemical_formula_sum   H6
_cell_volume   86.36417270
_cell_formula_units_Z   3
loop_
 _symmetry_equiv_pos_site_id
 _symmetry_equiv_pos_as_xyz
  1  'x, y, z'
loop_
 _atom_site_type_symbol
 _atom_site_label
 _atom_site_symmetry_multiplicity
 _atom_site_fract_x
 _atom_site_fract_y
 _atom_site_fract_z
 _atom_site_occupancy
  H  H0  1  0.33333334  0.66666669  0.74962898  1
  H  H1  1  0.66666665  0.33333334  0.27085899  1
  H  H2  1  0.00000000  0.00000000  0.15071200  1
  H  H3  1  0.33333334  0.66666669  0.35082299  1
  H  H4  1  0.66666665  0.33333334  0.64528898  1
  H  H5  1  0.00000000  0.00000000  0.98267797  1
