# generated using pymatgen
data_Na4Li2TeS2Br9
_symmetry_space_group_name_H-M   'P 1'
_cell_length_a   8.22203922
_cell_length_b   8.22203922
_cell_length_c   8.91793919
_cell_angle_alpha   116.68341827
_cell_angle_beta   116.68341827
_cell_angle_gamma   91.48203278
_symmetry_Int_Tables_number   1
_chemical_formula_structural   Na4Li2TeS2Br9
_chemical_formula_sum   'Na4 Li2 Te1 S2 Br9'
_cell_volume   461.33908016
_cell_formula_units_Z   1
loop_
 _symmetry_equiv_pos_site_id
 _symmetry_equiv_pos_as_xyz
  1  'x, y, z'
loop_
 _atom_site_type_symbol
 _atom_site_label
 _atom_site_symmetry_multiplicity
 _atom_site_fract_x
 _atom_site_fract_y
 _atom_site_fract_z
 _atom_site_occupancy
  Na  Na0  1  0.75000009  0.75000005  0.50000007  1
  Na  Na1  1  0.25000003  0.25000002  0.50000004  1
  Na  Na2  1  0.84166809  0.65833205  1.00000009  1
  Na  Na3  1  0.15833203  0.34166802  0.00000002  1
  Li  Li4  1  0.66640805  0.16640801  0.00000002  1
  Li  Li5  1  0.33359207  0.83359206  1.00000009  1
  Te  Te6  1  0.24760806  0.74760805  0.49521606  1
  S  S7  1  0.75239206  0.25239202  0.50478404  1
  Br  Br8  1  0.49931904  0.27727002  0.27658903  1
  Br  Br9  1  0.77727010  0.99931907  0.27658907  1
  Br  Br10  1  0.30394006  0.80394006  0.29202005  1
  S  S11  1  0.98808008  0.48808004  0.29202005  1
  Br  Br12  1  0.50068107  0.72273005  0.72341107  1
  Br  Br13  1  0.22273001  0.00068100  0.72341104  1
  Br  Br14  1  0.69606005  0.19606001  0.70798005  1
  Br  Br15  1  0.01192003  0.51192004  0.70798006  1
  Br  Br16  1  0.50000006  0.50000004  0.00000003  1
  Br  Br17  1  0.00000000  0.00000000  0.00000000  1
