# generated using pymatgen
data_K3RbNa9Li
_symmetry_space_group_name_H-M   'P 1'
_cell_length_a   6.46101618
_cell_length_b   8.01315498
_cell_length_c   11.65940762
_cell_angle_alpha   89.06800842
_cell_angle_beta   74.15820312
_cell_angle_gamma   86.07845306
_symmetry_Int_Tables_number   1
_chemical_formula_structural   K3RbNa9Li
_chemical_formula_sum   'K3 Rb1 Na9 Li1'
_cell_volume   579.35553156
_cell_formula_units_Z   1
loop_
 _symmetry_equiv_pos_site_id
 _symmetry_equiv_pos_as_xyz
  1  'x, y, z'
loop_
 _atom_site_type_symbol
 _atom_site_label
 _atom_site_symmetry_multiplicity
 _atom_site_fract_x
 _atom_site_fract_y
 _atom_site_fract_z
 _atom_site_occupancy
  K  K0  1  0.67072093  0.75358498  0.65137499  1
  K  K1  1  0.33251797  0.25513499  0.34756199  1
  Na  Na2  1  0.92177192  0.74865698  0.15637098  1
  Li  Li3  1  0.07851598  0.24751699  0.84302401  1
  Na  Na4  1  0.28158692  0.89510198  0.92974301  1
  Na  Na5  1  0.81538499  0.00600000  0.38388297  1
  Na  Na6  1  0.62914297  0.24344299  0.73927399  1
  Na  Na7  1  0.80598795  0.49329799  0.38541898  1
  Rb  Rb8  1  0.21290696  0.39686199  0.06999300  1
  Na  Na9  1  0.78547594  0.59791398  0.93043599  1
  Na  Na10  1  0.19389395  0.50746699  0.61697401  1
  K  K11  1  0.37280593  0.74694298  0.26063000  1
  Na  Na12  1  0.19085191  0.99525997  0.61193701  1
  Na  Na13  1  0.71883798  0.10121900  0.06992798  1
