# generated using pymatgen
data_Na5Li3ScNi4O3
_symmetry_space_group_name_H-M   'P 1'
_cell_length_a   3.85220003
_cell_length_b   3.85220075
_cell_length_c   25.21722603
_cell_angle_alpha   90.00000000
_cell_angle_beta   90.00000000
_cell_angle_gamma   119.99999237
_symmetry_Int_Tables_number   1
_chemical_formula_structural   Na5Li3ScNi4O3
_chemical_formula_sum   'Na5 Li3 Sc1 Ni4 O3'
_cell_volume   324.07514031
_cell_formula_units_Z   1
loop_
 _symmetry_equiv_pos_site_id
 _symmetry_equiv_pos_as_xyz
  1  'x, y, z'
loop_
 _atom_site_type_symbol
 _atom_site_label
 _atom_site_symmetry_multiplicity
 _atom_site_fract_x
 _atom_site_fract_y
 _atom_site_fract_z
 _atom_site_occupancy
  Na  Na0  1  0.66666666  0.33333334  0.87496300  1
  Na  Na1  1  0.00000000  0.00000000  0.99994900  1
  Sc  Sc2  1  0.33333332  0.66666667  0.37497100  1
  Li  Li3  1  0.33333332  0.66666667  0.12495600  1
  Li  Li4  1  0.00000000  0.00000000  0.24995600  1
  Li  Li5  1  0.66666666  0.33333334  0.62494800  1
  Na  Na6  1  0.00000000  0.00000000  0.49996400  1
  Na  Na7  1  0.33333332  0.66666667  0.74997100  1
  Na  Na8  1  0.33333332  0.66666667  0.65619800  1
  Ni  Ni9  1  0.33333332  0.66666667  0.03120300  1
  O  O10  1  0.66666666  0.33333334  0.78127200  1
  Ni  Ni11  1  0.00000000  0.00000000  0.40627900  1
  O  O12  1  0.00000000  0.00000000  0.90624500  1
  Ni  Ni13  1  0.00000000  0.00000000  0.15624800  1
  O  O14  1  0.66666666  0.33333334  0.53124200  1
  Ni  Ni15  1  0.33333332  0.66666667  0.28123600  1
