# generated using pymatgen
data_Na6CdS8
_symmetry_space_group_name_H-M   'P 1'
_cell_length_a   8.02147198
_cell_length_b   8.02147198
_cell_length_c   8.02147198
_cell_angle_alpha   60.00000000
_cell_angle_beta   60.00000000
_cell_angle_gamma   60.00000000
_symmetry_Int_Tables_number   1
_chemical_formula_structural   Na6CdS8
_chemical_formula_sum   'Na6 Cd1 S8'
_cell_volume   364.96163547
_cell_formula_units_Z   1
loop_
 _symmetry_equiv_pos_site_id
 _symmetry_equiv_pos_as_xyz
  1  'x, y, z'
loop_
 _atom_site_type_symbol
 _atom_site_label
 _atom_site_symmetry_multiplicity
 _atom_site_fract_x
 _atom_site_fract_y
 _atom_site_fract_z
 _atom_site_occupancy
  Na  Na0  1  0.49999998  0.99999996  0.49999998  1
  Na  Na1  1  -0.00000000  0.49999998  0.99999996  1
  Na  Na2  1  0.49999998  0.99999996  0.99999996  1
  Na  Na3  1  -0.00000000  0.49999998  0.49999998  1
  Na  Na4  1  0.49999998  0.49999998  0.00000000  1
  Na  Na5  1  0.99999996  0.99999996  0.49999998  1
  Cd  Cd6  1  0.00000000  0.00000000  0.00000000  1
  S  S7  1  0.74999997  0.74999997  0.74999997  1
  S  S8  1  0.24999999  0.24999999  0.24999999  1
  S  S9  1  0.22499399  0.77500597  0.22499399  1
  S  S10  1  0.77500597  0.22499399  0.77500597  1
  S  S11  1  0.22499399  0.77500597  0.77500597  1
  S  S12  1  0.77500597  0.22499399  0.22499399  1
  S  S13  1  0.22499399  0.22499399  0.77500597  1
  S  S14  1  0.77500597  0.77500597  0.22499399  1
