# generated using pymatgen
data_Na3CaTiCuO9
_symmetry_space_group_name_H-M   'P 1'
_cell_length_a   5.84342194
_cell_length_b   5.84342194
_cell_length_c   7.17866611
_cell_angle_alpha   90.00000000
_cell_angle_beta   90.00000000
_cell_angle_gamma   120.00000000
_symmetry_Int_Tables_number   1
_chemical_formula_structural   Na3CaTiCuO9
_chemical_formula_sum   'Na3 Ca1 Ti1 Cu1 O9'
_cell_volume   212.27990238
_cell_formula_units_Z   1
loop_
 _symmetry_equiv_pos_site_id
 _symmetry_equiv_pos_as_xyz
  1  'x, y, z'
loop_
 _atom_site_type_symbol
 _atom_site_label
 _atom_site_symmetry_multiplicity
 _atom_site_fract_x
 _atom_site_fract_y
 _atom_site_fract_z
 _atom_site_occupancy
  Ca  Ca0  1  0.66666668  0.33333334  0.33587599  1
  Na  Na1  1  0.00000000  0.00000000  0.00000000  1
  Na  Na2  1  0.33333334  0.66666669  0.66412399  1
  Na  Na3  1  0.00000000  0.00000000  0.49999999  1
  Ti  Ti4  1  0.66666668  0.33333334  0.82324799  1
  Cu  Cu5  1  0.33333334  0.66666669  0.17675200  1
  O  O6  1  0.17209401  0.34418801  0.32457599  1
  O  O7  1  0.17209401  0.82790603  0.32457599  1
  O  O8  1  0.65581202  0.82790603  0.32457599  1
  O  O9  1  0.34418801  0.17209401  0.67542399  1
  O  O10  1  0.82790601  0.17209401  0.67542399  1
  O  O11  1  0.82790602  0.65581202  0.67542399  1
  O  O12  1  0.50000001  0.50000002  0.00000000  1
  O  O13  1  1.00000002  0.50000002  0.00000000  1
  O  O14  1  0.50000001  0.00000000  0.00000000  1
