# generated using pymatgen
data_H2
_symmetry_space_group_name_H-M   'P 1'
_cell_length_a   3.57692504
_cell_length_b   6.51462793
_cell_length_c   10.49067974
_cell_angle_alpha   90.00000000
_cell_angle_beta   90.00000000
_cell_angle_gamma   90.00000000
_symmetry_Int_Tables_number   1
_chemical_formula_structural   H2
_chemical_formula_sum   H20
_cell_volume   244.45734185
_cell_formula_units_Z   10
loop_
 _symmetry_equiv_pos_site_id
 _symmetry_equiv_pos_as_xyz
  1  'x, y, z'
loop_
 _atom_site_type_symbol
 _atom_site_label
 _atom_site_symmetry_multiplicity
 _atom_site_fract_x
 _atom_site_fract_y
 _atom_site_fract_z
 _atom_site_occupancy
  H  H0  1  0.23799300  0.50000001  0.25000001  1
  H  H1  1  0.76200699  0.00000000  0.75000002  1
  H  H2  1  0.76200699  0.50000001  0.75000002  1
  H  H3  1  0.23799300  0.00000000  0.25000001  1
  H  H4  1  0.16067700  0.75000001  0.91651402  1
  H  H5  1  0.83932299  0.25000000  0.08348600  1
  H  H6  1  0.16067700  0.25000000  0.58348601  1
  H  H7  1  0.83932299  0.75000001  0.41651401  1
  H  H8  1  0.79101199  0.75000001  0.04660300  1
  H  H9  1  0.20898800  0.25000000  0.95339702  1
  H  H10  1  0.79101199  0.25000000  0.45339701  1
  H  H11  1  0.20898800  0.75000001  0.54660301  1
  H  H12  1  0.69619699  0.75000001  0.15663400  1
  H  H13  1  0.30380300  0.25000000  0.84336602  1
  H  H14  1  0.69619699  0.25000000  0.34336601  1
  H  H15  1  0.30380300  0.75000001  0.65663402  1
  H  H16  1  0.87575699  0.75000001  0.92815702  1
  H  H17  1  0.12424300  0.25000000  0.07184300  1
  H  H18  1  0.87575699  0.25000000  0.57184301  1
  H  H19  1  0.12424300  0.75000001  0.42815701  1
