# generated using pymatgen
data_LaCe2YSe5S
_symmetry_space_group_name_H-M   'P 1'
_cell_length_a   4.04905415
_cell_length_b   6.88341665
_cell_length_c   9.99265194
_cell_angle_alpha   90.00000000
_cell_angle_beta   90.00000000
_cell_angle_gamma   107.10456848
_symmetry_Int_Tables_number   1
_chemical_formula_structural   LaCe2YSe5S
_chemical_formula_sum   'La1 Ce2 Y1 Se5 S1'
_cell_volume   266.18991690
_cell_formula_units_Z   1
loop_
 _symmetry_equiv_pos_site_id
 _symmetry_equiv_pos_as_xyz
  1  'x, y, z'
loop_
 _atom_site_type_symbol
 _atom_site_label
 _atom_site_symmetry_multiplicity
 _atom_site_fract_x
 _atom_site_fract_y
 _atom_site_fract_z
 _atom_site_occupancy
  Ce  Ce0  1  0.74801292  0.49602599  0.25000000  1
  La  La1  1  0.25198694  0.50397399  0.75000000  1
  Y  Y2  1  0.00000000  0.00000000  0.00000000  1
  Ce  Ce3  1  0.00000000  0.00000000  0.50000000  1
  S  S4  1  0.91468189  0.82936398  0.75000000  1
  Se  Se5  1  0.08531798  0.17063600  0.25000000  1
  Se  Se6  1  0.35726892  0.71453798  0.43869700  1
  Se  Se7  1  0.64273095  0.28546199  0.56130300  1
  Se  Se8  1  0.35726892  0.71453798  0.06130300  1
  Se  Se9  1  0.64273095  0.28546199  0.93869701  1
