# generated using pymatgen
data_NaCaHfH6
_symmetry_space_group_name_H-M   'P 1'
_cell_length_a   4.54289389
_cell_length_b   5.73581791
_cell_length_c   5.73581791
_cell_angle_alpha   120.00000000
_cell_angle_beta   90.00000000
_cell_angle_gamma   90.00000000
_symmetry_Int_Tables_number   1
_chemical_formula_structural   NaCaHfH6
_chemical_formula_sum   'Na1 Ca1 Hf1 H6'
_cell_volume   129.43565794
_cell_formula_units_Z   1
loop_
 _symmetry_equiv_pos_site_id
 _symmetry_equiv_pos_as_xyz
  1  'x, y, z'
loop_
 _atom_site_type_symbol
 _atom_site_label
 _atom_site_symmetry_multiplicity
 _atom_site_fract_x
 _atom_site_fract_y
 _atom_site_fract_z
 _atom_site_occupancy
  Ca  Ca0  1  0.73390402  0.33333334  0.66666666  1
  Na  Na1  1  0.26609601  0.66666667  0.33333333  1
  Hf  Hf2  1  0.00000000  0.00000000  0.00000000  1
  H  H3  1  0.22410101  0.17132200  0.82867800  1
  H  H4  1  0.22410101  0.17132200  0.34264400  1
  H  H5  1  0.22410101  0.65735601  0.82867799  1
  H  H6  1  0.77589902  0.82867801  0.17132199  1
  H  H7  1  0.77589902  0.82867801  0.65735599  1
  H  H8  1  0.77589902  0.34264400  0.17132200  1
