# generated using pymatgen
data_Na8CaNiO6
_symmetry_space_group_name_H-M   'P 1'
_cell_length_a   6.26320410
_cell_length_b   6.55088806
_cell_length_c   7.92065382
_cell_angle_alpha   90.00000000
_cell_angle_beta   90.00000000
_cell_angle_gamma   90.00000000
_symmetry_Int_Tables_number   1
_chemical_formula_structural   Na8CaNiO6
_chemical_formula_sum   'Na8 Ca1 Ni1 O6'
_cell_volume   324.98085363
_cell_formula_units_Z   1
loop_
 _symmetry_equiv_pos_site_id
 _symmetry_equiv_pos_as_xyz
  1  'x, y, z'
loop_
 _atom_site_type_symbol
 _atom_site_label
 _atom_site_symmetry_multiplicity
 _atom_site_fract_x
 _atom_site_fract_y
 _atom_site_fract_z
 _atom_site_occupancy
  Na  Na0  1  0.11818600  0.91615899  0.37650101  1
  Na  Na1  1  0.61818599  0.08384100  0.62349901  1
  Ca  Ca2  1  0.61818599  0.58384099  0.87650102  1
  Na  Na3  1  0.11818600  0.41615900  0.12349900  1
  Na  Na4  1  0.62059099  0.57304799  0.37367501  1
  Na  Na5  1  0.12059100  0.42695200  0.62632501  1
  Na  Na6  1  0.12059100  0.92695199  0.87367502  1
  Na  Na7  1  0.62059099  0.07304800  0.12632500  1
  Ni  Ni8  1  0.98523298  0.56454999  0.38697301  1
  Na  Na9  1  0.48523299  0.43545000  0.61302701  1
  O  O10  1  0.48523299  0.93544999  0.88697302  1
  O  O11  1  0.98523298  0.06455000  0.11302700  1
  O  O12  1  0.01099000  0.59517399  0.86103402  1
  O  O13  1  0.51098999  0.40482600  0.13896600  1
  O  O14  1  0.51098999  0.90482599  0.36103401  1
  O  O15  1  0.01099000  0.09517400  0.63896601  1
