# generated using pymatgen
data_K2NaSc(S2O)2
_symmetry_space_group_name_H-M   'P 1'
_cell_length_a   6.31714201
_cell_length_b   7.36564398
_cell_length_c   7.42028522
_cell_angle_alpha   60.24329376
_cell_angle_beta   88.81918335
_cell_angle_gamma   90.00000000
_symmetry_Int_Tables_number   1
_chemical_formula_structural   K2NaSc(S2O)2
_chemical_formula_sum   'K2 Na1 Sc1 S4 O2'
_cell_volume   299.65373921
_cell_formula_units_Z   1
loop_
 _symmetry_equiv_pos_site_id
 _symmetry_equiv_pos_as_xyz
  1  'x, y, z'
loop_
 _atom_site_type_symbol
 _atom_site_label
 _atom_site_symmetry_multiplicity
 _atom_site_fract_x
 _atom_site_fract_y
 _atom_site_fract_z
 _atom_site_occupancy
  K  K0  1  0.74664798  0.66705401  0.66589205  1
  K  K1  1  0.25335199  0.33294600  0.33410802  1
  Na  Na2  1  0.50000000  0.00000000  0.00000003  1
  Sc  Sc3  1  0.00000000  0.00000000  0.00000000  1
  O  O4  1  0.23087397  0.84596901  0.84992302  1
  S  S5  1  0.76912598  0.69589201  0.15007704  1
  S  S6  1  0.76912600  0.15403100  0.15007704  1
  O  O7  1  0.23087399  0.30410800  0.84992303  1
  S  S8  1  0.70631200  0.15762700  0.68474605  1
  S  S9  1  0.29368797  0.84237301  0.31525401  1
