# generated using pymatgen
data_Li10VSO8
_symmetry_space_group_name_H-M   'P 1'
_cell_length_a   5.50995302
_cell_length_b   5.51915693
_cell_length_c   9.62714863
_cell_angle_alpha   106.37146759
_cell_angle_beta   105.94728851
_cell_angle_gamma   60.36195755
_symmetry_Int_Tables_number   1
_chemical_formula_structural   Li10VSO8
_chemical_formula_sum   'Li10 V1 S1 O8'
_cell_volume   240.90591396
_cell_formula_units_Z   1
loop_
 _symmetry_equiv_pos_site_id
 _symmetry_equiv_pos_as_xyz
  1  'x, y, z'
loop_
 _atom_site_type_symbol
 _atom_site_label
 _atom_site_symmetry_multiplicity
 _atom_site_fract_x
 _atom_site_fract_y
 _atom_site_fract_z
 _atom_site_occupancy
  Li  Li0  1  0.37152201  0.36394600  0.13432000  1
  Li  Li1  1  0.86964102  0.86272599  0.63245700  1
  Li  Li2  1  0.14997100  0.11682300  0.38102700  1
  Li  Li3  1  0.65069302  0.61789999  0.88269399  1
  Li  Li4  1  0.76063402  0.74015599  0.25803600  1
  Li  Li5  1  0.26082101  0.23965200  0.75811099  1
  Li  Li6  1  0.01045903  0.98971799  0.00778098  1
  Li  Li7  1  0.51121801  0.48997499  0.50821500  1
  Li  Li8  1  0.73035900  0.11524400  0.38201201  1
  V  V9  1  0.23627702  0.61252899  0.88477498  1
  O  O10  1  0.79204301  0.36429000  0.13434501  1
  Li  Li11  1  0.28640303  0.86538599  0.63252098  1
  O  O12  1  0.16619102  0.54248499  0.35274099  1
  S  S13  1  0.66824600  0.03569900  0.85062100  1
  O  O14  1  0.35626303  0.93849199  0.16336199  1
  O  O15  1  0.85335201  0.44267699  0.66486501  1
  O  O16  1  0.11234101  0.19142200  0.91292498  1
  O  O17  1  0.61447102  0.68938499  0.41218400  1
  O  O18  1  0.40914301  0.28729800  0.60305100  1
  O  O19  1  0.90661702  0.79102399  0.10350801  1
