# generated using pymatgen
data_LiMnO4
_symmetry_space_group_name_H-M   'P 1'
_cell_length_a   5.60553265
_cell_length_b   5.60863209
_cell_length_c   5.61273193
_cell_angle_alpha   100.35657501
_cell_angle_beta   111.53995514
_cell_angle_gamma   116.87590790
_symmetry_Int_Tables_number   1
_chemical_formula_structural   LiMnO4
_chemical_formula_sum   'Li2 Mn2 O8'
_cell_volume   133.09037197
_cell_formula_units_Z   2
loop_
 _symmetry_equiv_pos_site_id
 _symmetry_equiv_pos_as_xyz
  1  'x, y, z'
loop_
 _atom_site_type_symbol
 _atom_site_label
 _atom_site_symmetry_multiplicity
 _atom_site_fract_x
 _atom_site_fract_y
 _atom_site_fract_z
 _atom_site_occupancy
  Li  Li0  1  0.50001896  0.99996896  0.99992702  1
  Li  Li1  1  0.99996798  0.50000998  0.00003499  1
  Mn  Mn2  1  0.25001899  0.21302799  0.46309201  1
  Mn  Mn3  1  0.74997297  0.78694797  0.53681401  1
  O  O4  1  0.95049899  0.26059099  0.21126700  1
  O  O5  1  0.54947799  0.26102699  0.81057301  1
  O  O6  1  0.04950197  0.73944497  0.78889302  1
  O  O7  1  0.45045297  0.73900697  0.18949500  1
  O  O8  1  0.98545899  0.16503399  0.67964501  1
  O  O9  1  0.51445897  0.69414497  0.67962501  1
  O  O10  1  0.01448697  0.83486097  0.32033901  1
  O  O11  1  0.48568299  0.30593599  0.32029500  1
