# generated using pymatgen
data_Co3NiH7
_symmetry_space_group_name_H-M   'P 1'
_cell_length_a   4.99829102
_cell_length_b   4.99829102
_cell_length_c   6.24704552
_cell_angle_alpha   66.41854858
_cell_angle_beta   66.41854858
_cell_angle_gamma   59.99998856
_symmetry_Int_Tables_number   1
_chemical_formula_structural   Co3NiH7
_chemical_formula_sum   'Co3 Ni1 H7'
_cell_volume   119.87490977
_cell_formula_units_Z   1
loop_
 _symmetry_equiv_pos_site_id
 _symmetry_equiv_pos_as_xyz
  1  'x, y, z'
loop_
 _atom_site_type_symbol
 _atom_site_label
 _atom_site_symmetry_multiplicity
 _atom_site_fract_x
 _atom_site_fract_y
 _atom_site_fract_z
 _atom_site_occupancy
  H  H0  1  0.20107499  0.20107499  0.39677499  1
  Ni  Ni1  1  0.79892495  0.79892497  0.60322502  1
  Co  Co2  1  0.00000000  0.00000000  0.00000000  1
  Co  Co3  1  0.59096396  0.59096398  0.22710802  1
  Co  Co4  1  0.40903598  0.40903599  0.77289199  1
  H  H5  1  0.19664998  0.69986297  0.76904199  1
  H  H6  1  0.69986296  0.33444499  0.76904199  1
  H  H7  1  0.33444498  0.19664999  0.76904198  1
  H  H8  1  0.80334996  0.30013699  0.23095802  1
  H  H9  1  0.66555496  0.80334997  0.23095803  1
  H  H10  1  0.30013698  0.66555498  0.23095801  1
