# generated using pymatgen
data_Na2TiVO8
_symmetry_space_group_name_H-M   'P 1'
_cell_length_a   5.22870779
_cell_length_b   5.22870779
_cell_length_c   6.72838688
_cell_angle_alpha   112.86466980
_cell_angle_beta   112.86466980
_cell_angle_gamma   90.00000000
_symmetry_Int_Tables_number   1
_chemical_formula_structural   Na2TiVO8
_chemical_formula_sum   'Na2 Ti1 V1 O8'
_cell_volume   153.68892121
_cell_formula_units_Z   1
loop_
 _symmetry_equiv_pos_site_id
 _symmetry_equiv_pos_as_xyz
  1  'x, y, z'
loop_
 _atom_site_type_symbol
 _atom_site_label
 _atom_site_symmetry_multiplicity
 _atom_site_fract_x
 _atom_site_fract_y
 _atom_site_fract_z
 _atom_site_occupancy
  Na  Na0  1  0.00000000  0.00000000  0.00000000  1
  Na  Na1  1  0.75000004  0.25000001  0.50000003  1
  V  V2  1  0.50000003  0.50000003  0.00000002  1
  Ti  Ti3  1  0.25000003  0.75000004  0.50000003  1
  O  O4  1  0.43084003  0.34473402  0.17959002  1
  O  O5  1  0.74874905  0.83485504  0.17958904  1
  O  O6  1  0.08787700  0.00122000  0.67078702  1
  O  O7  1  0.58291004  0.66956703  0.67078804  1
  O  O8  1  0.33043303  0.91212305  0.32921303  1
  O  O9  1  0.99878006  0.41709002  0.32921303  1
  O  O10  1  0.65526604  0.25125001  0.82041004  1
  O  O11  1  0.16514402  0.56916003  0.82041103  1
