# generated using pymatgen
data_Na6IBr10
_symmetry_space_group_name_H-M   'P 1'
_cell_length_a   7.34212208
_cell_length_b   9.16106987
_cell_length_c   9.18575001
_cell_angle_alpha   108.38255310
_cell_angle_beta   97.03397369
_cell_angle_gamma   105.77808380
_symmetry_Int_Tables_number   1
_chemical_formula_structural   Na6IBr10
_chemical_formula_sum   'Na6 I1 Br10'
_cell_volume   549.36975491
_cell_formula_units_Z   1
loop_
 _symmetry_equiv_pos_site_id
 _symmetry_equiv_pos_as_xyz
  1  'x, y, z'
loop_
 _atom_site_type_symbol
 _atom_site_label
 _atom_site_symmetry_multiplicity
 _atom_site_fract_x
 _atom_site_fract_y
 _atom_site_fract_z
 _atom_site_occupancy
  Na  Na0  1  0.87840507  0.95697403  0.24553003  1
  Na  Na1  1  0.12159500  0.04302600  0.75447001  1
  Na  Na2  1  0.02603405  0.70283103  0.90592602  1
  Na  Na3  1  0.97396602  0.29716901  0.09407403  1
  Na  Na4  1  0.64143906  0.86418903  0.82257204  1
  Na  Na5  1  0.35856101  0.13581100  0.17742801  1
  Br  Br6  1  0.00000000  0.00000000  0.00000000  1
  Br  Br7  1  0.63958804  0.53918002  0.72475403  1
  Br  Br8  1  0.36041203  0.46082002  0.27524602  1
  Br  Br9  1  0.74269207  0.91402903  0.53750204  1
  Br  Br10  1  0.25730800  0.08597100  0.46249801  1
  I  I11  1  0.91337904  0.62887802  0.17561403  1
  Br  Br12  1  0.08662103  0.37112201  0.82438602  1
  Br  Br13  1  0.54893601  0.17887201  0.91294903  1
  Br  Br14  1  0.45106406  0.82112803  0.08705102  1
  Br  Br15  1  0.21219506  0.73840203  0.64830202  1
  Br  Br16  1  0.78780501  0.26159801  0.35169803  1
