# generated using pymatgen
data_KNa6CdO4
_symmetry_space_group_name_H-M   'P 1'
_cell_length_a   6.05810404
_cell_length_b   6.85742044
_cell_length_c   6.26049805
_cell_angle_alpha   117.15995026
_cell_angle_beta   90.00000000
_cell_angle_gamma   116.21360016
_symmetry_Int_Tables_number   1
_chemical_formula_structural   KNa6CdO4
_chemical_formula_sum   'K1 Na6 Cd1 O4'
_cell_volume   200.87076115
_cell_formula_units_Z   1
loop_
 _symmetry_equiv_pos_site_id
 _symmetry_equiv_pos_as_xyz
  1  'x, y, z'
loop_
 _atom_site_type_symbol
 _atom_site_label
 _atom_site_symmetry_multiplicity
 _atom_site_fract_x
 _atom_site_fract_y
 _atom_site_fract_z
 _atom_site_occupancy
  Na  Na0  1  0.75000000  0.00000000  0.50000000  1
  Na  Na1  1  0.24999993  0.99999997  0.49999992  1
  Na  Na2  1  0.49999996  0.49999999  -0.00000004  1
  Na  Na3  1  -0.00000003  0.49999999  0.49999996  1
  Na  Na4  1  -0.00000003  0.49999999  0.99999996  1
  K  K5  1  0.49999993  0.99999997  0.99999992  1
  Na  Na6  1  0.00000000  0.00000000  0.00000000  1
  Cd  Cd7  1  0.49999996  0.49999999  0.49999996  1
  O  O8  1  0.38972494  0.77944998  0.60186994  1
  O  O9  1  0.88972494  0.77944998  0.17757994  1
  O  O10  1  0.11027498  0.22054999  0.82241998  1
  O  O11  1  0.61027498  0.22054999  0.39812998  1
