# generated using pymatgen
data_KNa3AlAsS2
_symmetry_space_group_name_H-M   'P 1'
_cell_length_a   7.48129988
_cell_length_b   7.81163311
_cell_length_c   7.48129988
_cell_angle_alpha   118.61073303
_cell_angle_beta   90.00000000
_cell_angle_gamma   118.61073303
_symmetry_Int_Tables_number   1
_chemical_formula_structural   KNa3AlAsS2
_chemical_formula_sum   'K1 Na3 Al1 As1 S2'
_cell_volume   321.70097908
_cell_formula_units_Z   1
loop_
 _symmetry_equiv_pos_site_id
 _symmetry_equiv_pos_as_xyz
  1  'x, y, z'
loop_
 _atom_site_type_symbol
 _atom_site_label
 _atom_site_symmetry_multiplicity
 _atom_site_fract_x
 _atom_site_fract_y
 _atom_site_fract_z
 _atom_site_occupancy
  K  K0  1  0.50000001  0.00000000  0.50000001  1
  Na  Na1  1  0.24999999  0.49999999  0.75000000  1
  Na  Na2  1  0.75000000  0.49999999  0.24999999  1
  Al  Al3  1  0.00000000  0.00000000  0.00000000  1
  Na  Na4  1  0.70899699  0.77996898  0.70899699  1
  As  As5  1  0.07097198  0.77996898  0.07097198  1
  S  S6  1  0.29100300  0.22003100  0.92902801  1
  S  S7  1  0.92902801  0.22003100  0.29100300  1
