# generated using pymatgen
data_NaSbTePbBr2O11F
_symmetry_space_group_name_H-M   'P 1'
_cell_length_a   6.41321421
_cell_length_b   6.62408495
_cell_length_c   11.67301750
_cell_angle_alpha   82.25173187
_cell_angle_beta   88.46962738
_cell_angle_gamma   85.83522034
_symmetry_Int_Tables_number   1
_chemical_formula_structural   NaSbTePbBr2O11F
_chemical_formula_sum   'Na1 Sb1 Te1 Pb1 Br2 O11 F1'
_cell_volume   489.99253239
_cell_formula_units_Z   1
loop_
 _symmetry_equiv_pos_site_id
 _symmetry_equiv_pos_as_xyz
  1  'x, y, z'
loop_
 _atom_site_type_symbol
 _atom_site_label
 _atom_site_symmetry_multiplicity
 _atom_site_fract_x
 _atom_site_fract_y
 _atom_site_fract_z
 _atom_site_occupancy
  Na  Na0  1  0.05173700  0.16480001  0.06342999  1
  Te  Te1  1  0.62686099  0.80842103  0.49365294  1
  Sb  Sb2  1  0.37313899  0.19157901  0.50634697  1
  Pb  Pb3  1  0.94826298  0.83520003  0.93656992  1
  O  O4  1  0.26871600  0.35501901  0.05140498  1
  Br  Br5  1  0.14550600  0.84770803  0.08079396  1
  O  O6  1  0.85707498  0.22163701  0.20776496  1
  Br  Br7  1  0.63860598  0.00680700  0.21735998  1
  O  O8  1  0.75288298  0.75743103  0.32863994  1
  F  F9  1  0.27920900  0.42237702  0.39696997  1
  O  O10  1  0.29925500  0.89589204  0.47407095  1
  O  O11  1  0.70074498  0.10410800  0.52592897  1
  O  O12  1  0.72079098  0.57762302  0.60302995  1
  O  O13  1  0.24711699  0.24256901  0.67135997  1
  O  O14  1  0.36139400  0.99319304  0.78263994  1
  O  O15  1  0.14292500  0.77836303  0.79223496  1
  O  O16  1  0.85449398  0.15229201  0.91920595  1
  O  O17  1  0.73128398  0.64498103  0.94859494  1
