# generated using pymatgen
data_K2Rb2Li4Ni2TeAs(SeS)3
_symmetry_space_group_name_H-M   'P 1'
_cell_length_a   5.91354322
_cell_length_b   5.91354322
_cell_length_c   14.54037857
_cell_angle_alpha   90.00000000
_cell_angle_beta   90.00000000
_cell_angle_gamma   90.00000000
_symmetry_Int_Tables_number   1
_chemical_formula_structural   K2Rb2Li4Ni2TeAs(SeS)3
_chemical_formula_sum   'K2 Rb2 Li4 Ni2 Te1 As1 Se3 S3'
_cell_volume   508.47694361
_cell_formula_units_Z   1
loop_
 _symmetry_equiv_pos_site_id
 _symmetry_equiv_pos_as_xyz
  1  'x, y, z'
loop_
 _atom_site_type_symbol
 _atom_site_label
 _atom_site_symmetry_multiplicity
 _atom_site_fract_x
 _atom_site_fract_y
 _atom_site_fract_z
 _atom_site_occupancy
  K  K0  1  0.75743097  0.75743097  0.00000000  1
  Rb  Rb1  1  0.24256899  0.75743097  0.50000001  1
  Rb  Rb2  1  0.75743097  0.24256899  0.50000001  1
  K  K3  1  0.24256899  0.24256899  0.00000000  1
  Li  Li4  1  0.49999998  0.49999998  0.25000001  1
  Li  Li5  1  0.49999998  0.49999998  0.75000002  1
  Li  Li6  1  -0.00000000  0.49999998  0.75000002  1
  Li  Li7  1  0.49999998  0.00000000  0.75000002  1
  Ni  Ni8  1  0.49999998  0.00000000  0.25000001  1
  Ni  Ni9  1  -0.00000000  0.49999998  0.25000001  1
  As  As10  1  0.73986697  0.26013299  0.15682300  1
  Te  Te11  1  0.73986697  0.73986697  0.34317701  1
  Se  Se12  1  0.26013299  0.26013299  0.65682302  1
  Se  Se13  1  0.73986697  0.73986697  0.65682302  1
  Se  Se14  1  0.26013299  0.26013299  0.34317701  1
  S  S15  1  0.73986697  0.26013299  0.84317702  1
  S  S16  1  0.26013299  0.73986697  0.84317702  1
  S  S17  1  0.26013299  0.73986697  0.15682300  1
