# generated using pymatgen
data_K3SrTlAg2
_symmetry_space_group_name_H-M   'P 1'
_cell_length_a   5.91587353
_cell_length_b   7.50554037
_cell_length_c   7.50554037
_cell_angle_alpha   77.62791443
_cell_angle_beta   68.48398590
_cell_angle_gamma   68.48398590
_symmetry_Int_Tables_number   1
_chemical_formula_structural   K3SrTlAg2
_chemical_formula_sum   'K3 Sr1 Tl1 Ag2'
_cell_volume   287.20470899
_cell_formula_units_Z   1
loop_
 _symmetry_equiv_pos_site_id
 _symmetry_equiv_pos_as_xyz
  1  'x, y, z'
loop_
 _atom_site_type_symbol
 _atom_site_label
 _atom_site_symmetry_multiplicity
 _atom_site_fract_x
 _atom_site_fract_y
 _atom_site_fract_z
 _atom_site_occupancy
  K  K0  1  0.64138999  0.68407902  0.68407904  1
  Sr  Sr1  1  0.35861000  0.31592101  0.31592102  1
  K  K2  1  0.00000000  0.00000000  0.00000000  1
  K  K3  1  0.76421899  0.67169502  0.14308702  1
  Ag  Ag4  1  0.23578097  0.85691303  0.32830505  1
  Ag  Ag5  1  0.23578099  0.32830501  0.85691304  1
  Tl  Tl6  1  0.76421901  0.14308700  0.67169502  1
