# generated using pymatgen
data_K4Na2Li3TeS7O
_symmetry_space_group_name_H-M   'P 1'
_cell_length_a   5.48069000
_cell_length_b   9.49033165
_cell_length_c   9.49033165
_cell_angle_alpha   76.53347778
_cell_angle_beta   73.21678925
_cell_angle_gamma   73.21678925
_symmetry_Int_Tables_number   1
_chemical_formula_structural   K4Na2Li3TeS7O
_chemical_formula_sum   'K4 Na2 Li3 Te1 S7 O1'
_cell_volume   446.41013220
_cell_formula_units_Z   1
loop_
 _symmetry_equiv_pos_site_id
 _symmetry_equiv_pos_as_xyz
  1  'x, y, z'
loop_
 _atom_site_type_symbol
 _atom_site_label
 _atom_site_symmetry_multiplicity
 _atom_site_fract_x
 _atom_site_fract_y
 _atom_site_fract_z
 _atom_site_occupancy
  K  K0  1  0.22835395  0.62433202  0.37566705  1
  K  K1  1  0.72835293  0.87566703  0.12433305  1
  K  K2  1  0.27164699  0.12433300  0.87566703  1
  K  K3  1  0.77164598  0.37566801  0.62433303  1
  Li  Li4  1  0.74999996  0.52454002  0.97546005  1
  Na  Na5  1  0.74999992  0.97546003  0.52454007  1
  Li  Li6  1  0.24999996  0.47546001  0.02454003  1
  Na  Na7  1  0.25000000  0.02454000  0.47546001  1
  Li  Li8  1  0.74999999  0.25000001  0.25000001  1
  Te  Te9  1  0.24999994  0.75000002  0.75000007  1
  S  S10  1  0.08080300  0.01663700  0.28100701  1
  S  S11  1  0.87844697  0.48336302  0.21899302  1
  S  S12  1  0.41919699  0.21899301  0.48336302  1
  S  S13  1  0.62155298  0.28100701  0.01663701  1
  O  O14  1  0.91919693  0.98336303  0.71899307  1
  S  S15  1  0.12155296  0.51663702  0.78100706  1
  S  S16  1  0.37844694  0.71899302  0.98336307  1
  S  S17  1  0.58080294  0.78100702  0.51663706  1
