# generated using pymatgen
data_K2Na3MnS8
_symmetry_space_group_name_H-M   'P 1'
_cell_length_a   6.89223003
_cell_length_b   7.07046080
_cell_length_c   9.18392277
_cell_angle_alpha   90.00000000
_cell_angle_beta   72.07586670
_cell_angle_gamma   90.00000000
_symmetry_Int_Tables_number   1
_chemical_formula_structural   K2Na3MnS8
_chemical_formula_sum   'K2 Na3 Mn1 S8'
_cell_volume   425.82235584
_cell_formula_units_Z   1
loop_
 _symmetry_equiv_pos_site_id
 _symmetry_equiv_pos_as_xyz
  1  'x, y, z'
loop_
 _atom_site_type_symbol
 _atom_site_label
 _atom_site_symmetry_multiplicity
 _atom_site_fract_x
 _atom_site_fract_y
 _atom_site_fract_z
 _atom_site_occupancy
  K  K0  1  0.26546000  0.01270800  0.93597601  1
  K  K1  1  0.73454000  0.51270801  0.06402398  1
  Na  Na2  1  0.76865400  0.49957101  0.55188199  1
  Na  Na3  1  0.23134600  0.99957103  0.44811800  1
  Mn  Mn4  1  0.21309700  0.53041902  0.68345000  1
  Na  Na5  1  0.78690300  0.03041900  0.31654998  1
  S  S6  1  0.40795700  0.53143902  0.84177900  1
  S  S7  1  0.97604301  0.76904802  0.73276798  1
  S  S8  1  0.01462800  0.26317101  0.71899601  1
  S  S9  1  0.59486400  0.07164400  0.56764399  1
  S  S10  1  0.40513600  0.57164402  0.43235599  1
  S  S11  1  0.98537201  0.76317102  0.28100398  1
  S  S12  1  0.02395700  0.26904801  0.26723200  1
  S  S13  1  0.59204300  0.03143900  0.15822099  1
