# generated using pymatgen
data_Na2HfVO8
_symmetry_space_group_name_H-M   'P 1'
_cell_length_a   5.38091993
_cell_length_b   5.38091993
_cell_length_c   6.94095850
_cell_angle_alpha   112.80654144
_cell_angle_beta   112.80654144
_cell_angle_gamma   90.00000000
_symmetry_Int_Tables_number   1
_chemical_formula_structural   Na2HfVO8
_chemical_formula_sum   'Na2 Hf1 V1 O8'
_cell_volume   168.08401864
_cell_formula_units_Z   1
loop_
 _symmetry_equiv_pos_site_id
 _symmetry_equiv_pos_as_xyz
  1  'x, y, z'
loop_
 _atom_site_type_symbol
 _atom_site_label
 _atom_site_symmetry_multiplicity
 _atom_site_fract_x
 _atom_site_fract_y
 _atom_site_fract_z
 _atom_site_occupancy
  Na  Na0  1  0.25000002  0.75000002  0.50000002  1
  Na  Na1  1  0.00000000  0.00000000  0.00000000  1
  V  V2  1  0.75000002  0.25000001  0.50000002  1
  Hf  Hf3  1  0.50000002  0.50000001  0.00000002  1
  O  O4  1  0.98944303  0.57469601  0.67327503  1
  O  O5  1  0.68383202  0.09857900  0.67327501  1
  O  O6  1  0.82807702  0.43252701  0.16787002  1
  O  O7  1  0.33979302  0.73534302  0.16787002  1
  O  O8  1  0.26465701  0.17192300  0.83213001  1
  O  O9  1  0.56747302  0.66020702  0.83213002  1
  O  O10  1  0.42530401  0.31616801  0.32672501  1
  O  O11  1  0.90142102  0.01055700  0.32672501  1
