# generated using pymatgen
data_KNa3BiSbSe3S4BrCl
_symmetry_space_group_name_H-M   'P 1'
_cell_length_a   4.94736385
_cell_length_b   6.99898386
_cell_length_c   13.07451630
_cell_angle_alpha   105.52491760
_cell_angle_beta   100.90602875
_cell_angle_gamma   90.00000000
_symmetry_Int_Tables_number   1
_chemical_formula_structural   KNa3BiSbSe3S4BrCl
_chemical_formula_sum   'K1 Na3 Bi1 Sb1 Se3 S4 Br1 Cl1'
_cell_volume   427.71452033
_cell_formula_units_Z   1
loop_
 _symmetry_equiv_pos_site_id
 _symmetry_equiv_pos_as_xyz
  1  'x, y, z'
loop_
 _atom_site_type_symbol
 _atom_site_label
 _atom_site_symmetry_multiplicity
 _atom_site_fract_x
 _atom_site_fract_y
 _atom_site_fract_z
 _atom_site_occupancy
  Na  Na0  1  0.40110401  0.40110400  0.80220802  1
  Na  Na1  1  0.80060803  0.80060801  0.60121601  1
  Na  Na2  1  0.19939201  0.19939200  0.39878401  1
  K  K3  1  0.59889602  0.59889601  0.19779200  1
  Bi  Bi4  1  0.00000000  0.00000000  0.00000000  1
  Sb  Sb5  1  0.09763400  0.85176101  0.19526899  1
  S  S6  1  0.30021001  0.05073700  0.60042002  1
  Br  Br7  1  0.69979003  0.45031700  0.39958001  1
  S  S8  1  0.50000002  0.24104200  0.00000000  1
  Se  Se9  1  0.90236503  0.65649201  0.80473002  1
  Cl  Cl10  1  0.09763500  0.34350800  0.19527000  1
  S  S11  1  0.30021001  0.54968300  0.60042001  1
  Se  Se12  1  0.69979003  0.94926301  0.39958000  1
  S  S13  1  0.50000002  0.75895801  -0.00000001  1
  Se  Se14  1  0.90236603  0.14823900  0.80473103  1
