# generated using pymatgen
data_Ti2NbAgAs3S
_symmetry_space_group_name_H-M   'P 1'
_cell_length_a   5.85995007
_cell_length_b   5.85995007
_cell_length_c   5.85995007
_cell_angle_alpha   90.00000000
_cell_angle_beta   90.00000000
_cell_angle_gamma   90.00000000
_symmetry_Int_Tables_number   1
_chemical_formula_structural   Ti2NbAgAs3S
_chemical_formula_sum   'Ti2 Nb1 Ag1 As3 S1'
_cell_volume   201.22491186
_cell_formula_units_Z   1
loop_
 _symmetry_equiv_pos_site_id
 _symmetry_equiv_pos_as_xyz
  1  'x, y, z'
loop_
 _atom_site_type_symbol
 _atom_site_label
 _atom_site_symmetry_multiplicity
 _atom_site_fract_x
 _atom_site_fract_y
 _atom_site_fract_z
 _atom_site_occupancy
  Nb  Nb0  1  -0.00000000  0.49999999  0.49999999  1
  Ti  Ti1  1  0.49999999  0.49999999  0.00000000  1
  Ti  Ti2  1  0.49999999  0.00000000  0.49999999  1
  Ag  Ag3  1  0.00000000  0.00000000  0.00000000  1
  As  As4  1  0.73848599  0.73848599  0.26151400  1
  As  As5  1  0.73848599  0.26151400  0.73848599  1
  S  S6  1  0.26151400  0.73848599  0.73848599  1
  As  As7  1  0.26151400  0.26151400  0.26151400  1
