# generated using pymatgen
data_Ce(MnAl2)4
_symmetry_space_group_name_H-M   'P 1'
_cell_length_a   5.19911814
_cell_length_b   6.80986357
_cell_length_c   6.80986357
_cell_angle_alpha   81.62095642
_cell_angle_beta   67.55884552
_cell_angle_gamma   67.55884552
_symmetry_Int_Tables_number   1
_chemical_formula_structural   Ce(MnAl2)4
_chemical_formula_sum   'Ce1 Mn4 Al8'
_cell_volume   205.97104673
_cell_formula_units_Z   1
loop_
 _symmetry_equiv_pos_site_id
 _symmetry_equiv_pos_as_xyz
  1  'x, y, z'
loop_
 _atom_site_type_symbol
 _atom_site_label
 _atom_site_symmetry_multiplicity
 _atom_site_fract_x
 _atom_site_fract_y
 _atom_site_fract_z
 _atom_site_occupancy
  Ce  Ce0  1  0.00000000  0.00000000  0.00000000  1
  Al  Al1  1  0.72122202  0.77877800  0.77877796  1
  Al  Al2  1  0.50000000  0.22122200  0.77877799  1
  Al  Al3  1  0.34894002  0.65106000  0.65105996  1
  Al  Al4  1  0.00000002  0.34894000  0.65105998  1
  Al  Al5  1  0.00000003  0.65106000  0.34893996  1
  Al  Al6  1  0.65106000  0.34894000  0.34893998  1
  Al  Al7  1  0.27877800  0.22122200  0.22122199  1
  Al  Al8  1  0.50000002  0.77877800  0.22122195  1
  Mn  Mn9  1  0.50000001  0.50000000  -0.00000003  1
  Mn  Mn10  1  0.00000002  0.50000000  -0.00000003  1
  Mn  Mn11  1  0.00000005  1.00000000  0.49999994  1
  Mn  Mn12  1  0.50000003  1.00000000  0.49999994  1
