# generated using pymatgen
data_LaU2AgTe8
_symmetry_space_group_name_H-M   'P 1'
_cell_length_a   4.16837883
_cell_length_b   7.80410480
_cell_length_c   10.32462406
_cell_angle_alpha   90.00000000
_cell_angle_beta   90.00000000
_cell_angle_gamma   90.00000000
_symmetry_Int_Tables_number   1
_chemical_formula_structural   LaU2AgTe8
_chemical_formula_sum   'La1 U2 Ag1 Te8'
_cell_volume   335.86482432
_cell_formula_units_Z   1
loop_
 _symmetry_equiv_pos_site_id
 _symmetry_equiv_pos_as_xyz
  1  'x, y, z'
loop_
 _atom_site_type_symbol
 _atom_site_label
 _atom_site_symmetry_multiplicity
 _atom_site_fract_x
 _atom_site_fract_y
 _atom_site_fract_z
 _atom_site_occupancy
  La  La0  1  0.25000001  0.72560102  0.84264799  1
  Ag  Ag1  1  0.75000003  0.27439901  0.15735200  1
  U  U2  1  0.75000003  0.77439902  0.34264800  1
  U  U3  1  0.25000001  0.22560101  0.65735200  1
  Te  Te4  1  0.25000001  0.59095301  0.14903100  1
  Te  Te5  1  0.75000003  0.40904701  0.85096899  1
  Te  Te6  1  0.75000003  0.90904702  0.64903100  1
  Te  Te7  1  0.25000001  0.09095300  0.35096900  1
  Te  Te8  1  0.25000001  0.59187901  0.53873900  1
  Te  Te9  1  0.75000003  0.40812101  0.46126100  1
  Te  Te10  1  0.75000003  0.90812102  0.03873900  1
  Te  Te11  1  0.25000001  0.09187900  0.96126099  1
