# generated using pymatgen
data_Mn3Si2
_symmetry_space_group_name_H-M   'P 1'
_cell_length_a   5.90934515
_cell_length_b   5.90934515
_cell_length_c   6.91034412
_cell_angle_alpha   90.00000000
_cell_angle_beta   90.00000000
_cell_angle_gamma   90.00000000
_symmetry_Int_Tables_number   1
_chemical_formula_structural   Mn3Si2
_chemical_formula_sum   'Mn12 Si8'
_cell_volume   241.31170523
_cell_formula_units_Z   4
loop_
 _symmetry_equiv_pos_site_id
 _symmetry_equiv_pos_as_xyz
  1  'x, y, z'
loop_
 _atom_site_type_symbol
 _atom_site_label
 _atom_site_symmetry_multiplicity
 _atom_site_fract_x
 _atom_site_fract_y
 _atom_site_fract_z
 _atom_site_occupancy
  Mn  Mn0  1  0.66412198  0.81457098  0.49999999  1
  Mn  Mn1  1  0.33587799  0.18542900  0.49999999  1
  Mn  Mn2  1  0.83587798  0.31457099  -0.00000000  1
  Mn  Mn3  1  0.16412200  0.68542898  -0.00000000  1
  Mn  Mn4  1  0.81457098  0.33587799  0.49999999  1
  Mn  Mn5  1  0.18542900  0.66412198  0.49999999  1
  Mn  Mn6  1  0.31457099  0.16412200  -0.00000000  1
  Mn  Mn7  1  0.68542898  0.83587798  -0.00000000  1
  Si  Si8  1  0.38630999  0.88630998  0.25000000  1
  Si  Si9  1  0.61368998  0.11369000  0.25000000  1
  Si  Si10  1  0.11369000  0.38630999  0.74999999  1
  Si  Si11  1  0.88630998  0.61368998  0.74999999  1
  Si  Si12  1  0.88630998  0.61368998  0.25000000  1
  Si  Si13  1  0.11369000  0.38630999  0.25000000  1
  Si  Si14  1  0.38630999  0.88630998  0.74999999  1
  Si  Si15  1  0.61368998  0.11369000  0.74999999  1
  Mn  Mn16  1  0.49999999  0.49999999  0.22200400  1
  Mn  Mn17  1  0.00000000  0.00000000  0.72200399  1
  Mn  Mn18  1  0.49999999  0.49999999  0.77799599  1
  Mn  Mn19  1  0.00000000  0.00000000  0.27799600  1
