# generated using pymatgen
data_TlInTe2
_symmetry_space_group_name_H-M   'P 1'
_cell_length_a   4.19747782
_cell_length_b   4.19747782
_cell_length_c   7.74659967
_cell_angle_alpha   74.28075409
_cell_angle_beta   74.28075409
_cell_angle_gamma   60.00000381
_symmetry_Int_Tables_number   1
_chemical_formula_structural   TlInTe2
_chemical_formula_sum   'Tl1 In1 Te2'
_cell_volume   112.26749673
_cell_formula_units_Z   1
loop_
 _symmetry_equiv_pos_site_id
 _symmetry_equiv_pos_as_xyz
  1  'x, y, z'
loop_
 _atom_site_type_symbol
 _atom_site_label
 _atom_site_symmetry_multiplicity
 _atom_site_fract_x
 _atom_site_fract_y
 _atom_site_fract_z
 _atom_site_occupancy
  Tl  Tl0  1  0.00000000  0.00000000  0.00000000  1
  In  In1  1  0.49999997  0.49999999  0.50000000  1
  Te  Te2  1  0.76583995  0.76583998  0.70248001  1
  Te  Te3  1  0.23415998  0.23415999  0.29752000  1
