# generated using pymatgen
data_AlNi
_symmetry_space_group_name_H-M   'P 1'
_cell_length_a   4.04734468
_cell_length_b   4.04734468
_cell_length_c   4.04734468
_cell_angle_alpha   60.00000000
_cell_angle_beta   60.00000000
_cell_angle_gamma   60.00000000
_symmetry_Int_Tables_number   1
_chemical_formula_structural   AlNi
_chemical_formula_sum   'Al2 Ni2'
_cell_volume   46.88086084
_cell_formula_units_Z   2
loop_
 _symmetry_equiv_pos_site_id
 _symmetry_equiv_pos_as_xyz
  1  'x, y, z'
loop_
 _atom_site_type_symbol
 _atom_site_label
 _atom_site_symmetry_multiplicity
 _atom_site_fract_x
 _atom_site_fract_y
 _atom_site_fract_z
 _atom_site_occupancy
  Al  Al0  1  0.50000002  0.50000002  0.50000002  1
  Ni  Ni1  1  0.75000003  0.75000003  0.75000003  1
  Ni  Ni2  1  0.25000001  0.25000001  0.25000001  1
  Al  Al3  1  0.00000000  0.00000000  0.00000000  1
