# generated using pymatgen
data_K2Li2TlBiO4
_symmetry_space_group_name_H-M   'P 1'
_cell_length_a   3.38857388
_cell_length_b   7.11384344
_cell_length_c   8.22248173
_cell_angle_alpha   81.06759644
_cell_angle_beta   78.10871124
_cell_angle_gamma   76.22158813
_symmetry_Int_Tables_number   1
_chemical_formula_structural   K2Li2TlBiO4
_chemical_formula_sum   'K2 Li2 Tl1 Bi1 O4'
_cell_volume   187.19495421
_cell_formula_units_Z   1
loop_
 _symmetry_equiv_pos_site_id
 _symmetry_equiv_pos_as_xyz
  1  'x, y, z'
loop_
 _atom_site_type_symbol
 _atom_site_label
 _atom_site_symmetry_multiplicity
 _atom_site_fract_x
 _atom_site_fract_y
 _atom_site_fract_z
 _atom_site_occupancy
  K  K0  1  0.49550106  0.31257800  0.69642003  1
  K  K1  1  0.50449911  0.68742199  0.30358001  1
  Li  Li2  1  0.24330502  0.08958200  0.42380802  1
  Li  Li3  1  0.75669515  0.91041799  0.57619202  1
  Tl  Tl4  1  0.19806712  0.76567699  0.83818903  1
  Bi  Bi5  1  0.80193306  0.23432300  0.16181101  1
  O  O6  1  0.83328417  0.99405499  0.33937701  1
  O  O7  1  0.17797506  0.35090800  0.29314201  1
  O  O8  1  0.82202512  0.64909199  0.70685803  1
  O  O9  1  0.16671601  0.00594500  0.66062303  1
