# generated using pymatgen
data_HoAg
_symmetry_space_group_name_H-M   'P 1'
_cell_length_a   4.23880243
_cell_length_b   4.23880243
_cell_length_c   7.35276747
_cell_angle_alpha   73.24706268
_cell_angle_beta   73.24706268
_cell_angle_gamma   59.99999619
_symmetry_Int_Tables_number   1
_chemical_formula_structural   HoAg
_chemical_formula_sum   'Ho2 Ag2'
_cell_volume   107.88778643
_cell_formula_units_Z   2
loop_
 _symmetry_equiv_pos_site_id
 _symmetry_equiv_pos_as_xyz
  1  'x, y, z'
loop_
 _atom_site_type_symbol
 _atom_site_label
 _atom_site_symmetry_multiplicity
 _atom_site_fract_x
 _atom_site_fract_y
 _atom_site_fract_z
 _atom_site_occupancy
  Ag  Ag0  1  0.49999998  0.49999998  0.49999999  1
  Ag  Ag1  1  0.00000000  0.00000000  0.00000000  1
  Ho  Ho2  1  0.25178899  0.25178899  0.24463299  1
  Ho  Ho3  1  0.74821097  0.74821097  0.75536698  1
