# generated using pymatgen
data_K3NaF6
_symmetry_space_group_name_H-M   'P 1'
_cell_length_a   7.00204086
_cell_length_b   7.00204086
_cell_length_c   7.33247280
_cell_angle_alpha   61.47983932
_cell_angle_beta   61.47983932
_cell_angle_gamma   59.99999237
_symmetry_Int_Tables_number   1
_chemical_formula_structural   K3NaF6
_chemical_formula_sum   'K3 Na1 F6'
_cell_volume   259.74374375
_cell_formula_units_Z   1
loop_
 _symmetry_equiv_pos_site_id
 _symmetry_equiv_pos_as_xyz
  1  'x, y, z'
loop_
 _atom_site_type_symbol
 _atom_site_label
 _atom_site_symmetry_multiplicity
 _atom_site_fract_x
 _atom_site_fract_y
 _atom_site_fract_z
 _atom_site_occupancy
  Na  Na0  1  0.69399797  0.69399799  0.91800600  1
  K  K1  1  0.19399799  0.19399800  0.41800600  1
  K  K2  1  0.99827996  0.99827999  0.00516001  1
  K  K3  1  0.49827998  0.49827999  0.50516000  1
  F  F4  1  0.41265699  0.02788900  0.72077800  1
  F  F5  1  0.83867598  0.41265699  0.72077800  1
  F  F6  1  0.02788899  0.83867599  0.72077800  1
  F  F7  1  0.33867598  0.52788899  0.22077800  1
  F  F8  1  0.52788897  0.91265699  0.22077800  1
  F  F9  1  0.91265698  0.33867600  0.22077800  1
