# generated using pymatgen
data_Te
_symmetry_space_group_name_H-M   'P 1'
_cell_length_a   4.35071421
_cell_length_b   4.36979389
_cell_length_c   26.73552513
_cell_angle_alpha   90.00000000
_cell_angle_beta   90.00000000
_cell_angle_gamma   90.00000000
_symmetry_Int_Tables_number   1
_chemical_formula_structural   Te
_chemical_formula_sum   Te16
_cell_volume   508.28843457
_cell_formula_units_Z   16
loop_
 _symmetry_equiv_pos_site_id
 _symmetry_equiv_pos_as_xyz
  1  'x, y, z'
loop_
 _atom_site_type_symbol
 _atom_site_label
 _atom_site_symmetry_multiplicity
 _atom_site_fract_x
 _atom_site_fract_y
 _atom_site_fract_z
 _atom_site_occupancy
  Te  Te0  1  0.49999998  0.50000001  0.09036900  1
  Te  Te1  1  0.49999998  0.50000001  0.42083200  1
  Te  Te2  1  0.49999998  0.50000001  0.75369800  1
  Te  Te3  1  0.00000000  0.00000000  0.24663700  1
  Te  Te4  1  0.00000000  0.00000000  0.57848700  1
  Te  Te5  1  0.00000000  0.00000000  0.91024200  1
  Te  Te6  1  0.49999998  0.50000001  0.21244900  1
  Te  Te7  1  0.49999998  0.50000001  0.54589100  1
  Te  Te8  1  0.49999998  0.50000001  0.87708000  1
  Te  Te9  1  0.00000000  0.00000000  0.12395600  1
  Te  Te10  1  0.00000000  0.00000000  0.45560500  1
  Te  Te11  1  0.00000000  0.00000000  0.78857500  1
  Te  Te12  1  0.00000000  0.50000001  0.99809400  1
  Te  Te13  1  0.00000000  0.50000001  0.33377200  1
  Te  Te14  1  0.00000000  0.50000001  0.66614000  1
  Te  Te15  1  0.49999998  0.00000000  0.99817300  1
