# generated using pymatgen
data_Lu4Si5Pd3
_symmetry_space_group_name_H-M   'P 1'
_cell_length_a   4.21268415
_cell_length_b   6.89300585
_cell_length_c   7.27412605
_cell_angle_alpha   90.00000000
_cell_angle_beta   90.00000000
_cell_angle_gamma   90.00000000
_symmetry_Int_Tables_number   1
_chemical_formula_structural   Lu4Si5Pd3
_chemical_formula_sum   'Lu4 Si5 Pd3'
_cell_volume   211.22648340
_cell_formula_units_Z   1
loop_
 _symmetry_equiv_pos_site_id
 _symmetry_equiv_pos_as_xyz
  1  'x, y, z'
loop_
 _atom_site_type_symbol
 _atom_site_label
 _atom_site_symmetry_multiplicity
 _atom_site_fract_x
 _atom_site_fract_y
 _atom_site_fract_z
 _atom_site_occupancy
  Lu  Lu0  1  0.24999999  0.00804200  0.80283999  1
  Lu  Lu1  1  0.24999999  0.50804201  0.69715999  1
  Lu  Lu2  1  0.74999997  0.99195802  0.19716000  1
  Lu  Lu3  1  0.74999997  0.49195801  0.30284000  1
  Pd  Pd4  1  0.24999999  0.84643702  0.43358100  1
  Si  Si5  1  0.24999999  0.34643701  0.06641900  1
  Si  Si6  1  0.74999997  0.15356300  0.56641900  1
  Pd  Pd7  1  0.74999997  0.65356301  0.93358099  1
  Pd  Pd8  1  0.24999999  0.20212200  0.39875000  1
  Si  Si9  1  0.24999999  0.70212202  0.10125000  1
  Si  Si10  1  0.74999997  0.79787802  0.60125000  1
  Si  Si11  1  0.74999997  0.29787801  0.89874999  1
