# generated using pymatgen
data_Cu5Se3
_symmetry_space_group_name_H-M   'P 1'
_cell_length_a   5.78930616
_cell_length_b   5.78930616
_cell_length_c   6.76077938
_cell_angle_alpha   115.35044861
_cell_angle_beta   115.35044861
_cell_angle_gamma   90.00000000
_symmetry_Int_Tables_number   1
_chemical_formula_structural   Cu5Se3
_chemical_formula_sum   'Cu5 Se3'
_cell_volume   180.33420798
_cell_formula_units_Z   1
loop_
 _symmetry_equiv_pos_site_id
 _symmetry_equiv_pos_as_xyz
  1  'x, y, z'
loop_
 _atom_site_type_symbol
 _atom_site_label
 _atom_site_symmetry_multiplicity
 _atom_site_fract_x
 _atom_site_fract_y
 _atom_site_fract_z
 _atom_site_occupancy
  Cu  Cu0  1  0.00000000  0.00000000  0.00000000  1
  Se  Se1  1  0.74999997  0.24999999  0.49999996  1
  Se  Se2  1  0.49999997  0.49999998  -0.00000003  1
  Se  Se3  1  0.24999997  0.74999997  0.49999996  1
  Cu  Cu4  1  0.37499996  0.84652896  0.24999996  1
  Cu  Cu5  1  0.87499996  0.40347098  0.24999996  1
  Cu  Cu6  1  0.59652896  0.62499997  0.74999995  1
  Cu  Cu7  1  0.15347099  0.12499999  0.74999997  1
