# generated using pymatgen
data_Al
_symmetry_space_group_name_H-M   'P 1'
_cell_length_a   3.97730589
_cell_length_b   3.97730589
_cell_length_c   8.43158054
_cell_angle_alpha   103.64218140
_cell_angle_beta   103.64218140
_cell_angle_gamma   90.00000000
_symmetry_Int_Tables_number   1
_chemical_formula_structural   Al
_chemical_formula_sum   Al8
_cell_volume   125.74042481
_cell_formula_units_Z   8
loop_
 _symmetry_equiv_pos_site_id
 _symmetry_equiv_pos_as_xyz
  1  'x, y, z'
loop_
 _atom_site_type_symbol
 _atom_site_label
 _atom_site_symmetry_multiplicity
 _atom_site_fract_x
 _atom_site_fract_y
 _atom_site_fract_z
 _atom_site_occupancy
  Al  Al0  1  0.12368800  0.12368800  0.24737599  1
  Al  Al1  1  0.87631198  0.87631201  0.75262395  1
  Al  Al2  1  0.99999999  0.50000000  -0.00000005  1
  Al  Al3  1  0.50000001  0.00000000  -0.00000002  1
  Al  Al4  1  0.24999998  0.75000001  0.49999997  1
  Al  Al5  1  0.75000000  0.25000000  0.49999997  1
  Al  Al6  1  0.37442899  0.37442900  0.74885798  1
  Al  Al7  1  0.62557099  0.62557101  0.25114196  1
