# generated using pymatgen
data_Mg
_symmetry_space_group_name_H-M   'P 1'
_cell_length_a   4.85632706
_cell_length_b   6.37366819
_cell_length_c   6.37366772
_cell_angle_alpha   120.00000000
_cell_angle_beta   90.00000000
_cell_angle_gamma   90.00000000
_symmetry_Int_Tables_number   1
_chemical_formula_structural   Mg
_chemical_formula_sum   Mg8
_cell_volume   170.85096187
_cell_formula_units_Z   8
loop_
 _symmetry_equiv_pos_site_id
 _symmetry_equiv_pos_as_xyz
  1  'x, y, z'
loop_
 _atom_site_type_symbol
 _atom_site_label
 _atom_site_symmetry_multiplicity
 _atom_site_fract_x
 _atom_site_fract_y
 _atom_site_fract_z
 _atom_site_occupancy
  Mg  Mg0  1  0.25000000  0.66666663  0.33333331  1
  Mg  Mg1  1  0.74999999  0.33333332  0.66666665  1
  Mg  Mg2  1  0.74999999  0.84084196  0.15915897  1
  Mg  Mg3  1  0.74999999  0.31831698  0.15915899  1
  Mg  Mg4  1  0.74999999  0.84084196  0.68168396  1
  Mg  Mg5  1  0.25000000  0.15915799  0.84084099  1
  Mg  Mg6  1  0.25000000  0.68168297  0.84084097  1
  Mg  Mg7  1  0.25000000  0.15915799  0.31831599  1
