# generated using pymatgen
data_CeGe2
_symmetry_space_group_name_H-M   'P 1'
_cell_length_a   4.27435589
_cell_length_b   4.27435589
_cell_length_c   15.51397133
_cell_angle_alpha   90.00000000
_cell_angle_beta   90.00000000
_cell_angle_gamma   120.00000000
_symmetry_Int_Tables_number   1
_chemical_formula_structural   CeGe2
_chemical_formula_sum   'Ce4 Ge8'
_cell_volume   245.46805119
_cell_formula_units_Z   4
loop_
 _symmetry_equiv_pos_site_id
 _symmetry_equiv_pos_as_xyz
  1  'x, y, z'
loop_
 _atom_site_type_symbol
 _atom_site_label
 _atom_site_symmetry_multiplicity
 _atom_site_fract_x
 _atom_site_fract_y
 _atom_site_fract_z
 _atom_site_occupancy
  Ce  Ce0  1  0.00000000  0.00000000  0.49999999  1
  Ce  Ce1  1  0.00000000  0.00000000  0.00000000  1
  Ce  Ce2  1  0.00000000  0.00000000  0.74999998  1
  Ce  Ce3  1  0.00000000  0.00000000  0.24999999  1
  Ge  Ge4  1  0.66666669  0.33333335  0.11609800  1
  Ge  Ge5  1  0.33333335  0.66666671  0.88390198  1
  Ge  Ge6  1  0.33333335  0.66666671  0.61609799  1
  Ge  Ge7  1  0.66666669  0.33333335  0.38390199  1
  Ge  Ge8  1  0.66666669  0.33333335  0.63528799  1
  Ge  Ge9  1  0.33333335  0.66666671  0.36471199  1
  Ge  Ge10  1  0.33333335  0.66666671  0.13528800  1
  Ge  Ge11  1  0.66666669  0.33333335  0.86471198  1
