# generated using pymatgen
data_Rb2NaNb3O9
_symmetry_space_group_name_H-M   'P 1'
_cell_length_a   5.85282421
_cell_length_b   5.85282278
_cell_length_c   7.29113007
_cell_angle_alpha   90.00000000
_cell_angle_beta   90.00000000
_cell_angle_gamma   120.00000763
_symmetry_Int_Tables_number   1
_chemical_formula_structural   Rb2NaNb3O9
_chemical_formula_sum   'Rb2 Na1 Nb3 O9'
_cell_volume   216.29988994
_cell_formula_units_Z   1
loop_
 _symmetry_equiv_pos_site_id
 _symmetry_equiv_pos_as_xyz
  1  'x, y, z'
loop_
 _atom_site_type_symbol
 _atom_site_label
 _atom_site_symmetry_multiplicity
 _atom_site_fract_x
 _atom_site_fract_y
 _atom_site_fract_z
 _atom_site_occupancy
  Nb  Nb0  1  0.33333334  0.66666669  0.32034400  1
  Nb  Nb1  1  0.00000000  0.00000000  0.97590799  1
  Nb  Nb2  1  0.66666665  0.33333334  0.64494599  1
  Rb  Rb3  1  0.66666665  0.33333334  0.09341600  1
  Na  Na4  1  0.33333334  0.66666669  0.77555899  1
  Rb  Rb5  1  0.00000000  0.00000000  0.44226900  1
  O  O6  1  0.50039300  0.49960702  0.52302100  1
  O  O7  1  0.15930702  0.84069403  0.18160200  1
  O  O8  1  0.82281198  0.17718901  0.83941999  1
  O  O9  1  0.50039298  0.00078600  0.52302100  1
  O  O10  1  0.15930700  0.31861401  0.18160200  1
  O  O11  1  0.82281199  0.64562402  0.83941999  1
  O  O12  1  0.99921398  0.49960702  0.52302100  1
  O  O13  1  0.68138700  0.84069403  0.18160200  1
  O  O14  1  0.35437699  0.17718901  0.83941999  1
