# generated using pymatgen
data_NaCaMg2(SiO3)4
_symmetry_space_group_name_H-M   'P 1'
_cell_length_a   5.42202520
_cell_length_b   6.80580473
_cell_length_c   6.80580473
_cell_angle_alpha   85.13256836
_cell_angle_beta   77.35294342
_cell_angle_gamma   77.35294342
_symmetry_Int_Tables_number   1
_chemical_formula_structural   NaCaMg2(SiO3)4
_chemical_formula_sum   'Na1 Ca1 Mg2 Si4 O12'
_cell_volume   238.92390730
_cell_formula_units_Z   1
loop_
 _symmetry_equiv_pos_site_id
 _symmetry_equiv_pos_as_xyz
  1  'x, y, z'
loop_
 _atom_site_type_symbol
 _atom_site_label
 _atom_site_symmetry_multiplicity
 _atom_site_fract_x
 _atom_site_fract_y
 _atom_site_fract_z
 _atom_site_occupancy
  Na  Na0  1  0.50000002  0.30300200  0.69699800  1
  Ca  Ca1  1  -0.00000001  0.69662901  0.30337099  1
  Mg  Mg2  1  0.50000001  0.89145501  0.10854498  1
  Mg  Mg3  1  1.00000004  0.10427600  0.89572400  1
  Si  Si4  1  0.50417102  0.37834501  0.20385799  1
  Si  Si5  1  0.49582902  0.79614201  0.62165499  1
  Si  Si6  1  0.99520204  0.62336401  0.79469599  1
  Si  Si7  1  0.00479800  0.20530400  0.37663600  1
  O  O8  1  0.43960401  0.60731101  0.11525199  1
  O  O9  1  0.56039602  0.88474801  0.39268898  1
  O  O10  1  0.06661600  0.39891501  0.88832200  1
  O  O11  1  0.93338404  0.11167800  0.60108500  1
  O  O12  1  0.73200903  0.35917901  0.33784399  1
  O  O13  1  0.26799101  0.66215601  0.64082099  1
  O  O14  1  0.76876603  0.64155701  0.65907399  1
  O  O15  1  0.23123401  0.34092601  0.35844300  1
  O  O16  1  0.59608102  0.19749300  0.04157199  1
  O  O17  1  0.40391901  0.95842802  0.80250699  1
  O  O18  1  0.89368603  0.80079301  0.96169999  1
  O  O19  1  0.10631400  0.03830000  0.19920700  1
