# generated using pymatgen
data_Y2Ni2Sn
_symmetry_space_group_name_H-M   'P 1'
_cell_length_a   4.09413385
_cell_length_b   5.44264126
_cell_length_c   5.44264126
_cell_angle_alpha   60.73111725
_cell_angle_beta   67.90666962
_cell_angle_gamma   67.90666962
_symmetry_Int_Tables_number   1
_chemical_formula_structural   Y2Ni2Sn
_chemical_formula_sum   'Y2 Ni2 Sn1'
_cell_volume   95.21404731
_cell_formula_units_Z   1
loop_
 _symmetry_equiv_pos_site_id
 _symmetry_equiv_pos_as_xyz
  1  'x, y, z'
loop_
 _atom_site_type_symbol
 _atom_site_label
 _atom_site_symmetry_multiplicity
 _atom_site_fract_x
 _atom_site_fract_y
 _atom_site_fract_z
 _atom_site_occupancy
  Y  Y0  1  0.20578702  0.29421301  0.29421300  1
  Y  Y1  1  0.79421306  0.70578701  0.70578702  1
  Sn  Sn2  1  0.00000000  0.00000000  0.00000000  1
  Ni  Ni3  1  0.50000002  0.27423000  0.72577002  1
  Ni  Ni4  1  0.50000005  0.72577001  0.27423000  1
