# generated using pymatgen
data_LaEr(MnSi)6
_symmetry_space_group_name_H-M   'P 1'
_cell_length_a   6.93890953
_cell_length_b   6.93890953
_cell_length_c   7.86636877
_cell_angle_alpha   63.82917023
_cell_angle_beta   63.82917023
_cell_angle_gamma   60.00000381
_symmetry_Int_Tables_number   1
_chemical_formula_structural   LaEr(MnSi)6
_chemical_formula_sum   'La1 Er1 Mn6 Si6'
_cell_volume   282.28599649
_cell_formula_units_Z   1
loop_
 _symmetry_equiv_pos_site_id
 _symmetry_equiv_pos_as_xyz
  1  'x, y, z'
loop_
 _atom_site_type_symbol
 _atom_site_label
 _atom_site_symmetry_multiplicity
 _atom_site_fract_x
 _atom_site_fract_y
 _atom_site_fract_z
 _atom_site_occupancy
  La  La0  1  0.66643903  0.66643901  0.00068297  1
  Er  Er1  1  0.33356102  0.33356101  0.99931699  1
  Mn  Mn2  1  0.53515304  0.87438002  0.37245897  1
  Mn  Mn3  1  0.21800802  0.53515301  0.37245899  1
  Mn  Mn4  1  0.87438003  0.21800800  0.37245898  1
  Mn  Mn5  1  0.12562002  0.78199201  0.62754098  1
  Mn  Mn6  1  0.78199203  0.46484701  0.62754098  1
  Mn  Mn7  1  0.46484702  0.12562000  0.62754099  1
  Si  Si8  1  0.75821802  0.08457300  0.74376899  1
  Si  Si9  1  0.08457301  0.41344001  0.74376900  1
  Si  Si10  1  0.41344003  0.75821801  0.74376898  1
  Si  Si11  1  0.58656002  0.24178200  0.25623099  1
  Si  Si12  1  0.91542704  0.58656001  0.25623097  1
  Si  Si13  1  0.24178203  0.91542702  0.25623098  1
