# generated using pymatgen
data_Zr(AlFe)6
_symmetry_space_group_name_H-M   'P 1'
_cell_length_a   5.02998209
_cell_length_b   6.59468174
_cell_length_c   6.59468174
_cell_angle_alpha   80.52507019
_cell_angle_beta   67.58164215
_cell_angle_gamma   67.58164215
_symmetry_Int_Tables_number   1
_chemical_formula_structural   Zr(AlFe)6
_chemical_formula_sum   'Zr1 Al6 Fe6'
_cell_volume   186.89043608
_cell_formula_units_Z   1
loop_
 _symmetry_equiv_pos_site_id
 _symmetry_equiv_pos_as_xyz
  1  'x, y, z'
loop_
 _atom_site_type_symbol
 _atom_site_label
 _atom_site_symmetry_multiplicity
 _atom_site_fract_x
 _atom_site_fract_y
 _atom_site_fract_z
 _atom_site_occupancy
  Zr  Zr0  1  0.00000000  0.00000000  0.00000000  1
  Al  Al1  1  -0.00000004  0.66540100  0.33459900  1
  Al  Al2  1  -0.00000002  0.33459900  0.66540099  1
  Al  Al3  1  0.34308396  0.65691600  0.65691599  1
  Al  Al4  1  0.65691598  0.34308400  0.34308398  1
  Al  Al5  1  0.31936599  0.18063400  0.18063399  1
  Al  Al6  1  0.68063395  0.81936600  0.81936598  1
  Fe  Fe7  1  0.49999998  0.24572200  0.75427797  1
  Fe  Fe8  1  0.49999996  0.75427800  0.24572199  1
  Fe  Fe9  1  -0.00000003  0.50000000  0.00000001  1
  Fe  Fe10  1  0.49999997  0.50000000  -0.00000001  1
  Fe  Fe11  1  0.00000000  0.00000000  0.49999999  1
  Fe  Fe12  1  0.50000000  0.00000000  0.49999998  1
