# generated using pymatgen
data_SrCu2SeBrO13
_symmetry_space_group_name_H-M   'P 1'
_cell_length_a   5.74614811
_cell_length_b   5.74614811
_cell_length_c   8.04619694
_cell_angle_alpha   98.50037384
_cell_angle_beta   109.55210876
_cell_angle_gamma   108.92890167
_symmetry_Int_Tables_number   1
_chemical_formula_structural   SrCu2SeBrO13
_chemical_formula_sum   'Sr1 Cu2 Se1 Br1 O13'
_cell_volume   226.80654545
_cell_formula_units_Z   1
loop_
 _symmetry_equiv_pos_site_id
 _symmetry_equiv_pos_as_xyz
  1  'x, y, z'
loop_
 _atom_site_type_symbol
 _atom_site_label
 _atom_site_symmetry_multiplicity
 _atom_site_fract_x
 _atom_site_fract_y
 _atom_site_fract_z
 _atom_site_occupancy
  Sr  Sr0  1  0.00000000  0.00000000  0.00000000  1
  Cu  Cu1  1  0.49999998  0.49999999  0.49999996  1
  Cu  Cu2  1  -0.00000000  0.00000000  0.49999999  1
  O  O3  1  0.50709598  0.19442300  0.70151896  1
  O  O4  1  0.49290398  0.80557698  0.29848097  1
  O  O5  1  0.49999998  0.00000000  0.49999997  1
  Br  Br6  1  0.79513797  0.42901799  0.22415596  1
  Se  Se7  1  0.20486199  0.57098199  0.77584397  1
  O  O8  1  0.01795000  0.31269999  0.33064999  1
  O  O9  1  0.98204996  0.68729998  0.66934994  1
  O  O10  1  0.41723898  0.14910000  0.56633897  1
  O  O11  1  0.58276097  0.85089998  0.43366096  1
  O  O12  1  0.32126598  0.68012798  0.00139398  1
  O  O13  1  0.67873397  0.31987199  0.99860595  1
  O  O14  1  0.53039098  0.33527599  0.28529697  1
  O  O15  1  0.46960898  0.66472398  0.71470296  1
  O  O16  1  0.04997900  0.24509399  0.71470298  1
  O  O17  1  0.95002096  0.75490598  0.28529695  1
