# generated using pymatgen
data_Ce12SnPt6
_symmetry_space_group_name_H-M   'P 1'
_cell_length_a   8.75115681
_cell_length_b   8.75115681
_cell_length_c   8.75115681
_cell_angle_alpha   109.47122192
_cell_angle_beta   109.47122192
_cell_angle_gamma   109.47122192
_symmetry_Int_Tables_number   1
_chemical_formula_structural   Ce12SnPt6
_chemical_formula_sum   'Ce12 Sn1 Pt6'
_cell_volume   515.91064135
_cell_formula_units_Z   1
loop_
 _symmetry_equiv_pos_site_id
 _symmetry_equiv_pos_as_xyz
  1  'x, y, z'
loop_
 _atom_site_type_symbol
 _atom_site_label
 _atom_site_symmetry_multiplicity
 _atom_site_fract_x
 _atom_site_fract_y
 _atom_site_fract_z
 _atom_site_occupancy
  Ce  Ce0  1  0.49401404  0.18627802  0.30773604  1
  Ce  Ce1  1  0.50598608  0.81372207  0.69226409  1
  Ce  Ce2  1  0.12145706  0.81372107  0.30773506  1
  Ce  Ce3  1  0.87854306  0.18627902  0.69226507  1
  Ce  Ce4  1  0.18627806  0.69226406  0.87854209  1
  Ce  Ce5  1  0.81372207  0.30773603  0.12145804  1
  Ce  Ce6  1  0.81372209  0.69226506  0.50598608  1
  Ce  Ce7  1  0.18627803  0.30773503  0.49401405  1
  Ce  Ce8  1  0.30773603  0.12145801  0.81372206  1
  Ce  Ce9  1  0.69226410  0.87854208  0.18627808  1
  Ce  Ce10  1  0.69226407  0.50598605  0.81372109  1
  Ce  Ce11  1  0.30773605  0.49401405  0.18627904  1
  Pt  Pt12  1  0.50000009  0.87869108  0.37869108  1
  Pt  Pt13  1  0.50000004  0.12130901  0.62130905  1
  Pt  Pt14  1  0.12130905  0.62130906  0.50000006  1
  Pt  Pt15  1  0.87869108  0.37869103  0.50000007  1
  Pt  Pt16  1  0.62130907  0.50000005  0.12130905  1
  Pt  Pt17  1  0.37869105  0.50000005  0.87869108  1
  Sn  Sn18  1  0.00000000  0.00000000  0.00000000  1
