# generated using pymatgen
data_ZrSc2Ti2Si12Ru
_symmetry_space_group_name_H-M   'P 1'
_cell_length_a   5.35320902
_cell_length_b   7.79935217
_cell_length_c   7.79935217
_cell_angle_alpha   120.00000000
_cell_angle_beta   90.00000000
_cell_angle_gamma   90.00000000
_symmetry_Int_Tables_number   1
_chemical_formula_structural   ZrSc2Ti2Si12Ru
_chemical_formula_sum   'Zr1 Sc2 Ti2 Si12 Ru1'
_cell_volume   282.00830234
_cell_formula_units_Z   1
loop_
 _symmetry_equiv_pos_site_id
 _symmetry_equiv_pos_as_xyz
  1  'x, y, z'
loop_
 _atom_site_type_symbol
 _atom_site_label
 _atom_site_symmetry_multiplicity
 _atom_site_fract_x
 _atom_site_fract_y
 _atom_site_fract_z
 _atom_site_occupancy
  Zr  Zr0  1  0.75000000  0.76834198  0.76834199  1
  Si  Si1  1  0.25000000  0.23165800  0.23165800  1
  Si  Si2  1  0.75000000  0.00000000  0.23165800  1
  Si  Si3  1  0.25000000  0.00000000  0.76834199  1
  Sc  Sc4  1  0.75000000  0.23165800  0.99999998  1
  Sc  Sc5  1  0.25000000  0.76834198  0.99999998  1
  Ru  Ru6  1  0.00000000  0.66666665  0.33333333  1
  Si  Si7  1  0.00000000  0.33333333  0.66666666  1
  Ti  Ti8  1  0.50000000  0.33333333  0.66666666  1
  Ti  Ti9  1  0.50000000  0.66666665  0.33333333  1
  Si  Si10  1  0.75000000  0.40802299  0.40802299  1
  Si  Si11  1  0.25000000  0.59197699  0.59197699  1
  Si  Si12  1  0.75000000  0.99999998  0.59197699  1
  Si  Si13  1  0.25000000  0.00000000  0.40802299  1
  Si  Si14  1  0.75000000  0.59197699  0.99999998  1
  Si  Si15  1  0.25000000  0.40802299  0.99999998  1
  Si  Si16  1  0.00000000  0.00000000  0.00000000  1
  Si  Si17  1  0.50000000  0.00000000  -0.00000000  1
