# generated using pymatgen
data_Ce7MgSnSb7
_symmetry_space_group_name_H-M   'P 1'
_cell_length_a   6.70408821
_cell_length_b   8.93149757
_cell_length_c   8.93149757
_cell_angle_alpha   120.00000000
_cell_angle_beta   90.00000000
_cell_angle_gamma   90.00000000
_symmetry_Int_Tables_number   1
_chemical_formula_structural   Ce7MgSnSb7
_chemical_formula_sum   'Ce7 Mg1 Sn1 Sb7'
_cell_volume   463.14706997
_cell_formula_units_Z   1
loop_
 _symmetry_equiv_pos_site_id
 _symmetry_equiv_pos_as_xyz
  1  'x, y, z'
loop_
 _atom_site_type_symbol
 _atom_site_label
 _atom_site_symmetry_multiplicity
 _atom_site_fract_x
 _atom_site_fract_y
 _atom_site_fract_z
 _atom_site_occupancy
  Ce  Ce0  1  0.00000000  0.33333335  0.66666668  1
  Sb  Sb1  1  -0.00000000  0.66666670  0.33333334  1
  Ce  Ce2  1  0.49999998  0.66666670  0.33333334  1
  Mg  Mg3  1  0.49999998  0.33333335  0.66666668  1
  Ce  Ce4  1  0.24999999  0.23691301  1.00000003  1
  Ce  Ce5  1  0.24999999  0.76308703  0.76308702  1
  Ce  Ce6  1  0.24999999  0.00000000  0.23691301  1
  Sb  Sb7  1  0.74999998  0.76308703  -0.00000001  1
  Ce  Ce8  1  0.74999998  0.23691301  0.23691301  1
  Ce  Ce9  1  0.74999998  1.00000004  0.76308701  1
  Sb  Sb10  1  0.24999999  0.59906003  1.00000003  1
  Sb  Sb11  1  0.24999999  0.40094002  0.40094001  1
  Sb  Sb12  1  0.24999999  0.00000000  0.59906002  1
  Sn  Sn13  1  0.74999998  0.40094002  1.00000003  1
  Sb  Sb14  1  0.74999998  0.59906003  0.59906001  1
  Sb  Sb15  1  0.74999998  1.00000004  0.40094000  1
