# generated using pymatgen
data_SiNi16
_symmetry_space_group_name_H-M   'P 1'
_cell_length_a   5.03646183
_cell_length_b   6.60068512
_cell_length_c   6.60068512
_cell_angle_alpha   81.63085175
_cell_angle_beta   67.57272339
_cell_angle_gamma   67.57272339
_symmetry_Int_Tables_number   1
_chemical_formula_structural   SiNi16
_chemical_formula_sum   'Si1 Ni16'
_cell_volume   187.49517992
_cell_formula_units_Z   1
loop_
 _symmetry_equiv_pos_site_id
 _symmetry_equiv_pos_as_xyz
  1  'x, y, z'
loop_
 _atom_site_type_symbol
 _atom_site_label
 _atom_site_symmetry_multiplicity
 _atom_site_fract_x
 _atom_site_fract_y
 _atom_site_fract_z
 _atom_site_occupancy
  Ni  Ni0  1  0.86809409  0.70219501  0.06401900  1
  Ni  Ni1  1  0.63430804  0.29780500  0.93598105  1
  Ni  Ni2  1  0.57028901  0.06401900  0.29780504  1
  Ni  Ni3  1  0.93965009  0.69421201  0.42648802  1
  Ni  Ni4  1  0.63386206  0.42648800  0.30578802  1
  Ni  Ni5  1  0.36613807  0.57351201  0.69421201  1
  Ni  Ni6  1  0.06035004  0.30578800  0.57351200  1
  Ni  Ni7  1  0.93211312  0.93598101  0.70219501  1
  Ni  Ni8  1  0.42971111  0.93598101  0.70219499  1
  Ni  Ni9  1  0.36569209  0.70219501  0.06401898  1
  Ni  Ni10  1  0.13190604  0.29780500  0.93598102  1
  Ni  Ni11  1  0.06788701  0.06401900  0.29780501  1
  Ni  Ni12  1  0.00000000  0.00000000  0.00000000  1
  Ni  Ni13  1  0.41312810  0.78144001  0.39230399  1
  Ni  Ni14  1  0.19456805  0.39230400  0.21855999  1
  Ni  Ni15  1  0.80543208  0.60769601  0.78144003  1
  Si  Si16  1  0.58687203  0.21856000  0.60769604  1
