# generated using pymatgen
data_La7Y2
_symmetry_space_group_name_H-M   'P 1'
_cell_length_a   7.00361109
_cell_length_b   7.00361109
_cell_length_c   7.00361109
_cell_angle_alpha   60.00000000
_cell_angle_beta   60.00000000
_cell_angle_gamma   60.00000000
_symmetry_Int_Tables_number   1
_chemical_formula_structural   La7Y2
_chemical_formula_sum   'La7 Y2'
_cell_volume   242.91317304
_cell_formula_units_Z   1
loop_
 _symmetry_equiv_pos_site_id
 _symmetry_equiv_pos_as_xyz
  1  'x, y, z'
loop_
 _atom_site_type_symbol
 _atom_site_label
 _atom_site_symmetry_multiplicity
 _atom_site_fract_x
 _atom_site_fract_y
 _atom_site_fract_z
 _atom_site_occupancy
  La  La0  1  0.75000002  0.75000002  0.75000002  1
  La  La1  1  0.25000001  0.25000001  0.25000001  1
  La  La2  1  0.00000000  0.00000000  0.00000000  1
  Y  Y3  1  0.76883502  0.23116501  0.23116501  1
  La  La4  1  0.23116501  0.23116501  0.76883502  1
  La  La5  1  0.76883502  0.76883502  0.23116501  1
  Y  Y6  1  0.23116501  0.76883502  0.76883502  1
  La  La7  1  0.76883502  0.23116501  0.76883502  1
  La  La8  1  0.23116501  0.76883502  0.23116501  1
