# generated using pymatgen
data_SrCe4S7
_symmetry_space_group_name_H-M   'P 1'
_cell_length_a   3.81733990
_cell_length_b   5.60776377
_cell_length_c   14.21265793
_cell_angle_alpha   90.00000000
_cell_angle_beta   90.00000000
_cell_angle_gamma   109.89893341
_symmetry_Int_Tables_number   1
_chemical_formula_structural   SrCe4S7
_chemical_formula_sum   'Sr1 Ce4 S7'
_cell_volume   286.08146689
_cell_formula_units_Z   1
loop_
 _symmetry_equiv_pos_site_id
 _symmetry_equiv_pos_as_xyz
  1  'x, y, z'
loop_
 _atom_site_type_symbol
 _atom_site_label
 _atom_site_symmetry_multiplicity
 _atom_site_fract_x
 _atom_site_fract_y
 _atom_site_fract_z
 _atom_site_occupancy
  Ce  Ce0  1  0.38093298  0.76186597  0.25000000  1
  S  S1  1  0.61906701  0.23813399  0.75000000  1
  Sr  Sr2  1  0.07124800  0.14249599  0.10822200  1
  S  S3  1  0.92875200  0.85750396  0.89177800  1
  S  S4  1  0.92875200  0.85750396  0.60822200  1
  S  S5  1  0.07124800  0.14249599  0.39177800  1
  S  S6  1  0.66909301  0.33818599  0.25000000  1
  Ce  Ce7  1  0.33090699  0.66181397  0.75000000  1
  Ce  Ce8  1  0.64269401  0.28538799  0.54911800  1
  S  S9  1  0.35730599  0.71461197  0.45088200  1
  S  S10  1  0.35730599  0.71461197  0.04911800  1
  Ce  Ce11  1  0.64269401  0.28538799  0.95088200  1
