# generated using pymatgen
data_Al4Pd13
_symmetry_space_group_name_H-M   'P 1'
_cell_length_a   5.58371592
_cell_length_b   7.34089375
_cell_length_c   7.34089375
_cell_angle_alpha   81.68356323
_cell_angle_beta   67.64675140
_cell_angle_gamma   67.64675140
_symmetry_Int_Tables_number   1
_chemical_formula_structural   Al4Pd13
_chemical_formula_sum   'Al4 Pd13'
_cell_volume   257.37718876
_cell_formula_units_Z   1
loop_
 _symmetry_equiv_pos_site_id
 _symmetry_equiv_pos_as_xyz
  1  'x, y, z'
loop_
 _atom_site_type_symbol
 _atom_site_label
 _atom_site_symmetry_multiplicity
 _atom_site_fract_x
 _atom_site_fract_y
 _atom_site_fract_z
 _atom_site_occupancy
  Al  Al0  1  0.19591899  0.22649000  0.38167201  1
  Pd  Pd1  1  0.57759096  0.61832799  0.22649003  1
  Al  Al2  1  0.42240898  0.38167200  0.77351000  1
  Al  Al3  1  0.80408096  0.77350999  0.61832803  1
  Al  Al4  1  0.00000000  0.00000000  0.00000000  1
  Pd  Pd5  1  0.92444497  0.70372399  0.94723802  1
  Pd  Pd6  1  0.57540699  0.29627600  0.05276201  1
  Pd  Pd7  1  0.87168202  0.05276300  0.70372397  1
  Pd  Pd8  1  0.37183001  0.05276300  0.70372398  1
  Pd  Pd9  1  0.07555498  0.29627600  0.05276202  1
  Pd  Pd10  1  0.42459295  0.70372399  0.94723803  1
  Pd  Pd11  1  0.12831793  0.94723699  0.29627607  1
  Pd  Pd12  1  0.62816994  0.94723699  0.29627606  1
  Pd  Pd13  1  0.36699895  0.68885499  0.57714704  1
  Pd  Pd14  1  0.94414599  0.42285300  0.68885500  1
  Pd  Pd15  1  0.05585395  0.57714699  0.31114504  1
  Pd  Pd16  1  0.63300099  0.31114500  0.42285300  1
