# generated using pymatgen
data_Ce(GePt2)2
_symmetry_space_group_name_H-M   'P 1'
_cell_length_a   4.16300011
_cell_length_b   8.11113834
_cell_length_c   8.11113834
_cell_angle_alpha   75.68289948
_cell_angle_beta   75.13025665
_cell_angle_gamma   75.13025665
_symmetry_Int_Tables_number   1
_chemical_formula_structural   Ce(GePt2)2
_chemical_formula_sum   'Ce2 Ge4 Pt8'
_cell_volume   250.97726426
_cell_formula_units_Z   2
loop_
 _symmetry_equiv_pos_site_id
 _symmetry_equiv_pos_as_xyz
  1  'x, y, z'
loop_
 _atom_site_type_symbol
 _atom_site_label
 _atom_site_symmetry_multiplicity
 _atom_site_fract_x
 _atom_site_fract_y
 _atom_site_fract_z
 _atom_site_occupancy
  Ce  Ce0  1  0.49999998  0.49999999  0.50000001  1
  Ce  Ce1  1  0.17015398  0.82984599  0.82984601  1
  Pt  Pt2  1  0.82984598  0.17015400  0.17015400  1
  Ge  Ge3  1  0.37293897  0.91539599  0.33872602  1
  Pt  Pt4  1  0.62706098  0.08460400  0.66127399  1
  Pt  Pt5  1  0.37293898  0.33872599  0.91539600  1
  Pt  Pt6  1  0.62706097  0.66127399  0.08460401  1
  Pt  Pt7  1  0.16414799  0.20922100  0.46248300  1
  Pt  Pt8  1  0.83585196  0.79077899  0.53751701  1
  Ge  Ge9  1  0.16414799  0.46248299  0.20922101  1
  Ge  Ge10  1  0.83585197  0.53751699  0.79077900  1
  Pt  Pt11  1  0.49999999  0.00000000  -0.00000000  1
  Ge  Ge12  1  -0.00000000  0.21200300  0.78799700  1
  Pt  Pt13  1  -0.00000002  0.78799699  0.21200302  1
