# generated using pymatgen
data_KTlO2
_symmetry_space_group_name_H-M   'P 1'
_cell_length_a   3.41877437
_cell_length_b   3.41877437
_cell_length_c   6.81955051
_cell_angle_alpha   75.48344421
_cell_angle_beta   75.48344421
_cell_angle_gamma   59.99999237
_symmetry_Int_Tables_number   1
_chemical_formula_structural   KTlO2
_chemical_formula_sum   'K1 Tl1 O2'
_cell_volume   66.07369518
_cell_formula_units_Z   1
loop_
 _symmetry_equiv_pos_site_id
 _symmetry_equiv_pos_as_xyz
  1  'x, y, z'
loop_
 _atom_site_type_symbol
 _atom_site_label
 _atom_site_symmetry_multiplicity
 _atom_site_fract_x
 _atom_site_fract_y
 _atom_site_fract_z
 _atom_site_occupancy
  K  K0  1  0.00000000  0.00000000  0.00000000  1
  Tl  Tl1  1  0.50000002  0.50000001  0.50000000  1
  O  O2  1  0.77618003  0.77618001  0.67146001  1
  O  O3  1  0.22382001  0.22382000  0.32854000  1
