# generated using pymatgen
data_LaFeAg2Te5
_symmetry_space_group_name_H-M   'P 1'
_cell_length_a   8.02847767
_cell_length_b   8.92655182
_cell_length_c   8.02847767
_cell_angle_alpha   116.72421265
_cell_angle_beta   90.00000000
_cell_angle_gamma   116.72421265
_symmetry_Int_Tables_number   1
_chemical_formula_structural   LaFeAg2Te5
_chemical_formula_sum   'La2 Fe2 Ag4 Te10'
_cell_volume   444.02543000
_cell_formula_units_Z   2
loop_
 _symmetry_equiv_pos_site_id
 _symmetry_equiv_pos_as_xyz
  1  'x, y, z'
loop_
 _atom_site_type_symbol
 _atom_site_label
 _atom_site_symmetry_multiplicity
 _atom_site_fract_x
 _atom_site_fract_y
 _atom_site_fract_z
 _atom_site_occupancy
  La  La0  1  0.75000003  0.50000000  0.75000003  1
  La  La1  1  0.25000001  0.50000000  0.25000001  1
  Ag  Ag2  1  0.66288703  0.00000000  0.16288701  1
  Ag  Ag3  1  0.83711303  0.00000000  0.66288703  1
  Ag  Ag4  1  0.16288701  0.00000000  0.33711301  1
  Ag  Ag5  1  0.33711301  0.00000000  0.83711303  1
  Fe  Fe6  1  0.25000001  0.50000000  0.75000003  1
  Fe  Fe7  1  0.75000003  0.50000000  0.25000001  1
  Te  Te8  1  0.51530902  0.72960799  0.71429903  1
  Te  Te9  1  0.78570203  0.27039400  0.98469204  1
  Te  Te10  1  0.48469102  0.27039200  0.28570101  1
  Te  Te11  1  0.98469104  0.27039300  0.48469102  1
  Te  Te12  1  0.28570201  0.27039300  0.78570203  1
  Te  Te13  1  0.01530900  0.72960699  0.51530902  1
  Te  Te14  1  0.71429803  0.72960699  0.21429801  1
  Te  Te15  1  0.21429801  0.72960599  0.01530800  1
  Te  Te16  1  0.50000002  0.00000000  0.50000002  1
  Te  Te17  1  0.00000000  0.00000000  0.00000000  1
