# generated using pymatgen
data_Sr(GeAu)2
_symmetry_space_group_name_H-M   'P 1'
_cell_length_a   4.45687199
_cell_length_b   4.45687199
_cell_length_c   6.17068148
_cell_angle_alpha   111.16978455
_cell_angle_beta   111.16978455
_cell_angle_gamma   90.00000000
_symmetry_Int_Tables_number   1
_chemical_formula_structural   Sr(GeAu)2
_chemical_formula_sum   'Sr1 Ge2 Au2'
_cell_volume   105.38152484
_cell_formula_units_Z   1
loop_
 _symmetry_equiv_pos_site_id
 _symmetry_equiv_pos_as_xyz
  1  'x, y, z'
loop_
 _atom_site_type_symbol
 _atom_site_label
 _atom_site_symmetry_multiplicity
 _atom_site_fract_x
 _atom_site_fract_y
 _atom_site_fract_z
 _atom_site_occupancy
  Sr  Sr0  1  0.00000000  0.00000000  0.00000000  1
  Au  Au1  1  0.24999997  0.74999999  0.49999995  1
  Au  Au2  1  0.74999998  0.25000000  0.49999996  1
  Ge  Ge3  1  0.62072397  0.62072399  0.24144795  1
  Ge  Ge4  1  0.37927598  0.37927599  0.75855196  1
