# generated using pymatgen
data_LuCr6(FeB)6
_symmetry_space_group_name_H-M   'P 1'
_cell_length_a   5.95420218
_cell_length_b   5.95420218
_cell_length_c   5.95420265
_cell_angle_alpha   104.00133514
_cell_angle_beta   104.00133514
_cell_angle_gamma   104.00133514
_symmetry_Int_Tables_number   1
_chemical_formula_structural   LuCr6(FeB)6
_chemical_formula_sum   'Lu1 Cr6 Fe6 B6'
_cell_volume   188.34084267
_cell_formula_units_Z   1
loop_
 _symmetry_equiv_pos_site_id
 _symmetry_equiv_pos_as_xyz
  1  'x, y, z'
loop_
 _atom_site_type_symbol
 _atom_site_label
 _atom_site_symmetry_multiplicity
 _atom_site_fract_x
 _atom_site_fract_y
 _atom_site_fract_z
 _atom_site_occupancy
  Lu  Lu0  1  0.00000000  0.00000000  0.00000000  1
  Fe  Fe1  1  0.13248699  0.86751298  0.50000007  1
  Fe  Fe2  1  0.86751298  0.49999999  0.13248708  1
  Fe  Fe3  1  0.49999999  0.13248700  0.86751305  1
  Fe  Fe4  1  0.13248699  0.49999999  0.86751305  1
  Fe  Fe5  1  0.49999998  0.86751298  0.13248708  1
  Fe  Fe6  1  0.86751298  0.13248700  0.50000007  1
  Cr  Cr7  1  0.18615499  0.45534599  0.45534605  1
  Cr  Cr8  1  0.45534599  0.45534599  0.18615506  1
  Cr  Cr9  1  0.45534599  0.18615500  0.45534605  1
  Cr  Cr10  1  0.81384498  0.54465399  0.54465409  1
  Cr  Cr11  1  0.54465398  0.54465399  0.81384508  1
  Cr  Cr12  1  0.54465398  0.81384498  0.54465409  1
  B  B13  1  0.67773099  0.23196700  0.23196706  1
  B  B14  1  0.23196699  0.23196700  0.67773104  1
  B  B15  1  0.23196699  0.67773099  0.23196706  1
  B  B16  1  0.32226898  0.76803298  0.76803308  1
  B  B17  1  0.76803298  0.76803298  0.32226910  1
  B  B18  1  0.76803298  0.32226899  0.76803308  1
