# generated using pymatgen
data_FeO2
_symmetry_space_group_name_H-M   'P 1'
_cell_length_a   4.74571419
_cell_length_b   5.10936785
_cell_length_c   5.84978151
_cell_angle_alpha   86.87442780
_cell_angle_beta   89.99921417
_cell_angle_gamma   89.99865723
_symmetry_Int_Tables_number   1
_chemical_formula_structural   FeO2
_chemical_formula_sum   'Fe4 O8'
_cell_volume   141.63215815
_cell_formula_units_Z   4
loop_
 _symmetry_equiv_pos_site_id
 _symmetry_equiv_pos_as_xyz
  1  'x, y, z'
loop_
 _atom_site_type_symbol
 _atom_site_label
 _atom_site_symmetry_multiplicity
 _atom_site_fract_x
 _atom_site_fract_y
 _atom_site_fract_z
 _atom_site_occupancy
  Fe  Fe0  1  0.47720998  0.22727600  0.33969604  1
  Fe  Fe1  1  0.02279400  0.22727100  0.83968304  1
  Fe  Fe2  1  0.97720697  0.77272802  0.16031508  1
  Fe  Fe3  1  0.52278999  0.77272402  0.66030407  1
  O  O4  1  0.21207099  0.07504300  0.10278201  1
  O  O5  1  0.28793299  0.07504200  0.60278503  1
  O  O6  1  0.71206698  0.92495902  0.39721608  1
  O  O7  1  0.78792798  0.92495702  0.89721810  1
  O  O8  1  0.75323397  0.43406301  0.13155905  1
  O  O9  1  0.74677197  0.43405501  0.63156307  1
  O  O10  1  0.25322699  0.56594601  0.36843704  1
  O  O11  1  0.24676500  0.56593701  0.86844206  1
