# generated using pymatgen
data_Ta2NiGeTe3S
_symmetry_space_group_name_H-M   'P 1'
_cell_length_a   3.78810191
_cell_length_b   5.48496723
_cell_length_c   10.15612698
_cell_angle_alpha   97.30281830
_cell_angle_beta   90.00000000
_cell_angle_gamma   90.00000000
_symmetry_Int_Tables_number   1
_chemical_formula_structural   Ta2NiGeTe3S
_chemical_formula_sum   'Ta2 Ni1 Ge1 Te3 S1'
_cell_volume   209.30834008
_cell_formula_units_Z   1
loop_
 _symmetry_equiv_pos_site_id
 _symmetry_equiv_pos_as_xyz
  1  'x, y, z'
loop_
 _atom_site_type_symbol
 _atom_site_label
 _atom_site_symmetry_multiplicity
 _atom_site_fract_x
 _atom_site_fract_y
 _atom_site_fract_z
 _atom_site_occupancy
  Ta  Ta0  1  0.25000001  0.28495599  0.64797397  1
  Ta  Ta1  1  0.75000002  0.71504397  0.35202598  1
  Ge  Ge2  1  0.75000002  0.10709400  0.81095097  1
  Te  Te3  1  0.25000001  0.89290596  0.18904898  1
  Ni  Ni4  1  0.75000002  0.54050798  0.81033496  1
  S  S5  1  0.25000001  0.45949198  0.18966499  1
  Te  Te6  1  0.75000002  0.23781199  0.44883898  1
  Te  Te7  1  0.25000001  0.76218797  0.55116097  1
