# generated using pymatgen
data_K3NaZr2TiF12
_symmetry_space_group_name_H-M   'P 1'
_cell_length_a   5.83135843
_cell_length_b   5.83135843
_cell_length_c   9.93218994
_cell_angle_alpha   72.92888641
_cell_angle_beta   72.92888641
_cell_angle_gamma   59.99999619
_symmetry_Int_Tables_number   1
_chemical_formula_structural   K3NaZr2TiF12
_chemical_formula_sum   'K3 Na1 Zr2 Ti1 F12'
_cell_volume   275.17613857
_cell_formula_units_Z   1
loop_
 _symmetry_equiv_pos_site_id
 _symmetry_equiv_pos_as_xyz
  1  'x, y, z'
loop_
 _atom_site_type_symbol
 _atom_site_label
 _atom_site_symmetry_multiplicity
 _atom_site_fract_x
 _atom_site_fract_y
 _atom_site_fract_z
 _atom_site_occupancy
  Na  Na0  1  0.71026994  0.71026998  0.86919006  1
  K  K1  1  0.28852797  0.28852799  0.13441602  1
  K  K2  1  0.13114399  0.13114400  0.60656801  1
  K  K3  1  0.85379592  0.85379598  0.43861207  1
  Ti  Ti4  1  0.57474995  0.57474998  0.27575005  1
  Zr  Zr5  1  0.42392396  0.42392399  0.72822804  1
  Zr  Zr6  1  0.99870491  0.99870497  0.00388508  1
  F  F7  1  0.71245796  0.20887699  0.86978804  1
  F  F8  1  0.20887698  0.20887699  0.86978802  1
  F  F9  1  0.20887696  0.71245798  0.86978804  1
  F  F10  1  0.28894795  0.79558198  0.11988805  1
  F  F11  1  0.79558193  0.79558198  0.11988807  1
  F  F12  1  0.79558195  0.28894799  0.11988804  1
  F  F13  1  0.87642994  0.37800399  0.36756205  1
  F  F14  1  0.37800397  0.37800399  0.36756203  1
  F  F15  1  0.37800394  0.87642998  0.36756205  1
  F  F16  1  0.12529897  0.62541098  0.62387903  1
  F  F17  1  0.62541094  0.62541098  0.62387905  1
  F  F18  1  0.62541096  0.12529900  0.62387903  1
