# generated using pymatgen
data_NaTl(GaS2)2
_symmetry_space_group_name_H-M   'P 1'
_cell_length_a   3.50569010
_cell_length_b   3.50569034
_cell_length_c   13.69877338
_cell_angle_alpha   90.00000000
_cell_angle_beta   90.00000000
_cell_angle_gamma   120.00000000
_symmetry_Int_Tables_number   1
_chemical_formula_structural   NaTl(GaS2)2
_chemical_formula_sum   'Na1 Tl1 Ga2 S4'
_cell_volume   145.80062524
_cell_formula_units_Z   1
loop_
 _symmetry_equiv_pos_site_id
 _symmetry_equiv_pos_as_xyz
  1  'x, y, z'
loop_
 _atom_site_type_symbol
 _atom_site_label
 _atom_site_symmetry_multiplicity
 _atom_site_fract_x
 _atom_site_fract_y
 _atom_site_fract_z
 _atom_site_occupancy
  Na  Na0  1  0.66666667  0.33333335  0.24999999  1
  Tl  Tl1  1  0.33333337  0.66666669  0.74999998  1
  Ga  Ga2  1  0.00000000  0.00000000  0.00000000  1
  Ga  Ga3  1  0.00000000  0.00000000  0.49999999  1
  S  S4  1  0.66666667  0.33333335  0.58097398  1
  S  S5  1  0.66666667  0.33333335  0.91902597  1
  S  S6  1  0.33333337  0.66666669  0.41902599  1
  S  S7  1  0.33333337  0.66666669  0.08097400  1
