# generated using pymatgen
data_Li3Co5O6
_symmetry_space_group_name_H-M   'P 1'
_cell_length_a   4.77966499
_cell_length_b   5.27823019
_cell_length_c   6.59584713
_cell_angle_alpha   67.80509186
_cell_angle_beta   80.01808929
_cell_angle_gamma   83.17015076
_symmetry_Int_Tables_number   1
_chemical_formula_structural   Li3Co5O6
_chemical_formula_sum   'Li3 Co5 O6'
_cell_volume   151.47847253
_cell_formula_units_Z   1
loop_
 _symmetry_equiv_pos_site_id
 _symmetry_equiv_pos_as_xyz
  1  'x, y, z'
loop_
 _atom_site_type_symbol
 _atom_site_label
 _atom_site_symmetry_multiplicity
 _atom_site_fract_x
 _atom_site_fract_y
 _atom_site_fract_z
 _atom_site_occupancy
  Li  Li0  1  0.90164305  0.87865096  0.68934899  1
  Co  Co1  1  0.74367402  0.44933198  0.97303998  1
  Co  Co2  1  0.24163403  0.57339897  0.99742598  1
  Li  Li3  1  0.56935601  0.18999499  0.38304799  1
  Li  Li4  1  0.11409801  0.11610399  0.30477099  1
  Co  Co5  1  0.67650004  0.84039796  0.16514400  1
  Co  Co6  1  0.99843403  0.50193098  0.50081299  1
  Co  Co7  1  0.32531301  0.16123199  0.83777898  1
  O  O8  1  0.55301304  0.82042496  0.91291898  1
  O  O9  1  0.82612905  0.86124796  0.40916000  1
  O  O10  1  0.08424003  0.49835398  0.77128598  1
  O  O11  1  0.88523603  0.47994898  0.24268000  1
  O  O12  1  0.19703001  0.15568799  0.57623099  1
  O  O13  1  0.45381301  0.19283899  0.09612700  1
