# generated using pymatgen
data_NaCa3(RuO3)4
_symmetry_space_group_name_H-M   'P 1'
_cell_length_a   5.37317085
_cell_length_b   5.61965179
_cell_length_c   7.70335388
_cell_angle_alpha   90.00000000
_cell_angle_beta   90.00000000
_cell_angle_gamma   90.00000000
_symmetry_Int_Tables_number   1
_chemical_formula_structural   NaCa3(RuO3)4
_chemical_formula_sum   'Na1 Ca3 Ru4 O12'
_cell_volume   232.60546066
_cell_formula_units_Z   1
loop_
 _symmetry_equiv_pos_site_id
 _symmetry_equiv_pos_as_xyz
  1  'x, y, z'
loop_
 _atom_site_type_symbol
 _atom_site_label
 _atom_site_symmetry_multiplicity
 _atom_site_fract_x
 _atom_site_fract_y
 _atom_site_fract_z
 _atom_site_occupancy
  Na  Na0  1  0.01691700  0.93692403  0.75000001  1
  Ca  Ca1  1  0.51691701  0.56307602  0.25000000  1
  Ca  Ca2  1  0.48308301  0.43692402  0.75000001  1
  Ca  Ca3  1  0.98308303  0.06307600  0.25000000  1
  Ru  Ru4  1  0.00000000  0.50000002  0.50000001  1
  Ru  Ru5  1  0.50000001  0.00000000  0.50000001  1
  Ru  Ru6  1  0.50000001  0.00000000  -0.00000000  1
  Ru  Ru7  1  0.00000000  0.50000002  -0.00000000  1
  O  O8  1  0.69872202  0.30102401  0.44709101  1
  O  O9  1  0.19872201  0.19897601  0.55290901  1
  O  O10  1  0.80127802  0.80102503  0.05290900  1
  O  O11  1  0.30127801  0.69897503  0.94709101  1
  O  O12  1  0.30127801  0.69897503  0.55290901  1
  O  O13  1  0.80127802  0.80102503  0.44709101  1
  O  O14  1  0.19872201  0.19897601  0.94709101  1
  O  O15  1  0.69872202  0.30102401  0.05290900  1
  O  O16  1  0.10196800  0.46766802  0.25000000  1
  O  O17  1  0.60196802  0.03233200  0.75000001  1
  O  O18  1  0.39803201  0.96766804  0.25000000  1
  O  O19  1  0.89803202  0.53233202  0.75000001  1
