# generated using pymatgen
data_Zr(TiAs)4
_symmetry_space_group_name_H-M   'P 1'
_cell_length_a   3.72166491
_cell_length_b   6.98940992
_cell_length_c   6.98941040
_cell_angle_alpha   120.00000000
_cell_angle_beta   90.00000000
_cell_angle_gamma   90.00000000
_symmetry_Int_Tables_number   1
_chemical_formula_structural   Zr(TiAs)4
_chemical_formula_sum   'Zr1 Ti4 As4'
_cell_volume   157.45227970
_cell_formula_units_Z   1
loop_
 _symmetry_equiv_pos_site_id
 _symmetry_equiv_pos_as_xyz
  1  'x, y, z'
loop_
 _atom_site_type_symbol
 _atom_site_label
 _atom_site_symmetry_multiplicity
 _atom_site_fract_x
 _atom_site_fract_y
 _atom_site_fract_z
 _atom_site_occupancy
  Zr  Zr0  1  0.50000001  1.00000003  0.41335703  1
  Ti  Ti1  1  0.50000001  0.41335701  1.00000000  1
  Ti  Ti2  1  0.50000001  0.58664302  0.58664301  1
  As  As3  1  1.00000003  1.00000003  0.75806302  1
  Ti  Ti4  1  0.00000000  0.75806302  1.00000001  1
  Ti  Ti5  1  0.00000000  0.24193701  0.24193701  1
  As  As6  1  0.00000000  0.66666668  0.33333335  1
  As  As7  1  0.00000000  0.33333334  0.66666667  1
  As  As8  1  0.50000001  0.00000000  -0.00000000  1
