# generated using pymatgen
data_Dy2Fe17
_symmetry_space_group_name_H-M   'P 1'
_cell_length_a   6.35841799
_cell_length_b   6.35841799
_cell_length_c   6.35841894
_cell_angle_alpha   82.80871582
_cell_angle_beta   82.80871582
_cell_angle_gamma   82.80871582
_symmetry_Int_Tables_number   1
_chemical_formula_structural   Dy2Fe17
_chemical_formula_sum   'Dy2 Fe17'
_cell_volume   251.46826287
_cell_formula_units_Z   1
loop_
 _symmetry_equiv_pos_site_id
 _symmetry_equiv_pos_as_xyz
  1  'x, y, z'
loop_
 _atom_site_type_symbol
 _atom_site_label
 _atom_site_symmetry_multiplicity
 _atom_site_fract_x
 _atom_site_fract_y
 _atom_site_fract_z
 _atom_site_occupancy
  Dy  Dy0  1  0.35244403  0.35244401  0.35244398  1
  Dy  Dy1  1  0.64755606  0.64755601  0.64755596  1
  Fe  Fe2  1  0.10547001  0.10547000  0.10546999  1
  Fe  Fe3  1  0.89453008  0.89453002  0.89452994  1
  Fe  Fe4  1  0.00000000  0.00000000  0.50000000  1
  Fe  Fe5  1  0.50000001  0.00000000  -0.00000001  1
  Fe  Fe6  1  0.00000003  0.50000001  -0.00000002  1
  Fe  Fe7  1  0.28917605  0.71082402  -0.00000003  1
  Fe  Fe8  1  0.00000002  0.28917601  0.71082399  1
  Fe  Fe9  1  0.71082402  0.00000000  0.28917598  1
  Fe  Fe10  1  0.00000004  0.71082402  0.28917597  1
  Fe  Fe11  1  0.28917601  0.00000000  0.71082399  1
  Fe  Fe12  1  0.71082404  0.28917601  -0.00000003  1
  Fe  Fe13  1  0.64968406  0.64968401  0.14924696  1
  Fe  Fe14  1  0.14924704  0.64968401  0.64968397  1
  Fe  Fe15  1  0.64968403  0.14924700  0.64968397  1
  Fe  Fe16  1  0.35031603  0.35031601  0.85075298  1
  Fe  Fe17  1  0.85075305  0.35031601  0.35031596  1
  Fe  Fe18  1  0.35031606  0.85075302  0.35031596  1
