# generated using pymatgen
data_Pm7Mg
_symmetry_space_group_name_H-M   'P 1'
_cell_length_a   5.74122477
_cell_length_b   7.15793180
_cell_length_c   7.15793180
_cell_angle_alpha   60.00000000
_cell_angle_beta   90.00000000
_cell_angle_gamma   90.00000000
_symmetry_Int_Tables_number   1
_chemical_formula_structural   Pm7Mg
_chemical_formula_sum   'Pm7 Mg1'
_cell_volume   254.74771321
_cell_formula_units_Z   1
loop_
 _symmetry_equiv_pos_site_id
 _symmetry_equiv_pos_as_xyz
  1  'x, y, z'
loop_
 _atom_site_type_symbol
 _atom_site_label
 _atom_site_symmetry_multiplicity
 _atom_site_fract_x
 _atom_site_fract_y
 _atom_site_fract_z
 _atom_site_occupancy
  Pm  Pm0  1  0.75000003  0.66556502  0.16721700  1
  Pm  Pm1  1  0.75000003  0.16721800  0.16721700  1
  Pm  Pm2  1  0.75000003  0.16721800  0.66556402  1
  Mg  Mg3  1  0.25000001  0.33443501  0.83278303  1
  Pm  Pm4  1  0.25000001  0.83278202  0.83278302  1
  Pm  Pm5  1  0.25000001  0.83278202  0.33443601  1
  Pm  Pm6  1  0.25000001  0.33333334  0.33333334  1
  Pm  Pm7  1  0.75000003  0.66666669  0.66666669  1
