# generated using pymatgen
data_In3S4
_symmetry_space_group_name_H-M   'P 1'
_cell_length_a   3.72371793
_cell_length_b   6.45370722
_cell_length_c   7.05640888
_cell_angle_alpha   116.95569611
_cell_angle_beta   105.29884338
_cell_angle_gamma   90.00000000
_symmetry_Int_Tables_number   1
_chemical_formula_structural   In3S4
_chemical_formula_sum   'In3 S4'
_cell_volume   144.38050733
_cell_formula_units_Z   1
loop_
 _symmetry_equiv_pos_site_id
 _symmetry_equiv_pos_as_xyz
  1  'x, y, z'
loop_
 _atom_site_type_symbol
 _atom_site_label
 _atom_site_symmetry_multiplicity
 _atom_site_fract_x
 _atom_site_fract_y
 _atom_site_fract_z
 _atom_site_occupancy
  In  In0  1  0.00000000  0.00000000  0.00000000  1
  In  In1  1  0.25915899  0.27360999  0.51831799  1
  In  In2  1  0.74084098  0.72638998  0.48168198  1
  S  S3  1  0.12835498  0.45699599  0.25670999  1
  S  S4  1  0.87164499  0.54300399  0.74328997  1
  S  S5  1  0.36282200  0.02230000  0.72564399  1
  S  S6  1  0.63717797  0.97769998  0.27435598  1
