# generated using pymatgen
data_V5O8
_symmetry_space_group_name_H-M   'P 1'
_cell_length_a   3.82395196
_cell_length_b   6.39998341
_cell_length_c   6.64911556
_cell_angle_alpha   106.29948425
_cell_angle_beta   106.71154022
_cell_angle_gamma   90.00000000
_symmetry_Int_Tables_number   1
_chemical_formula_structural   V5O8
_chemical_formula_sum   'V5 O8'
_cell_volume   149.01092234
_cell_formula_units_Z   1
loop_
 _symmetry_equiv_pos_site_id
 _symmetry_equiv_pos_as_xyz
  1  'x, y, z'
loop_
 _atom_site_type_symbol
 _atom_site_label
 _atom_site_symmetry_multiplicity
 _atom_site_fract_x
 _atom_site_fract_y
 _atom_site_fract_z
 _atom_site_occupancy
  V  V0  1  0.00000000  0.00000000  0.00000000  1
  V  V1  1  0.10166800  0.67559301  0.20333700  1
  V  V2  1  0.89833201  0.32440700  0.79666302  1
  V  V3  1  0.20736300  0.28963900  0.41472601  1
  V  V4  1  0.79263701  0.71036101  0.58527401  1
  O  O5  1  0.14830300  0.01029200  0.29660601  1
  O  O6  1  0.85169701  0.98970801  0.70339401  1
  O  O7  1  0.25773300  0.63975901  0.51546600  1
  O  O8  1  0.74226701  0.36024100  0.48453401  1
  O  O9  1  0.05339400  0.34367600  0.10678700  1
  O  O10  1  0.94660601  0.65632401  0.89321302  1
  O  O11  1  0.36598100  0.30694600  0.73196202  1
  O  O12  1  0.63401901  0.69305401  0.26803800  1
