# generated using pymatgen
data_Sm(SiNi)2
_symmetry_space_group_name_H-M   'P 1'
_cell_length_a   4.07415819
_cell_length_b   4.07415819
_cell_length_c   5.68035030
_cell_angle_alpha   111.01538086
_cell_angle_beta   111.01538086
_cell_angle_gamma   90.00000000
_symmetry_Int_Tables_number   1
_chemical_formula_structural   Sm(SiNi)2
_chemical_formula_sum   'Sm1 Si2 Ni2'
_cell_volume   81.26108069
_cell_formula_units_Z   1
loop_
 _symmetry_equiv_pos_site_id
 _symmetry_equiv_pos_as_xyz
  1  'x, y, z'
loop_
 _atom_site_type_symbol
 _atom_site_label
 _atom_site_symmetry_multiplicity
 _atom_site_fract_x
 _atom_site_fract_y
 _atom_site_fract_z
 _atom_site_occupancy
  Sm  Sm0  1  0.00000000  0.00000000  0.00000000  1
  Ni  Ni1  1  0.74999996  0.24999999  0.49999999  1
  Si  Si2  1  0.63191097  0.63191097  0.26382200  1
  Si  Si3  1  0.36808898  0.36808898  0.73617799  1
  Ni  Ni4  1  0.24999999  0.74999996  0.49999999  1
