# generated using pymatgen
data_Cu4SiHCl8O
_symmetry_space_group_name_H-M   'P 1'
_cell_length_a   5.96319914
_cell_length_b   5.96319914
_cell_length_c   7.03618813
_cell_angle_alpha   90.00000000
_cell_angle_beta   90.00000000
_cell_angle_gamma   90.00000000
_symmetry_Int_Tables_number   1
_chemical_formula_structural   Cu4SiHCl8O
_chemical_formula_sum   'Cu4 Si1 H1 Cl8 O1'
_cell_volume   250.20504825
_cell_formula_units_Z   1
loop_
 _symmetry_equiv_pos_site_id
 _symmetry_equiv_pos_as_xyz
  1  'x, y, z'
loop_
 _atom_site_type_symbol
 _atom_site_label
 _atom_site_symmetry_multiplicity
 _atom_site_fract_x
 _atom_site_fract_y
 _atom_site_fract_z
 _atom_site_occupancy
  Cu  Cu0  1  0.00000000  0.00000000  0.00000000  1
  Cu  Cu1  1  0.00000000  0.49999999  0.21628600  1
  Si  Si2  1  0.49999999  0.00000000  0.78371399  1
  Cl  Cl3  1  0.24176899  0.20432100  0.80064299  1
  Cl  Cl4  1  0.75823098  0.79567898  0.80064299  1
  Cl  Cl5  1  0.20432100  0.75823098  0.19935700  1
  Cl  Cl6  1  0.79567898  0.24176899  0.19935700  1
  H  H7  1  0.00000000  0.49999999  0.49113199  1
  O  O8  1  0.49999999  0.00000000  0.50886799  1
  Cu  Cu9  1  0.00000000  0.49999999  0.93968298  1
  Cu  Cu10  1  0.49999999  0.00000000  0.06031700  1
  Cl  Cl11  1  0.20432100  0.24176899  0.19935700  1
  Cl  Cl12  1  0.79567898  0.75823098  0.19935700  1
  Cl  Cl13  1  0.24176899  0.79567898  0.80064299  1
  Cl  Cl14  1  0.75823098  0.20432100  0.80064299  1
