# generated using pymatgen
data_Mg3Sb2
_symmetry_space_group_name_H-M   'P 1'
_cell_length_a   3.52825809
_cell_length_b   7.92686176
_cell_length_c   7.92686176
_cell_angle_alpha   90.00000000
_cell_angle_beta   90.00000000
_cell_angle_gamma   90.00000000
_symmetry_Int_Tables_number   1
_chemical_formula_structural   Mg3Sb2
_chemical_formula_sum   'Mg6 Sb4'
_cell_volume   221.69858160
_cell_formula_units_Z   2
loop_
 _symmetry_equiv_pos_site_id
 _symmetry_equiv_pos_as_xyz
  1  'x, y, z'
loop_
 _atom_site_type_symbol
 _atom_site_label
 _atom_site_symmetry_multiplicity
 _atom_site_fract_x
 _atom_site_fract_y
 _atom_site_fract_z
 _atom_site_occupancy
  Mg  Mg0  1  0.49999999  0.33066001  0.83066002  1
  Mg  Mg1  1  0.49999999  0.66934002  0.16934001  1
  Mg  Mg2  1  0.49999999  0.16934001  0.33066001  1
  Mg  Mg3  1  0.49999999  0.83066002  0.66934002  1
  Sb  Sb4  1  0.00000000  0.87409503  0.37409501  1
  Sb  Sb5  1  0.00000000  0.62590502  0.87409503  1
  Sb  Sb6  1  0.00000000  0.37409501  0.12590500  1
  Sb  Sb7  1  0.00000000  0.12590500  0.62590502  1
  Mg  Mg8  1  0.00000000  0.50000001  0.50000001  1
  Mg  Mg9  1  0.00000000  0.00000000  0.00000000  1
