# generated using pymatgen
data_RbGe(TeBr)8
_symmetry_space_group_name_H-M   'P 1'
_cell_length_a   8.78250408
_cell_length_b   8.78250408
_cell_length_c   10.17893696
_cell_angle_alpha   115.55680847
_cell_angle_beta   115.55680847
_cell_angle_gamma   90.00000000
_symmetry_Int_Tables_number   1
_chemical_formula_structural   RbGe(TeBr)8
_chemical_formula_sum   'Rb1 Ge1 Te8 Br8'
_cell_volume   622.07424303
_cell_formula_units_Z   1
loop_
 _symmetry_equiv_pos_site_id
 _symmetry_equiv_pos_as_xyz
  1  'x, y, z'
loop_
 _atom_site_type_symbol
 _atom_site_label
 _atom_site_symmetry_multiplicity
 _atom_site_fract_x
 _atom_site_fract_y
 _atom_site_fract_z
 _atom_site_occupancy
  Rb  Rb0  1  0.50000002  0.50000001  1.00000001  1
  Te  Te1  1  0.00000000  0.00000000  0.00000000  1
  Te  Te2  1  0.50771403  0.68855201  0.69626602  1
  Te  Te3  1  0.18855200  0.00771400  0.69626599  1
  Te  Te4  1  0.00771402  0.50771401  0.69626600  1
  Te  Te5  1  0.68855201  0.18855200  0.69626601  1
  Te  Te6  1  0.49228601  0.31144800  0.30373402  1
  Te  Te7  1  0.81144804  0.99228601  0.30373406  1
  Br  Br8  1  0.99228602  0.49228601  0.30373404  1
  Br  Br9  1  0.31144803  0.81144801  0.30373403  1
  Br  Br10  1  0.25000001  0.25000000  0.50000000  1
  Br  Br11  1  0.75000003  0.75000001  0.50000004  1
  Br  Br12  1  0.87275603  0.62724401  1.00000002  1
  Br  Br13  1  0.12724401  0.37275500  0.99999899  1
  Br  Br14  1  0.37275603  0.87275601  0.00000005  1
  Br  Br15  1  0.62724401  0.12724400  0.00000002  1
  Te  Te16  1  0.25000003  0.75000001  0.50000003  1
  Ge  Ge17  1  0.75000001  0.25000000  0.50000002  1
