# generated using pymatgen
data_CaMnO3
_symmetry_space_group_name_H-M   'P 1'
_cell_length_a   5.47053003
_cell_length_b   5.53820181
_cell_length_c   7.68237448
_cell_angle_alpha   90.00066376
_cell_angle_beta   89.97108459
_cell_angle_gamma   89.99865723
_symmetry_Int_Tables_number   1
_chemical_formula_structural   CaMnO3
_chemical_formula_sum   'Ca4 Mn4 O12'
_cell_volume   232.75209640
_cell_formula_units_Z   4
loop_
 _symmetry_equiv_pos_site_id
 _symmetry_equiv_pos_as_xyz
  1  'x, y, z'
loop_
 _atom_site_type_symbol
 _atom_site_label
 _atom_site_symmetry_multiplicity
 _atom_site_fract_x
 _atom_site_fract_y
 _atom_site_fract_z
 _atom_site_occupancy
  Ca  Ca0  1  0.48961399  0.45762002  0.74943099  1
  Ca  Ca1  1  0.98962098  0.04237100  0.24939998  1
  Ca  Ca2  1  0.00782300  0.96766703  0.75029799  1
  Ca  Ca3  1  0.50782299  0.53233902  0.25029699  1
  Mn  Mn4  1  0.00024300  0.49961402  0.99951299  1
  Mn  Mn5  1  0.00042000  0.50021302  0.50079899  1
  Mn  Mn6  1  0.50024799  0.00040000  0.49950999  1
  Mn  Mn7  1  0.50040298  0.99978503  0.00079699  1
  O  O8  1  0.07209100  0.47920202  0.24475600  1
  O  O9  1  0.57212899  0.02083400  0.74476599  1
  O  O10  1  0.41912299  0.98251103  0.25581899  1
  O  O11  1  0.91913998  0.51743502  0.75582998  1
  O  O12  1  0.21275399  0.21828701  0.96145199  1
  O  O13  1  0.22135399  0.21382201  0.53839499  1
  O  O14  1  0.71277398  0.28170801  0.46146399  1
  O  O15  1  0.72132498  0.28617801  0.03840199  1
  O  O16  1  0.28290299  0.70822002  0.95811699  1
  O  O17  1  0.29365599  0.71474602  0.54140799  1
  O  O18  1  0.78289498  0.79178203  0.45812998  1
  O  O19  1  0.79365898  0.78526403  0.04141299  1
