# generated using pymatgen
data_Mn3NiP4
_symmetry_space_group_name_H-M   'P 1'
_cell_length_a   4.73703003
_cell_length_b   4.73703003
_cell_length_c   5.79715347
_cell_angle_alpha   114.11473083
_cell_angle_beta   114.11473083
_cell_angle_gamma   90.00000000
_symmetry_Int_Tables_number   1
_chemical_formula_structural   Mn3NiP4
_chemical_formula_sum   'Mn3 Ni1 P4'
_cell_volume   106.17268053
_cell_formula_units_Z   1
loop_
 _symmetry_equiv_pos_site_id
 _symmetry_equiv_pos_as_xyz
  1  'x, y, z'
loop_
 _atom_site_type_symbol
 _atom_site_label
 _atom_site_symmetry_multiplicity
 _atom_site_fract_x
 _atom_site_fract_y
 _atom_site_fract_z
 _atom_site_occupancy
  Ni  Ni0  1  0.00000000  0.00000000  0.00000000  1
  Mn  Mn1  1  0.74999998  0.24999999  0.49999997  1
  Mn  Mn2  1  0.49999997  0.49999999  -0.00000003  1
  Mn  Mn3  1  0.24999997  0.74999998  0.49999997  1
  P  P4  1  0.75303496  0.75303498  0.50606995  1
  P  P5  1  0.24696499  0.24696499  0.49392999  1
  P  P6  1  0.99696496  0.49696499  0.99392996  1
  P  P7  1  0.50303499  0.00303500  0.00606999  1
