# generated using pymatgen
data_CeMg5
_symmetry_space_group_name_H-M   'P 1'
_cell_length_a   4.31177378
_cell_length_b   4.31177378
_cell_length_c   8.69967365
_cell_angle_alpha   90.00000000
_cell_angle_beta   90.00000000
_cell_angle_gamma   90.00000000
_symmetry_Int_Tables_number   1
_chemical_formula_structural   CeMg5
_chemical_formula_sum   'Ce1 Mg5'
_cell_volume   161.73905275
_cell_formula_units_Z   1
loop_
 _symmetry_equiv_pos_site_id
 _symmetry_equiv_pos_as_xyz
  1  'x, y, z'
loop_
 _atom_site_type_symbol
 _atom_site_label
 _atom_site_symmetry_multiplicity
 _atom_site_fract_x
 _atom_site_fract_y
 _atom_site_fract_z
 _atom_site_occupancy
  Mg  Mg0  1  0.00000000  0.50000003  0.28150501  1
  Mg  Mg1  1  0.50000003  0.00000000  0.71849503  1
  Mg  Mg2  1  0.50000003  0.50000003  -0.00000000  1
  Mg  Mg3  1  0.00000000  0.00000000  0.00000000  1
  Mg  Mg4  1  0.00000000  0.50000003  0.64318103  1
  Ce  Ce5  1  0.50000003  0.00000000  0.35681901  1
