# generated using pymatgen
data_LiZr3F8
_symmetry_space_group_name_H-M   'P 1'
_cell_length_a   5.46355677
_cell_length_b   5.46355677
_cell_length_c   5.97970390
_cell_angle_alpha   109.19165039
_cell_angle_beta   109.19165039
_cell_angle_gamma   106.28594971
_symmetry_Int_Tables_number   1
_chemical_formula_structural   LiZr3F8
_chemical_formula_sum   'Li1 Zr3 F8'
_cell_volume   143.31246115
_cell_formula_units_Z   1
loop_
 _symmetry_equiv_pos_site_id
 _symmetry_equiv_pos_as_xyz
  1  'x, y, z'
loop_
 _atom_site_type_symbol
 _atom_site_label
 _atom_site_symmetry_multiplicity
 _atom_site_fract_x
 _atom_site_fract_y
 _atom_site_fract_z
 _atom_site_occupancy
  F  F0  1  0.93975702  0.61366702  0.73031802  1
  F  F1  1  0.45943900  0.63334902  0.76968201  1
  F  F2  1  0.86366701  0.68975702  0.23031802  1
  F  F3  1  0.88334903  0.20943901  0.26968202  1
  Zr  Zr4  1  0.05341199  0.43445501  0.03547200  1
  Li  Li5  1  0.68445500  0.80341202  0.53547201  1
  Zr  Zr6  1  0.39898301  0.01794000  0.96452800  1
  Zr  Zr7  1  0.26794001  0.14898300  0.46452800  1
  F  F8  1  0.09735100  0.12911800  0.72677100  1
  F  F9  1  0.37911799  0.84735102  0.22677001  1
  F  F10  1  0.62058002  0.15234800  0.77322901  1
  F  F11  1  0.40234800  0.37058001  0.27323001  1
