# generated using pymatgen
data_Be7Mo2Pd3
_symmetry_space_group_name_H-M   'P 1'
_cell_length_a   4.36268616
_cell_length_b   4.36268616
_cell_length_c   7.05768299
_cell_angle_alpha   90.00000000
_cell_angle_beta   90.00000000
_cell_angle_gamma   120.00000000
_symmetry_Int_Tables_number   1
_chemical_formula_structural   Be7Mo2Pd3
_chemical_formula_sum   'Be7 Mo2 Pd3'
_cell_volume   116.33240932
_cell_formula_units_Z   1
loop_
 _symmetry_equiv_pos_site_id
 _symmetry_equiv_pos_as_xyz
  1  'x, y, z'
loop_
 _atom_site_type_symbol
 _atom_site_label
 _atom_site_symmetry_multiplicity
 _atom_site_fract_x
 _atom_site_fract_y
 _atom_site_fract_z
 _atom_site_occupancy
  Be  Be0  1  0.00000000  0.00000000  0.50000000  1
  Mo  Mo1  1  0.00000000  0.00000000  0.00000000  1
  Be  Be2  1  0.16908700  0.33817400  0.75000000  1
  Be  Be3  1  0.16908700  0.83091299  0.75000000  1
  Be  Be4  1  0.66182599  0.83091299  0.75000000  1
  Be  Be5  1  0.83091298  0.66182599  0.25000000  1
  Be  Be6  1  0.83091297  0.16908700  0.25000000  1
  Be  Be7  1  0.33817399  0.16908700  0.25000000  1
  Pd  Pd8  1  0.66666665  0.33333333  0.55991200  1
  Pd  Pd9  1  0.33333333  0.66666666  0.44008800  1
  Mo  Mo10  1  0.33333333  0.66666666  0.05991200  1
  Pd  Pd11  1  0.66666665  0.33333333  0.94008800  1
