# generated using pymatgen
data_K5Sb6Au
_symmetry_space_group_name_H-M   'P 1'
_cell_length_a   6.82426405
_cell_length_b   6.86873817
_cell_length_c   9.13689995
_cell_angle_alpha   112.07865143
_cell_angle_beta   111.92825317
_cell_angle_gamma   90.00000000
_symmetry_Int_Tables_number   1
_chemical_formula_structural   K5Sb6Au
_chemical_formula_sum   'K5 Sb6 Au1'
_cell_volume   363.22244508
_cell_formula_units_Z   1
loop_
 _symmetry_equiv_pos_site_id
 _symmetry_equiv_pos_as_xyz
  1  'x, y, z'
loop_
 _atom_site_type_symbol
 _atom_site_label
 _atom_site_symmetry_multiplicity
 _atom_site_fract_x
 _atom_site_fract_y
 _atom_site_fract_z
 _atom_site_occupancy
  K  K0  1  0.06344100  0.32407499  0.64814999  1
  K  K1  1  0.41529100  0.17592499  0.35185000  1
  K  K2  1  0.58470899  0.82407497  0.64814999  1
  K  K3  1  0.93655899  0.67592498  0.35184999  1
  Sb  Sb4  1  -0.00000000  0.24999999  -0.00000000  1
  K  K5  1  -0.00000001  0.74999998  -0.00000001  1
  Sb  Sb6  1  0.49999999  0.74999998  -0.00000001  1
  Sb  Sb7  1  0.49999999  0.24999999  -0.00000000  1
  Au  Au8  1  0.38424399  0.60175598  0.20351199  1
  Sb  Sb9  1  0.61575599  0.39824399  0.79648799  1
  Sb  Sb10  1  0.18073199  0.89824397  0.79648799  1
  Sb  Sb11  1  0.81926799  0.10175600  0.20351200  1
