# generated using pymatgen
data_CeCd2Au
_symmetry_space_group_name_H-M   'P 1'
_cell_length_a   4.42192984
_cell_length_b   5.49536657
_cell_length_c   8.21318722
_cell_angle_alpha   90.00000000
_cell_angle_beta   90.00000000
_cell_angle_gamma   113.72408295
_symmetry_Int_Tables_number   1
_chemical_formula_structural   CeCd2Au
_chemical_formula_sum   'Ce2 Cd4 Au2'
_cell_volume   182.71555972
_cell_formula_units_Z   2
loop_
 _symmetry_equiv_pos_site_id
 _symmetry_equiv_pos_as_xyz
  1  'x, y, z'
loop_
 _atom_site_type_symbol
 _atom_site_label
 _atom_site_symmetry_multiplicity
 _atom_site_fract_x
 _atom_site_fract_y
 _atom_site_fract_z
 _atom_site_occupancy
  Ce  Ce0  1  0.93416010  0.86832005  0.74999998  1
  Ce  Ce1  1  0.06584001  0.13168001  0.24999999  1
  Cd  Cd2  1  0.64336805  0.28673602  0.94973797  1
  Cd  Cd3  1  0.35663207  0.71326404  0.05026200  1
  Cd  Cd4  1  0.35663207  0.71326404  0.44973799  1
  Cd  Cd5  1  0.64336805  0.28673602  0.55026199  1
  Au  Au6  1  0.21385304  0.42770602  0.74999998  1
  Au  Au7  1  0.78614707  0.57229403  0.24999999  1
