# generated using pymatgen
data_Ba2LaCl11O
_symmetry_space_group_name_H-M   'P 1'
_cell_length_a   3.93349791
_cell_length_b   11.12260246
_cell_length_c   11.79845715
_cell_angle_alpha   68.59096527
_cell_angle_beta   80.40425873
_cell_angle_gamma   79.81514740
_symmetry_Int_Tables_number   1
_chemical_formula_structural   Ba2LaCl11O
_chemical_formula_sum   'Ba2 La1 Cl11 O1'
_cell_volume   470.05213446
_cell_formula_units_Z   1
loop_
 _symmetry_equiv_pos_site_id
 _symmetry_equiv_pos_as_xyz
  1  'x, y, z'
loop_
 _atom_site_type_symbol
 _atom_site_label
 _atom_site_symmetry_multiplicity
 _atom_site_fract_x
 _atom_site_fract_y
 _atom_site_fract_z
 _atom_site_occupancy
  La  La0  1  0.23761801  0.71793501  0.80682900  1
  Cl  Cl1  1  0.30815301  0.00811600  0.37557800  1
  Cl  Cl2  1  0.13676400  0.28059400  0.44587800  1
  Ba  Ba3  1  0.86323602  0.71940601  0.55412200  1
  Ba  Ba4  1  0.69184702  0.99188402  0.62442200  1
  Cl  Cl5  1  0.76238202  0.28206500  0.19317099  1
  O  O6  1  0.28092601  0.84329001  0.59485800  1
  Cl  Cl7  1  0.71907402  0.15671000  0.40514200  1
  Cl  Cl8  1  0.15927100  0.50237001  0.17908800  1
  Cl  Cl9  1  0.84072902  0.49763001  0.82091200  1
  Cl  Cl10  1  0.05880500  0.16211700  0.72027301  1
  Cl  Cl11  1  0.94119503  0.83788301  0.27972699  1
  Cl  Cl12  1  0.50000001  0.50000001  0.50000000  1
  Cl  Cl13  1  0.38681101  0.15213800  0.07424000  1
  Cl  Cl14  1  0.61318902  0.84786201  0.92576000  1
