# generated using pymatgen
data_Mn2O3
_symmetry_space_group_name_H-M   'P 1'
_cell_length_a   4.93091297
_cell_length_b   5.34138155
_cell_length_c   4.93086720
_cell_angle_alpha   117.48873138
_cell_angle_beta   119.99990845
_cell_angle_gamma   62.51089859
_symmetry_Int_Tables_number   1
_chemical_formula_structural   Mn2O3
_chemical_formula_sum   'Mn4 O6'
_cell_volume   95.16344118
_cell_formula_units_Z   2
loop_
 _symmetry_equiv_pos_site_id
 _symmetry_equiv_pos_as_xyz
  1  'x, y, z'
loop_
 _atom_site_type_symbol
 _atom_site_label
 _atom_site_symmetry_multiplicity
 _atom_site_fract_x
 _atom_site_fract_y
 _atom_site_fract_z
 _atom_site_occupancy
  Mn  Mn0  1  0.84228200  0.47314601  0.15771294  1
  Mn  Mn1  1  0.15771697  0.52685601  0.84228792  1
  Mn  Mn2  1  0.64409702  0.06770900  0.35590397  1
  Mn  Mn3  1  0.35590296  0.93229101  0.64409688  1
  O  O4  1  0.55928301  0.26776000  0.05377897  1
  O  O5  1  0.77326299  0.73224001  0.55928590  1
  O  O6  1  0.05378496  0.73224101  0.22673592  1
  O  O7  1  0.94621702  0.26775900  0.77326293  1
  O  O8  1  0.22673899  0.26775900  0.44071695  1
  O  O9  1  0.44071297  0.73224001  0.94621789  1
