# generated using pymatgen
data_ScCdPt12
_symmetry_space_group_name_H-M   'P 1'
_cell_length_a   2.73462510
_cell_length_b   9.17998409
_cell_length_c   9.17998409
_cell_angle_alpha   90.00000000
_cell_angle_beta   90.00000000
_cell_angle_gamma   90.00000000
_symmetry_Int_Tables_number   1
_chemical_formula_structural   ScCdPt12
_chemical_formula_sum   'Sc1 Cd1 Pt12'
_cell_volume   230.45262170
_cell_formula_units_Z   1
loop_
 _symmetry_equiv_pos_site_id
 _symmetry_equiv_pos_as_xyz
  1  'x, y, z'
loop_
 _atom_site_type_symbol
 _atom_site_label
 _atom_site_symmetry_multiplicity
 _atom_site_fract_x
 _atom_site_fract_y
 _atom_site_fract_z
 _atom_site_occupancy
  Sc  Sc0  1  0.00000000  0.49999999  -0.00000000  1
  Pt  Pt1  1  0.99999996  0.00000000  0.49999999  1
  Pt  Pt2  1  0.99999996  0.55971699  0.70094099  1
  Pt  Pt3  1  0.99999996  0.44028300  0.29905900  1
  Pt  Pt4  1  0.99999996  0.05971700  0.79905899  1
  Cd  Cd5  1  0.99999996  0.94028299  0.20094100  1
  Pt  Pt6  1  0.99999996  0.29905900  0.55971699  1
  Pt  Pt7  1  0.99999996  0.70094099  0.44028300  1
  Pt  Pt8  1  0.99999996  0.20094100  0.05971700  1
  Pt  Pt9  1  0.99999996  0.79905899  0.94028299  1
  Pt  Pt10  1  0.49999998  0.67932899  0.17932900  1
  Pt  Pt11  1  0.49999998  0.32067100  0.82067099  1
  Pt  Pt12  1  0.49999998  0.17932900  0.32067100  1
  Pt  Pt13  1  0.49999998  0.82067099  0.67932899  1
