# generated using pymatgen
data_LaGd2O10
_symmetry_space_group_name_H-M   'P 1'
_cell_length_a   6.90796041
_cell_length_b   6.90796041
_cell_length_c   6.90796041
_cell_angle_alpha   60.68754196
_cell_angle_beta   60.68754196
_cell_angle_gamma   60.68753815
_symmetry_Int_Tables_number   1
_chemical_formula_structural   LaGd2O10
_chemical_formula_sum   'La1 Gd2 O10'
_cell_volume   236.71329961
_cell_formula_units_Z   1
loop_
 _symmetry_equiv_pos_site_id
 _symmetry_equiv_pos_as_xyz
  1  'x, y, z'
loop_
 _atom_site_type_symbol
 _atom_site_label
 _atom_site_symmetry_multiplicity
 _atom_site_fract_x
 _atom_site_fract_y
 _atom_site_fract_z
 _atom_site_occupancy
  La  La0  1  0.00242700  0.00242700  0.00242700  1
  O  O1  1  0.39930002  0.81318499  0.39929994  1
  Gd  Gd2  1  0.40485801  0.40485800  0.40485796  1
  O  O3  1  0.81318501  0.39930000  0.39929995  1
  O  O4  1  0.39930001  0.39930000  0.81318495  1
  Gd  Gd5  1  0.63516601  0.63516600  0.63516594  1
  O  O6  1  0.10110501  0.64022000  0.64021996  1
  O  O7  1  0.64022001  0.64022000  0.10110495  1
  O  O8  1  0.13998600  0.13998600  0.59987598  1
  O  O9  1  0.13837300  0.13837300  0.13837299  1
  O  O10  1  0.13998601  0.59987600  0.13998597  1
  O  O11  1  0.59987600  0.13998600  0.13998597  1
  O  O12  1  0.64022000  0.10110500  0.64021996  1
