# generated using pymatgen
data_In10Au
_symmetry_space_group_name_H-M   'P 1'
_cell_length_a   4.73513317
_cell_length_b   4.73513317
_cell_length_c   12.42296982
_cell_angle_alpha   90.00000000
_cell_angle_beta   90.00000000
_cell_angle_gamma   90.00000000
_symmetry_Int_Tables_number   1
_chemical_formula_structural   In10Au
_chemical_formula_sum   'In10 Au1'
_cell_volume   278.54144569
_cell_formula_units_Z   1
loop_
 _symmetry_equiv_pos_site_id
 _symmetry_equiv_pos_as_xyz
  1  'x, y, z'
loop_
 _atom_site_type_symbol
 _atom_site_label
 _atom_site_symmetry_multiplicity
 _atom_site_fract_x
 _atom_site_fract_y
 _atom_site_fract_z
 _atom_site_occupancy
  In  In0  1  0.49999998  0.49999998  0.30937400  1
  In  In1  1  0.49999998  0.49999998  0.69062601  1
  In  In2  1  0.00000000  0.49999998  0.12313200  1
  In  In3  1  0.49999998  0.00000000  0.12313200  1
  In  In4  1  0.00000000  0.00000000  0.30829400  1
  In  In5  1  0.00000000  0.49999998  0.50000001  1
  In  In6  1  0.49999998  0.00000000  0.50000001  1
  In  In7  1  0.00000000  0.00000000  0.69170601  1
  In  In8  1  0.00000000  0.49999998  0.87686801  1
  In  In9  1  0.49999998  0.00000000  0.87686801  1
  Au  Au10  1  0.49999998  0.49999998  0.00000000  1
