# generated using pymatgen
data_Al7H2
_symmetry_space_group_name_H-M   'P 1'
_cell_length_a   6.02918291
_cell_length_b   6.03033018
_cell_length_c   7.86709642
_cell_angle_alpha   112.53593445
_cell_angle_beta   90.00000000
_cell_angle_gamma   90.00000000
_symmetry_Int_Tables_number   1
_chemical_formula_structural   Al7H2
_chemical_formula_sum   'Al14 H4'
_cell_volume   264.19004425
_cell_formula_units_Z   2
loop_
 _symmetry_equiv_pos_site_id
 _symmetry_equiv_pos_as_xyz
  1  'x, y, z'
loop_
 _atom_site_type_symbol
 _atom_site_label
 _atom_site_symmetry_multiplicity
 _atom_site_fract_x
 _atom_site_fract_y
 _atom_site_fract_z
 _atom_site_occupancy
  Al  Al0  1  1.00000001  0.64215299  0.28430603  1
  Al  Al1  1  0.50000001  0.14215300  0.28430601  1
  Al  Al2  1  1.00000001  0.35784700  0.71569402  1
  Al  Al3  1  0.50000001  0.85784699  0.71569404  1
  Al  Al4  1  0.75000001  0.99706599  0.50000005  1
  Al  Al5  1  0.25000000  0.50293400  0.50000003  1
  Al  Al6  1  0.25000000  0.00293400  0.50000001  1
  Al  Al7  1  0.75000001  0.49706600  0.50000003  1
  Al  Al8  1  1.00000001  0.88514199  0.77028405  1
  H  H9  1  0.50000001  0.38514200  0.77028403  1
  Al  Al10  1  1.00000001  0.11485800  0.22971601  1
  Al  Al11  1  0.50000001  0.61485799  0.22971603  1
  Al  Al12  1  0.80477001  0.19889700  0.00000001  1
  Al  Al13  1  0.19523000  0.80110299  0.00000003  1
  H  H14  1  0.30477000  0.30110300  1.00000002  1
  H  H15  1  0.69523001  0.69889699  1.00000004  1
  H  H16  1  0.00000000  0.00000000  0.00000000  1
  Al  Al17  1  0.50000001  0.50000000  1.00000003  1
