# generated using pymatgen
data_Ce2CuGe6
_symmetry_space_group_name_H-M   'P 1'
_cell_length_a   4.11374378
_cell_length_b   4.16393089
_cell_length_c   11.15721416
_cell_angle_alpha   90.00000000
_cell_angle_beta   100.62344360
_cell_angle_gamma   90.00000000
_symmetry_Int_Tables_number   1
_chemical_formula_structural   Ce2CuGe6
_chemical_formula_sum   'Ce2 Cu1 Ge6'
_cell_volume   187.84004435
_cell_formula_units_Z   1
loop_
 _symmetry_equiv_pos_site_id
 _symmetry_equiv_pos_as_xyz
  1  'x, y, z'
loop_
 _atom_site_type_symbol
 _atom_site_label
 _atom_site_symmetry_multiplicity
 _atom_site_fract_x
 _atom_site_fract_y
 _atom_site_fract_z
 _atom_site_occupancy
  Ce  Ce0  1  0.99693705  0.00000000  0.99387395  1
  Ce  Ce1  1  0.33004802  1.00000003  0.66009597  1
  Cu  Cu2  1  0.77380804  0.50000001  0.54761597  1
  Ge  Ge3  1  0.71601503  1.00000003  0.43202997  1
  Ge  Ge4  1  0.60273703  0.00000000  0.20547398  1
  Ge  Ge5  1  0.45087602  0.50000001  0.90175196  1
  Ge  Ge6  1  0.88175804  0.50000001  0.76351596  1
  Ge  Ge7  1  0.10142800  0.50000001  0.20285599  1
  Ge  Ge8  1  0.21539201  0.50000001  0.43078398  1
