# generated using pymatgen
data_Be12Nb
_symmetry_space_group_name_H-M   'P 1'
_cell_length_a   4.07822990
_cell_length_b   5.45204306
_cell_length_c   5.45204306
_cell_angle_alpha   81.95892334
_cell_angle_beta   68.03690338
_cell_angle_gamma   68.03690338
_symmetry_Int_Tables_number   1
_chemical_formula_structural   Be12Nb
_chemical_formula_sum   'Be12 Nb1'
_cell_volume   104.26722153
_cell_formula_units_Z   1
loop_
 _symmetry_equiv_pos_site_id
 _symmetry_equiv_pos_as_xyz
  1  'x, y, z'
loop_
 _atom_site_type_symbol
 _atom_site_label
 _atom_site_symmetry_multiplicity
 _atom_site_fract_x
 _atom_site_fract_y
 _atom_site_fract_z
 _atom_site_occupancy
  Be  Be0  1  0.50000002  0.50000001  -0.00000002  1
  Be  Be1  1  0.00000001  0.50000001  -0.00000002  1
  Be  Be2  1  1.00000002  0.00000000  0.50000001  1
  Be  Be3  1  0.50000003  1.00000002  0.49999997  1
  Be  Be4  1  0.00000001  0.34602501  0.65397500  1
  Be  Be5  1  0.00000001  0.65397501  0.34602498  1
  Be  Be6  1  0.34602502  0.65397501  0.65397499  1
  Be  Be7  1  0.65397502  0.34602501  0.34602499  1
  Be  Be8  1  0.50000003  0.79034201  0.20965797  1
  Be  Be9  1  0.50000002  0.20965800  0.79034200  1
  Be  Be10  1  0.29034201  0.20965800  0.20965800  1
  Be  Be11  1  0.70965803  0.79034201  0.79034198  1
  Nb  Nb12  1  0.00000000  0.00000000  0.00000000  1
