# generated using pymatgen
data_MgF2
_symmetry_space_group_name_H-M   'P 1'
_cell_length_a   8.53459167
_cell_length_b   8.53459167
_cell_length_c   8.53459167
_cell_angle_alpha   109.47122192
_cell_angle_beta   109.47122192
_cell_angle_gamma   109.47122192
_symmetry_Int_Tables_number   1
_chemical_formula_structural   MgF2
_chemical_formula_sum   'Mg6 F12'
_cell_volume   478.54891046
_cell_formula_units_Z   6
loop_
 _symmetry_equiv_pos_site_id
 _symmetry_equiv_pos_as_xyz
  1  'x, y, z'
loop_
 _atom_site_type_symbol
 _atom_site_label
 _atom_site_symmetry_multiplicity
 _atom_site_fract_x
 _atom_site_fract_y
 _atom_site_fract_z
 _atom_site_occupancy
  Mg  Mg0  1  0.25000004  0.50000004  0.75000006  1
  Mg  Mg1  1  0.25000006  0.75000006  0.50000007  1
  Mg  Mg2  1  0.50000004  0.25000002  0.75000006  1
  Mg  Mg3  1  0.75000005  0.25000002  0.50000005  1
  Mg  Mg4  1  0.50000007  0.75000006  0.25000006  1
  Mg  Mg5  1  0.75000007  0.50000004  0.25000006  1
  F  F6  1  0.00000003  0.52612104  0.25759804  1
  F  F7  1  0.74240205  0.26852302  0.74240206  1
  F  F8  1  0.25759805  0.52612004  0.00000004  1
  F  F9  1  0.73147807  0.47388004  0.47388006  1
  F  F10  1  0.47387907  0.73147706  0.47387907  1
  F  F11  1  0.47387905  0.47387904  0.73147707  1
  F  F12  1  0.00000002  0.25759802  0.52612104  1
  F  F13  1  0.25759808  1.00000008  0.52612008  1
  F  F14  1  0.74240208  0.74240206  0.26852307  1
  F  F15  1  0.26852206  0.74240106  0.74240108  1
  F  F16  1  0.52612109  1.00000008  0.25759908  1
  F  F17  1  0.52612104  0.25759902  0.00000003  1
