# generated using pymatgen
data_Mn3O4
_symmetry_space_group_name_H-M   'P 1'
_cell_length_a   5.98457289
_cell_length_b   5.98541737
_cell_length_c   5.98556948
_cell_angle_alpha   60.00658798
_cell_angle_beta   60.02249146
_cell_angle_gamma   60.02545929
_symmetry_Int_Tables_number   1
_chemical_formula_structural   Mn3O4
_chemical_formula_sum   'Mn6 O8'
_cell_volume   151.66906160
_cell_formula_units_Z   2
loop_
 _symmetry_equiv_pos_site_id
 _symmetry_equiv_pos_as_xyz
  1  'x, y, z'
loop_
 _atom_site_type_symbol
 _atom_site_label
 _atom_site_symmetry_multiplicity
 _atom_site_fract_x
 _atom_site_fract_y
 _atom_site_fract_z
 _atom_site_occupancy
  Mn  Mn0  1  0.12557801  0.12560500  0.12558399  1
  Mn  Mn1  1  0.87442606  0.87442398  0.87439496  1
  Mn  Mn2  1  0.50000703  0.50000999  0.49999398  1
  Mn  Mn3  1  0.00013500  0.49992599  0.49989200  1
  Mn  Mn4  1  0.49991704  0.99994298  0.50018199  1
  Mn  Mn5  1  0.49991603  0.50000099  0.00002300  1
  O  O6  1  0.26300102  0.26292399  0.26289899  1
  O  O7  1  0.26564002  0.26572399  0.71427397  1
  O  O8  1  0.26563002  0.71429599  0.26570100  1
  O  O9  1  0.71429604  0.26561399  0.26560197  1
  O  O10  1  0.28570402  0.73440999  0.73438399  1
  O  O11  1  0.73437504  0.28572899  0.73427996  1
  O  O12  1  0.73436605  0.73429999  0.28570799  1
  O  O13  1  0.73700905  0.73709299  0.73708197  1
