# generated using pymatgen
data_TlCu2SnS6
_symmetry_space_group_name_H-M   'P 1'
_cell_length_a   4.76367426
_cell_length_b   5.93891621
_cell_length_c   7.87649393
_cell_angle_alpha   67.85186768
_cell_angle_beta   83.33445740
_cell_angle_gamma   72.06818390
_symmetry_Int_Tables_number   1
_chemical_formula_structural   TlCu2SnS6
_chemical_formula_sum   'Tl1 Cu2 Sn1 S6'
_cell_volume   196.36615218
_cell_formula_units_Z   1
loop_
 _symmetry_equiv_pos_site_id
 _symmetry_equiv_pos_as_xyz
  1  'x, y, z'
loop_
 _atom_site_type_symbol
 _atom_site_label
 _atom_site_symmetry_multiplicity
 _atom_site_fract_x
 _atom_site_fract_y
 _atom_site_fract_z
 _atom_site_occupancy
  S  S0  1  0.47072802  0.31714998  1.00000000  1
  S  S1  1  0.52927204  0.68284996  0.00000002  1
  Cu  Cu2  1  0.82030404  0.54983196  0.24253202  1
  S  S3  1  0.17969601  0.20763599  0.24253201  1
  S  S4  1  0.82030405  0.79236395  0.75746802  1
  Cu  Cu5  1  0.17969603  0.45016797  0.75746801  1
  S  S6  1  0.00000001  0.10831199  0.78337600  1
  Tl  Tl7  1  0.00000005  0.89168794  0.21662403  1
  S  S8  1  0.50000003  0.49999997  0.50000001  1
  Sn  Sn9  1  0.50000000  0.00000000  0.50000000  1
