# generated using pymatgen
data_Li2Mn2O5
_symmetry_space_group_name_H-M   'P 1'
_cell_length_a   4.99096107
_cell_length_b   5.85008717
_cell_length_c   6.49350166
_cell_angle_alpha   105.39276886
_cell_angle_beta   96.95480347
_cell_angle_gamma   106.04101563
_symmetry_Int_Tables_number   1
_chemical_formula_structural   Li2Mn2O5
_chemical_formula_sum   'Li4 Mn4 O10'
_cell_volume   171.76502820
_cell_formula_units_Z   2
loop_
 _symmetry_equiv_pos_site_id
 _symmetry_equiv_pos_as_xyz
  1  'x, y, z'
loop_
 _atom_site_type_symbol
 _atom_site_label
 _atom_site_symmetry_multiplicity
 _atom_site_fract_x
 _atom_site_fract_y
 _atom_site_fract_z
 _atom_site_occupancy
  Li  Li0  1  0.59997798  0.70001401  0.19999097  1
  Li  Li1  1  0.39811399  0.30176900  0.80484600  1
  Li  Li2  1  0.80188901  0.09829400  0.59521799  1
  Mn  Mn3  1  0.99912497  0.99424801  0.00614595  1
  Li  Li4  1  0.20088099  0.40591500  0.39383399  1
  Mn  Mn5  1  0.59994900  0.19994200  0.19995698  1
  Mn  Mn6  1  0.39823898  0.79922401  0.79913898  1
  Mn  Mn7  1  0.80177499  0.60066901  0.60084597  1
  O  O8  1  0.09465797  0.91948001  0.71586098  1
  O  O9  1  0.10522798  0.48076101  0.68468900  1
  O  O10  1  0.67698298  0.65911001  0.87183898  1
  O  O11  1  0.52326898  0.74122501  0.52836698  1
  O  O12  1  0.66666667  0.11923600  0.91079400  1
  O  O13  1  0.53359200  0.28070000  0.48919599  1
  O  O14  1  0.33155797  0.87315001  0.08307097  1
  O  O15  1  0.86819299  0.52686401  0.31694797  1
  O  O16  1  0.31924999  0.32975900  0.11425898  1
  O  O17  1  0.88071601  0.06964200  0.28500198  1
