# generated using pymatgen
data_PrSmB12
_symmetry_space_group_name_H-M   'P 1'
_cell_length_a   5.82474709
_cell_length_b   5.82474709
_cell_length_c   5.82474709
_cell_angle_alpha   60.00000000
_cell_angle_beta   60.00000000
_cell_angle_gamma   60.00000000
_symmetry_Int_Tables_number   1
_chemical_formula_structural   PrSmB12
_chemical_formula_sum   'Pr1 Sm1 B12'
_cell_volume   139.73854612
_cell_formula_units_Z   1
loop_
 _symmetry_equiv_pos_site_id
 _symmetry_equiv_pos_as_xyz
  1  'x, y, z'
loop_
 _atom_site_type_symbol
 _atom_site_label
 _atom_site_symmetry_multiplicity
 _atom_site_fract_x
 _atom_site_fract_y
 _atom_site_fract_z
 _atom_site_occupancy
  Sm  Sm0  1  0.49999998  0.49999998  0.49999998  1
  Pr  Pr1  1  0.00000000  0.00000000  0.00000000  1
  B  B2  1  0.10002900  0.39997098  0.10002900  1
  B  B3  1  0.60002898  0.89997097  0.60002898  1
  B  B4  1  0.39997098  0.39997098  0.10002900  1
  B  B5  1  0.89997097  0.89997097  0.60002898  1
  B  B6  1  0.10002900  0.39997098  0.39997098  1
  B  B7  1  0.60002898  0.89997097  0.89997097  1
  B  B8  1  0.10002900  0.10002900  0.39997098  1
  B  B9  1  0.60002898  0.60002898  0.89997097  1
  B  B10  1  0.39997098  0.10002900  0.10002900  1
  B  B11  1  0.89997097  0.60002898  0.60002898  1
  B  B12  1  0.39997098  0.10002900  0.39997098  1
  B  B13  1  0.89997097  0.60002898  0.89997097  1
