# generated using pymatgen
data_In2Cu2S3
_symmetry_space_group_name_H-M   'P 1'
_cell_length_a   3.79776764
_cell_length_b   6.30811501
_cell_length_c   6.30811501
_cell_angle_alpha   107.19520569
_cell_angle_beta   93.24584198
_cell_angle_gamma   93.24584198
_symmetry_Int_Tables_number   1
_chemical_formula_structural   In2Cu2S3
_chemical_formula_sum   'In2 Cu2 S3'
_cell_volume   143.70871081
_cell_formula_units_Z   1
loop_
 _symmetry_equiv_pos_site_id
 _symmetry_equiv_pos_as_xyz
  1  'x, y, z'
loop_
 _atom_site_type_symbol
 _atom_site_label
 _atom_site_symmetry_multiplicity
 _atom_site_fract_x
 _atom_site_fract_y
 _atom_site_fract_z
 _atom_site_occupancy
  In  In0  1  0.50000000  0.00000000  0.49999999  1
  In  In1  1  0.49999995  0.50000000  -0.00000001  1
  Cu  Cu2  1  0.00000000  0.00000000  0.00000000  1
  S  S3  1  0.46426298  0.24177200  0.24177199  1
  Cu  Cu4  1  -0.00000002  0.23676900  0.76323100  1
  S  S5  1  0.53573693  0.75822799  0.75822798  1
  S  S6  1  -0.00000006  0.76323099  0.23676900  1
