# generated using pymatgen
data_La(Ti3S4)2
_symmetry_space_group_name_H-M   'P 1'
_cell_length_a   3.25949311
_cell_length_b   9.35314083
_cell_length_c   9.35772896
_cell_angle_alpha   119.89995575
_cell_angle_beta   89.98866272
_cell_angle_gamma   89.99285889
_symmetry_Int_Tables_number   1
_chemical_formula_structural   La(Ti3S4)2
_chemical_formula_sum   'La1 Ti6 S8'
_cell_volume   247.31220378
_cell_formula_units_Z   1
loop_
 _symmetry_equiv_pos_site_id
 _symmetry_equiv_pos_as_xyz
  1  'x, y, z'
loop_
 _atom_site_type_symbol
 _atom_site_label
 _atom_site_symmetry_multiplicity
 _atom_site_fract_x
 _atom_site_fract_y
 _atom_site_fract_z
 _atom_site_occupancy
  La  La0  1  0.49999999  0.00000000  -0.00000000  1
  Ti  Ti1  1  0.74758197  0.62528901  0.11366202  1
  Ti  Ti2  1  0.74768396  0.88669302  0.51190303  1
  Ti  Ti3  1  0.74776597  0.48857701  0.37501202  1
  Ti  Ti4  1  0.25241798  0.37471101  0.88633802  1
  Ti  Ti5  1  0.25231599  0.11330700  0.48809701  1
  Ti  Ti6  1  0.25223398  0.51142301  0.62498802  1
  S  S7  1  0.75128198  0.33323101  0.66661501  1
  S  S8  1  0.24871798  0.66676901  0.33333336  1
  S  S9  1  0.75504896  0.94481102  0.30045103  1
  S  S10  1  0.75478897  0.69961801  0.64401503  1
  S  S11  1  0.75500398  0.35576001  0.05547001  1
  S  S12  1  0.24495099  0.05518900  0.69954900  1
  S  S13  1  0.24521099  0.30038201  0.35598501  1
  S  S14  1  0.24499598  0.64424001  0.94453003  1
