# generated using pymatgen
data_CaMnO3
_symmetry_space_group_name_H-M   'P 1'
_cell_length_a   5.40074682
_cell_length_b   5.52300882
_cell_length_c   7.69216299
_cell_angle_alpha   90.00000000
_cell_angle_beta   90.00000000
_cell_angle_gamma   90.00000000
_symmetry_Int_Tables_number   1
_chemical_formula_structural   CaMnO3
_chemical_formula_sum   'Ca4 Mn4 O12'
_cell_volume   229.44470188
_cell_formula_units_Z   4
loop_
 _symmetry_equiv_pos_site_id
 _symmetry_equiv_pos_as_xyz
  1  'x, y, z'
loop_
 _atom_site_type_symbol
 _atom_site_label
 _atom_site_symmetry_multiplicity
 _atom_site_fract_x
 _atom_site_fract_y
 _atom_site_fract_z
 _atom_site_occupancy
  Mn  Mn0  1  0.75657102  0.66841202  0.25074900  1
  Mn  Mn1  1  0.24342901  0.16841201  0.74925100  1
  Mn  Mn2  1  0.24342901  0.16841201  0.25074900  1
  Mn  Mn3  1  0.75657102  0.66841202  0.74925100  1
  Ca  Ca4  1  0.26100301  0.69459502  0.50000000  1
  Ca  Ca5  1  0.73899702  0.19459501  0.50000000  1
  Ca  Ca6  1  0.75025902  0.11669600  -0.00000000  1
  Ca  Ca7  1  0.24974101  0.61669602  -0.00000000  1
  O  O8  1  0.04985000  0.84138403  0.79524000  1
  O  O9  1  0.95015003  0.34138401  0.20476000  1
  O  O10  1  0.95015003  0.34138401  0.79524000  1
  O  O11  1  0.04985000  0.84138403  0.20476000  1
  O  O12  1  0.44457501  0.43941101  0.70249400  1
  O  O13  1  0.55542502  0.93941103  0.29750600  1
  O  O14  1  0.55542502  0.93941103  0.70249400  1
  O  O15  1  0.44457501  0.43941101  0.29750600  1
  O  O16  1  0.16199301  0.11098400  0.50000000  1
  O  O17  1  0.83800703  0.61098402  0.50000000  1
  O  O18  1  0.33673801  0.16941101  -0.00000000  1
  O  O19  1  0.66326202  0.66941102  -0.00000000  1
