# generated using pymatgen
data_DyAl2
_symmetry_space_group_name_H-M   'P 1'
_cell_length_a   5.27108431
_cell_length_b   5.27108431
_cell_length_c   5.27108431
_cell_angle_alpha   105.61405182
_cell_angle_beta   105.61405182
_cell_angle_gamma   117.49607849
_symmetry_Int_Tables_number   1
_chemical_formula_structural   DyAl2
_chemical_formula_sum   'Dy2 Al4'
_cell_volume   111.05973288
_cell_formula_units_Z   2
loop_
 _symmetry_equiv_pos_site_id
 _symmetry_equiv_pos_as_xyz
  1  'x, y, z'
loop_
 _atom_site_type_symbol
 _atom_site_label
 _atom_site_symmetry_multiplicity
 _atom_site_fract_x
 _atom_site_fract_y
 _atom_site_fract_z
 _atom_site_occupancy
  Al  Al0  1  0.50000002  0.50000001  -0.00000005  1
  Al  Al1  1  0.00000000  0.00000000  0.00000000  1
  Dy  Dy2  1  0.08422102  0.91577902  0.49999997  1
  Al  Al3  1  0.41577902  0.58422101  0.49999997  1
  Dy  Dy4  1  0.91577902  0.41577901  0.83155795  1
  Al  Al5  1  0.58422101  0.08422100  0.16844197  1
