# generated using pymatgen
data_Na2Li3LuF7
_symmetry_space_group_name_H-M   'P 1'
_cell_length_a   5.99598455
_cell_length_b   5.99598455
_cell_length_c   6.18769503
_cell_angle_alpha   61.01970291
_cell_angle_beta   61.01970291
_cell_angle_gamma   59.99999619
_symmetry_Int_Tables_number   1
_chemical_formula_structural   Na2Li3LuF7
_chemical_formula_sum   'Na2 Li3 Lu1 F7'
_cell_volume   159.68326466
_cell_formula_units_Z   1
loop_
 _symmetry_equiv_pos_site_id
 _symmetry_equiv_pos_as_xyz
  1  'x, y, z'
loop_
 _atom_site_type_symbol
 _atom_site_label
 _atom_site_symmetry_multiplicity
 _atom_site_fract_x
 _atom_site_fract_y
 _atom_site_fract_z
 _atom_site_occupancy
  Lu  Lu0  1  0.49999999  0.49999998  0.49999997  1
  Na  Na1  1  0.00000000  0.00000000  0.00000000  1
  Li  Li2  1  0.49999999  0.49999998  -0.00000002  1
  Li  Li3  1  0.00000000  0.49999998  -0.00000001  1
  Li  Li4  1  0.49999998  0.00000000  -0.00000001  1
  Na  Na5  1  0.73056198  0.73056198  0.80831396  1
  F  F6  1  0.24788699  0.24788699  0.79810598  1
  F  F7  1  0.70611998  0.24788699  0.79810597  1
  F  F8  1  0.24788700  0.70611998  0.79810597  1
  F  F9  1  0.75211298  0.29387999  0.20189398  1
  F  F10  1  0.29388000  0.75211298  0.20189398  1
  F  F11  1  0.75211298  0.75211298  0.20189397  1
  F  F12  1  0.26943799  0.26943799  0.19168599  1
