# generated using pymatgen
data_Li2Y3Te8
_symmetry_space_group_name_H-M   'P 1'
_cell_length_a   8.69022274
_cell_length_b   8.99889755
_cell_length_c   9.01920605
_cell_angle_alpha   61.51589584
_cell_angle_beta   61.36173630
_cell_angle_gamma   61.98674011
_symmetry_Int_Tables_number   1
_chemical_formula_structural   Li2Y3Te8
_chemical_formula_sum   'Li2 Y3 Te8'
_cell_volume   516.84470725
_cell_formula_units_Z   1
loop_
 _symmetry_equiv_pos_site_id
 _symmetry_equiv_pos_as_xyz
  1  'x, y, z'
loop_
 _atom_site_type_symbol
 _atom_site_label
 _atom_site_symmetry_multiplicity
 _atom_site_fract_x
 _atom_site_fract_y
 _atom_site_fract_z
 _atom_site_occupancy
  Te  Te0  1  0.00000000  0.00000000  0.00000000  1
  Y  Y1  1  -0.00000001  0.50000000  0.50000003  1
  Y  Y2  1  0.50000001  0.50000000  0.50000002  1
  Li  Li3  1  0.50000002  0.00000000  0.50000002  1
  Li  Li4  1  0.00000000  0.00000000  0.50000002  1
  Te  Te5  1  0.27037200  0.23236000  0.70870403  1
  Te  Te6  1  0.72962801  0.76764000  0.29129601  1
  Te  Te7  1  0.20676699  0.78340800  0.29498902  1
  Te  Te8  1  0.79323302  0.21659200  0.70501103  1
  Te  Te9  1  0.76391902  0.20819000  0.29215601  1
  Te  Te10  1  0.23608099  0.79181000  0.70784404  1
  Te  Te11  1  0.23576700  0.20089100  0.29681601  1
  Y  Y12  1  0.76423301  0.79910900  0.70318403  1
