# generated using pymatgen
data_Te
_symmetry_space_group_name_H-M   'P 1'
_cell_length_a   4.44580984
_cell_length_b   4.44581032
_cell_length_c   20.96159744
_cell_angle_alpha   90.00000000
_cell_angle_beta   90.00000000
_cell_angle_gamma   119.99999237
_symmetry_Int_Tables_number   1
_chemical_formula_structural   Te
_chemical_formula_sum   Te12
_cell_volume   358.80365111
_cell_formula_units_Z   12
loop_
 _symmetry_equiv_pos_site_id
 _symmetry_equiv_pos_as_xyz
  1  'x, y, z'
loop_
 _atom_site_type_symbol
 _atom_site_label
 _atom_site_symmetry_multiplicity
 _atom_site_fract_x
 _atom_site_fract_y
 _atom_site_fract_z
 _atom_site_occupancy
  Te  Te0  1  0.00000000  0.00000000  0.00000000  1
  Te  Te1  1  0.33333329  0.66666667  0.66942099  1
  Te  Te2  1  0.66666667  0.33333334  0.33057899  1
  Te  Te3  1  0.00000000  0.00000000  0.49999999  1
  Te  Te4  1  0.33333329  0.66666667  0.16480700  1
  Te  Te5  1  0.66666667  0.33333334  0.83519298  1
  Te  Te6  1  0.00000000  0.00000000  0.25416299  1
  Te  Te7  1  0.00000000  0.00000000  0.74583698  1
  Te  Te8  1  0.33333329  0.66666667  0.92437498  1
  Te  Te9  1  0.66666667  0.33333334  0.07562500  1
  Te  Te10  1  0.33333329  0.66666667  0.40968099  1
  Te  Te11  1  0.66666667  0.33333334  0.59031899  1
