# generated using pymatgen
data_Na2O3
_symmetry_space_group_name_H-M   'P 1'
_cell_length_a   5.73571205
_cell_length_b   5.73571205
_cell_length_c   6.26300240
_cell_angle_alpha   62.74803543
_cell_angle_beta   62.74803543
_cell_angle_gamma   60.00000000
_symmetry_Int_Tables_number   1
_chemical_formula_structural   Na2O3
_chemical_formula_sum   'Na4 O6'
_cell_volume   151.45520811
_cell_formula_units_Z   2
loop_
 _symmetry_equiv_pos_site_id
 _symmetry_equiv_pos_as_xyz
  1  'x, y, z'
loop_
 _atom_site_type_symbol
 _atom_site_label
 _atom_site_symmetry_multiplicity
 _atom_site_fract_x
 _atom_site_fract_y
 _atom_site_fract_z
 _atom_site_occupancy
  Na  Na0  1  0.84202000  0.84201999  0.47393993  1
  Na  Na1  1  0.65798000  0.65798000  0.02605996  1
  Na  Na2  1  0.34202000  0.34202000  0.97393995  1
  Na  Na3  1  0.15798000  0.15798000  0.52605997  1
  O  O4  1  0.57007400  0.25000000  0.24999997  1
  O  O5  1  0.92992600  0.57007400  0.24999995  1
  O  O6  1  0.25000000  0.92992599  0.24999995  1
  O  O7  1  0.75000000  0.07007400  0.74999995  1
  O  O8  1  0.07007400  0.42992600  0.74999996  1
  O  O9  1  0.42992600  0.74999999  0.74999994  1
