# generated using pymatgen
data_Rb4Li3MnCl8
_symmetry_space_group_name_H-M   'P 1'
_cell_length_a   5.61263180
_cell_length_b   7.46811438
_cell_length_c   12.48279476
_cell_angle_alpha   85.15391541
_cell_angle_beta   77.00801849
_cell_angle_gamma   67.92790222
_symmetry_Int_Tables_number   1
_chemical_formula_structural   Rb4Li3MnCl8
_chemical_formula_sum   'Rb4 Li3 Mn1 Cl8'
_cell_volume   472.46752946
_cell_formula_units_Z   1
loop_
 _symmetry_equiv_pos_site_id
 _symmetry_equiv_pos_as_xyz
  1  'x, y, z'
loop_
 _atom_site_type_symbol
 _atom_site_label
 _atom_site_symmetry_multiplicity
 _atom_site_fract_x
 _atom_site_fract_y
 _atom_site_fract_z
 _atom_site_occupancy
  Rb  Rb0  1  0.82248802  0.00000000  0.35502400  1
  Rb  Rb1  1  0.17751200  0.00000000  0.64497599  1
  Rb  Rb2  1  0.92751205  0.49999998  0.14497601  1
  Rb  Rb3  1  0.57248804  0.49999998  0.85502398  1
  Li  Li4  1  0.00000000  0.00000000  0.00000000  1
  Mn  Mn5  1  0.75000005  0.49999998  0.49999999  1
  Li  Li6  1  0.50000001  0.00000000  0.00000001  1
  Li  Li7  1  0.25000003  0.49999998  0.49999999  1
  Cl  Cl8  1  0.55022603  0.30900299  0.60693199  1
  Cl  Cl9  1  0.46616105  0.69099698  0.39306799  1
  Cl  Cl10  1  0.28383905  0.80900297  0.10693199  1
  Cl  Cl11  1  0.19977402  0.19099699  0.89306798  1
  Cl  Cl12  1  0.90715807  0.80900297  0.89306798  1
  Cl  Cl13  1  0.60922903  0.19099699  0.10693201  1
  Cl  Cl14  1  0.14077102  0.30900299  0.39306799  1
  Cl  Cl15  1  0.84284206  0.69099698  0.60693199  1
