# generated using pymatgen
data_VB
_symmetry_space_group_name_H-M   'P 1'
_cell_length_a   3.26905799
_cell_length_b   5.07220888
_cell_length_c   5.55512905
_cell_angle_alpha   90.00000000
_cell_angle_beta   90.00000000
_cell_angle_gamma   90.00000000
_symmetry_Int_Tables_number   1
_chemical_formula_structural   VB
_chemical_formula_sum   'V4 B4'
_cell_volume   92.11151113
_cell_formula_units_Z   4
loop_
 _symmetry_equiv_pos_site_id
 _symmetry_equiv_pos_as_xyz
  1  'x, y, z'
loop_
 _atom_site_type_symbol
 _atom_site_label
 _atom_site_symmetry_multiplicity
 _atom_site_fract_x
 _atom_site_fract_y
 _atom_site_fract_z
 _atom_site_occupancy
  V  V0  1  0.25000000  0.50124601  0.69644499  1
  V  V1  1  0.75000000  0.49875401  0.30355500  1
  V  V2  1  0.25000000  0.00124600  0.80355499  1
  V  V3  1  0.75000000  0.99875402  0.19644500  1
  B  B4  1  0.25000000  0.69102002  0.08175900  1
  B  B5  1  0.75000000  0.30898001  0.91824099  1
  B  B6  1  0.25000000  0.19102000  0.41824100  1
  B  B7  1  0.75000000  0.80898002  0.58175899  1
