# generated using pymatgen
data_Rb3NaP2S9
_symmetry_space_group_name_H-M   'P 1'
_cell_length_a   6.47782183
_cell_length_b   7.00020552
_cell_length_c   9.12564278
_cell_angle_alpha   87.69355011
_cell_angle_beta   82.28430939
_cell_angle_gamma   84.61766815
_symmetry_Int_Tables_number   1
_chemical_formula_structural   Rb3NaP2S9
_chemical_formula_sum   'Rb3 Na1 P2 S9'
_cell_volume   408.09732189
_cell_formula_units_Z   1
loop_
 _symmetry_equiv_pos_site_id
 _symmetry_equiv_pos_as_xyz
  1  'x, y, z'
loop_
 _atom_site_type_symbol
 _atom_site_label
 _atom_site_symmetry_multiplicity
 _atom_site_fract_x
 _atom_site_fract_y
 _atom_site_fract_z
 _atom_site_occupancy
  Rb  Rb0  1  0.28923498  0.33701899  0.13836100  1
  Na  Na1  1  0.74600900  0.21997999  0.47597502  1
  Rb  Rb2  1  0.25399095  0.78001998  0.52402499  1
  Rb  Rb3  1  0.71076497  0.66298098  0.86163901  1
  P  P4  1  0.82686997  0.73171798  0.26262702  1
  P  P5  1  0.17312999  0.26828199  0.73737300  1
  S  S6  1  0.00000000  0.00000000  0.00000000  1
  S  S7  1  0.67808295  0.95847898  0.14838601  1
  S  S8  1  0.77623698  0.47597699  0.18626102  1
  S  S9  1  0.13171795  0.80343698  0.18865799  1
  S  S10  1  0.75996597  0.74666298  0.48491201  1
  S  S11  1  0.24003399  0.25333699  0.51508800  1
  S  S12  1  0.86828200  0.19656300  0.81134202  1
  S  S13  1  0.22376297  0.52402299  0.81373899  1
  S  S14  1  0.32191700  0.04152100  0.85161401  1
