# generated using pymatgen
data_In3CuTe3
_symmetry_space_group_name_H-M   'P 1'
_cell_length_a   5.03546333
_cell_length_b   5.03546333
_cell_length_c   9.07984161
_cell_angle_alpha   73.90158081
_cell_angle_beta   73.90158081
_cell_angle_gamma   60.00000763
_symmetry_Int_Tables_number   1
_chemical_formula_structural   In3CuTe3
_chemical_formula_sum   'In3 Cu1 Te3'
_cell_volume   188.88636803
_cell_formula_units_Z   1
loop_
 _symmetry_equiv_pos_site_id
 _symmetry_equiv_pos_as_xyz
  1  'x, y, z'
loop_
 _atom_site_type_symbol
 _atom_site_label
 _atom_site_symmetry_multiplicity
 _atom_site_fract_x
 _atom_site_fract_y
 _atom_site_fract_z
 _atom_site_occupancy
  Te  Te0  1  0.79308999  0.79309001  0.62072996  1
  Te  Te1  1  0.59310600  0.59310501  0.22068297  1
  In  In2  1  0.20691000  0.20691000  0.37926999  1
  In  In3  1  0.40689500  0.40689401  0.77931598  1
  Cu  Cu4  1  0.00000000  0.00000000  0.00000000  1
  Te  Te5  1  0.09390200  0.09390200  0.71829400  1
  In  In6  1  0.90609799  0.90609801  0.28170595  1
