# generated using pymatgen
data_ScSO4
_symmetry_space_group_name_H-M   'P 1'
_cell_length_a   5.26049757
_cell_length_b   5.26049757
_cell_length_c   5.26049757
_cell_angle_alpha   106.05482483
_cell_angle_beta   106.05482483
_cell_angle_gamma   116.54405975
_symmetry_Int_Tables_number   1
_chemical_formula_structural   ScSO4
_chemical_formula_sum   'Sc2 S2 O8'
_cell_volume   110.76617096
_cell_formula_units_Z   2
loop_
 _symmetry_equiv_pos_site_id
 _symmetry_equiv_pos_as_xyz
  1  'x, y, z'
loop_
 _atom_site_type_symbol
 _atom_site_label
 _atom_site_symmetry_multiplicity
 _atom_site_fract_x
 _atom_site_fract_y
 _atom_site_fract_z
 _atom_site_occupancy
  Sc  Sc0  1  0.00000000  0.00000000  0.00000000  1
  Sc  Sc1  1  0.74999999  0.25000000  0.49999995  1
  S  S2  1  0.49999999  0.49999999  0.99999995  1
  S  S3  1  0.24999999  0.74999999  0.49999995  1
  O  O4  1  0.67505299  0.49822799  0.82317495  1
  O  O5  1  0.24822699  0.92505199  0.32317394  1
  O  O6  1  0.50177299  0.32494799  0.17682596  1
  O  O7  1  0.07494699  0.75177199  0.67682496  1
  O  O8  1  0.07494700  0.39812199  0.32317398  1
  O  O9  1  0.14812200  0.32494699  0.82317498  1
  O  O10  1  0.67505298  0.85187799  0.17682593  1
  O  O11  1  0.60187799  0.92505299  0.67682493  1
