# generated using pymatgen
data_Ba(RhO2)6
_symmetry_space_group_name_H-M   'P 1'
_cell_length_a   6.03505611
_cell_length_b   6.03505611
_cell_length_c   6.03505659
_cell_angle_alpha   104.30943298
_cell_angle_beta   104.30943298
_cell_angle_gamma   104.30943298
_symmetry_Int_Tables_number   1
_chemical_formula_structural   Ba(RhO2)6
_chemical_formula_sum   'Ba1 Rh6 O12'
_cell_volume   194.94171252
_cell_formula_units_Z   1
loop_
 _symmetry_equiv_pos_site_id
 _symmetry_equiv_pos_as_xyz
  1  'x, y, z'
loop_
 _atom_site_type_symbol
 _atom_site_label
 _atom_site_symmetry_multiplicity
 _atom_site_fract_x
 _atom_site_fract_y
 _atom_site_fract_z
 _atom_site_occupancy
  Ba  Ba0  1  0.00000000  0.00000000  0.00000000  1
  O  O1  1  0.45802397  0.18755499  0.45802395  1
  O  O2  1  0.13113594  0.49999997  0.86886394  1
  O  O3  1  0.49999989  0.86886395  0.13113588  1
  O  O4  1  0.13113589  0.86886395  0.49999991  1
  O  O5  1  0.49999997  0.13113599  0.86886396  1
  O  O6  1  0.45802394  0.45802397  0.18755493  1
  O  O7  1  0.86886392  0.49999997  0.13113590  1
  O  O8  1  0.54197592  0.54197597  0.81244491  1
  O  O9  1  0.86886397  0.13113599  0.49999993  1
  O  O10  1  0.54197589  0.81244495  0.54197589  1
  O  O11  1  0.81244492  0.54197597  0.54197590  1
  O  O12  1  0.18755494  0.45802397  0.45802394  1
  Rh  Rh13  1  0.33707990  0.76623295  0.76623290  1
  Rh  Rh14  1  0.23376697  0.23376699  0.66291996  1
  Rh  Rh15  1  0.23376692  0.66291996  0.23376692  1
  Rh  Rh16  1  0.76623294  0.33707998  0.76623292  1
  Rh  Rh17  1  0.76623289  0.76623295  0.33707988  1
  Rh  Rh18  1  0.66291996  0.23376699  0.23376694  1
