# generated using pymatgen
data_Mn(CoP)8
_symmetry_space_group_name_H-M   'P 1'
_cell_length_a   6.06291103
_cell_length_b   7.19898891
_cell_length_c   7.19898891
_cell_angle_alpha   90.00000000
_cell_angle_beta   90.00000000
_cell_angle_gamma   90.00000000
_symmetry_Int_Tables_number   1
_chemical_formula_structural   Mn(CoP)8
_chemical_formula_sum   'Mn1 Co8 P8'
_cell_volume   314.21304043
_cell_formula_units_Z   1
loop_
 _symmetry_equiv_pos_site_id
 _symmetry_equiv_pos_as_xyz
  1  'x, y, z'
loop_
 _atom_site_type_symbol
 _atom_site_label
 _atom_site_symmetry_multiplicity
 _atom_site_fract_x
 _atom_site_fract_y
 _atom_site_fract_z
 _atom_site_occupancy
  Mn  Mn0  1  0.23215400  0.00000000  0.24275200  1
  Co  Co1  1  0.23215400  0.00000000  0.75724801  1
  Co  Co2  1  0.23215400  0.75724801  -0.00000000  1
  Co  Co3  1  0.23215400  0.24275200  -0.00000000  1
  Co  Co4  1  0.24932500  0.75142301  0.50000001  1
  Co  Co5  1  0.24932500  0.24857700  0.50000001  1
  Co  Co6  1  0.24932500  0.50000001  0.24857700  1
  Co  Co7  1  0.24932500  0.50000001  0.75142301  1
  Co  Co8  1  0.56309700  0.00000000  -0.00000000  1
  P  P9  1  0.49328200  0.75228501  0.24771500  1
  P  P10  1  0.49328200  0.24771500  0.75228501  1
  P  P11  1  0.49328200  0.24771500  0.24771500  1
  P  P12  1  0.49328200  0.75228501  0.75228501  1
  P  P13  1  0.95785099  0.00000000  -0.00000000  1
  P  P14  1  0.99862999  0.00000000  0.50000001  1
  P  P15  1  0.99862999  0.50000001  -0.00000000  1
  P  P16  1  0.00934600  0.50000001  0.50000001  1
