# generated using pymatgen
data_BaZnHg
_symmetry_space_group_name_H-M   'P 1'
_cell_length_a   3.75653839
_cell_length_b   3.75653839
_cell_length_c   9.26383781
_cell_angle_alpha   78.30201721
_cell_angle_beta   78.30201721
_cell_angle_gamma   59.99999237
_symmetry_Int_Tables_number   1
_chemical_formula_structural   BaZnHg
_chemical_formula_sum   'Ba1 Zn1 Hg1'
_cell_volume   110.06681393
_cell_formula_units_Z   1
loop_
 _symmetry_equiv_pos_site_id
 _symmetry_equiv_pos_as_xyz
  1  'x, y, z'
loop_
 _atom_site_type_symbol
 _atom_site_label
 _atom_site_symmetry_multiplicity
 _atom_site_fract_x
 _atom_site_fract_y
 _atom_site_fract_z
 _atom_site_occupancy
  Ba  Ba0  1  0.00000000  0.00000000  0.00000000  1
  Zn  Zn1  1  0.77779699  0.77779701  0.66660901  1
  Hg  Hg2  1  0.22220300  0.22220300  0.33339101  1
