# generated using pymatgen
data_Sb
_symmetry_space_group_name_H-M   'P 1'
_cell_length_a   7.88669920
_cell_length_b   7.88669920
_cell_length_c   7.88669920
_cell_angle_alpha   109.52327728
_cell_angle_beta   109.44519806
_cell_angle_gamma   109.44519806
_symmetry_Int_Tables_number   1
_chemical_formula_structural   Sb
_chemical_formula_sum   Sb14
_cell_volume   377.62755538
_cell_formula_units_Z   14
loop_
 _symmetry_equiv_pos_site_id
 _symmetry_equiv_pos_as_xyz
  1  'x, y, z'
loop_
 _atom_site_type_symbol
 _atom_site_label
 _atom_site_symmetry_multiplicity
 _atom_site_fract_x
 _atom_site_fract_y
 _atom_site_fract_z
 _atom_site_occupancy
  Sb  Sb0  1  0.49999997  0.74999998  0.24999998  1
  Sb  Sb1  1  -0.00000001  0.49999998  0.49999998  1
  Sb  Sb2  1  0.87672897  0.25172899  0.87499997  1
  Sb  Sb3  1  0.37672899  0.12500000  0.00172900  1
  Sb  Sb4  1  0.12327098  0.99827097  0.37499998  1
  Sb  Sb5  1  0.62327097  0.62499998  0.74827097  1
  Sb  Sb6  1  0.75061598  0.02084200  0.11771499  1
  Sb  Sb7  1  0.59687298  0.22915799  0.47977398  1
  Sb  Sb8  1  0.40312697  0.88290097  0.63228497  1
  Sb  Sb9  1  0.09687298  0.72977398  0.97915797  1
  Sb  Sb10  1  0.74938397  0.52022598  0.11709898  1
  Sb  Sb11  1  0.25061599  0.36771499  0.77084198  1
  Sb  Sb12  1  0.90312696  0.88228497  0.63290097  1
  Sb  Sb13  1  0.24938399  0.36709899  0.27022599  1
