# generated using pymatgen
data_LiCr4O9
_symmetry_space_group_name_H-M   'P 1'
_cell_length_a   6.01304388
_cell_length_b   6.01304245
_cell_length_c   6.01303530
_cell_angle_alpha   60.12900543
_cell_angle_beta   60.12894058
_cell_angle_gamma   60.12920761
_symmetry_Int_Tables_number   1
_chemical_formula_structural   LiCr4O9
_chemical_formula_sum   'Li1 Cr4 O9'
_cell_volume   154.18254725
_cell_formula_units_Z   1
loop_
 _symmetry_equiv_pos_site_id
 _symmetry_equiv_pos_as_xyz
  1  'x, y, z'
loop_
 _atom_site_type_symbol
 _atom_site_label
 _atom_site_symmetry_multiplicity
 _atom_site_fract_x
 _atom_site_fract_y
 _atom_site_fract_z
 _atom_site_occupancy
  Li  Li0  1  0.75058602  0.75058597  0.75058701  1
  O  O1  1  0.99941203  0.99941296  0.99941401  1
  Cr  Cr2  1  0.87500301  0.37499799  0.37500200  1
  Cr  Cr3  1  0.37501001  0.37499599  0.87499801  1
  Cr  Cr4  1  0.37499503  0.87501097  0.37499402  1
  Cr  Cr5  1  0.37499901  0.37499899  0.37500101  1
  O  O6  1  0.13687200  0.13687199  0.13687400  1
  O  O7  1  0.61312602  0.61312698  0.61312701  1
  O  O8  1  0.59155200  0.13515099  0.13515300  1
  O  O9  1  0.13515100  0.13515099  0.59155400  1
  O  O10  1  0.13515102  0.59155098  0.13515301  1
  O  O11  1  0.15844702  0.61484798  0.61484901  1
  O  O12  1  0.61484802  0.61484798  0.15844701  1
  O  O13  1  0.61484800  0.15844699  0.61484800  1
