# generated using pymatgen
data_NbSe3
_symmetry_space_group_name_H-M   'P 1'
_cell_length_a   3.36349511
_cell_length_b   9.94268417
_cell_length_c   9.94268322
_cell_angle_alpha   120.00000000
_cell_angle_beta   90.00000000
_cell_angle_gamma   90.00000000
_symmetry_Int_Tables_number   1
_chemical_formula_structural   NbSe3
_chemical_formula_sum   'Nb2 Se6'
_cell_volume   287.95768911
_cell_formula_units_Z   2
loop_
 _symmetry_equiv_pos_site_id
 _symmetry_equiv_pos_as_xyz
  1  'x, y, z'
loop_
 _atom_site_type_symbol
 _atom_site_label
 _atom_site_symmetry_multiplicity
 _atom_site_fract_x
 _atom_site_fract_y
 _atom_site_fract_z
 _atom_site_occupancy
  Nb  Nb0  1  0.24999999  0.66666664  0.33333330  1
  Nb  Nb1  1  0.74999998  0.33333332  0.66666665  1
  Se  Se2  1  0.74999998  0.77902397  0.22097496  1
  Se  Se3  1  0.74999998  0.44195098  0.22097498  1
  Se  Se4  1  0.74999998  0.77902397  0.55804796  1
  Se  Se5  1  0.24999999  0.22097599  0.77902499  1
  Se  Se6  1  0.24999999  0.55804898  0.77902497  1
  Se  Se7  1  0.24999999  0.22097599  0.44195199  1
