# generated using pymatgen
data_VO2
_symmetry_space_group_name_H-M   'P 1'
_cell_length_a   2.96680093
_cell_length_b   6.31942797
_cell_length_c   10.16957283
_cell_angle_alpha   108.10158539
_cell_angle_beta   90.00000000
_cell_angle_gamma   90.00000000
_symmetry_Int_Tables_number   1
_chemical_formula_structural   VO2
_chemical_formula_sum   'V6 O12'
_cell_volume   181.22756953
_cell_formula_units_Z   6
loop_
 _symmetry_equiv_pos_site_id
 _symmetry_equiv_pos_as_xyz
  1  'x, y, z'
loop_
 _atom_site_type_symbol
 _atom_site_label
 _atom_site_symmetry_multiplicity
 _atom_site_fract_x
 _atom_site_fract_y
 _atom_site_fract_z
 _atom_site_occupancy
  V  V0  1  1.00000002  0.99252401  0.98504805  1
  V  V1  1  0.50000001  0.82990801  0.65981604  1
  V  V2  1  0.50000001  0.49981201  0.99962405  1
  V  V3  1  1.00000002  0.66635301  0.33270602  1
  V  V4  1  1.00000002  0.33531500  0.67063003  1
  V  V5  1  0.50000001  0.17386300  0.34772602  1
  O  O6  1  0.50000001  0.93187301  0.86374605  1
  O  O7  1  0.00000000  0.30440000  0.00249400  1
  O  O8  1  1.00000002  0.02775600  0.66621803  1
  O  O9  1  1.00000002  0.69809401  0.00249401  1
  O  O10  1  0.00000000  0.35905600  0.33176002  1
  O  O11  1  0.50000001  0.73038001  0.46076003  1
  O  O12  1  0.50000001  0.39932700  0.79865404  1
  O  O13  1  0.50000001  0.27058900  0.54117803  1
  O  O14  1  0.50000001  0.60185701  0.20371402  1
  O  O15  1  1.00000002  0.97270401  0.33176003  1
  O  O16  1  0.00000000  0.63846201  0.66621804  1
  O  O17  1  0.50000001  0.06566500  0.13133001  1
