# generated using pymatgen
data_Eu4Mg7Sn
_symmetry_space_group_name_H-M   'P 1'
_cell_length_a   4.53333712
_cell_length_b   8.00574398
_cell_length_c   9.45472527
_cell_angle_alpha   90.00000000
_cell_angle_beta   90.00000000
_cell_angle_gamma   90.00000000
_symmetry_Int_Tables_number   1
_chemical_formula_structural   Eu4Mg7Sn
_chemical_formula_sum   'Eu4 Mg7 Sn1'
_cell_volume   343.13785113
_cell_formula_units_Z   1
loop_
 _symmetry_equiv_pos_site_id
 _symmetry_equiv_pos_as_xyz
  1  'x, y, z'
loop_
 _atom_site_type_symbol
 _atom_site_label
 _atom_site_symmetry_multiplicity
 _atom_site_fract_x
 _atom_site_fract_y
 _atom_site_fract_z
 _atom_site_occupancy
  Sn  Sn0  1  0.24999999  0.23839500  0.63157598  1
  Mg  Mg1  1  0.24999999  0.73839500  0.86842398  1
  Mg  Mg2  1  0.74999998  0.76160500  0.36842399  1
  Mg  Mg3  1  0.74999998  0.26160500  0.13157600  1
  Eu  Eu4  1  0.24999999  0.46170500  0.33181899  1
  Eu  Eu5  1  0.24999999  0.96170500  0.16818100  1
  Eu  Eu6  1  0.74999998  0.53829500  0.66818098  1
  Eu  Eu7  1  0.74999998  0.03829500  0.83181898  1
  Mg  Mg8  1  0.24999999  0.86501700  0.56036198  1
  Mg  Mg9  1  0.24999999  0.36501700  0.93963797  1
  Mg  Mg10  1  0.74999998  0.13498300  0.43963799  1
  Mg  Mg11  1  0.74999998  0.63498300  0.06036200  1
