# generated using pymatgen
data_Sc8InAu6
_symmetry_space_group_name_H-M   'P 1'
_cell_length_a   7.14429760
_cell_length_b   7.14429760
_cell_length_c   7.14429760
_cell_angle_alpha   72.81601715
_cell_angle_beta   72.81601715
_cell_angle_gamma   72.81601715
_symmetry_Int_Tables_number   1
_chemical_formula_structural   Sc8InAu6
_chemical_formula_sum   'Sc8 In1 Au6'
_cell_volume   324.05219388
_cell_formula_units_Z   1
loop_
 _symmetry_equiv_pos_site_id
 _symmetry_equiv_pos_as_xyz
  1  'x, y, z'
loop_
 _atom_site_type_symbol
 _atom_site_label
 _atom_site_symmetry_multiplicity
 _atom_site_fract_x
 _atom_site_fract_y
 _atom_site_fract_z
 _atom_site_occupancy
  In  In0  1  0.49999995  0.50000000  0.50000005  1
  Sc  Sc1  1  0.70756192  0.70756200  0.70756207  1
  Sc  Sc2  1  0.29243797  0.29243800  0.29243803  1
  Sc  Sc3  1  0.67127897  0.16201700  0.88738304  1
  Sc  Sc4  1  0.88738292  0.67127900  0.16201707  1
  Sc  Sc5  1  0.16201692  0.88738300  0.67127906  1
  Sc  Sc6  1  0.32872092  0.83798300  0.11261706  1
  Sc  Sc7  1  0.11261697  0.32872100  0.83798303  1
  Sc  Sc8  1  0.83798297  0.11261700  0.32872104  1
  Au  Au9  1  0.35598595  0.54004800  0.91311005  1
  Au  Au10  1  0.91310995  0.35598600  0.54004806  1
  Au  Au11  1  0.54004791  0.91311000  0.35598607  1
  Au  Au12  1  0.64401395  0.45995200  0.08689005  1
  Au  Au13  1  0.08688994  0.64401400  0.45995204  1
  Au  Au14  1  0.45995198  0.08689000  0.64401403  1
