# generated using pymatgen
data_LaAl19
_symmetry_space_group_name_H-M   'P 1'
_cell_length_a   6.81606960
_cell_length_b   6.86075354
_cell_length_c   9.73982430
_cell_angle_alpha   74.29516602
_cell_angle_beta   89.48866272
_cell_angle_gamma   60.43479156
_symmetry_Int_Tables_number   1
_chemical_formula_structural   LaAl19
_chemical_formula_sum   'La1 Al19'
_cell_volume   377.12519017
_cell_formula_units_Z   1
loop_
 _symmetry_equiv_pos_site_id
 _symmetry_equiv_pos_as_xyz
  1  'x, y, z'
loop_
 _atom_site_type_symbol
 _atom_site_label
 _atom_site_symmetry_multiplicity
 _atom_site_fract_x
 _atom_site_fract_y
 _atom_site_fract_z
 _atom_site_occupancy
  La  La0  1  0.78733201  0.78128500  0.93995606  1
  Al  Al1  1  0.61568001  0.42018600  0.85987704  1
  Al  Al2  1  0.14178400  0.02276300  0.75741203  1
  Al  Al3  1  0.55582001  0.18518700  0.54717303  1
  Al  Al4  1  0.43856700  0.77491500  0.43862304  1
  Al  Al5  1  0.96290302  0.42040500  0.35740303  1
  Al  Al6  1  0.83621302  0.02403700  0.25956601  1
  Al  Al7  1  0.26206400  0.18251900  0.04922101  1
  Al  Al8  1  0.95439603  0.01400400  0.00142100  1
  Al  Al9  1  0.20017799  0.60426100  0.89731905  1
  Al  Al10  1  0.43671401  0.18307600  0.80434404  1
  Al  Al11  1  0.75397101  0.37829100  0.61793403  1
  Al  Al12  1  0.52448500  0.82238600  0.67823205  1
  Al  Al13  1  0.19287099  0.60857100  0.39993803  1
  Al  Al14  1  0.03561800  0.01315500  0.50093402  1
  Al  Al15  1  0.65762100  0.81809800  0.17813203  1
  Al  Al16  1  0.37348101  0.18122400  0.30723902  1
  Al  Al17  1  0.85887302  0.38812700  0.11553602  1
  Al  Al18  1  0.01165999  0.60122700  0.65154004  1
  Al  Al19  1  0.38744900  0.60268900  0.15044302  1
