# generated using pymatgen
data_Sr2IrO4
_symmetry_space_group_name_H-M   'P 1'
_cell_length_a   5.57824993
_cell_length_b   5.63176584
_cell_length_c   7.01279879
_cell_angle_alpha   66.32583618
_cell_angle_beta   90.00000000
_cell_angle_gamma   90.00000000
_symmetry_Int_Tables_number   1
_chemical_formula_structural   Sr2IrO4
_chemical_formula_sum   'Sr4 Ir2 O8'
_cell_volume   201.76940899
_cell_formula_units_Z   2
loop_
 _symmetry_equiv_pos_site_id
 _symmetry_equiv_pos_as_xyz
  1  'x, y, z'
loop_
 _atom_site_type_symbol
 _atom_site_label
 _atom_site_symmetry_multiplicity
 _atom_site_fract_x
 _atom_site_fract_y
 _atom_site_fract_z
 _atom_site_occupancy
  Sr  Sr0  1  -0.00000000  0.64890302  0.70219400  1
  Sr  Sr1  1  0.50000001  0.14496600  0.71006800  1
  Sr  Sr2  1  0.50000001  0.85503403  0.28993200  1
  Sr  Sr3  1  1.00000001  0.35109701  0.29780600  1
  Ir  Ir4  1  0.50000001  0.50000002  -0.00000000  1
  Ir  Ir5  1  0.00000000  0.00000000  0.00000000  1
  O  O6  1  -0.00000000  0.83714103  0.32571800  1
  O  O7  1  0.50000001  0.33991201  0.32017600  1
  O  O8  1  0.50000001  0.66008802  0.67982400  1
  O  O9  1  -0.00000000  0.16285901  0.67428200  1
  O  O10  1  0.24924200  0.25013301  -0.00000000  1
  O  O11  1  0.75075801  0.74986702  -0.00000001  1
  O  O12  1  0.24924200  0.74986702  -0.00000001  1
  O  O13  1  0.75075801  0.25013301  -0.00000000  1
