# generated using pymatgen
data_Mg2Fe(PO4)2
_symmetry_space_group_name_H-M   'P 1'
_cell_length_a   4.86701584
_cell_length_b   4.86701536
_cell_length_c   7.41708422
_cell_angle_alpha   90.00000000
_cell_angle_beta   90.00000000
_cell_angle_gamma   120.00000000
_symmetry_Int_Tables_number   1
_chemical_formula_structural   Mg2Fe(PO4)2
_chemical_formula_sum   'Mg2 Fe1 P2 O8'
_cell_volume   152.15608262
_cell_formula_units_Z   1
loop_
 _symmetry_equiv_pos_site_id
 _symmetry_equiv_pos_as_xyz
  1  'x, y, z'
loop_
 _atom_site_type_symbol
 _atom_site_label
 _atom_site_symmetry_multiplicity
 _atom_site_fract_x
 _atom_site_fract_y
 _atom_site_fract_z
 _atom_site_occupancy
  Mg  Mg0  1  0.66666667  0.33333334  0.81836898  1
  Mg  Mg1  1  0.33333331  0.66666668  0.18163099  1
  Fe  Fe2  1  0.00000000  0.00000000  0.49999999  1
  P  P3  1  0.66666667  0.33333334  0.27716599  1
  P  P4  1  0.33333331  0.66666668  0.72283398  1
  O  O5  1  0.95831399  0.64769401  0.34488099  1
  O  O6  1  0.66666667  0.33333334  0.07385200  1
  O  O7  1  0.68938002  0.04168600  0.34488099  1
  O  O8  1  0.35230599  0.31062000  0.34488099  1
  O  O9  1  0.64769398  0.68938001  0.65511898  1
  O  O10  1  0.31061995  0.95831401  0.65511898  1
  O  O11  1  0.33333331  0.66666668  0.92614797  1
  O  O12  1  0.04168598  0.35230600  0.65511898  1
