# generated using pymatgen
data_Ce5Pt4
_symmetry_space_group_name_H-M   'P 1'
_cell_length_a   4.12554979
_cell_length_b   7.83485794
_cell_length_c   7.83485794
_cell_angle_alpha   120.00000000
_cell_angle_beta   90.00000000
_cell_angle_gamma   90.00000000
_symmetry_Int_Tables_number   1
_chemical_formula_structural   Ce5Pt4
_chemical_formula_sum   'Ce5 Pt4'
_cell_volume   219.31822261
_cell_formula_units_Z   1
loop_
 _symmetry_equiv_pos_site_id
 _symmetry_equiv_pos_as_xyz
  1  'x, y, z'
loop_
 _atom_site_type_symbol
 _atom_site_label
 _atom_site_symmetry_multiplicity
 _atom_site_fract_x
 _atom_site_fract_y
 _atom_site_fract_z
 _atom_site_occupancy
  Ce  Ce0  1  0.50000003  0.00000000  0.58997300  1
  Ce  Ce1  1  0.50000003  0.41002700  0.41002700  1
  Ce  Ce2  1  0.50000003  0.58997300  1.00000000  1
  Pt  Pt3  1  -0.00000000  1.00000001  0.25536700  1
  Ce  Ce4  1  -0.00000000  0.74463300  0.74463300  1
  Ce  Ce5  1  -0.00000000  0.25536700  1.00000000  1
  Pt  Pt6  1  0.50000003  0.00000000  -0.00000000  1
  Pt  Pt7  1  -0.00000000  0.33333334  0.66666667  1
  Pt  Pt8  1  1.00000005  0.66666667  0.33333333  1
