# generated using pymatgen
data_Ca4Mg2RuWO12
_symmetry_space_group_name_H-M   'P 1'
_cell_length_a   5.26002693
_cell_length_b   5.58375883
_cell_length_c   7.66020203
_cell_angle_alpha   90.00000000
_cell_angle_beta   90.71246338
_cell_angle_gamma   90.00000000
_symmetry_Int_Tables_number   1
_chemical_formula_structural   Ca4Mg2RuWO12
_chemical_formula_sum   'Ca4 Mg2 Ru1 W1 O12'
_cell_volume   224.96826891
_cell_formula_units_Z   1
loop_
 _symmetry_equiv_pos_site_id
 _symmetry_equiv_pos_as_xyz
  1  'x, y, z'
loop_
 _atom_site_type_symbol
 _atom_site_label
 _atom_site_symmetry_multiplicity
 _atom_site_fract_x
 _atom_site_fract_y
 _atom_site_fract_z
 _atom_site_occupancy
  Ca  Ca0  1  0.52034501  0.93221503  0.24453800  1
  Ca  Ca1  1  0.47965501  0.06778500  0.75546201  1
  Ca  Ca2  1  0.97965501  0.43221501  0.25546200  1
  Ca  Ca3  1  0.02034500  0.56778502  0.74453802  1
  Mg  Mg4  1  0.50000001  0.50000002  -0.00000001  1
  Mg  Mg5  1  0.00000000  0.00000000  0.50000001  1
  Ru  Ru6  1  0.50000001  0.50000002  0.50000001  1
  W  W7  1  0.00000000  0.00000000  0.00000000  1
  O  O8  1  0.37683600  0.55151202  0.25770900  1
  O  O9  1  0.62316401  0.44848801  0.74229101  1
  O  O10  1  0.12316400  0.05151200  0.24229100  1
  O  O11  1  0.87683601  0.94848803  0.75770901  1
  O  O12  1  0.68474901  0.20337501  0.43096300  1
  O  O13  1  0.31525100  0.79662502  0.56903701  1
  O  O14  1  0.81525101  0.70337502  0.06903699  1
  O  O15  1  0.18474900  0.29662501  0.93096302  1
  O  O16  1  0.80319901  0.68642602  0.44358000  1
  O  O17  1  0.19680100  0.31357401  0.55642001  1
  O  O18  1  0.69680101  0.18642601  0.05641999  1
  O  O19  1  0.30319900  0.81357402  0.94358002  1
