# generated using pymatgen
data_In2S3
_symmetry_space_group_name_H-M   'P 1'
_cell_length_a   6.00956583
_cell_length_b   6.00956631
_cell_length_c   12.90058613
_cell_angle_alpha   90.00000000
_cell_angle_beta   90.00000000
_cell_angle_gamma   120.00000000
_symmetry_Int_Tables_number   1
_chemical_formula_structural   In2S3
_chemical_formula_sum   'In8 S12'
_cell_volume   403.48398599
_cell_formula_units_Z   4
loop_
 _symmetry_equiv_pos_site_id
 _symmetry_equiv_pos_as_xyz
  1  'x, y, z'
loop_
 _atom_site_type_symbol
 _atom_site_label
 _atom_site_symmetry_multiplicity
 _atom_site_fract_x
 _atom_site_fract_y
 _atom_site_fract_z
 _atom_site_occupancy
  S  S0  1  0.00000000  0.00000000  0.00000000  1
  In  In1  1  0.33333335  0.66666665  0.00032600  1
  In  In2  1  0.66666669  0.33333333  0.50032600  1
  In  In3  1  0.00000000  0.00000000  0.50000000  1
  In  In4  1  0.66666669  0.33333333  0.99967399  1
  In  In5  1  0.33333335  0.66666665  0.49967400  1
  In  In6  1  0.33333335  0.66666665  0.25000000  1
  In  In7  1  0.66666669  0.33333333  0.74999999  1
  S  S8  1  0.32798903  0.99417198  0.86955499  1
  S  S9  1  0.67201102  0.00582800  0.36955500  1
  In  In10  1  0.33381701  0.00582800  0.13044500  1
  S  S11  1  0.67201103  0.66618299  0.13044500  1
  S  S12  1  0.99417204  0.66618299  0.36955500  1
  S  S13  1  0.99417203  0.32798899  0.13044500  1
  S  S14  1  0.00582801  0.67201099  0.63044499  1
  S  S15  1  0.66618304  0.99417198  0.63044499  1
  S  S16  1  0.32798901  0.33381699  0.63044499  1
  S  S17  1  0.00582801  0.33381699  0.86955499  1
  S  S18  1  0.33381701  0.32798899  0.36955500  1
  S  S19  1  0.66618303  0.67201099  0.86955499  1
