# generated using pymatgen
data_MgIn3TeSe11
_symmetry_space_group_name_H-M   'P 1'
_cell_length_a   6.12083483
_cell_length_b   6.82417583
_cell_length_c   9.10813236
_cell_angle_alpha   90.00000000
_cell_angle_beta   90.00000000
_cell_angle_gamma   90.00000000
_symmetry_Int_Tables_number   1
_chemical_formula_structural   MgIn3TeSe11
_chemical_formula_sum   'Mg1 In3 Te1 Se11'
_cell_volume   380.44352932
_cell_formula_units_Z   1
loop_
 _symmetry_equiv_pos_site_id
 _symmetry_equiv_pos_as_xyz
  1  'x, y, z'
loop_
 _atom_site_type_symbol
 _atom_site_label
 _atom_site_symmetry_multiplicity
 _atom_site_fract_x
 _atom_site_fract_y
 _atom_site_fract_z
 _atom_site_occupancy
  Te  Te0  1  0.32319101  0.67662402  0.06549000  1
  Se  Se1  1  0.17680900  0.17662400  0.43450998  1
  Se  Se2  1  0.67680902  0.32337601  0.56548998  1
  Se  Se3  1  0.82319102  0.82337602  0.93450996  1
  Se  Se4  1  0.67680902  0.32337601  0.93450996  1
  Se  Se5  1  0.82319102  0.82337602  0.56548998  1
  Se  Se6  1  0.32319101  0.67662402  0.43450998  1
  Se  Se7  1  0.17680900  0.17662400  0.06549000  1
  Se  Se8  1  0.86609202  0.54042801  0.24999999  1
  Se  Se9  1  0.63390802  0.04042800  0.24999999  1
  Se  Se10  1  0.13390800  0.45957201  0.74999997  1
  Se  Se11  1  0.36609201  0.95957202  0.74999997  1
  In  In12  1  0.04855700  0.88911502  0.24999999  1
  In  In13  1  0.45144301  0.38911501  0.24999999  1
  Mg  Mg14  1  0.95144303  0.11088500  0.74999997  1
  In  In15  1  0.54855702  0.61088501  0.74999997  1
