# generated using pymatgen
data_Sc4CoAs3
_symmetry_space_group_name_H-M   'P 1'
_cell_length_a   5.46651363
_cell_length_b   5.46651363
_cell_length_c   5.46651363
_cell_angle_alpha   109.47122192
_cell_angle_beta   109.47122192
_cell_angle_gamma   109.47122192
_symmetry_Int_Tables_number   1
_chemical_formula_structural   Sc4CoAs3
_chemical_formula_sum   'Sc4 Co1 As3'
_cell_volume   125.75040582
_cell_formula_units_Z   1
loop_
 _symmetry_equiv_pos_site_id
 _symmetry_equiv_pos_as_xyz
  1  'x, y, z'
loop_
 _atom_site_type_symbol
 _atom_site_label
 _atom_site_symmetry_multiplicity
 _atom_site_fract_x
 _atom_site_fract_y
 _atom_site_fract_z
 _atom_site_occupancy
  Sc  Sc0  1  1.00000000  0.50000000  0.07057805  1
  Sc  Sc1  1  0.50000002  0.57057800  0.50000003  1
  As  As2  1  0.92942203  0.92942200  0.42942206  1
  Sc  Sc3  1  0.57057805  1.00000000  0.00000007  1
  As  As4  1  0.00000003  0.50000000  0.59236001  1
  As  As5  1  0.49999999  0.09236000  0.50000000  1
  Co  Co6  1  0.40764001  0.40764000  0.90764000  1
  Sc  Sc7  1  0.09236006  1.00000000  1.00000002  1
