# generated using pymatgen
data_LiVO3
_symmetry_space_group_name_H-M   'P 1'
_cell_length_a   5.30599594
_cell_length_b   6.88979197
_cell_length_c   6.88979197
_cell_angle_alpha   85.97090149
_cell_angle_beta   77.53830719
_cell_angle_gamma   77.53830719
_symmetry_Int_Tables_number   1
_chemical_formula_structural   LiVO3
_chemical_formula_sum   'Li4 V4 O12'
_cell_volume   240.06922588
_cell_formula_units_Z   4
loop_
 _symmetry_equiv_pos_site_id
 _symmetry_equiv_pos_as_xyz
  1  'x, y, z'
loop_
 _atom_site_type_symbol
 _atom_site_label
 _atom_site_symmetry_multiplicity
 _atom_site_fract_x
 _atom_site_fract_y
 _atom_site_fract_z
 _atom_site_occupancy
  Li  Li0  1  0.24999997  0.75365300  0.24634704  1
  Li  Li1  1  0.74999999  0.24634700  0.75365300  1
  Li  Li2  1  0.24999999  0.10694700  0.89305300  1
  Li  Li3  1  0.74999996  0.89305300  0.10694704  1
  V  V4  1  0.22423697  0.61254400  0.79653003  1
  V  V5  1  0.27576299  0.20347000  0.38745601  1
  V  V6  1  0.77576298  0.38745600  0.20347001  1
  V  V7  1  0.72423697  0.79653000  0.61254404  1
  O  O8  1  0.44076597  0.70450500  0.58777003  1
  O  O9  1  0.05923398  0.41223000  0.29549502  1
  O  O10  1  0.55923399  0.29549500  0.41223001  1
  O  O11  1  0.94076597  0.58777000  0.70450502  1
  O  O12  1  0.88262196  0.86545100  0.37948804  1
  O  O13  1  0.61737797  0.62051200  0.13454903  1
  O  O14  1  0.11737799  0.13454900  0.62051201  1
  O  O15  1  0.38262198  0.37948800  0.86545102  1
  O  O16  1  0.12002597  0.79540400  0.98357804  1
  O  O17  1  0.37997400  0.01642200  0.20459600  1
  O  O18  1  0.87997399  0.20459600  0.01642200  1
  O  O19  1  0.62002596  0.98357800  0.79540405  1
