# generated using pymatgen
data_Sc5S7
_symmetry_space_group_name_H-M   'P 1'
_cell_length_a   7.49919128
_cell_length_b   7.49919128
_cell_length_c   7.49919128
_cell_angle_alpha   60.00000000
_cell_angle_beta   60.00000000
_cell_angle_gamma   60.00000000
_symmetry_Int_Tables_number   1
_chemical_formula_structural   Sc5S7
_chemical_formula_sum   'Sc5 S7'
_cell_volume   298.21418429
_cell_formula_units_Z   1
loop_
 _symmetry_equiv_pos_site_id
 _symmetry_equiv_pos_as_xyz
  1  'x, y, z'
loop_
 _atom_site_type_symbol
 _atom_site_label
 _atom_site_symmetry_multiplicity
 _atom_site_fract_x
 _atom_site_fract_y
 _atom_site_fract_z
 _atom_site_occupancy
  S  S0  1  0.61434200  0.61434200  0.61434200  1
  S  S1  1  0.61434200  0.61434200  0.15697400  1
  S  S2  1  0.59302600  0.13565800  0.13565800  1
  S  S3  1  0.13565800  0.13565800  0.59302600  1
  Sc  Sc4  1  0.13565800  0.13565800  0.13565800  1
  S  S5  1  0.13565800  0.59302600  0.13565800  1
  S  S6  1  0.15697400  0.61434200  0.61434200  1
  S  S7  1  0.61434200  0.15697400  0.61434200  1
  Sc  Sc8  1  0.37500000  0.37500000  0.87500000  1
  Sc  Sc9  1  0.37500000  0.37500000  0.37500000  1
  Sc  Sc10  1  0.37500000  0.87500000  0.37500000  1
  Sc  Sc11  1  0.87500000  0.37500000  0.37500000  1
