# generated using pymatgen
data_ScPa3SiCl6O
_symmetry_space_group_name_H-M   'P 1'
_cell_length_a   7.34942770
_cell_length_b   7.34942770
_cell_length_c   7.34942770
_cell_angle_alpha   60.00000000
_cell_angle_beta   60.00000000
_cell_angle_gamma   60.00000000
_symmetry_Int_Tables_number   1
_chemical_formula_structural   ScPa3SiCl6O
_chemical_formula_sum   'Sc1 Pa3 Si1 Cl6 O1'
_cell_volume   280.70203932
_cell_formula_units_Z   1
loop_
 _symmetry_equiv_pos_site_id
 _symmetry_equiv_pos_as_xyz
  1  'x, y, z'
loop_
 _atom_site_type_symbol
 _atom_site_label
 _atom_site_symmetry_multiplicity
 _atom_site_fract_x
 _atom_site_fract_y
 _atom_site_fract_z
 _atom_site_occupancy
  Si  Si0  1  0.05308400  0.64897198  0.64897198  1
  Pa  Pa1  1  0.64897298  0.05308300  0.64897198  1
  Pa  Pa2  1  0.64897298  0.64897198  0.64897198  1
  Pa  Pa3  1  0.64897298  0.64897198  0.05308300  1
  O  O4  1  0.36349499  0.87883497  0.87883497  1
  Cl  Cl5  1  0.87883597  0.36349399  0.87883497  1
  Sc  Sc6  1  0.87883597  0.87883497  0.87883497  1
  Cl  Cl7  1  0.87883597  0.87883497  0.36349399  1
  Cl  Cl8  1  0.86564597  0.37811799  0.37811799  1
  Cl  Cl9  1  0.37811899  0.86564497  0.37811799  1
  Cl  Cl10  1  0.37811899  0.37811799  0.37811799  1
  Cl  Cl11  1  0.37811899  0.37811799  0.86564497  1
