# generated using pymatgen
data_Te2W
_symmetry_space_group_name_H-M   'P 1'
_cell_length_a   3.56002808
_cell_length_b   3.56002831
_cell_length_c   40.10416412
_cell_angle_alpha   90.00000000
_cell_angle_beta   90.00000000
_cell_angle_gamma   120.00000000
_symmetry_Int_Tables_number   1
_chemical_formula_structural   Te2W
_chemical_formula_sum   'Te8 W4'
_cell_volume   440.17662461
_cell_formula_units_Z   4
loop_
 _symmetry_equiv_pos_site_id
 _symmetry_equiv_pos_as_xyz
  1  'x, y, z'
loop_
 _atom_site_type_symbol
 _atom_site_label
 _atom_site_symmetry_multiplicity
 _atom_site_fract_x
 _atom_site_fract_y
 _atom_site_fract_z
 _atom_site_occupancy
  Te  Te0  1  0.00000000  0.00000000  0.67287800  1
  Te  Te1  1  0.00000000  0.00000000  0.29719200  1
  Te  Te2  1  0.66666667  0.33333334  0.95120000  1
  Te  Te3  1  0.66666667  0.33333334  0.57547500  1
  Te  Te4  1  0.66666667  0.33333334  0.86093400  1
  Te  Te5  1  0.66666667  0.33333334  0.48520300  1
  Te  Te6  1  0.00000000  0.00000000  0.76350700  1
  Te  Te7  1  0.00000000  0.00000000  0.38777300  1
  W  W8  1  0.00000000  0.00000000  0.90609000  1
  W  W9  1  0.00000000  0.00000000  0.53034000  1
  W  W10  1  0.66666667  0.33333334  0.71820500  1
  W  W11  1  0.66666667  0.33333334  0.34245500  1
