# generated using pymatgen
data_LaGd3Cl8
_symmetry_space_group_name_H-M   'P 1'
_cell_length_a   4.01900816
_cell_length_b   8.52705002
_cell_length_c   11.10876656
_cell_angle_alpha   90.00000000
_cell_angle_beta   90.00000000
_cell_angle_gamma   103.63066101
_symmetry_Int_Tables_number   1
_chemical_formula_structural   LaGd3Cl8
_chemical_formula_sum   'La1 Gd3 Cl8'
_cell_volume   369.97815933
_cell_formula_units_Z   1
loop_
 _symmetry_equiv_pos_site_id
 _symmetry_equiv_pos_as_xyz
  1  'x, y, z'
loop_
 _atom_site_type_symbol
 _atom_site_label
 _atom_site_symmetry_multiplicity
 _atom_site_fract_x
 _atom_site_fract_y
 _atom_site_fract_z
 _atom_site_occupancy
  La  La0  1  0.34684190  0.69368401  0.72797503  1
  Cl  Cl1  1  0.65315793  0.30631600  0.22797501  1
  Cl  Cl2  1  0.22877093  0.45754201  0.53908502  1
  Cl  Cl3  1  0.77122890  0.54245801  0.03908500  1
  Gd  Gd4  1  0.27470492  0.54941001  0.30167101  1
  Cl  Cl5  1  0.37832289  0.75664601  0.99904804  1
  Cl  Cl6  1  0.72529491  0.45059001  0.80167103  1
  Cl  Cl7  1  0.97779884  0.95559801  0.75893203  1
  Cl  Cl8  1  0.10354397  0.20708800  0.04112900  1
  Cl  Cl9  1  0.89645586  0.79291201  0.54112902  1
  Gd  Gd10  1  0.02220099  0.04440200  0.25893201  1
  Gd  Gd11  1  0.62167694  0.24335400  0.49904802  1
