# generated using pymatgen
data_Ca4YMn4O11
_symmetry_space_group_name_H-M   'P 1'
_cell_length_a   5.50502396
_cell_length_b   5.93747616
_cell_length_c   7.97931337
_cell_angle_alpha   90.00000000
_cell_angle_beta   91.25995636
_cell_angle_gamma   90.00000000
_symmetry_Int_Tables_number   1
_chemical_formula_structural   Ca4YMn4O11
_chemical_formula_sum   'Ca4 Y1 Mn4 O11'
_cell_volume   260.74836724
_cell_formula_units_Z   1
loop_
 _symmetry_equiv_pos_site_id
 _symmetry_equiv_pos_as_xyz
  1  'x, y, z'
loop_
 _atom_site_type_symbol
 _atom_site_label
 _atom_site_symmetry_multiplicity
 _atom_site_fract_x
 _atom_site_fract_y
 _atom_site_fract_z
 _atom_site_occupancy
  Y  Y0  1  0.50000000  0.49999999  0.49999999  1
  Mn  Mn1  1  0.00000000  0.00000000  0.00000000  1
  Ca  Ca2  1  0.47676100  0.92525498  0.25510800  1
  Ca  Ca3  1  0.02323900  0.42525499  0.24489200  1
  Ca  Ca4  1  0.97676101  0.57474498  0.75510799  1
  Ca  Ca5  1  0.52323900  0.07474500  0.74489199  1
  Mn  Mn6  1  0.50000000  0.49999999  0.00000000  1
  Mn  Mn7  1  0.00000000  0.00000000  0.49999999  1
  O  O8  1  0.83968501  0.28268999  0.57382499  1
  O  O9  1  0.66031501  0.78268998  0.92617499  1
  O  O10  1  0.16031500  0.71730998  0.42617499  1
  O  O11  1  0.33968500  0.21730999  0.07382500  1
  O  O12  1  0.13027100  0.94300197  0.73204999  1
  O  O13  1  0.36972900  0.44300199  0.76794999  1
  Mn  Mn14  1  0.86972901  0.05699800  0.26795000  1
  O  O15  1  0.63027101  0.55699799  0.23205000  1
  O  O16  1  0.20136800  0.67343298  0.05510600  1
  O  O17  1  0.29863200  0.17343300  0.44489399  1
  O  O18  1  0.79863201  0.32656699  0.94489399  1
  O  O19  1  0.70136801  0.82656698  0.55510599  1
