# generated using pymatgen
data_La(BIr)4
_symmetry_space_group_name_H-M   'P 1'
_cell_length_a   4.01471376
_cell_length_b   7.68715286
_cell_length_c   7.68715286
_cell_angle_alpha   90.00000000
_cell_angle_beta   90.00000000
_cell_angle_gamma   90.00000000
_symmetry_Int_Tables_number   1
_chemical_formula_structural   La(BIr)4
_chemical_formula_sum   'La2 B8 Ir8'
_cell_volume   237.23874698
_cell_formula_units_Z   2
loop_
 _symmetry_equiv_pos_site_id
 _symmetry_equiv_pos_as_xyz
  1  'x, y, z'
loop_
 _atom_site_type_symbol
 _atom_site_label
 _atom_site_symmetry_multiplicity
 _atom_site_fract_x
 _atom_site_fract_y
 _atom_site_fract_z
 _atom_site_occupancy
  La  La0  1  0.25144601  0.25000000  0.25000000  1
  La  La1  1  0.75144604  0.75000001  0.75000001  1
  B  B2  1  0.35996102  0.91119902  0.03502600  1
  B  B3  1  0.35996102  0.58880101  0.46497401  1
  B  B4  1  0.85996105  0.53502601  0.08880100  1
  B  B5  1  0.85996105  0.96497402  0.41119901  1
  B  B6  1  0.64255504  0.08645300  0.97048002  1
  B  B7  1  0.64255504  0.41354701  0.52952001  1
  B  B8  1  0.14255501  0.47048001  0.91354702  1
  B  B9  1  0.14255501  0.02952000  0.58645301  1
  Ir  Ir10  1  0.14012401  0.40246001  0.64005801  1
  Ir  Ir11  1  0.14012401  0.09754000  0.85994202  1
  Ir  Ir12  1  0.64012404  0.14005800  0.59754001  1
  Ir  Ir13  1  0.64012404  0.35994201  0.90246002  1
  Ir  Ir14  1  0.85663805  0.60472001  0.35863301  1
  Ir  Ir15  1  0.85663805  0.89528002  0.14136700  1
  Ir  Ir16  1  0.35663802  0.85863302  0.39528001  1
  Ir  Ir17  1  0.35663802  0.64136701  0.10472000  1
