# generated using pymatgen
data_LiFe2Bi3O10
_symmetry_space_group_name_H-M   'P 1'
_cell_length_a   5.21408796
_cell_length_b   5.49046755
_cell_length_c   6.73663187
_cell_angle_alpha   93.10735321
_cell_angle_beta   112.76766205
_cell_angle_gamma   90.00000000
_symmetry_Int_Tables_number   1
_chemical_formula_structural   LiFe2Bi3O10
_chemical_formula_sum   'Li1 Fe2 Bi3 O10'
_cell_volume   177.52035347
_cell_formula_units_Z   1
loop_
 _symmetry_equiv_pos_site_id
 _symmetry_equiv_pos_as_xyz
  1  'x, y, z'
loop_
 _atom_site_type_symbol
 _atom_site_label
 _atom_site_symmetry_multiplicity
 _atom_site_fract_x
 _atom_site_fract_y
 _atom_site_fract_z
 _atom_site_occupancy
  Fe  Fe0  1  0.50000001  0.00000000  0.50000000  1
  Fe  Fe1  1  0.00000002  0.50000001  0.50000001  1
  Bi  Bi2  1  0.86772902  0.05150000  0.20210703  1
  Bi  Bi3  1  0.33437803  0.55150001  0.20210704  1
  Li  Li4  1  0.66562203  0.44850001  0.79789302  1
  Bi  Bi5  1  0.13227103  0.94850002  0.79789303  1
  O  O6  1  0.70543903  0.41054901  0.18917604  1
  O  O7  1  0.48373704  0.91054902  0.18917606  1
  O  O8  1  0.28345902  0.31910901  0.42705601  1
  O  O9  1  0.14359703  0.81910902  0.42705604  1
  O  O10  1  0.85640303  0.18089100  0.57294402  1
  O  O11  1  0.71654104  0.68089102  0.57294405  1
  O  O12  1  0.51626302  0.08945100  0.81082400  1
  O  O13  1  0.29456103  0.58945102  0.81082402  1
  O  O14  1  0.05344901  0.25000001  0.00000002  1
  O  O15  1  0.94655105  0.75000002  0.00000008  1
