# generated using pymatgen
data_InTe
_symmetry_space_group_name_H-M   'P 1'
_cell_length_a   4.31951380
_cell_length_b   4.31951427
_cell_length_c   17.75254059
_cell_angle_alpha   90.00000000
_cell_angle_beta   90.00000000
_cell_angle_gamma   120.00000000
_symmetry_Int_Tables_number   1
_chemical_formula_structural   InTe
_chemical_formula_sum   'In5 Te5'
_cell_volume   286.85400983
_cell_formula_units_Z   5
loop_
 _symmetry_equiv_pos_site_id
 _symmetry_equiv_pos_as_xyz
  1  'x, y, z'
loop_
 _atom_site_type_symbol
 _atom_site_label
 _atom_site_symmetry_multiplicity
 _atom_site_fract_x
 _atom_site_fract_y
 _atom_site_fract_z
 _atom_site_occupancy
  Te  Te0  1  0.00000000  0.00000000  0.49999998  1
  In  In1  1  0.00000000  0.00000000  0.00000000  1
  In  In2  1  0.66666670  0.33333332  0.17041899  1
  Te  Te3  1  0.33333336  0.66666665  0.67041898  1
  In  In4  1  0.33333336  0.66666665  0.82958097  1
  Te  Te5  1  0.66666670  0.33333332  0.32958099  1
  In  In6  1  0.33333336  0.66666665  0.39600299  1
  Te  Te7  1  0.33333336  0.66666665  0.10399700  1
  Te  Te8  1  0.66666670  0.33333332  0.89600297  1
  In  In9  1  0.66666670  0.33333332  0.60399698  1
