# generated using pymatgen
data_Tm2(Fe3Si)3
_symmetry_space_group_name_H-M   'P 1'
_cell_length_a   3.76268101
_cell_length_b   7.03084278
_cell_length_c   7.03084278
_cell_angle_alpha   90.00000000
_cell_angle_beta   90.00000000
_cell_angle_gamma   90.00000000
_symmetry_Int_Tables_number   1
_chemical_formula_structural   Tm2(Fe3Si)3
_chemical_formula_sum   'Tm2 Fe9 Si3'
_cell_volume   185.99967037
_cell_formula_units_Z   1
loop_
 _symmetry_equiv_pos_site_id
 _symmetry_equiv_pos_as_xyz
  1  'x, y, z'
loop_
 _atom_site_type_symbol
 _atom_site_label
 _atom_site_symmetry_multiplicity
 _atom_site_fract_x
 _atom_site_fract_y
 _atom_site_fract_z
 _atom_site_occupancy
  Tm  Tm0  1  1.00000000  0.50000002  0.50000002  1
  Tm  Tm1  1  0.50000000  0.00000000  0.00000000  1
  Fe  Fe2  1  0.50000000  0.59081902  0.15616500  1
  Fe  Fe3  1  0.50000000  0.40918101  0.84383503  1
  Fe  Fe4  1  1.00000000  0.09081900  0.34383501  1
  Fe  Fe5  1  0.00000000  0.90918103  0.65616502  1
  Fe  Fe6  1  0.50000000  0.15616500  0.59081902  1
  Fe  Fe7  1  0.50000000  0.84383503  0.40918101  1
  Fe  Fe8  1  1.00000000  0.34383501  0.09081900  1
  Fe  Fe9  1  0.00000000  0.65616502  0.90918103  1
  Si  Si10  1  0.50000000  0.71635202  0.71635202  1
  Fe  Fe11  1  0.50000000  0.28364801  0.28364801  1
  Si  Si12  1  1.00000000  0.21635201  0.78364802  1
  Si  Si13  1  0.00000000  0.78364802  0.21635201  1
