# generated using pymatgen
data_Na(CuO2)2
_symmetry_space_group_name_H-M   'P 1'
_cell_length_a   5.69617414
_cell_length_b   6.28762388
_cell_length_c   5.69617414
_cell_angle_alpha   63.06578827
_cell_angle_beta   90.00000000
_cell_angle_gamma   116.93421173
_symmetry_Int_Tables_number   1
_chemical_formula_structural   Na(CuO2)2
_chemical_formula_sum   'Na2 Cu4 O8'
_cell_volume   156.65602969
_cell_formula_units_Z   2
loop_
 _symmetry_equiv_pos_site_id
 _symmetry_equiv_pos_as_xyz
  1  'x, y, z'
loop_
 _atom_site_type_symbol
 _atom_site_label
 _atom_site_symmetry_multiplicity
 _atom_site_fract_x
 _atom_site_fract_y
 _atom_site_fract_z
 _atom_site_occupancy
  Na  Na0  1  0.00000000  0.00000000  0.00000000  1
  Na  Na1  1  0.74999996  0.49999997  0.75000000  1
  Cu  Cu2  1  0.87499997  0.24999999  0.37500000  1
  Cu  Cu3  1  0.37499998  0.24999999  0.37500000  1
  Cu  Cu4  1  0.37499996  0.74999996  0.37500002  1
  Cu  Cu5  1  0.37499996  0.74999996  0.87500001  1
  O  O6  1  0.40502699  0.10501099  0.73980199  1
  O  O7  1  0.69998398  0.10501099  0.15518700  1
  O  O8  1  0.34497297  0.39498898  0.01019802  1
  O  O9  1  0.05001598  0.39498898  0.59481300  1
  O  O10  1  0.01019797  0.60501096  0.05001602  1
  O  O11  1  0.59481296  0.60501096  0.34497302  1
  O  O12  1  0.15518696  0.89498895  0.40502703  1
  O  O13  1  0.73980194  0.89498895  0.69998402  1
