# generated using pymatgen
data_Zr6AlSi6
_symmetry_space_group_name_H-M   'P 1'
_cell_length_a   5.44570017
_cell_length_b   5.44570017
_cell_length_c   8.99373436
_cell_angle_alpha   90.00000000
_cell_angle_beta   90.00000000
_cell_angle_gamma   120.00000000
_symmetry_Int_Tables_number   1
_chemical_formula_structural   Zr6AlSi6
_chemical_formula_sum   'Zr6 Al1 Si6'
_cell_volume   230.98200134
_cell_formula_units_Z   1
loop_
 _symmetry_equiv_pos_site_id
 _symmetry_equiv_pos_as_xyz
  1  'x, y, z'
loop_
 _atom_site_type_symbol
 _atom_site_label
 _atom_site_symmetry_multiplicity
 _atom_site_fract_x
 _atom_site_fract_y
 _atom_site_fract_z
 _atom_site_occupancy
  Al  Al0  1  0.00000000  0.00000000  0.00000000  1
  Si  Si1  1  0.50000001  0.50000003  0.75091097  1
  Si  Si2  1  0.50000001  0.50000003  0.24908899  1
  Si  Si3  1  0.00000002  0.50000003  0.75091097  1
  Si  Si4  1  0.00000002  0.50000003  0.24908899  1
  Si  Si5  1  0.50000003  1.00000007  0.75091097  1
  Si  Si6  1  0.50000003  1.00000007  0.24908899  1
  Zr  Zr7  1  0.00000000  0.00000000  0.67424397  1
  Zr  Zr8  1  0.00000000  0.00000000  0.32575599  1
  Zr  Zr9  1  0.66666666  0.33333336  0.99999996  1
  Zr  Zr10  1  0.33333336  0.66666671  0.99999996  1
  Zr  Zr11  1  0.66666666  0.33333336  0.49999998  1
  Zr  Zr12  1  0.33333336  0.66666671  0.49999998  1
