# generated using pymatgen
data_Ce(MgSb)2
_symmetry_space_group_name_H-M   'P 1'
_cell_length_a   3.70884609
_cell_length_b   8.17049217
_cell_length_c   8.17049217
_cell_angle_alpha   90.00000000
_cell_angle_beta   90.00000000
_cell_angle_gamma   90.00000000
_symmetry_Int_Tables_number   1
_chemical_formula_structural   Ce(MgSb)2
_chemical_formula_sum   'Ce2 Mg4 Sb4'
_cell_volume   247.59122471
_cell_formula_units_Z   2
loop_
 _symmetry_equiv_pos_site_id
 _symmetry_equiv_pos_as_xyz
  1  'x, y, z'
loop_
 _atom_site_type_symbol
 _atom_site_label
 _atom_site_symmetry_multiplicity
 _atom_site_fract_x
 _atom_site_fract_y
 _atom_site_fract_z
 _atom_site_occupancy
  Mg  Mg0  1  0.49999999  0.17384300  0.67384299  1
  Mg  Mg1  1  0.49999999  0.82615698  0.32615699  1
  Mg  Mg2  1  0.49999999  0.32615699  0.17384300  1
  Mg  Mg3  1  0.49999999  0.67384299  0.82615698  1
  Sb  Sb4  1  0.00000000  0.62279599  0.12279600  1
  Sb  Sb5  1  0.00000000  0.37720399  0.87720398  1
  Sb  Sb6  1  0.00000000  0.87720398  0.62279599  1
  Sb  Sb7  1  0.00000000  0.12279600  0.37720399  1
  Ce  Ce8  1  0.00000000  0.00000000  0.00000000  1
  Ce  Ce9  1  0.00000000  0.49999999  0.49999999  1
