# generated using pymatgen
data_Zr6Ti3Si7C2
_symmetry_space_group_name_H-M   'P 1'
_cell_length_a   5.41865683
_cell_length_b   7.47283602
_cell_length_c   7.47283697
_cell_angle_alpha   119.99999237
_cell_angle_beta   90.00000000
_cell_angle_gamma   90.00000000
_symmetry_Int_Tables_number   1
_chemical_formula_structural   Zr6Ti3Si7C2
_chemical_formula_sum   'Zr6 Ti3 Si7 C2'
_cell_volume   262.05549589
_cell_formula_units_Z   1
loop_
 _symmetry_equiv_pos_site_id
 _symmetry_equiv_pos_as_xyz
  1  'x, y, z'
loop_
 _atom_site_type_symbol
 _atom_site_label
 _atom_site_symmetry_multiplicity
 _atom_site_fract_x
 _atom_site_fract_y
 _atom_site_fract_z
 _atom_site_occupancy
  Zr  Zr0  1  0.25000001  0.76494597  0.76494596  1
  Zr  Zr1  1  0.75000002  0.23505399  0.23505399  1
  Zr  Zr2  1  0.25000001  0.00000000  0.23505400  1
  Zr  Zr3  1  0.75000002  0.00000000  0.76494601  1
  Zr  Zr4  1  0.25000001  0.23505399  -0.00000001  1
  Zr  Zr5  1  0.75000002  0.76494597  -0.00000005  1
  Ti  Ti6  1  0.50000002  0.66666664  0.33333329  1
  Ti  Ti7  1  0.50000002  0.33333332  0.66666665  1
  Ti  Ti8  1  0.00000000  0.33333332  0.66666665  1
  Si  Si9  1  1.00000003  0.66666664  0.33333329  1
  Si  Si10  1  0.25000001  0.40471799  0.40471798  1
  Si  Si11  1  0.75000002  0.59528198  0.59528197  1
  Si  Si12  1  0.25000001  0.00000000  0.59528200  1
  Si  Si13  1  0.75000002  0.00000000  0.40471800  1
  Si  Si14  1  0.25000001  0.59528198  -0.00000004  1
  Si  Si15  1  0.75000002  0.40471799  -0.00000003  1
  C  C16  1  0.50000002  0.00000000  -0.00000000  1
  C  C17  1  0.00000000  0.00000000  0.00000000  1
