# generated using pymatgen
data_Mg2Mn9AlB8
_symmetry_space_group_name_H-M   'P 1'
_cell_length_a   2.88976789
_cell_length_b   5.24962425
_cell_length_c   13.46289825
_cell_angle_alpha   90.00000000
_cell_angle_beta   90.00000000
_cell_angle_gamma   105.97605896
_symmetry_Int_Tables_number   1
_chemical_formula_structural   Mg2Mn9AlB8
_chemical_formula_sum   'Mg2 Mn9 Al1 B8'
_cell_volume   196.34659536
_cell_formula_units_Z   1
loop_
 _symmetry_equiv_pos_site_id
 _symmetry_equiv_pos_as_xyz
  1  'x, y, z'
loop_
 _atom_site_type_symbol
 _atom_site_label
 _atom_site_symmetry_multiplicity
 _atom_site_fract_x
 _atom_site_fract_y
 _atom_site_fract_z
 _atom_site_occupancy
  Mn  Mn0  1  0.17471699  0.34943401  0.05849200  1
  Mg  Mg1  1  0.99838200  0.99676402  0.25000000  1
  Mg  Mg2  1  0.00161800  0.00323600  0.74999999  1
  Mn  Mn3  1  0.73123601  0.46247201  0.74999999  1
  Mn  Mn4  1  0.26876399  0.53752801  0.25000000  1
  Mn  Mn5  1  0.82528300  0.65056601  0.94150798  1
  Al  Al6  1  0.82528300  0.65056601  0.55849199  1
  Mn  Mn7  1  0.17471699  0.34943401  0.44150799  1
  B  B8  1  0.20186899  0.40373801  0.63027999  1
  B  B9  1  0.20186899  0.40373801  0.86971998  1
  B  B10  1  0.79813101  0.59626201  0.36971999  1
  B  B11  1  0.36482498  0.72965002  0.68167299  1
  B  B12  1  0.63517501  0.27035001  0.31832699  1
  B  B13  1  0.36482498  0.72965002  0.81832698  1
  B  B14  1  0.79813101  0.59626201  0.13028000  1
  B  B15  1  0.63517501  0.27035001  0.18167300  1
  Mn  Mn16  1  0.55614602  0.11229200  0.58899599  1
  Mn  Mn17  1  0.55614602  0.11229200  0.91100398  1
  Mn  Mn18  1  0.44385398  0.88770802  0.08899600  1
  Mn  Mn19  1  0.44385398  0.88770802  0.41100399  1
