# generated using pymatgen
data_Ba4Ti2AlS13
_symmetry_space_group_name_H-M   'P 1'
_cell_length_a   3.89084697
_cell_length_b   8.86234570
_cell_length_c   14.29641438
_cell_angle_alpha   90.00000000
_cell_angle_beta   90.00000000
_cell_angle_gamma   90.00000000
_symmetry_Int_Tables_number   1
_chemical_formula_structural   Ba4Ti2AlS13
_chemical_formula_sum   'Ba4 Ti2 Al1 S13'
_cell_volume   492.96940191
_cell_formula_units_Z   1
loop_
 _symmetry_equiv_pos_site_id
 _symmetry_equiv_pos_as_xyz
  1  'x, y, z'
loop_
 _atom_site_type_symbol
 _atom_site_label
 _atom_site_symmetry_multiplicity
 _atom_site_fract_x
 _atom_site_fract_y
 _atom_site_fract_z
 _atom_site_occupancy
  Ba  Ba0  1  0.75000001  0.05742900  0.67208798  1
  Ba  Ba1  1  0.25000000  0.94257103  0.32791199  1
  Ba  Ba2  1  0.75000001  0.55742902  0.82791198  1
  Ba  Ba3  1  0.25000000  0.44257102  0.17208800  1
  Ti  Ti4  1  0.75000001  0.33829101  0.44809999  1
  Ti  Ti5  1  0.25000000  0.66170902  0.55189999  1
  S  S6  1  0.75000001  0.83829103  0.05190000  1
  Al  Al7  1  0.25000000  0.16170901  0.94809998  1
  S  S8  1  0.25000000  0.02042100  0.09620400  1
  S  S9  1  0.75000001  0.97957903  0.90379598  1
  S  S10  1  0.25000000  0.52042102  0.40379599  1
  S  S11  1  0.75000001  0.47957902  0.59620398  1
  S  S12  1  0.25000000  0.18261101  0.50580699  1
  S  S13  1  0.75000001  0.81738903  0.49419299  1
  S  S14  1  0.25000000  0.68261102  0.99419297  1
  S  S15  1  0.75000001  0.31738901  0.00580700  1
  S  S16  1  0.75000001  0.23235901  0.29735699  1
  S  S17  1  0.25000000  0.76764103  0.70264298  1
  S  S18  1  0.75000001  0.73235903  0.20264299  1
  S  S19  1  0.25000000  0.26764101  0.79735698  1
