# generated using pymatgen
data_Ce7Ni9
_symmetry_space_group_name_H-M   'P 1'
_cell_length_a   4.06801176
_cell_length_b   5.62980318
_cell_length_c   13.56199265
_cell_angle_alpha   90.00000000
_cell_angle_beta   90.00000000
_cell_angle_gamma   111.17959595
_symmetry_Int_Tables_number   1
_chemical_formula_structural   Ce7Ni9
_chemical_formula_sum   'Ce7 Ni9'
_cell_volume   289.61806315
_cell_formula_units_Z   1
loop_
 _symmetry_equiv_pos_site_id
 _symmetry_equiv_pos_as_xyz
  1  'x, y, z'
loop_
 _atom_site_type_symbol
 _atom_site_label
 _atom_site_symmetry_multiplicity
 _atom_site_fract_x
 _atom_site_fract_y
 _atom_site_fract_z
 _atom_site_occupancy
  Ce  Ce0  1  0.36170998  0.72341997  0.75000002  1
  Ce  Ce1  1  0.63829002  0.27657999  0.25000001  1
  Ce  Ce2  1  0.07850300  0.15700599  0.88707102  1
  Ce  Ce3  1  0.92149700  0.84299397  0.11292900  1
  Ce  Ce4  1  0.92149700  0.84299397  0.38707101  1
  Ce  Ce5  1  0.07850300  0.15700599  0.61292902  1
  Ni  Ni6  1  0.21484899  0.42969799  0.41973001  1
  Ni  Ni7  1  0.78515101  0.57030198  0.58027002  1
  Ni  Ni8  1  0.78515101  0.57030198  0.91973002  1
  Ce  Ce9  1  0.21484899  0.42969799  0.08027000  1
  Ni  Ni10  1  0.67275902  0.34551799  0.75000002  1
  Ni  Ni11  1  0.32724098  0.65448198  0.25000001  1
  Ni  Ni12  1  0.37600098  0.75200197  0.96117103  1
  Ni  Ni13  1  0.62399902  0.24799799  0.03882900  1
  Ni  Ni14  1  0.62399902  0.24799799  0.46117101  1
  Ni  Ni15  1  0.37600098  0.75200197  0.53882901  1
