# generated using pymatgen
data_BaSrCu2(OsN5)2
_symmetry_space_group_name_H-M   'P 1'
_cell_length_a   5.14574385
_cell_length_b   5.40239477
_cell_length_c   7.49533176
_cell_angle_alpha   90.00000000
_cell_angle_beta   90.00000000
_cell_angle_gamma   90.00000000
_symmetry_Int_Tables_number   1
_chemical_formula_structural   BaSrCu2(OsN5)2
_chemical_formula_sum   'Ba1 Sr1 Cu2 Os2 N10'
_cell_volume   208.36527354
_cell_formula_units_Z   1
loop_
 _symmetry_equiv_pos_site_id
 _symmetry_equiv_pos_as_xyz
  1  'x, y, z'
loop_
 _atom_site_type_symbol
 _atom_site_label
 _atom_site_symmetry_multiplicity
 _atom_site_fract_x
 _atom_site_fract_y
 _atom_site_fract_z
 _atom_site_occupancy
  N  N0  1  0.00000000  0.50000002  -0.00000000  1
  Os  Os1  1  0.00000000  0.50000002  0.50000002  1
  N  N2  1  0.50000001  0.00000000  0.00000000  1
  Os  Os3  1  0.50000001  0.00000000  0.50000002  1
  N  N4  1  0.12102700  0.52826702  0.75000002  1
  Ba  Ba5  1  0.68315202  0.68955803  0.55967902  1
  N  N6  1  0.68315202  0.68955803  0.94032103  1
  Cu  Cu7  1  0.18315201  0.81044203  0.05967900  1
  N  N8  1  0.18315201  0.81044203  0.44032101  1
  N  N9  1  0.62102702  0.97173304  0.25000001  1
  N  N10  1  0.37897301  0.02826700  0.75000002  1
  Sr  Sr11  1  0.81684802  0.18955801  0.94032103  1
  N  N12  1  0.81684802  0.18955801  0.55967902  1
  Cu  Cu13  1  0.31684801  0.31044201  0.05967900  1
  N  N14  1  0.31684801  0.31044201  0.44032101  1
  N  N15  1  0.87897303  0.47173302  0.25000001  1
