# generated using pymatgen
data_Li3Mn5O8
_symmetry_space_group_name_H-M   'P 1'
_cell_length_a   5.28622198
_cell_length_b   5.28615332
_cell_length_c   5.75373983
_cell_angle_alpha   89.99896240
_cell_angle_beta   89.99851990
_cell_angle_gamma   113.98414612
_symmetry_Int_Tables_number   1
_chemical_formula_structural   Li3Mn5O8
_chemical_formula_sum   'Li3 Mn5 O8'
_cell_volume   146.89906019
_cell_formula_units_Z   1
loop_
 _symmetry_equiv_pos_site_id
 _symmetry_equiv_pos_as_xyz
  1  'x, y, z'
loop_
 _atom_site_type_symbol
 _atom_site_label
 _atom_site_symmetry_multiplicity
 _atom_site_fract_x
 _atom_site_fract_y
 _atom_site_fract_z
 _atom_site_occupancy
  Li  Li0  1  0.50001600  0.00001100  0.25000804  1
  Li  Li1  1  0.99997901  0.49999403  0.74998807  1
  Mn  Mn2  1  0.50002202  0.50001803  0.00223402  1
  Li  Li3  1  0.99997403  0.99998305  0.49776105  1
  Mn  Mn4  1  0.99992403  0.99994605  0.99773807  1
  Mn  Mn5  1  0.50008702  0.50004803  0.50225603  1
  Mn  Mn6  1  0.49986500  0.00001000  0.75003805  1
  Mn  Mn7  1  0.00015002  0.49997803  0.24998200  1
  O  O8  1  0.22980001  0.27021801  0.24999601  1
  O  O9  1  0.73024803  0.76973204  0.75000105  1
  O  O10  1  0.77026102  0.72974204  0.24999704  1
  O  O11  1  0.26967901  0.23031801  0.75000303  1
  O  O12  1  0.76486700  0.23515201  0.99976607  1
  O  O13  1  0.26483303  0.73515004  0.50023401  1
  O  O14  1  0.73515801  0.26485501  0.50023405  1
  O  O15  1  0.23513803  0.76484604  0.99976303  1
