# generated using pymatgen
data_Zr2V3Fe
_symmetry_space_group_name_H-M   'P 1'
_cell_length_a   5.10221386
_cell_length_b   5.11866093
_cell_length_c   5.11866093
_cell_angle_alpha   61.68949890
_cell_angle_beta   60.10623550
_cell_angle_gamma   60.10623550
_symmetry_Int_Tables_number   1
_chemical_formula_structural   Zr2V3Fe
_chemical_formula_sum   'Zr2 V3 Fe1'
_cell_volume   95.83191530
_cell_formula_units_Z   1
loop_
 _symmetry_equiv_pos_site_id
 _symmetry_equiv_pos_as_xyz
  1  'x, y, z'
loop_
 _atom_site_type_symbol
 _atom_site_label
 _atom_site_symmetry_multiplicity
 _atom_site_fract_x
 _atom_site_fract_y
 _atom_site_fract_z
 _atom_site_occupancy
  Zr  Zr0  1  0.25064900  0.24935101  0.24935101  1
  Zr  Zr1  1  0.99935099  0.00064900  0.00064902  1
  Fe  Fe2  1  0.62500000  0.62500001  0.62500003  1
  V  V3  1  0.12500000  0.62500001  0.62500002  1
  V  V4  1  0.62499999  0.12500000  0.62500003  1
  V  V5  1  0.62500000  0.62500001  0.12500002  1
