# generated using pymatgen
data_CePr(SiNi)2
_symmetry_space_group_name_H-M   'P 1'
_cell_length_a   3.91018891
_cell_length_b   3.91018891
_cell_length_c   6.72364378
_cell_angle_alpha   90.00000000
_cell_angle_beta   90.00000000
_cell_angle_gamma   90.00000000
_symmetry_Int_Tables_number   1
_chemical_formula_structural   CePr(SiNi)2
_chemical_formula_sum   'Ce1 Pr1 Si2 Ni2'
_cell_volume   102.80167156
_cell_formula_units_Z   1
loop_
 _symmetry_equiv_pos_site_id
 _symmetry_equiv_pos_as_xyz
  1  'x, y, z'
loop_
 _atom_site_type_symbol
 _atom_site_label
 _atom_site_symmetry_multiplicity
 _atom_site_fract_x
 _atom_site_fract_y
 _atom_site_fract_z
 _atom_site_occupancy
  Si  Si0  1  0.00000000  0.50000001  0.16686601  1
  Si  Si1  1  0.50000001  0.00000000  0.83313403  1
  Pr  Pr2  1  0.00000000  0.50000001  0.62776602  1
  Ce  Ce3  1  0.50000001  0.00000000  0.37223401  1
  Ni  Ni4  1  0.00000000  0.00000000  0.00000000  1
  Ni  Ni5  1  0.50000001  0.50000001  0.00000000  1
