# generated using pymatgen
data_Lu7O12
_symmetry_space_group_name_H-M   'P 1'
_cell_length_a   6.59690857
_cell_length_b   6.59690857
_cell_length_c   6.59690857
_cell_angle_alpha   99.02344513
_cell_angle_beta   99.02344513
_cell_angle_gamma   99.02344513
_symmetry_Int_Tables_number   1
_chemical_formula_structural   Lu7O12
_chemical_formula_sum   'Lu7 O12'
_cell_volume   275.14294228
_cell_formula_units_Z   1
loop_
 _symmetry_equiv_pos_site_id
 _symmetry_equiv_pos_as_xyz
  1  'x, y, z'
loop_
 _atom_site_type_symbol
 _atom_site_label
 _atom_site_symmetry_multiplicity
 _atom_site_fract_x
 _atom_site_fract_y
 _atom_site_fract_z
 _atom_site_occupancy
  Lu  Lu0  1  0.32204500  0.60964299  0.14512297  1
  Lu  Lu1  1  0.60964299  0.14512300  0.32204496  1
  Lu  Lu2  1  0.14512300  0.32204500  0.60964296  1
  Lu  Lu3  1  0.67795499  0.39035700  0.85487694  1
  Lu  Lu4  1  0.39035700  0.85487699  0.67795494  1
  Lu  Lu5  1  0.85487700  0.67795499  0.39035694  1
  Lu  Lu6  1  0.00000000  0.00000000  0.00000000  1
  O  O7  1  0.57269000  0.82246799  0.41163594  1
  O  O8  1  0.82246799  0.41163600  0.57268994  1
  O  O9  1  0.41163600  0.57268999  0.82246794  1
  O  O10  1  0.42731000  0.17753200  0.58836396  1
  O  O11  1  0.17753200  0.58836399  0.42730996  1
  O  O12  1  0.58836400  0.42730999  0.17753196  1
  O  O13  1  0.95324999  0.08073600  0.30752296  1
  O  O14  1  0.69247699  0.04675000  0.91926394  1
  O  O15  1  0.91926399  0.69247699  0.04674995  1
  O  O16  1  0.04675001  0.91926399  0.69247695  1
  O  O17  1  0.30752301  0.95324999  0.08073596  1
  O  O18  1  0.08073600  0.30752300  0.95324996  1
