# generated using pymatgen
data_Er2In4Rh3S
_symmetry_space_group_name_H-M   'P 1'
_cell_length_a   3.95421004
_cell_length_b   7.15028715
_cell_length_c   7.15028715
_cell_angle_alpha   90.00000000
_cell_angle_beta   90.00000000
_cell_angle_gamma   90.00000000
_symmetry_Int_Tables_number   1
_chemical_formula_structural   Er2In4Rh3S
_chemical_formula_sum   'Er2 In4 Rh3 S1'
_cell_volume   202.16534028
_cell_formula_units_Z   1
loop_
 _symmetry_equiv_pos_site_id
 _symmetry_equiv_pos_as_xyz
  1  'x, y, z'
loop_
 _atom_site_type_symbol
 _atom_site_label
 _atom_site_symmetry_multiplicity
 _atom_site_fract_x
 _atom_site_fract_y
 _atom_site_fract_z
 _atom_site_occupancy
  In  In0  1  0.00000000  0.49999999  0.49999999  1
  In  In1  1  0.00000000  0.00000000  0.00000000  1
  In  In2  1  0.49999999  0.17166400  0.32833599  1
  In  In3  1  0.49999999  0.32833599  0.82833598  1
  Er  Er4  1  0.49999999  0.82833598  0.67166399  1
  Er  Er5  1  0.49999999  0.67166399  0.17166400  1
  Rh  Rh6  1  0.00000000  0.62626199  0.87373798  1
  Rh  Rh7  1  0.00000000  0.12626200  0.62626199  1
  S  S8  1  0.99999999  0.87373798  0.37373799  1
  Rh  Rh9  1  0.00000000  0.37373799  0.12626200  1
