# generated using pymatgen
data_Ce2Zn2GeSb
_symmetry_space_group_name_H-M   'P 1'
_cell_length_a   4.15602207
_cell_length_b   4.15602207
_cell_length_c   7.33713722
_cell_angle_alpha   90.00000000
_cell_angle_beta   90.00000000
_cell_angle_gamma   90.00000000
_symmetry_Int_Tables_number   1
_chemical_formula_structural   Ce2Zn2GeSb
_chemical_formula_sum   'Ce2 Zn2 Ge1 Sb1'
_cell_volume   126.73084546
_cell_formula_units_Z   1
loop_
 _symmetry_equiv_pos_site_id
 _symmetry_equiv_pos_as_xyz
  1  'x, y, z'
loop_
 _atom_site_type_symbol
 _atom_site_label
 _atom_site_symmetry_multiplicity
 _atom_site_fract_x
 _atom_site_fract_y
 _atom_site_fract_z
 _atom_site_occupancy
  Sb  Sb0  1  0.00000000  0.49999999  0.79394898  1
  Ge  Ge1  1  0.49999999  0.00000000  0.20605099  1
  Ce  Ce2  1  0.49999999  0.00000000  0.64921898  1
  Ce  Ce3  1  0.00000000  0.49999999  0.35078099  1
  Zn  Zn4  1  0.49999999  0.49999999  -0.00000000  1
  Zn  Zn5  1  0.00000000  0.00000000  0.00000000  1
