# generated using pymatgen
data_LiMgBi3Sb
_symmetry_space_group_name_H-M   'P 1'
_cell_length_a   4.11381102
_cell_length_b   4.26144981
_cell_length_c   8.28443336
_cell_angle_alpha   104.90376282
_cell_angle_beta   90.00000000
_cell_angle_gamma   90.00000000
_symmetry_Int_Tables_number   1
_chemical_formula_structural   LiMgBi3Sb
_chemical_formula_sum   'Li1 Mg1 Bi3 Sb1'
_cell_volume   140.34699084
_cell_formula_units_Z   1
loop_
 _symmetry_equiv_pos_site_id
 _symmetry_equiv_pos_as_xyz
  1  'x, y, z'
loop_
 _atom_site_type_symbol
 _atom_site_label
 _atom_site_symmetry_multiplicity
 _atom_site_fract_x
 _atom_site_fract_y
 _atom_site_fract_z
 _atom_site_occupancy
  Mg  Mg0  1  0.25000000  0.09314000  0.18627999  1
  Li  Li1  1  0.75000000  0.90686004  0.81371997  1
  Bi  Bi2  1  0.25000000  0.74686704  0.49373399  1
  Sb  Sb3  1  0.75000000  0.25313301  0.50626598  1
  Bi  Bi4  1  0.25000000  0.44389902  0.88779796  1
  Bi  Bi5  1  0.75000000  0.55610103  0.11220200  1
