# generated using pymatgen
data_Cs2TeO3
_symmetry_space_group_name_H-M   'P 1'
_cell_length_a   6.91486216
_cell_length_b   6.91486263
_cell_length_c   8.07314682
_cell_angle_alpha   90.00000000
_cell_angle_beta   90.00000000
_cell_angle_gamma   120.00000000
_symmetry_Int_Tables_number   1
_chemical_formula_structural   Cs2TeO3
_chemical_formula_sum   'Cs4 Te2 O6'
_cell_volume   334.30322528
_cell_formula_units_Z   2
loop_
 _symmetry_equiv_pos_site_id
 _symmetry_equiv_pos_as_xyz
  1  'x, y, z'
loop_
 _atom_site_type_symbol
 _atom_site_label
 _atom_site_symmetry_multiplicity
 _atom_site_fract_x
 _atom_site_fract_y
 _atom_site_fract_z
 _atom_site_occupancy
  Cs  Cs0  1  0.00000000  0.00000000  0.00000000  1
  Cs  Cs1  1  0.33333337  0.66666670  0.35915801  1
  Cs  Cs2  1  0.66666667  0.33333335  0.64084201  1
  Cs  Cs3  1  0.00000000  0.00000000  0.50000001  1
  Te  Te4  1  0.33333337  0.66666670  0.83528402  1
  Te  Te5  1  0.66666667  0.33333335  0.16471600  1
  O  O6  1  0.83866902  0.61252303  0.26885301  1
  O  O7  1  0.61252305  0.83866904  0.73114702  1
  O  O8  1  0.22614602  0.38747702  0.73114702  1
  O  O9  1  0.16133105  0.77385404  0.73114702  1
  O  O10  1  0.77385399  0.16133101  0.26885301  1
  O  O11  1  0.38747701  0.22614601  0.26885301  1
