# generated using pymatgen
data_Ce(MgSn)4
_symmetry_space_group_name_H-M   'P 1'
_cell_length_a   6.02923584
_cell_length_b   8.98278046
_cell_length_c   8.98278046
_cell_angle_alpha   120.00000000
_cell_angle_beta   90.00000000
_cell_angle_gamma   90.00000000
_symmetry_Int_Tables_number   1
_chemical_formula_structural   Ce(MgSn)4
_chemical_formula_sum   'Ce2 Mg8 Sn8'
_cell_volume   421.32232749
_cell_formula_units_Z   2
loop_
 _symmetry_equiv_pos_site_id
 _symmetry_equiv_pos_as_xyz
  1  'x, y, z'
loop_
 _atom_site_type_symbol
 _atom_site_label
 _atom_site_symmetry_multiplicity
 _atom_site_fract_x
 _atom_site_fract_y
 _atom_site_fract_z
 _atom_site_occupancy
  Ce  Ce0  1  0.00000000  0.33333332  0.66666666  1
  Mg  Mg1  1  -0.00000000  0.66666664  0.33333334  1
  Mg  Mg2  1  0.50000001  0.66666664  0.33333334  1
  Ce  Ce3  1  0.50000001  0.33333332  0.66666666  1
  Mg  Mg4  1  0.25000001  0.27913899  0.99999999  1
  Mg  Mg5  1  0.25000001  0.72086097  0.72086100  1
  Mg  Mg6  1  0.25000001  0.00000000  0.27913899  1
  Mg  Mg7  1  0.75000002  0.72086097  1.00000000  1
  Mg  Mg8  1  0.75000002  0.27913899  0.27913900  1
  Mg  Mg9  1  0.75000002  0.00000000  0.72086099  1
  Sn  Sn10  1  0.00000000  0.00000000  0.00000000  1
  Sn  Sn11  1  0.50000001  0.00000000  -0.00000000  1
  Sn  Sn12  1  0.25000001  0.61726198  0.00000001  1
  Sn  Sn13  1  0.25000001  0.38273798  0.38273800  1
  Sn  Sn14  1  0.25000001  0.00000000  0.61726199  1
  Sn  Sn15  1  0.75000002  0.38273798  0.00000001  1
  Sn  Sn16  1  0.75000002  0.61726198  0.61726200  1
  Sn  Sn17  1  0.75000002  0.00000000  0.38273799  1
