# generated using pymatgen
data_Be2(Cr5Mo)3
_symmetry_space_group_name_H-M   'P 1'
_cell_length_a   6.10996723
_cell_length_b   6.10996723
_cell_length_c   6.10996723
_cell_angle_alpha   90.00000000
_cell_angle_beta   90.00000000
_cell_angle_gamma   90.00000000
_symmetry_Int_Tables_number   1
_chemical_formula_structural   Be2(Cr5Mo)3
_chemical_formula_sum   'Be2 Cr15 Mo3'
_cell_volume   228.09546110
_cell_formula_units_Z   1
loop_
 _symmetry_equiv_pos_site_id
 _symmetry_equiv_pos_as_xyz
  1  'x, y, z'
loop_
 _atom_site_type_symbol
 _atom_site_label
 _atom_site_symmetry_multiplicity
 _atom_site_fract_x
 _atom_site_fract_y
 _atom_site_fract_z
 _atom_site_occupancy
  Be  Be0  1  0.12229000  0.20648299  0.45367098  1
  Mo  Mo1  1  0.37770999  0.79351697  0.95367096  1
  Cr  Cr2  1  0.87770997  0.70648297  0.04632900  1
  Cr  Cr3  1  0.45367098  0.12229000  0.20648299  1
  Cr  Cr4  1  0.62228998  0.29351699  0.54632898  1
  Be  Be5  1  0.95367096  0.37770999  0.79351697  1
  Cr  Cr6  1  0.04632900  0.87770997  0.70648297  1
  Mo  Mo7  1  0.54632898  0.62228998  0.29351699  1
  Cr  Cr8  1  0.20648299  0.45367098  0.12229000  1
  Mo  Mo9  1  0.70648297  0.04632900  0.87770997  1
  Cr  Cr10  1  0.29351699  0.54632898  0.62228998  1
  Cr  Cr11  1  0.79351697  0.95367096  0.37770999  1
  Cr  Cr12  1  0.06484700  0.06484700  0.06484700  1
  Cr  Cr13  1  0.43515298  0.93515296  0.56484698  1
  Cr  Cr14  1  0.93515296  0.56484698  0.43515298  1
  Cr  Cr15  1  0.56484698  0.43515298  0.93515296  1
  Cr  Cr16  1  0.68496697  0.68496697  0.68496697  1
  Cr  Cr17  1  0.81503297  0.31503299  0.18496699  1
  Cr  Cr18  1  0.31503299  0.18496699  0.81503297  1
  Cr  Cr19  1  0.18496699  0.81503297  0.31503299  1
