# generated using pymatgen
data_NaB2Rh2C
_symmetry_space_group_name_H-M   'P 1'
_cell_length_a   3.81273198
_cell_length_b   3.81273198
_cell_length_c   5.79650068
_cell_angle_alpha   109.20094299
_cell_angle_beta   109.20094299
_cell_angle_gamma   90.00000000
_symmetry_Int_Tables_number   1
_chemical_formula_structural   NaB2Rh2C
_chemical_formula_sum   'Na1 B2 Rh2 C1'
_cell_volume   74.59434263
_cell_formula_units_Z   1
loop_
 _symmetry_equiv_pos_site_id
 _symmetry_equiv_pos_as_xyz
  1  'x, y, z'
loop_
 _atom_site_type_symbol
 _atom_site_label
 _atom_site_symmetry_multiplicity
 _atom_site_fract_x
 _atom_site_fract_y
 _atom_site_fract_z
 _atom_site_occupancy
  Na  Na0  1  0.00000000  0.00000000  0.00000000  1
  B  B1  1  0.64552298  0.64552300  0.29104597  1
  B  B2  1  0.35447699  0.35447700  0.70895399  1
  Rh  Rh3  1  0.24999998  0.74999999  0.49999998  1
  Rh  Rh4  1  0.74999999  0.25000000  0.49999998  1
  C  C5  1  0.49999999  0.50000000  -0.00000002  1
