# generated using pymatgen
data_InTe
_symmetry_space_group_name_H-M   'P 1'
_cell_length_a   4.04843998
_cell_length_b   4.04844093
_cell_length_c   19.11027718
_cell_angle_alpha   90.00000000
_cell_angle_beta   90.00000000
_cell_angle_gamma   119.99999237
_symmetry_Int_Tables_number   1
_chemical_formula_structural   InTe
_chemical_formula_sum   'In6 Te6'
_cell_volume   271.25213396
_cell_formula_units_Z   6
loop_
 _symmetry_equiv_pos_site_id
 _symmetry_equiv_pos_as_xyz
  1  'x, y, z'
loop_
 _atom_site_type_symbol
 _atom_site_label
 _atom_site_symmetry_multiplicity
 _atom_site_fract_x
 _atom_site_fract_y
 _atom_site_fract_z
 _atom_site_occupancy
  Te  Te0  1  0.66666667  0.33333334  0.33129700  1
  Te  Te1  1  0.33333334  0.66666667  0.66870299  1
  Te  Te2  1  0.00000000  0.00000000  0.00000000  1
  Te  Te3  1  0.33333334  0.66666667  0.16507100  1
  In  In4  1  0.66666667  0.33333334  0.83492899  1
  Te  Te5  1  0.00000000  0.00000000  0.50000000  1
  In  In6  1  0.33333334  0.66666667  0.41354500  1
  In  In7  1  0.00000000  0.00000000  0.25078100  1
  In  In8  1  0.66666667  0.33333334  0.07928500  1
  In  In9  1  0.00000000  0.00000000  0.74921899  1
  Te  Te10  1  0.33333334  0.66666667  0.92071499  1
  In  In11  1  0.66666667  0.33333334  0.58645499  1
