# generated using pymatgen
data_LiCe3MgSi6
_symmetry_space_group_name_H-M   'P 1'
_cell_length_a   6.77613258
_cell_length_b   6.77613258
_cell_length_c   6.77613258
_cell_angle_alpha   109.47122192
_cell_angle_beta   109.47122192
_cell_angle_gamma   109.47122192
_symmetry_Int_Tables_number   1
_chemical_formula_structural   LiCe3MgSi6
_chemical_formula_sum   'Li1 Ce3 Mg1 Si6'
_cell_volume   239.51006758
_cell_formula_units_Z   1
loop_
 _symmetry_equiv_pos_site_id
 _symmetry_equiv_pos_as_xyz
  1  'x, y, z'
loop_
 _atom_site_type_symbol
 _atom_site_label
 _atom_site_symmetry_multiplicity
 _atom_site_fract_x
 _atom_site_fract_y
 _atom_site_fract_z
 _atom_site_occupancy
  Ce  Ce0  1  0.50000007  1.00000005  0.50000007  1
  Ce  Ce1  1  0.50000004  0.50000002  1.00000005  1
  Ce  Ce2  1  1.00000005  0.50000002  0.50000006  1
  Si  Si3  1  0.38518901  0.00000000  1.00000002  1
  Si  Si4  1  0.61481105  0.61481103  0.61481105  1
  Si  Si5  1  1.00000004  0.38518902  0.00000005  1
  Si  Si6  1  0.00000000  0.00000000  0.38518900  1
  Si  Si7  1  0.74607207  1.00000005  1.00000008  1
  Si  Si8  1  0.25392802  0.25392801  0.25392802  1
  Mg  Mg9  1  1.00000006  0.74607203  1.00000007  1
  Li  Li10  1  1.00000008  1.00000005  0.74607208  1
