# generated using pymatgen
data_SmLu3Al8Si3Pd
_symmetry_space_group_name_H-M   'P 1'
_cell_length_a   5.60410023
_cell_length_b   7.15365601
_cell_length_c   7.32839012
_cell_angle_alpha   90.00000000
_cell_angle_beta   90.00000000
_cell_angle_gamma   90.00000000
_symmetry_Int_Tables_number   1
_chemical_formula_structural   SmLu3Al8Si3Pd
_chemical_formula_sum   'Sm1 Lu3 Al8 Si3 Pd1'
_cell_volume   293.79373276
_cell_formula_units_Z   1
loop_
 _symmetry_equiv_pos_site_id
 _symmetry_equiv_pos_as_xyz
  1  'x, y, z'
loop_
 _atom_site_type_symbol
 _atom_site_label
 _atom_site_symmetry_multiplicity
 _atom_site_fract_x
 _atom_site_fract_y
 _atom_site_fract_z
 _atom_site_occupancy
  Sm  Sm0  1  0.64428297  0.25000000  0.97513898  1
  Lu  Lu1  1  0.85571697  0.25000000  0.47513899  1
  Lu  Lu2  1  0.35571699  0.75000000  0.02486100  1
  Lu  Lu3  1  0.14428299  0.75000000  0.52486099  1
  Si  Si4  1  0.35887399  0.25000000  0.62160099  1
  Pd  Pd5  1  0.85887397  0.75000000  0.87839899  1
  Si  Si6  1  0.64112597  0.75000000  0.37839899  1
  Si  Si7  1  0.14112599  0.25000000  0.12160100  1
  Al  Al8  1  0.41201898  0.05127500  0.31717599  1
  Al  Al9  1  0.08798100  0.05127500  0.81717599  1
  Al  Al10  1  0.41201898  0.44872500  0.31717599  1
  Al  Al11  1  0.91201896  0.55127500  0.18282400  1
  Al  Al12  1  0.58798098  0.55127500  0.68282399  1
  Al  Al13  1  0.08798100  0.44872500  0.81717599  1
  Al  Al14  1  0.58798098  0.94872500  0.68282399  1
  Al  Al15  1  0.91201896  0.94872500  0.18282400  1
