# generated using pymatgen
data_K3RbScO7
_symmetry_space_group_name_H-M   'P 1'
_cell_length_a   6.74691677
_cell_length_b   6.74691677
_cell_length_c   6.74691677
_cell_angle_alpha   90.00000000
_cell_angle_beta   90.00000000
_cell_angle_gamma   90.00000000
_symmetry_Int_Tables_number   1
_chemical_formula_structural   K3RbScO7
_chemical_formula_sum   'K3 Rb1 Sc1 O7'
_cell_volume   307.12562860
_cell_formula_units_Z   1
loop_
 _symmetry_equiv_pos_site_id
 _symmetry_equiv_pos_as_xyz
  1  'x, y, z'
loop_
 _atom_site_type_symbol
 _atom_site_label
 _atom_site_symmetry_multiplicity
 _atom_site_fract_x
 _atom_site_fract_y
 _atom_site_fract_z
 _atom_site_occupancy
  K  K0  1  0.50000002  0.50000002  -0.00000000  1
  K  K1  1  0.50000002  0.00000000  0.50000002  1
  K  K2  1  0.00000000  0.50000002  0.50000002  1
  Rb  Rb3  1  0.00000000  0.00000000  0.00000000  1
  O  O4  1  0.10252200  0.89747803  0.39747801  1
  O  O5  1  0.89747803  0.39747801  0.10252200  1
  O  O6  1  0.39747801  0.10252200  0.89747803  1
  Sc  Sc7  1  0.60252202  0.60252202  0.60252202  1
  O  O8  1  0.89747803  0.10252200  0.60252202  1
  O  O9  1  0.10252200  0.60252202  0.89747803  1
  O  O10  1  0.60252202  0.89747803  0.10252200  1
  O  O11  1  0.39747801  0.39747801  0.39747801  1
