# generated using pymatgen
data_Al3Pd
_symmetry_space_group_name_H-M   'P 1'
_cell_length_a   4.10256481
_cell_length_b   5.59041309
_cell_length_c   7.90854120
_cell_angle_alpha   90.00000000
_cell_angle_beta   90.00000000
_cell_angle_gamma   90.00000000
_symmetry_Int_Tables_number   1
_chemical_formula_structural   Al3Pd
_chemical_formula_sum   'Al9 Pd3'
_cell_volume   181.38264587
_cell_formula_units_Z   3
loop_
 _symmetry_equiv_pos_site_id
 _symmetry_equiv_pos_as_xyz
  1  'x, y, z'
loop_
 _atom_site_type_symbol
 _atom_site_label
 _atom_site_symmetry_multiplicity
 _atom_site_fract_x
 _atom_site_fract_y
 _atom_site_fract_z
 _atom_site_occupancy
  Al  Al0  1  0.75000003  0.20501100  0.39200399  1
  Pd  Pd1  1  0.25000001  0.79498899  0.60799598  1
  Pd  Pd2  1  0.75000003  0.70501099  0.10799600  1
  Pd  Pd3  1  0.25000001  0.29498900  0.89200398  1
  Al  Al4  1  0.75000003  0.16423500  0.06641100  1
  Al  Al5  1  0.25000001  0.83576499  0.93358898  1
  Al  Al6  1  0.75000003  0.66423499  0.43358899  1
  Al  Al7  1  0.25000001  0.33576499  0.56641099  1
  Al  Al8  1  0.75000003  0.04130600  0.70806498  1
  Al  Al9  1  0.25000001  0.95869398  0.29193499  1
  Al  Al10  1  0.75000003  0.54130599  0.79193498  1
  Al  Al11  1  0.25000001  0.45869399  0.20806499  1
