# generated using pymatgen
data_CaHfScCdF11
_symmetry_space_group_name_H-M   'P 1'
_cell_length_a   5.80239916
_cell_length_b   5.80239916
_cell_length_c   7.93098783
_cell_angle_alpha   69.28455353
_cell_angle_beta   69.28455353
_cell_angle_gamma   72.83324432
_symmetry_Int_Tables_number   1
_chemical_formula_structural   CaHfScCdF11
_chemical_formula_sum   'Ca1 Hf1 Sc1 Cd1 F11'
_cell_volume   229.15468594
_cell_formula_units_Z   1
loop_
 _symmetry_equiv_pos_site_id
 _symmetry_equiv_pos_as_xyz
  1  'x, y, z'
loop_
 _atom_site_type_symbol
 _atom_site_label
 _atom_site_symmetry_multiplicity
 _atom_site_fract_x
 _atom_site_fract_y
 _atom_site_fract_z
 _atom_site_occupancy
  Ca  Ca0  1  0.00000000  0.00000000  0.00000000  1
  Hf  Hf1  1  0.49574503  0.49574500  0.23468696  1
  Sc  Sc2  1  0.50425503  0.50425500  0.76531296  1
  Cd  Cd3  1  0.00000000  0.00000000  0.50000000  1
  F  F4  1  0.19451103  0.77892901  0.30805896  1
  F  F5  1  0.22107003  0.80548901  0.69194096  1
  F  F6  1  0.80548902  0.22107000  0.69194096  1
  F  F7  1  0.77893002  0.19451100  0.30805897  1
  F  F8  1  0.50000003  0.50000000  0.49999996  1
  F  F9  1  0.66984902  0.33015100  -0.00000003  1
  F  F10  1  0.33015103  0.66984901  -0.00000003  1
  F  F11  1  0.74861604  0.74861601  0.64671594  1
  F  F12  1  0.25138401  0.25138400  0.35328398  1
  F  F13  1  0.73250604  0.73250601  0.11026695  1
  F  F14  1  0.26749401  0.26749400  0.88973297  1
