# generated using pymatgen
data_LiMn5O8
_symmetry_space_group_name_H-M   'P 1'
_cell_length_a   6.00578022
_cell_length_b   6.05082703
_cell_length_c   6.01696205
_cell_angle_alpha   119.81503296
_cell_angle_beta   90.00000000
_cell_angle_gamma   119.75403595
_symmetry_Int_Tables_number   1
_chemical_formula_structural   LiMn5O8
_chemical_formula_sum   'Li1 Mn5 O8'
_cell_volume   155.61474846
_cell_formula_units_Z   1
loop_
 _symmetry_equiv_pos_site_id
 _symmetry_equiv_pos_as_xyz
  1  'x, y, z'
loop_
 _atom_site_type_symbol
 _atom_site_label
 _atom_site_symmetry_multiplicity
 _atom_site_fract_x
 _atom_site_fract_y
 _atom_site_fract_z
 _atom_site_occupancy
  Mn  Mn0  1  0.49999998  0.00000000  0.50000000  1
  Mn  Mn1  1  0.50000006  1.00000008  1.00000003  1
  Mn  Mn2  1  0.13447002  0.26894002  0.88447000  1
  Mn  Mn3  1  0.86553003  0.73106005  0.11553003  1
  Li  Li4  1  0.50000002  0.50000004  0.50000002  1
  Mn  Mn5  1  1.00000000  0.50000004  0.50000002  1
  O  O6  1  0.27566207  0.99482307  0.24741204  1
  O  O7  1  0.72821301  0.45642603  0.71460401  1
  O  O8  1  0.71916006  0.99482207  0.24741104  1
  O  O9  1  0.72821401  0.45642703  0.24182202  1
  O  O10  1  0.27178603  0.54357304  0.75817802  1
  O  O11  1  0.27178703  0.54357404  0.28539602  1
  O  O12  1  0.28083999  0.00517800  0.75258899  1
  O  O13  1  0.72433797  0.00517700  0.75258799  1
