# generated using pymatgen
data_U4VN4
_symmetry_space_group_name_H-M   'P 1'
_cell_length_a   4.61103582
_cell_length_b   6.00026512
_cell_length_c   6.00026512
_cell_angle_alpha   81.50997162
_cell_angle_beta   67.40367889
_cell_angle_gamma   67.40367889
_symmetry_Int_Tables_number   1
_chemical_formula_structural   U4VN4
_chemical_formula_sum   'U4 V1 N4'
_cell_volume   141.50239610
_cell_formula_units_Z   1
loop_
 _symmetry_equiv_pos_site_id
 _symmetry_equiv_pos_as_xyz
  1  'x, y, z'
loop_
 _atom_site_type_symbol
 _atom_site_label
 _atom_site_symmetry_multiplicity
 _atom_site_fract_x
 _atom_site_fract_y
 _atom_site_fract_z
 _atom_site_occupancy
  V  V0  1  0.00000000  0.00000000  0.00000000  1
  U  U1  1  0.40540200  0.41037700  0.74000201  1
  U  U2  1  0.55578099  0.58962300  0.25999802  1
  U  U3  1  0.18422099  0.25999800  0.41037701  1
  U  U4  1  0.85459600  0.74000200  0.58962302  1
  N  N5  1  0.05159099  0.25500400  0.06696501  1
  N  N6  1  0.37355997  0.74499600  0.93303503  1
  N  N7  1  0.69340498  0.93303500  0.25500404  1
  N  N8  1  0.88144404  0.06696500  0.74499598  1
