# generated using pymatgen
data_Sc13As7
_symmetry_space_group_name_H-M   'P 1'
_cell_length_a   3.86413193
_cell_length_b   10.35425377
_cell_length_c   10.35425377
_cell_angle_alpha   90.00000000
_cell_angle_beta   90.00000000
_cell_angle_gamma   90.00000000
_symmetry_Int_Tables_number   1
_chemical_formula_structural   Sc13As7
_chemical_formula_sum   'Sc13 As7'
_cell_volume   414.27579080
_cell_formula_units_Z   1
loop_
 _symmetry_equiv_pos_site_id
 _symmetry_equiv_pos_as_xyz
  1  'x, y, z'
loop_
 _atom_site_type_symbol
 _atom_site_label
 _atom_site_symmetry_multiplicity
 _atom_site_fract_x
 _atom_site_fract_y
 _atom_site_fract_z
 _atom_site_occupancy
  Sc  Sc0  1  0.50000001  0.14032800  0.81165902  1
  Sc  Sc1  1  0.50000001  0.85967202  0.18834100  1
  Sc  Sc2  1  0.50000001  0.18834100  0.14032800  1
  Sc  Sc3  1  0.50000001  0.81165902  0.85967202  1
  Sc  Sc4  1  1.00000002  0.39662801  0.71997702  1
  Sc  Sc5  1  1.00000002  0.60337201  0.28002301  1
  Sc  Sc6  1  1.00000002  0.28002301  0.39662801  1
  Sc  Sc7  1  1.00000002  0.71997702  0.60337201  1
  Sc  Sc8  1  0.50000001  0.00000000  0.50000001  1
  Sc  Sc9  1  0.50000001  0.50000001  -0.00000000  1
  Sc  Sc10  1  0.50000001  0.50000001  0.50000001  1
  Sc  Sc11  1  0.00000000  0.00000000  0.00000000  1
  As  As12  1  0.50000001  0.25410801  0.58274901  1
  As  As13  1  0.50000001  0.74589202  0.41725101  1
  As  As14  1  0.50000001  0.41725101  0.25410801  1
  As  As15  1  0.50000001  0.58274901  0.74589202  1
  As  As16  1  0.00000000  0.27807301  0.95577802  1
  As  As17  1  1.00000002  0.72192702  0.04422200  1
  As  As18  1  0.00000000  0.04422200  0.27807301  1
  Sc  Sc19  1  0.00000000  0.95577802  0.72192702  1
