# generated using pymatgen
data_LuNi2
_symmetry_space_group_name_H-M   'P 1'
_cell_length_a   4.85985804
_cell_length_b   4.91932774
_cell_length_c   4.91932774
_cell_angle_alpha   60.64717484
_cell_angle_beta   60.39910126
_cell_angle_gamma   60.39910126
_symmetry_Int_Tables_number   1
_chemical_formula_structural   LuNi2
_chemical_formula_sum   'Lu2 Ni4'
_cell_volume   84.06564211
_cell_formula_units_Z   2
loop_
 _symmetry_equiv_pos_site_id
 _symmetry_equiv_pos_as_xyz
  1  'x, y, z'
loop_
 _atom_site_type_symbol
 _atom_site_label
 _atom_site_symmetry_multiplicity
 _atom_site_fract_x
 _atom_site_fract_y
 _atom_site_fract_z
 _atom_site_occupancy
  Lu  Lu0  1  0.87330199  0.37669799  0.87669800  1
  Lu  Lu1  1  0.12669800  0.62330199  0.12330201  1
  Ni  Ni2  1  0.49999999  0.99999998  0.00000002  1
  Ni  Ni3  1  0.49999999  0.49999999  0.50000000  1
  Ni  Ni4  1  0.49999999  0.99999998  0.50000001  1
  Ni  Ni5  1  -0.00000000  0.99999998  0.50000001  1
