# generated using pymatgen
data_Ce(NiGe)2
_symmetry_space_group_name_H-M   'P 1'
_cell_length_a   4.18801117
_cell_length_b   4.18801117
_cell_length_c   9.91845608
_cell_angle_alpha   90.00000000
_cell_angle_beta   90.00000000
_cell_angle_gamma   90.00000000
_symmetry_Int_Tables_number   1
_chemical_formula_structural   Ce(NiGe)2
_chemical_formula_sum   'Ce2 Ni4 Ge4'
_cell_volume   173.96414102
_cell_formula_units_Z   2
loop_
 _symmetry_equiv_pos_site_id
 _symmetry_equiv_pos_as_xyz
  1  'x, y, z'
loop_
 _atom_site_type_symbol
 _atom_site_label
 _atom_site_symmetry_multiplicity
 _atom_site_fract_x
 _atom_site_fract_y
 _atom_site_fract_z
 _atom_site_occupancy
  Ce  Ce0  1  0.00000000  0.49999998  0.25366600  1
  Ce  Ce1  1  0.49999998  0.00000000  0.74633399  1
  Ge  Ge2  1  0.00000000  0.00000000  0.50000000  1
  Ge  Ge3  1  0.49999998  0.49999998  0.50000000  1
  Ge  Ge4  1  0.00000000  0.49999998  0.86456099  1
  Ge  Ge5  1  0.49999998  0.00000000  0.13543900  1
  Ni  Ni6  1  0.00000000  0.49999998  0.62309600  1
  Ni  Ni7  1  0.49999998  0.00000000  0.37690400  1
  Ni  Ni8  1  0.00000000  0.00000000  0.00000000  1
  Ni  Ni9  1  0.49999998  0.49999998  -0.00000000  1
