# generated using pymatgen
data_LaZn3InS5
_symmetry_space_group_name_H-M   'P 1'
_cell_length_a   3.29981208
_cell_length_b   6.01360941
_cell_length_c   11.38190937
_cell_angle_alpha   90.00000000
_cell_angle_beta   90.00000000
_cell_angle_gamma   105.92399597
_symmetry_Int_Tables_number   1
_chemical_formula_structural   LaZn3InS5
_chemical_formula_sum   'La1 Zn3 In1 S5'
_cell_volume   217.19307077
_cell_formula_units_Z   1
loop_
 _symmetry_equiv_pos_site_id
 _symmetry_equiv_pos_as_xyz
  1  'x, y, z'
loop_
 _atom_site_type_symbol
 _atom_site_label
 _atom_site_symmetry_multiplicity
 _atom_site_fract_x
 _atom_site_fract_y
 _atom_site_fract_z
 _atom_site_occupancy
  Zn  Zn0  1  0.20158597  0.40317199  0.45647299  1
  S  S1  1  0.79841394  0.59682799  0.95647297  1
  S  S2  1  0.79841394  0.59682799  0.54352698  1
  Zn  Zn3  1  0.20158597  0.40317199  0.04352700  1
  La  La4  1  0.47711192  0.95422398  0.24999999  1
  In  In5  1  0.52288798  0.04577600  0.74999998  1
  S  S6  1  0.00000000  0.00000000  0.00000000  1
  S  S7  1  0.22388996  0.44777999  0.24999999  1
  S  S8  1  0.00000000  0.00000000  0.49999998  1
  Zn  Zn9  1  0.77610994  0.55221999  0.74999998  1
