# generated using pymatgen
data_Rb2H2OF11
_symmetry_space_group_name_H-M   'P 1'
_cell_length_a   3.98902988
_cell_length_b   6.38820076
_cell_length_c   7.00694609
_cell_angle_alpha   90.00000000
_cell_angle_beta   90.00000000
_cell_angle_gamma   90.80059814
_symmetry_Int_Tables_number   1
_chemical_formula_structural   Rb2H2OF11
_chemical_formula_sum   'Rb2 H2 O1 F11'
_cell_volume   178.53864042
_cell_formula_units_Z   1
loop_
 _symmetry_equiv_pos_site_id
 _symmetry_equiv_pos_as_xyz
  1  'x, y, z'
loop_
 _atom_site_type_symbol
 _atom_site_label
 _atom_site_symmetry_multiplicity
 _atom_site_fract_x
 _atom_site_fract_y
 _atom_site_fract_z
 _atom_site_occupancy
  Rb  Rb0  1  0.00422599  0.34422299  0.75924499  1
  Rb  Rb1  1  0.99577401  0.65577699  0.25924500  1
  F  F2  1  0.19556698  0.87267998  0.80238499  1
  H  H3  1  0.79350000  0.87263898  0.80119999  1
  F  F4  1  0.80443302  0.12732000  0.30238500  1
  F  F5  1  0.20650000  0.12736100  0.30120000  1
  F  F6  1  0.49668699  0.99075798  0.59241399  1
  F  F7  1  0.50331301  0.00924200  0.09241400  1
  H  H8  1  0.48006200  0.39575299  0.44812899  1
  F  F9  1  0.51993800  0.60424699  0.94812899  1
  O  O10  1  0.99163401  0.79061898  0.85192899  1
  F  F11  1  0.00836599  0.20938100  0.35192900  1
  F  F12  1  0.49834901  0.03130300  0.72760099  1
  F  F13  1  0.50165099  0.96869698  0.22760100  1
  F  F14  1  0.49472000  0.52647999  0.52046399  1
  F  F15  1  0.50528000  0.47351999  0.02046400  1
