# generated using pymatgen
data_Rb2Pt(CO3)2
_symmetry_space_group_name_H-M   'P 1'
_cell_length_a   4.50638008
_cell_length_b   7.20110750
_cell_length_c   7.84327364
_cell_angle_alpha   65.68099213
_cell_angle_beta   78.06687927
_cell_angle_gamma   79.86112976
_symmetry_Int_Tables_number   1
_chemical_formula_structural   Rb2Pt(CO3)2
_chemical_formula_sum   'Rb2 Pt1 C2 O6'
_cell_volume   225.74267014
_cell_formula_units_Z   1
loop_
 _symmetry_equiv_pos_site_id
 _symmetry_equiv_pos_as_xyz
  1  'x, y, z'
loop_
 _atom_site_type_symbol
 _atom_site_label
 _atom_site_symmetry_multiplicity
 _atom_site_fract_x
 _atom_site_fract_y
 _atom_site_fract_z
 _atom_site_occupancy
  Rb  Rb0  1  0.88300198  0.32084800  0.34018102  1
  Rb  Rb1  1  0.11956799  0.68049199  0.65699505  1
  Pt  Pt2  1  0.50261199  0.00095200  0.99788601  1
  C  C3  1  0.70140499  0.27352800  0.86838003  1
  C  C4  1  0.30142999  0.72889299  0.12772505  1
  O  O5  1  0.52059698  0.99034699  0.70268107  1
  O  O6  1  0.48056099  0.01199400  0.29453100  1
  O  O7  1  0.82899598  0.33151800  0.96182403  1
  O  O8  1  0.32396499  0.61270299  0.29760804  1
  O  O9  1  0.69936799  0.38226700  0.69519403  1
  O  O10  1  0.15399799  0.67835899  0.03920504  1
