# generated using pymatgen
data_MnO2
_symmetry_space_group_name_H-M   'P 1'
_cell_length_a   4.75630808
_cell_length_b   4.76292992
_cell_length_c   9.65170193
_cell_angle_alpha   91.66307831
_cell_angle_beta   90.00000000
_cell_angle_gamma   90.00000000
_symmetry_Int_Tables_number   1
_chemical_formula_structural   MnO2
_chemical_formula_sum   'Mn6 O12'
_cell_volume   218.55718736
_cell_formula_units_Z   6
loop_
 _symmetry_equiv_pos_site_id
 _symmetry_equiv_pos_as_xyz
  1  'x, y, z'
loop_
 _atom_site_type_symbol
 _atom_site_label
 _atom_site_symmetry_multiplicity
 _atom_site_fract_x
 _atom_site_fract_y
 _atom_site_fract_z
 _atom_site_occupancy
  Mn  Mn0  1  0.00000000  0.00000000  0.00000000  1
  Mn  Mn1  1  0.49999999  0.50000001  0.49999998  1
  Mn  Mn2  1  0.50039799  0.49616201  0.16596599  1
  Mn  Mn3  1  0.00039800  0.00383800  0.33403399  1
  Mn  Mn4  1  0.99960198  0.99616202  0.66596597  1
  Mn  Mn5  1  0.49960199  0.50383801  0.83403397  1
  O  O6  1  0.69625599  0.30175001  0.00471000  1
  O  O7  1  0.20013100  0.20406800  0.16675499  1
  O  O8  1  0.79700899  0.79543101  0.17718399  1
  O  O9  1  0.70013099  0.29593201  0.33324499  1
  O  O10  1  0.29700900  0.70456901  0.32281598  1
  O  O11  1  0.19625600  0.19825000  0.49528998  1
  O  O12  1  0.80374399  0.80175001  0.50470997  1
  O  O13  1  0.70299099  0.29543101  0.67718397  1
  O  O14  1  0.29986900  0.70406801  0.66675497  1
  O  O15  1  0.20299100  0.20456900  0.82281597  1
  O  O16  1  0.79986899  0.79593201  0.83324496  1
  O  O17  1  0.30374399  0.69825001  0.99528996  1
