# generated using pymatgen
data_MgP2OsRu
_symmetry_space_group_name_H-M   'P 1'
_cell_length_a   3.82021403
_cell_length_b   6.55657339
_cell_length_c   7.35492229
_cell_angle_alpha   115.86328888
_cell_angle_beta   105.05253601
_cell_angle_gamma   90.00000000
_symmetry_Int_Tables_number   1
_chemical_formula_structural   MgP2OsRu
_chemical_formula_sum   'Mg2 P4 Os2 Ru2'
_cell_volume   158.71611539
_cell_formula_units_Z   2
loop_
 _symmetry_equiv_pos_site_id
 _symmetry_equiv_pos_as_xyz
  1  'x, y, z'
loop_
 _atom_site_type_symbol
 _atom_site_label
 _atom_site_symmetry_multiplicity
 _atom_site_fract_x
 _atom_site_fract_y
 _atom_site_fract_z
 _atom_site_occupancy
  Mg  Mg0  1  0.50000003  0.50000002  0.00000003  1
  Mg  Mg1  1  0.00000000  0.00000000  0.00000000  1
  Os  Os2  1  0.81353301  0.14638100  0.62706602  1
  Os  Os3  1  0.31485903  0.64697302  0.62971803  1
  Ru  Ru4  1  0.18646705  0.85361903  0.37293404  1
  Ru  Ru5  1  0.68514102  0.35302701  0.37028203  1
  P  P6  1  0.12502502  0.45142301  0.25005002  1
  P  P7  1  0.62276905  0.96412603  0.24553805  1
  P  P8  1  0.87497503  0.54857702  0.74995004  1
  P  P9  1  0.37723100  0.03587400  0.75446201  1
