# generated using pymatgen
data_BaLaMg(Si2O)2
_symmetry_space_group_name_H-M   'P 1'
_cell_length_a   4.15147591
_cell_length_b   4.15147591
_cell_length_c   9.90095425
_cell_angle_alpha   102.10186005
_cell_angle_beta   102.10186005
_cell_angle_gamma   90.00000000
_symmetry_Int_Tables_number   1
_chemical_formula_structural   BaLaMg(Si2O)2
_chemical_formula_sum   'Ba1 La1 Mg1 Si4 O2'
_cell_volume   162.96779042
_cell_formula_units_Z   1
loop_
 _symmetry_equiv_pos_site_id
 _symmetry_equiv_pos_as_xyz
  1  'x, y, z'
loop_
 _atom_site_type_symbol
 _atom_site_label
 _atom_site_symmetry_multiplicity
 _atom_site_fract_x
 _atom_site_fract_y
 _atom_site_fract_z
 _atom_site_occupancy
  Si  Si0  1  0.31132401  0.31132401  0.62264798  1
  Si  Si1  1  0.68867602  0.68867602  0.37735198  1
  O  O2  1  0.50000001  0.00000000  -0.00000000  1
  O  O3  1  -0.00000000  0.50000001  -0.00000000  1
  Ba  Ba4  1  0.89791602  0.89791602  0.79583197  1
  La  La5  1  0.10208400  0.10208400  0.20416799  1
  Si  Si6  1  0.25000001  0.75000002  0.49999998  1
  Si  Si7  1  0.75000002  0.25000001  0.49999998  1
  Mg  Mg8  1  0.50000001  0.50000001  -0.00000000  1
