# generated using pymatgen
data_NaInBi3O7
_symmetry_space_group_name_H-M   'P 1'
_cell_length_a   6.28392601
_cell_length_b   6.28392601
_cell_length_c   6.28392601
_cell_angle_alpha   71.50749207
_cell_angle_beta   71.07139587
_cell_angle_gamma   111.00378418
_symmetry_Int_Tables_number   1
_chemical_formula_structural   NaInBi3O7
_chemical_formula_sum   'Na1 In1 Bi3 O7'
_cell_volume   190.91118990
_cell_formula_units_Z   1
loop_
 _symmetry_equiv_pos_site_id
 _symmetry_equiv_pos_as_xyz
  1  'x, y, z'
loop_
 _atom_site_type_symbol
 _atom_site_label
 _atom_site_symmetry_multiplicity
 _atom_site_fract_x
 _atom_site_fract_y
 _atom_site_fract_z
 _atom_site_occupancy
  Na  Na0  1  0.74349299  0.25000000  0.00650705  1
  Bi  Bi1  1  0.25650700  0.74999999  0.99349305  1
  Bi  Bi2  1  0.49999999  0.50000000  0.50000005  1
  Bi  Bi3  1  0.00000000  0.00000000  0.50000000  1
  O  O4  1  0.18602600  0.49284300  0.80681704  1
  O  O5  1  0.25862500  0.44018400  0.30119003  1
  O  O6  1  0.70033999  0.00715700  0.80681704  1
  O  O7  1  0.25862500  0.05981500  0.68156002  1
  O  O8  1  0.74137499  0.94018499  0.31844008  1
  O  O9  1  0.74137499  0.55981599  0.69881007  1
  In  In10  1  0.29966000  0.99284299  0.19318306  1
  O  O11  1  0.81397399  0.50715700  0.19318307  1
