# generated using pymatgen
data_RbW4BrO12
_symmetry_space_group_name_H-M   'P 1'
_cell_length_a   7.13067675
_cell_length_b   7.13067675
_cell_length_c   7.13067722
_cell_angle_alpha   61.57816696
_cell_angle_beta   61.57816696
_cell_angle_gamma   61.57816315
_symmetry_Int_Tables_number   1
_chemical_formula_structural   RbW4BrO12
_chemical_formula_sum   'Rb1 W4 Br1 O12'
_cell_volume   265.45327649
_cell_formula_units_Z   1
loop_
 _symmetry_equiv_pos_site_id
 _symmetry_equiv_pos_as_xyz
  1  'x, y, z'
loop_
 _atom_site_type_symbol
 _atom_site_label
 _atom_site_symmetry_multiplicity
 _atom_site_fract_x
 _atom_site_fract_y
 _atom_site_fract_z
 _atom_site_occupancy
  Rb  Rb0  1  0.62736597  0.62736601  0.62736601  1
  Br  Br1  1  0.37263398  0.37263401  0.37263400  1
  W  W2  1  0.00000000  0.00000000  0.00000000  1
  W  W3  1  -0.00000002  0.50000001  0.99999999  1
  W  W4  1  0.00000000  0.00000000  0.49999999  1
  W  W5  1  0.50000000  0.00000000  0.00000000  1
  O  O6  1  0.67490300  0.06772800  0.67490299  1
  O  O7  1  0.06946297  0.68264301  0.06946301  1
  O  O8  1  0.67490297  0.67490301  0.06772802  1
  O  O9  1  0.06946300  0.06946300  0.68264299  1
  O  O10  1  0.68264300  0.06946300  0.06946300  1
  O  O11  1  0.06772797  0.67490301  0.67490300  1
  O  O12  1  0.32509696  0.93227201  0.32509702  1
  O  O13  1  0.93053699  0.31735700  0.93053700  1
  O  O14  1  0.32509699  0.32509700  0.93227199  1
  O  O15  1  0.93053696  0.93053701  0.31735702  1
  O  O16  1  0.31735696  0.93053701  0.93053700  1
  O  O17  1  0.93227199  0.32509700  0.32509701  1
