# generated using pymatgen
data_Nb5Ga3
_symmetry_space_group_name_H-M   'P 1'
_cell_length_a   5.17659378
_cell_length_b   7.81448650
_cell_length_c   7.88381624
_cell_angle_alpha   83.75728607
_cell_angle_beta   70.83406830
_cell_angle_gamma   70.65729523
_symmetry_Int_Tables_number   1
_chemical_formula_structural   Nb5Ga3
_chemical_formula_sum   'Nb10 Ga6'
_cell_volume   284.23849523
_cell_formula_units_Z   2
loop_
 _symmetry_equiv_pos_site_id
 _symmetry_equiv_pos_as_xyz
  1  'x, y, z'
loop_
 _atom_site_type_symbol
 _atom_site_label
 _atom_site_symmetry_multiplicity
 _atom_site_fract_x
 _atom_site_fract_y
 _atom_site_fract_z
 _atom_site_occupancy
  Nb  Nb0  1  0.27736903  0.28597500  0.15928801  1
  Nb  Nb1  1  0.72263106  0.71402500  0.84071203  1
  Nb  Nb2  1  0.21736406  0.86191501  0.70335702  1
  Nb  Nb3  1  0.78263603  0.13808500  0.29664302  1
  Nb  Nb4  1  0.42072106  0.86191501  0.29664302  1
  Nb  Nb5  1  0.57927903  0.13808500  0.70335702  1
  Nb  Nb6  1  0.93665705  0.28597500  0.84071203  1
  Nb  Nb7  1  0.06334304  0.71402500  0.15928801  1
  Nb  Nb8  1  0.24462304  0.50000000  0.50000001  1
  Nb  Nb9  1  0.75537705  0.50000000  0.50000002  1
  Ga  Ga10  1  0.75000002  0.00000000  0.00000002  1
  Ga  Ga11  1  0.25000007  1.00000001  0.00000002  1
  Ga  Ga12  1  0.83351307  0.83297401  0.50000003  1
  Ga  Ga13  1  0.16648701  0.16702600  0.50000001  1
  Ga  Ga14  1  0.67011105  0.50000000  0.15977802  1
  Ga  Ga15  1  0.32988904  0.50000000  0.84022201  1
