# generated using pymatgen
data_K2CN
_symmetry_space_group_name_H-M   'P 1'
_cell_length_a   4.39469385
_cell_length_b   5.49975109
_cell_length_c   5.49975109
_cell_angle_alpha   73.46210480
_cell_angle_beta   66.45084381
_cell_angle_gamma   66.45084381
_symmetry_Int_Tables_number   1
_chemical_formula_structural   K2CN
_chemical_formula_sum   'K2 C1 N1'
_cell_volume   110.46532580
_cell_formula_units_Z   1
loop_
 _symmetry_equiv_pos_site_id
 _symmetry_equiv_pos_as_xyz
  1  'x, y, z'
loop_
 _atom_site_type_symbol
 _atom_site_label
 _atom_site_symmetry_multiplicity
 _atom_site_fract_x
 _atom_site_fract_y
 _atom_site_fract_z
 _atom_site_occupancy
  K  K0  1  0.25627600  0.74372403  0.74372404  1
  K  K1  1  0.74372402  0.25627601  0.25627601  1
  N  N2  1  -0.00000000  0.61535102  0.38464903  1
  C  C3  1  -0.00000000  0.38464901  0.61535103  1
