# generated using pymatgen
data_SrCaV2O8
_symmetry_space_group_name_H-M   'P 1'
_cell_length_a   6.26121187
_cell_length_b   6.26121187
_cell_length_c   6.26121187
_cell_angle_alpha   106.07604980
_cell_angle_beta   106.07604980
_cell_angle_gamma   116.49847412
_symmetry_Int_Tables_number   1
_chemical_formula_structural   SrCaV2O8
_chemical_formula_sum   'Sr1 Ca1 V2 O8'
_cell_volume   186.79593520
_cell_formula_units_Z   1
loop_
 _symmetry_equiv_pos_site_id
 _symmetry_equiv_pos_as_xyz
  1  'x, y, z'
loop_
 _atom_site_type_symbol
 _atom_site_label
 _atom_site_symmetry_multiplicity
 _atom_site_fract_x
 _atom_site_fract_y
 _atom_site_fract_z
 _atom_site_occupancy
  Ca  Ca0  1  0.75000003  0.25000001  0.50000000  1
  V  V1  1  0.25000004  0.75000004  0.50000001  1
  V  V2  1  0.50000004  0.50000002  1.00000001  1
  Sr  Sr3  1  0.00000000  0.00000000  0.00000000  1
  O  O4  1  0.07141504  0.74260504  0.67119102  1
  O  O5  1  0.52816903  0.34133202  0.18683699  1
  O  O6  1  0.15449402  0.34133102  0.81316202  1
  O  O7  1  0.07141502  0.40022502  0.32881001  1
  O  O8  1  0.65866804  0.47183102  0.81316201  1
  O  O9  1  0.25739505  0.92858505  0.32881000  1
  O  O10  1  0.59977606  0.92858605  0.67119100  1
  O  O11  1  0.65866806  0.84550504  0.18683699  1
