# generated using pymatgen
data_Sc4Sb3
_symmetry_space_group_name_H-M   'P 1'
_cell_length_a   7.43830872
_cell_length_b   7.43830872
_cell_length_c   7.43830872
_cell_angle_alpha   109.29339600
_cell_angle_beta   109.56020355
_cell_angle_gamma   109.56020355
_symmetry_Int_Tables_number   1
_chemical_formula_structural   Sc4Sb3
_chemical_formula_sum   'Sc8 Sb6'
_cell_volume   316.80906314
_cell_formula_units_Z   2
loop_
 _symmetry_equiv_pos_site_id
 _symmetry_equiv_pos_as_xyz
  1  'x, y, z'
loop_
 _atom_site_type_symbol
 _atom_site_label
 _atom_site_symmetry_multiplicity
 _atom_site_fract_x
 _atom_site_fract_y
 _atom_site_fract_z
 _atom_site_occupancy
  Sb  Sb0  1  -0.00000004  0.49999997  0.49999997  1
  Sb  Sb1  1  0.49999997  0.24999999  0.74999996  1
  Sb  Sb2  1  0.12095593  0.74595596  0.12499995  1
  Sb  Sb3  1  0.37904396  0.37499998  0.25404396  1
  Sb  Sb4  1  0.87904398  0.00404400  0.62499996  1
  Sb  Sb5  1  0.62095591  0.87499995  0.99595592  1
  Sc  Sc6  1  0.89481196  0.27201598  0.02000895  1
  Sc  Sc7  1  0.60518798  0.12720399  0.37519797  1
  Sc  Sc8  1  0.25200591  0.97998994  0.87480193  1
  Sc  Sc9  1  0.10518799  0.12519799  0.37720399  1
  Sc  Sc10  1  0.75200593  0.62480196  0.22998993  1
  Sc  Sc11  1  0.74799393  0.62279696  0.72798393  1
  Sc  Sc12  1  0.24799395  0.47798397  0.87279696  1
  Sc  Sc13  1  0.39481192  0.77000896  0.52201594  1
