# generated using pymatgen
data_Sc5Si(B2Ir5)2
_symmetry_space_group_name_H-M   'P 1'
_cell_length_a   3.01325488
_cell_length_b   9.36591434
_cell_length_c   9.36591434
_cell_angle_alpha   90.00000000
_cell_angle_beta   90.00000000
_cell_angle_gamma   90.00000000
_symmetry_Int_Tables_number   1
_chemical_formula_structural   Sc5Si(B2Ir5)2
_chemical_formula_sum   'Sc5 Si1 B4 Ir10'
_cell_volume   264.32377735
_cell_formula_units_Z   1
loop_
 _symmetry_equiv_pos_site_id
 _symmetry_equiv_pos_as_xyz
  1  'x, y, z'
loop_
 _atom_site_type_symbol
 _atom_site_label
 _atom_site_symmetry_multiplicity
 _atom_site_fract_x
 _atom_site_fract_y
 _atom_site_fract_z
 _atom_site_occupancy
  Sc  Sc0  1  0.00000000  0.82019897  0.67395798  1
  Sc  Sc1  1  0.00000000  0.17980099  0.32604199  1
  Sc  Sc2  1  0.00000000  0.32604199  0.82019897  1
  Sc  Sc3  1  0.00000000  0.67395798  0.17980099  1
  Sc  Sc4  1  0.00000000  0.00000000  0.00000000  1
  Si  Si5  1  1.00000004  0.49999998  0.49999998  1
  B  B6  1  0.00000000  0.61710698  0.87015297  1
  B  B7  1  0.00000000  0.38289299  0.12984700  1
  B  B8  1  0.00000000  0.12984700  0.61710698  1
  B  B9  1  0.00000000  0.87015297  0.38289299  1
  Ir  Ir10  1  0.50000002  0.49999998  -0.00000000  1
  Ir  Ir11  1  0.50000002  0.00000000  0.49999998  1
  Ir  Ir12  1  0.50000002  0.56915898  0.71301797  1
  Ir  Ir13  1  0.50000002  0.43084098  0.28698199  1
  Ir  Ir14  1  0.50000002  0.07246700  0.77985697  1
  Ir  Ir15  1  0.50000002  0.92753297  0.22014299  1
  Ir  Ir16  1  0.50000002  0.28698199  0.56915898  1
  Ir  Ir17  1  0.50000002  0.71301797  0.43084098  1
  Ir  Ir18  1  0.50000002  0.22014299  0.07246700  1
  Ir  Ir19  1  0.50000002  0.77985697  0.92753297  1
