# generated using pymatgen
data_K2Ag3(BrO)2
_symmetry_space_group_name_H-M   'P 1'
_cell_length_a   4.35867596
_cell_length_b   4.35867596
_cell_length_c   10.59935570
_cell_angle_alpha   101.86523438
_cell_angle_beta   101.86523438
_cell_angle_gamma   90.00000000
_symmetry_Int_Tables_number   1
_chemical_formula_structural   K2Ag3(BrO)2
_chemical_formula_sum   'K2 Ag3 Br2 O2'
_cell_volume   192.66624902
_cell_formula_units_Z   1
loop_
 _symmetry_equiv_pos_site_id
 _symmetry_equiv_pos_as_xyz
  1  'x, y, z'
loop_
 _atom_site_type_symbol
 _atom_site_label
 _atom_site_symmetry_multiplicity
 _atom_site_fract_x
 _atom_site_fract_y
 _atom_site_fract_z
 _atom_site_occupancy
  K  K0  1  0.58728898  0.58728898  0.17457702  1
  K  K1  1  0.41271099  0.41271199  0.82542303  1
  Ag  Ag2  1  0.00000000  0.00000000  0.00000000  1
  Ag  Ag3  1  0.25000100  0.74999998  0.50000003  1
  Ag  Ag4  1  0.74999897  0.24999999  0.50000002  1
  Br  Br5  1  0.17156100  0.17156000  0.34312101  1
  Br  Br6  1  0.82843998  0.82844098  0.65688004  1
  O  O7  1  0.50000000  0.99999897  0.00000002  1
  O  O8  1  0.00000001  0.49999899  0.00000001  1
