# generated using pymatgen
data_BaCe2Al3Ge5
_symmetry_space_group_name_H-M   'P 1'
_cell_length_a   4.48579597
_cell_length_b   4.48579597
_cell_length_c   13.47917652
_cell_angle_alpha   99.57841492
_cell_angle_beta   99.57841492
_cell_angle_gamma   90.00000000
_symmetry_Int_Tables_number   1
_chemical_formula_structural   BaCe2Al3Ge5
_chemical_formula_sum   'Ba1 Ce2 Al3 Ge5'
_cell_volume   263.61605537
_cell_formula_units_Z   1
loop_
 _symmetry_equiv_pos_site_id
 _symmetry_equiv_pos_as_xyz
  1  'x, y, z'
loop_
 _atom_site_type_symbol
 _atom_site_label
 _atom_site_symmetry_multiplicity
 _atom_site_fract_x
 _atom_site_fract_y
 _atom_site_fract_z
 _atom_site_occupancy
  Ce  Ce0  1  0.99654801  0.99654801  0.99309598  1
  Ba  Ba1  1  0.68481101  0.68481101  0.36962200  1
  Al  Al2  1  0.58723401  0.08723400  0.17446800  1
  Al  Al3  1  0.08723400  0.58723400  0.17446800  1
  Al  Al4  1  0.23512500  0.23512500  0.47024999  1
  Ge  Ge5  1  0.78917501  0.28917500  0.57834999  1
  Ge  Ge6  1  0.28917501  0.78917501  0.57834999  1
  Ge  Ge7  1  0.90086201  0.40086200  0.80172398  1
  Ce  Ce8  1  0.40086201  0.90086201  0.80172398  1
  Ge  Ge9  1  0.13892900  0.13892900  0.27785799  1
  Ge  Ge10  1  0.53064601  0.53064600  0.06129200  1
