# generated using pymatgen
data_Zr5TiAlSi6
_symmetry_space_group_name_H-M   'P 1'
_cell_length_a   5.39867783
_cell_length_b   5.39867878
_cell_length_c   8.97344208
_cell_angle_alpha   90.00000000
_cell_angle_beta   90.00000000
_cell_angle_gamma   120.00000000
_symmetry_Int_Tables_number   1
_chemical_formula_structural   Zr5TiAlSi6
_chemical_formula_sum   'Zr5 Ti1 Al1 Si6'
_cell_volume   226.49811626
_cell_formula_units_Z   1
loop_
 _symmetry_equiv_pos_site_id
 _symmetry_equiv_pos_as_xyz
  1  'x, y, z'
loop_
 _atom_site_type_symbol
 _atom_site_label
 _atom_site_symmetry_multiplicity
 _atom_site_fract_x
 _atom_site_fract_y
 _atom_site_fract_z
 _atom_site_occupancy
  Al  Al0  1  0.00000000  0.00000000  0.00000000  1
  Si  Si1  1  0.00000004  0.50000000  0.75306999  1
  Si  Si2  1  0.00000004  0.50000000  0.24693000  1
  Si  Si3  1  0.50000009  1.00000001  0.75306999  1
  Si  Si4  1  0.50000009  1.00000001  0.24693000  1
  Si  Si5  1  0.50000005  0.50000000  0.75306999  1
  Si  Si6  1  0.50000005  0.50000000  0.24693000  1
  Zr  Zr7  1  0.66666671  0.33333334  0.99999999  1
  Zr  Zr8  1  0.66666671  0.33333334  0.50000000  1
  Zr  Zr9  1  0.00000000  0.00000000  0.67318299  1
  Zr  Zr10  1  0.00000000  0.00000000  0.32681700  1
  Zr  Zr11  1  0.33333339  0.66666667  0.99999999  1
  Ti  Ti12  1  0.33333339  0.66666667  0.50000000  1
