# generated using pymatgen
data_Sr3H5N4
_symmetry_space_group_name_H-M   'P 1'
_cell_length_a   3.97908711
_cell_length_b   5.99113798
_cell_length_c   7.89849806
_cell_angle_alpha   110.75410461
_cell_angle_beta   90.00000000
_cell_angle_gamma   90.00000000
_symmetry_Int_Tables_number   1
_chemical_formula_structural   Sr3H5N4
_chemical_formula_sum   'Sr3 H5 N4'
_cell_volume   176.07589538
_cell_formula_units_Z   1
loop_
 _symmetry_equiv_pos_site_id
 _symmetry_equiv_pos_as_xyz
  1  'x, y, z'
loop_
 _atom_site_type_symbol
 _atom_site_label
 _atom_site_symmetry_multiplicity
 _atom_site_fract_x
 _atom_site_fract_y
 _atom_site_fract_z
 _atom_site_occupancy
  Sr  Sr0  1  0.75388998  0.72906801  0.43721800  1
  H  H1  1  0.74610998  0.22906800  0.93721798  1
  Sr  Sr2  1  0.24610999  0.27093200  0.56278199  1
  Sr  Sr3  1  0.25388999  0.77093201  0.06278201  1
  N  N4  1  0.64874598  0.19326500  0.26427000  1
  N  N5  1  0.85125398  0.69326501  0.76426999  1
  H  H6  1  0.35125399  0.80673501  0.73572999  1
  H  H7  1  0.14874600  0.30673500  0.23573000  1
  H  H8  1  0.76545098  0.06375700  0.28710199  1
  H  H9  1  0.73454898  0.56375701  0.78710199  1
  N  N10  1  0.23454899  0.93624301  0.71289799  1
  N  N11  1  0.26545099  0.43624300  0.21289800  1
