# generated using pymatgen
data_SiHg2TeI3
_symmetry_space_group_name_H-M   'P 1'
_cell_length_a   4.51334190
_cell_length_b   7.42499781
_cell_length_c   7.86632252
_cell_angle_alpha   91.00263214
_cell_angle_beta   90.00000000
_cell_angle_gamma   90.00000000
_symmetry_Int_Tables_number   1
_chemical_formula_structural   SiHg2TeI3
_chemical_formula_sum   'Si1 Hg2 Te1 I3'
_cell_volume   263.57232862
_cell_formula_units_Z   1
loop_
 _symmetry_equiv_pos_site_id
 _symmetry_equiv_pos_as_xyz
  1  'x, y, z'
loop_
 _atom_site_type_symbol
 _atom_site_label
 _atom_site_symmetry_multiplicity
 _atom_site_fract_x
 _atom_site_fract_y
 _atom_site_fract_z
 _atom_site_occupancy
  Te  Te0  1  0.00000000  0.53232401  0.70937096  1
  Hg  Hg1  1  0.50000001  0.50667401  0.12412997  1
  I  I2  1  0.50000001  0.96093002  0.84226394  1
  Si  Si3  1  0.50000001  0.62279702  0.82633296  1
  Hg  Hg4  1  0.00000000  0.12399900  0.65547298  1
  I  I5  1  0.50000001  0.12626800  0.17347999  1
  I  I6  1  1.00000002  0.63500702  0.33561396  1
