# generated using pymatgen
data_CeEr(B5Ir3)2
_symmetry_space_group_name_H-M   'P 1'
_cell_length_a   5.39230394
_cell_length_b   5.39230394
_cell_length_c   7.62243605
_cell_angle_alpha   90.00000000
_cell_angle_beta   90.00000000
_cell_angle_gamma   90.00000000
_symmetry_Int_Tables_number   1
_chemical_formula_structural   CeEr(B5Ir3)2
_chemical_formula_sum   'Ce1 Er1 B10 Ir6'
_cell_volume   221.63712946
_cell_formula_units_Z   1
loop_
 _symmetry_equiv_pos_site_id
 _symmetry_equiv_pos_as_xyz
  1  'x, y, z'
loop_
 _atom_site_type_symbol
 _atom_site_label
 _atom_site_symmetry_multiplicity
 _atom_site_fract_x
 _atom_site_fract_y
 _atom_site_fract_z
 _atom_site_occupancy
  Ce  Ce0  1  0.00000000  0.00000000  0.00000000  1
  Er  Er1  1  0.50000001  0.50000001  0.50000000  1
  Ir  Ir2  1  0.83387501  0.50000001  0.15209100  1
  Ir  Ir3  1  0.16612500  0.50000001  0.15209100  1
  B  B4  1  0.00000000  0.33387500  0.65209100  1
  Ir  Ir5  1  0.00000000  0.66612501  0.65209100  1
  B  B6  1  0.66612501  0.00000000  0.34790900  1
  Ir  Ir7  1  0.33387500  0.00000000  0.34790900  1
  Ir  Ir8  1  0.50000001  0.16612500  0.84790899  1
  Ir  Ir9  1  0.50000001  0.83387501  0.84790899  1
  B  B10  1  0.24953800  0.50000001  0.85521899  1
  B  B11  1  0.75046201  0.50000001  0.85521899  1
  B  B12  1  0.00000000  0.74953801  0.35521900  1
  B  B13  1  0.00000000  0.25046200  0.35521900  1
  B  B14  1  0.25046200  0.00000000  0.64478100  1
  B  B15  1  0.74953801  0.00000000  0.64478100  1
  B  B16  1  0.50000001  0.75046201  0.14478100  1
  B  B17  1  0.50000001  0.24953800  0.14478100  1
