# generated using pymatgen
data_La5ZnSn4
_symmetry_space_group_name_H-M   'P 1'
_cell_length_a   8.88982391
_cell_length_b   8.94133472
_cell_length_c   10.09301090
_cell_angle_alpha   82.47235870
_cell_angle_beta   72.87211609
_cell_angle_gamma   61.43381882
_symmetry_Int_Tables_number   1
_chemical_formula_structural   La5ZnSn4
_chemical_formula_sum   'La10 Zn2 Sn8'
_cell_volume   673.30378935
_cell_formula_units_Z   2
loop_
 _symmetry_equiv_pos_site_id
 _symmetry_equiv_pos_as_xyz
  1  'x, y, z'
loop_
 _atom_site_type_symbol
 _atom_site_label
 _atom_site_symmetry_multiplicity
 _atom_site_fract_x
 _atom_site_fract_y
 _atom_site_fract_z
 _atom_site_occupancy
  La  La0  1  0.36581601  0.48898902  0.86181705  1
  La  La1  1  0.59167200  0.14551701  0.39183103  1
  Sn  Sn2  1  0.63224000  0.12435001  0.00610001  1
  La  La3  1  0.16868801  0.80994404  0.38893202  1
  La  La4  1  0.16753200  0.45008502  0.60394403  1
  La  La5  1  0.04031500  0.22743601  0.89432404  1
  Sn  Sn6  1  0.95968501  0.77256403  0.10567603  1
  La  La7  1  0.83246801  0.54991502  0.39605604  1
  La  La8  1  0.83131200  0.19005601  0.61106805  1
  La  La9  1  0.36776001  0.87565004  0.99390006  1
  La  La10  1  0.40832801  0.85448304  0.60816904  1
  La  La11  1  0.63418401  0.51101102  0.13818302  1
  Zn  Zn12  1  0.23810900  0.17761801  0.25018402  1
  Zn  Zn13  1  0.76189101  0.82238204  0.74981605  1
  Sn  Sn14  1  0.48546200  0.11265500  0.74217404  1
  Sn  Sn15  1  0.04049801  0.83014504  0.76229904  1
  Sn  Sn16  1  0.26859700  0.44966702  0.24180502  1
  Sn  Sn17  1  0.73140301  0.55033302  0.75819505  1
  Sn  Sn18  1  0.95950200  0.16985501  0.23770103  1
  Sn  Sn19  1  0.51453801  0.88734504  0.25782603  1
