# generated using pymatgen
data_Sm(NiGe)2
_symmetry_space_group_name_H-M   'P 1'
_cell_length_a   4.13397980
_cell_length_b   4.13397980
_cell_length_c   5.69932652
_cell_angle_alpha   111.26442719
_cell_angle_beta   111.26442719
_cell_angle_gamma   90.00000000
_symmetry_Int_Tables_number   1
_chemical_formula_structural   Sm(NiGe)2
_chemical_formula_sum   'Sm1 Ni2 Ge2'
_cell_volume   83.61331137
_cell_formula_units_Z   1
loop_
 _symmetry_equiv_pos_site_id
 _symmetry_equiv_pos_as_xyz
  1  'x, y, z'
loop_
 _atom_site_type_symbol
 _atom_site_label
 _atom_site_symmetry_multiplicity
 _atom_site_fract_x
 _atom_site_fract_y
 _atom_site_fract_z
 _atom_site_occupancy
  Sm  Sm0  1  0.00000000  0.00000000  0.00000000  1
  Ni  Ni1  1  0.25000004  0.75000005  0.50000003  1
  Ge  Ge2  1  0.62626406  0.62626404  0.25252804  1
  Ge  Ge3  1  0.37373603  0.37373602  0.74747202  1
  Ni  Ni4  1  0.75000005  0.25000002  0.50000003  1
