# generated using pymatgen
data_AgS
_symmetry_space_group_name_H-M   'P 1'
_cell_length_a   7.29605579
_cell_length_b   7.31123304
_cell_length_c   7.30720854
_cell_angle_alpha   80.57337189
_cell_angle_beta   70.83739471
_cell_angle_gamma   60.06864548
_symmetry_Int_Tables_number   1
_chemical_formula_structural   AgS
_chemical_formula_sum   'Ag6 S6'
_cell_volume   319.08369711
_cell_formula_units_Z   6
loop_
 _symmetry_equiv_pos_site_id
 _symmetry_equiv_pos_as_xyz
  1  'x, y, z'
loop_
 _atom_site_type_symbol
 _atom_site_label
 _atom_site_symmetry_multiplicity
 _atom_site_fract_x
 _atom_site_fract_y
 _atom_site_fract_z
 _atom_site_occupancy
  Ag  Ag0  1  0.00865800  0.82516303  0.99610298  1
  Ag  Ag1  1  0.66227601  0.49471002  0.99906101  1
  Ag  Ag2  1  0.83382102  0.17483701  0.49610302  1
  Ag  Ag3  1  0.15698600  0.50529002  0.49906099  1
  Ag  Ag4  1  0.31923901  0.16595601  0.01260000  1
  Ag  Ag5  1  0.48519501  0.83404403  0.51259999  1
  S  S6  1  0.63004201  0.82584503  0.12557099  1
  S  S7  1  0.95172902  0.16296001  0.12290402  1
  S  S8  1  0.11468900  0.83704003  0.62290398  1
  S  S9  1  0.29212301  0.49117502  0.12732499  1
  S  S10  1  0.45588701  0.17415501  0.62557101  1
  S  S11  1  0.78329802  0.50882502  0.62732501  1
