# generated using pymatgen
data_NaLi2HC2N
_symmetry_space_group_name_H-M   'P 1'
_cell_length_a   3.80511808
_cell_length_b   3.80511808
_cell_length_c   8.25626373
_cell_angle_alpha   90.00000000
_cell_angle_beta   90.00000000
_cell_angle_gamma   120.00000000
_symmetry_Int_Tables_number   1
_chemical_formula_structural   NaLi2HC2N
_chemical_formula_sum   'Na1 Li2 H1 C2 N1'
_cell_volume   103.52624608
_cell_formula_units_Z   1
loop_
 _symmetry_equiv_pos_site_id
 _symmetry_equiv_pos_as_xyz
  1  'x, y, z'
loop_
 _atom_site_type_symbol
 _atom_site_label
 _atom_site_symmetry_multiplicity
 _atom_site_fract_x
 _atom_site_fract_y
 _atom_site_fract_z
 _atom_site_occupancy
  C  C0  1  0.66666666  0.33333334  0.67889702  1
  H  H1  1  0.33333334  0.66666668  0.32110301  1
  C  C2  1  0.00000000  0.00000000  0.00000000  1
  Na  Na3  1  0.00000000  0.00000000  0.85024103  1
  N  N4  1  0.00000000  0.00000000  0.14975900  1
  Li  Li5  1  0.66666666  0.33333334  0.39703501  1
  Li  Li6  1  0.33333334  0.66666668  0.60296502  1
