# generated using pymatgen
data_SrLa2GdCuSbTe2O9
_symmetry_space_group_name_H-M   'P 1'
_cell_length_a   5.57048798
_cell_length_b   5.57048798
_cell_length_c   9.81697655
_cell_angle_alpha   90.00000000
_cell_angle_beta   90.00000000
_cell_angle_gamma   90.00000000
_symmetry_Int_Tables_number   1
_chemical_formula_structural   SrLa2GdCuSbTe2O9
_chemical_formula_sum   'Sr1 La2 Gd1 Cu1 Sb1 Te2 O9'
_cell_volume   304.62408363
_cell_formula_units_Z   1
loop_
 _symmetry_equiv_pos_site_id
 _symmetry_equiv_pos_as_xyz
  1  'x, y, z'
loop_
 _atom_site_type_symbol
 _atom_site_label
 _atom_site_symmetry_multiplicity
 _atom_site_fract_x
 _atom_site_fract_y
 _atom_site_fract_z
 _atom_site_occupancy
  Sr  Sr0  1  0.00000000  0.50000000  0.54661103  1
  La  La1  1  0.50000000  0.00000000  0.54661103  1
  La  La2  1  0.00000000  0.00000000  0.79778804  1
  Gd  Gd3  1  0.50000000  0.50000000  0.80978504  1
  Sb  Sb4  1  0.50000000  0.50000000  0.25211101  1
  Cu  Cu5  1  0.00000000  0.00000000  0.30078701  1
  Te  Te6  1  0.50000000  0.00000000  0.98435805  1
  Te  Te7  1  0.00000000  0.50000000  0.98435805  1
  O  O8  1  0.74383700  0.74383700  0.68222803  1
  O  O9  1  0.25616300  0.25616300  0.68222803  1
  O  O10  1  0.74383700  0.25616300  0.68222803  1
  O  O11  1  0.25616300  0.74383700  0.68222803  1
  O  O12  1  0.73062200  0.73062200  0.34253802  1
  O  O13  1  0.26937800  0.26937800  0.34253802  1
  O  O14  1  0.73062200  0.26937800  0.34253802  1
  O  O15  1  0.26937800  0.73062200  0.34253802  1
  O  O16  1  0.00000000  0.00000000  0.49181602  1
