# generated using pymatgen
data_ZrNb4Si6Mo5Rh
_symmetry_space_group_name_H-M   'P 1'
_cell_length_a   6.99477482
_cell_length_b   6.99477482
_cell_length_c   6.99477482
_cell_angle_alpha   109.47122192
_cell_angle_beta   109.47122192
_cell_angle_gamma   109.47122192
_symmetry_Int_Tables_number   1
_chemical_formula_structural   ZrNb4Si6Mo5Rh
_chemical_formula_sum   'Zr1 Nb4 Si6 Mo5 Rh1'
_cell_volume   263.45066683
_cell_formula_units_Z   1
loop_
 _symmetry_equiv_pos_site_id
 _symmetry_equiv_pos_as_xyz
  1  'x, y, z'
loop_
 _atom_site_type_symbol
 _atom_site_label
 _atom_site_symmetry_multiplicity
 _atom_site_fract_x
 _atom_site_fract_y
 _atom_site_fract_z
 _atom_site_occupancy
  Zr  Zr0  1  0.49999999  0.00000000  0.99999998  1
  Nb  Nb1  1  0.50000002  0.50000000  0.50000002  1
  Nb  Nb2  1  0.00000000  0.00000000  0.49999998  1
  Nb  Nb3  1  0.00000003  0.50000000  0.00000003  1
  Si  Si4  1  0.69390803  0.69390801  1.00000002  1
  Si  Si5  1  0.30609201  0.30609200  0.99999999  1
  Si  Si6  1  0.30609199  0.00000000  0.30609200  1
  Si  Si7  1  0.69390805  1.00000001  0.69390805  1
  Si  Si8  1  0.00000004  0.69390801  0.69390802  1
  Si  Si9  1  0.00000002  0.30609200  0.30609201  1
  Mo  Mo10  1  0.50000000  0.25000000  0.75000000  1
  Mo  Mo11  1  0.75000000  0.25000000  0.50000002  1
  Rh  Rh12  1  0.75000001  0.50000000  0.25000004  1
  Mo  Mo13  1  0.25000003  0.50000000  0.75000001  1
  Mo  Mo14  1  0.50000004  0.75000001  0.25000005  1
  Nb  Nb15  1  0.00000000  0.00000000  0.00000000  1
  Mo  Mo16  1  0.25000004  0.75000001  0.50000003  1
