# generated using pymatgen
data_Na3Fe4O7
_symmetry_space_group_name_H-M   'P 1'
_cell_length_a   5.82803059
_cell_length_b   6.19069099
_cell_length_c   6.51582193
_cell_angle_alpha   114.94328308
_cell_angle_beta   95.51734161
_cell_angle_gamma   111.87348175
_symmetry_Int_Tables_number   1
_chemical_formula_structural   Na3Fe4O7
_chemical_formula_sum   'Na3 Fe4 O7'
_cell_volume   188.64171158
_cell_formula_units_Z   1
loop_
 _symmetry_equiv_pos_site_id
 _symmetry_equiv_pos_as_xyz
  1  'x, y, z'
loop_
 _atom_site_type_symbol
 _atom_site_label
 _atom_site_symmetry_multiplicity
 _atom_site_fract_x
 _atom_site_fract_y
 _atom_site_fract_z
 _atom_site_occupancy
  O  O0  1  0.86226098  0.23802901  0.64480497  1
  Na  Na1  1  0.13773899  0.76197104  0.35519503  1
  Fe  Fe2  1  0.49999999  0.50000003  0.50000000  1
  Fe  Fe3  1  0.49999999  0.00000000  -0.00000002  1
  Fe  Fe4  1  0.00000000  0.00000000  0.00000000  1
  Fe  Fe5  1  0.49999999  0.50000003  0.00000001  1
  O  O6  1  0.64581699  0.39865702  0.22639500  1
  O  O7  1  0.35418299  0.60134304  0.77360501  1
  Na  Na8  1  0.87460298  0.64502604  0.99121599  1
  O  O9  1  0.12539700  0.35497402  0.00878402  1
  O  O10  1  0.51721598  0.86344605  0.24198103  1
  Na  Na11  1  0.48278399  0.13655401  0.75801897  1
  O  O12  1  0.83886398  0.86088105  0.64296801  1
  O  O13  1  0.16113600  0.13911901  0.35703200  1
