# generated using pymatgen
data_AlNi
_symmetry_space_group_name_H-M   'P 1'
_cell_length_a   3.51067042
_cell_length_b   3.51067042
_cell_length_c   5.91436625
_cell_angle_alpha   72.73500061
_cell_angle_beta   72.73500061
_cell_angle_gamma   59.99999237
_symmetry_Int_Tables_number   1
_chemical_formula_structural   AlNi
_chemical_formula_sum   'Al2 Ni2'
_cell_volume   59.30473051
_cell_formula_units_Z   2
loop_
 _symmetry_equiv_pos_site_id
 _symmetry_equiv_pos_as_xyz
  1  'x, y, z'
loop_
 _atom_site_type_symbol
 _atom_site_label
 _atom_site_symmetry_multiplicity
 _atom_site_fract_x
 _atom_site_fract_y
 _atom_site_fract_z
 _atom_site_occupancy
  Al  Al0  1  0.24872799  0.24872800  0.25381600  1
  Al  Al1  1  0.75127197  0.75127199  0.74618401  1
  Ni  Ni2  1  0.00000000  0.00000000  0.00000000  1
  Ni  Ni3  1  0.49999998  0.49999999  0.50000000  1
