# generated using pymatgen
data_Sc2AgS4
_symmetry_space_group_name_H-M   'P 1'
_cell_length_a   3.53483009
_cell_length_b   6.51646185
_cell_length_c   7.03907490
_cell_angle_alpha   117.06185150
_cell_angle_beta   104.54180145
_cell_angle_gamma   90.00000000
_symmetry_Int_Tables_number   1
_chemical_formula_structural   Sc2AgS4
_chemical_formula_sum   'Sc2 Ag1 S4'
_cell_volume   138.53189236
_cell_formula_units_Z   1
loop_
 _symmetry_equiv_pos_site_id
 _symmetry_equiv_pos_as_xyz
  1  'x, y, z'
loop_
 _atom_site_type_symbol
 _atom_site_label
 _atom_site_symmetry_multiplicity
 _atom_site_fract_x
 _atom_site_fract_y
 _atom_site_fract_z
 _atom_site_occupancy
  Ag  Ag0  1  0.00000000  0.00000000  0.00000000  1
  Sc  Sc1  1  0.74865001  0.70286401  0.49730004  1
  Sc  Sc2  1  0.25135001  0.29713600  0.50270001  1
  S  S3  1  0.63415802  0.96550401  0.26831607  1
  S  S4  1  0.36584199  0.03449600  0.73168399  1
  S  S5  1  0.88994000  0.55366101  0.77988003  1
  S  S6  1  0.11006002  0.44633901  0.22012003  1
