# generated using pymatgen
data_TmNi4B
_symmetry_space_group_name_H-M   'P 1'
_cell_length_a   5.00117493
_cell_length_b   5.00117540
_cell_length_c   7.00789118
_cell_angle_alpha   90.00000000
_cell_angle_beta   90.00000000
_cell_angle_gamma   120.00000763
_symmetry_Int_Tables_number   1
_chemical_formula_structural   TmNi4B
_chemical_formula_sum   'Tm2 Ni8 B2'
_cell_volume   151.79661230
_cell_formula_units_Z   2
loop_
 _symmetry_equiv_pos_site_id
 _symmetry_equiv_pos_as_xyz
  1  'x, y, z'
loop_
 _atom_site_type_symbol
 _atom_site_label
 _atom_site_symmetry_multiplicity
 _atom_site_fract_x
 _atom_site_fract_y
 _atom_site_fract_z
 _atom_site_occupancy
  Tm  Tm0  1  0.00000000  0.00000000  0.00000000  1
  Tm  Tm1  1  0.00000000  0.00000000  0.49999999  1
  Ni  Ni2  1  0.33333339  0.66666671  -0.00000000  1
  Ni  Ni3  1  0.66666671  0.33333336  -0.00000000  1
  Ni  Ni4  1  0.50000002  0.00000000  0.28576799  1
  Ni  Ni5  1  0.50000005  0.50000003  0.28576799  1
  Ni  Ni6  1  0.00000003  0.50000003  0.28576799  1
  Ni  Ni7  1  0.50000002  0.00000000  0.71423198  1
  Ni  Ni8  1  0.50000005  0.50000003  0.71423198  1
  Ni  Ni9  1  0.00000003  0.50000003  0.71423198  1
  B  B10  1  0.33333339  0.66666671  0.49999999  1
  B  B11  1  0.66666671  0.33333336  0.49999999  1
