# generated using pymatgen
data_Cs8Na2LuTe5
_symmetry_space_group_name_H-M   'P 1'
_cell_length_a   7.32674789
_cell_length_b   8.95977402
_cell_length_c   10.35839844
_cell_angle_alpha   90.00000000
_cell_angle_beta   90.00000000
_cell_angle_gamma   114.13380432
_symmetry_Int_Tables_number   1
_chemical_formula_structural   Cs8Na2LuTe5
_chemical_formula_sum   'Cs8 Na2 Lu1 Te5'
_cell_volume   620.55188548
_cell_formula_units_Z   1
loop_
 _symmetry_equiv_pos_site_id
 _symmetry_equiv_pos_as_xyz
  1  'x, y, z'
loop_
 _atom_site_type_symbol
 _atom_site_label
 _atom_site_symmetry_multiplicity
 _atom_site_fract_x
 _atom_site_fract_y
 _atom_site_fract_z
 _atom_site_occupancy
  Cs  Cs0  1  0.76868897  0.53737800  0.74999997  1
  Cs  Cs1  1  0.23131097  0.46262200  0.24999999  1
  Cs  Cs2  1  0.38966895  0.77933800  0.95243196  1
  Cs  Cs3  1  0.61033099  0.22066200  0.04756800  1
  Cs  Cs4  1  0.61033099  0.22066200  0.45243198  1
  Cs  Cs5  1  0.38966895  0.77933800  0.54756798  1
  Cs  Cs6  1  0.00000000  0.00000000  0.00000000  1
  Lu  Lu7  1  0.00000000  0.00000000  0.49999998  1
  Te  Te8  1  0.82289301  0.07836800  0.74999997  1
  Cs  Cs9  1  0.17710694  0.92163200  0.24999999  1
  Te  Te10  1  0.25547500  0.07836800  0.74999997  1
  Te  Te11  1  0.74452494  0.92163200  0.24999999  1
  Na  Na12  1  0.17532498  0.35065000  0.90041096  1
  Na  Na13  1  0.82467496  0.64935000  0.09958900  1
  Te  Te14  1  0.82467496  0.64935000  0.40041098  1
  Te  Te15  1  0.17532498  0.35065000  0.59958897  1
