# generated using pymatgen
data_Ti2CoMoH7
_symmetry_space_group_name_H-M   'P 1'
_cell_length_a   4.40586615
_cell_length_b   4.40586615
_cell_length_c   4.40586615
_cell_angle_alpha   90.00000000
_cell_angle_beta   90.00000000
_cell_angle_gamma   90.00000000
_symmetry_Int_Tables_number   1
_chemical_formula_structural   Ti2CoMoH7
_chemical_formula_sum   'Ti2 Co1 Mo1 H7'
_cell_volume   85.52516020
_cell_formula_units_Z   1
loop_
 _symmetry_equiv_pos_site_id
 _symmetry_equiv_pos_as_xyz
  1  'x, y, z'
loop_
 _atom_site_type_symbol
 _atom_site_label
 _atom_site_symmetry_multiplicity
 _atom_site_fract_x
 _atom_site_fract_y
 _atom_site_fract_z
 _atom_site_occupancy
  Co  Co0  1  0.25426999  0.74572998  0.74572998  1
  Ti  Ti1  1  0.74572998  0.25426999  0.74572998  1
  Ti  Ti2  1  0.74572998  0.74572998  0.25426999  1
  Mo  Mo3  1  0.25426999  0.25426999  0.25426999  1
  H  H4  1  0.49999998  0.00000000  0.00000000  1
  H  H5  1  0.00000000  0.49999998  0.49999998  1
  H  H6  1  0.49999998  0.00000000  0.49999998  1
  H  H7  1  0.00000000  0.49999998  -0.00000000  1
  H  H8  1  0.00000000  0.00000000  0.00000000  1
  H  H9  1  0.00000000  0.00000000  0.49999998  1
  H  H10  1  0.49999998  0.49999998  -0.00000000  1
