# generated using pymatgen
data_CeSi3Ni5
_symmetry_space_group_name_H-M   'P 1'
_cell_length_a   3.73865008
_cell_length_b   6.38025618
_cell_length_c   11.85014057
_cell_angle_alpha   90.00000000
_cell_angle_beta   90.00000000
_cell_angle_gamma   107.03680420
_symmetry_Int_Tables_number   1
_chemical_formula_structural   CeSi3Ni5
_chemical_formula_sum   'Ce2 Si6 Ni10'
_cell_volume   270.26348087
_cell_formula_units_Z   2
loop_
 _symmetry_equiv_pos_site_id
 _symmetry_equiv_pos_as_xyz
  1  'x, y, z'
loop_
 _atom_site_type_symbol
 _atom_site_label
 _atom_site_symmetry_multiplicity
 _atom_site_fract_x
 _atom_site_fract_y
 _atom_site_fract_z
 _atom_site_occupancy
  Ce  Ce0  1  0.83705905  0.67411802  0.75000003  1
  Ce  Ce1  1  0.16294103  0.32588201  0.25000001  1
  Ni  Ni2  1  0.80617004  0.61234002  0.06652500  1
  Ni  Ni3  1  0.19383003  0.38766001  0.56652502  1
  Ni  Ni4  1  0.00000000  0.00000000  0.00000000  1
  Ni  Ni5  1  0.00000000  0.00000000  0.50000002  1
  Ni  Ni6  1  0.45028408  0.90056803  0.35543201  1
  Ni  Ni7  1  0.54971600  0.09943200  0.64456802  1
  Ni  Ni8  1  0.54971600  0.09943200  0.85543203  1
  Ni  Ni9  1  0.80617004  0.61234002  0.43347502  1
  Ni  Ni10  1  0.19383003  0.38766001  0.93347503  1
  Ni  Ni11  1  0.45028408  0.90056803  0.14456801  1
  Si  Si12  1  0.37948306  0.75896602  0.54391702  1
  Si  Si13  1  0.88420205  0.76840402  0.25000001  1
  Si  Si14  1  0.37948306  0.75896602  0.95608303  1
  Si  Si15  1  0.62051701  0.24103401  0.04391700  1
  Si  Si16  1  0.11579802  0.23159601  0.75000003  1
  Si  Si17  1  0.62051701  0.24103401  0.45608302  1
