# generated using pymatgen
data_LiMn2O4
_symmetry_space_group_name_H-M   'P 1'
_cell_length_a   5.89354467
_cell_length_b   5.89394188
_cell_length_c   6.01414490
_cell_angle_alpha   60.66074753
_cell_angle_beta   60.66769409
_cell_angle_gamma   60.00336456
_symmetry_Int_Tables_number   1
_chemical_formula_structural   LiMn2O4
_chemical_formula_sum   'Li2 Mn4 O8'
_cell_volume   149.19029288
_cell_formula_units_Z   2
loop_
 _symmetry_equiv_pos_site_id
 _symmetry_equiv_pos_as_xyz
  1  'x, y, z'
loop_
 _atom_site_type_symbol
 _atom_site_label
 _atom_site_symmetry_multiplicity
 _atom_site_fract_x
 _atom_site_fract_y
 _atom_site_fract_z
 _atom_site_occupancy
  Li  Li0  1  0.87371796  0.87371398  0.37884604  1
  Mn  Mn1  1  0.12627999  0.12628200  0.62116203  1
  Mn  Mn2  1  0.49999997  0.99999498  0.99999606  1
  Mn  Mn3  1  0.49999298  0.49999999  0.00001202  1
  Li  Li4  1  0.00000499  0.50000899  0.99999804  1
  Mn  Mn5  1  0.49999998  0.50000099  0.49999803  1
  O  O6  1  0.72970896  0.72971099  0.81088805  1
  O  O7  1  0.27796098  0.73829899  0.24535402  1
  O  O8  1  0.73826896  0.73841399  0.24533003  1
  O  O9  1  0.73839997  0.27798399  0.24532903  1
  O  O10  1  0.26160098  0.72201499  0.75466804  1
  O  O11  1  0.26173199  0.26158599  0.75466703  1
  O  O12  1  0.72203997  0.26170099  0.75464505  1
  O  O13  1  0.27029199  0.27028799  0.18911002  1
