# generated using pymatgen
data_La4Te5
_symmetry_space_group_name_H-M   'P 1'
_cell_length_a   6.61178112
_cell_length_b   9.86699581
_cell_length_c   9.86699581
_cell_angle_alpha   120.00000000
_cell_angle_beta   90.00000000
_cell_angle_gamma   90.00000000
_symmetry_Int_Tables_number   1
_chemical_formula_structural   La4Te5
_chemical_formula_sum   'La8 Te10'
_cell_volume   557.46677354
_cell_formula_units_Z   2
loop_
 _symmetry_equiv_pos_site_id
 _symmetry_equiv_pos_as_xyz
  1  'x, y, z'
loop_
 _atom_site_type_symbol
 _atom_site_label
 _atom_site_symmetry_multiplicity
 _atom_site_fract_x
 _atom_site_fract_y
 _atom_site_fract_z
 _atom_site_occupancy
  La  La0  1  0.25000000  0.61958001  0.61957999  1
  La  La1  1  0.25000000  0.38042001  1.00000000  1
  La  La2  1  0.25000000  1.00000001  0.38041999  1
  La  La3  1  0.74999999  0.38042001  0.38042000  1
  La  La4  1  0.74999999  0.61958001  0.99999999  1
  La  La5  1  0.74999999  1.00000001  0.61957999  1
  La  La6  1  0.00000000  0.00000000  0.00000000  1
  Te  Te7  1  0.49999999  0.00000000  -0.00000000  1
  Te  Te8  1  0.74999999  0.73427501  0.73427499  1
  La  La9  1  0.99999998  0.33333334  0.66666666  1
  Te  Te10  1  0.74999999  0.26572500  1.00000000  1
  Te  Te11  1  0.25000000  1.00000001  0.73427499  1
  Te  Te12  1  0.74999999  1.00000001  0.26572499  1
  Te  Te13  1  0.49999999  0.66666668  0.33333333  1
  Te  Te14  1  0.49999999  0.33333334  0.66666666  1
  Te  Te15  1  0.25000000  0.26572500  0.26572500  1
  Te  Te16  1  0.25000000  0.73427501  -0.00000001  1
  Te  Te17  1  0.00000000  0.66666668  0.33333333  1
