# generated using pymatgen
data_LiCrO4
_symmetry_space_group_name_H-M   'P 1'
_cell_length_a   4.92751837
_cell_length_b   4.92751837
_cell_length_c   6.67532778
_cell_angle_alpha   90.00000000
_cell_angle_beta   90.00000000
_cell_angle_gamma   111.06269073
_symmetry_Int_Tables_number   1
_chemical_formula_structural   LiCrO4
_chemical_formula_sum   'Li2 Cr2 O8'
_cell_volume   151.25095701
_cell_formula_units_Z   2
loop_
 _symmetry_equiv_pos_site_id
 _symmetry_equiv_pos_as_xyz
  1  'x, y, z'
loop_
 _atom_site_type_symbol
 _atom_site_label
 _atom_site_symmetry_multiplicity
 _atom_site_fract_x
 _atom_site_fract_y
 _atom_site_fract_z
 _atom_site_occupancy
  Li  Li0  1  0.00000000  0.00000000  0.00000000  1
  Li  Li1  1  0.00000000  0.00000000  0.50000002  1
  Cr  Cr2  1  0.34807000  0.65192998  0.75000002  1
  Cr  Cr3  1  0.65192998  0.34806999  0.25000001  1
  O  O4  1  0.23857201  0.76142797  0.53776102  1
  O  O5  1  0.76142797  0.23857199  0.46223902  1
  O  O6  1  0.28079699  0.22313899  0.25000001  1
  O  O7  1  0.71920299  0.77686097  0.75000002  1
  O  O8  1  0.23857201  0.76142797  0.96223903  1
  O  O9  1  0.76142797  0.23857199  0.03776100  1
  O  O10  1  0.77686098  0.71920297  0.25000001  1
  O  O11  1  0.22313900  0.28079699  0.75000002  1
