# generated using pymatgen
data_RbBi3SBr8
_symmetry_space_group_name_H-M   'P 1'
_cell_length_a   5.98590422
_cell_length_b   7.95611000
_cell_length_c   7.95611048
_cell_angle_alpha   60.00000381
_cell_angle_beta   90.00000000
_cell_angle_gamma   90.00000000
_symmetry_Int_Tables_number   1
_chemical_formula_structural   RbBi3SBr8
_chemical_formula_sum   'Rb1 Bi3 S1 Br8'
_cell_volume   328.14213216
_cell_formula_units_Z   1
loop_
 _symmetry_equiv_pos_site_id
 _symmetry_equiv_pos_as_xyz
  1  'x, y, z'
loop_
 _atom_site_type_symbol
 _atom_site_label
 _atom_site_symmetry_multiplicity
 _atom_site_fract_x
 _atom_site_fract_y
 _atom_site_fract_z
 _atom_site_occupancy
  S  S0  1  0.00000000  0.49999999  0.00000002  1
  Br  Br1  1  0.00000000  0.00000000  0.50000000  1
  Br  Br2  1  0.00000000  0.49999999  0.50000002  1
  Bi  Bi3  1  0.49999998  0.00000000  -0.00000000  1
  Br  Br4  1  0.00000000  0.00000000  0.00000000  1
  Rb  Rb5  1  0.75621997  0.66666666  0.66666669  1
  Bi  Bi6  1  0.24377999  0.33333333  0.33333335  1
  Br  Br7  1  0.75102297  0.66532099  0.16733902  1
  Br  Br8  1  0.24897699  0.33467899  0.83266102  1
  Br  Br9  1  0.75102297  0.16734000  0.16733901  1
  Bi  Bi10  1  0.24897699  0.83265999  0.33468003  1
  Br  Br11  1  0.24897699  0.83265999  0.83266103  1
  Br  Br12  1  0.75102297  0.16734000  0.66532001  1
