# generated using pymatgen
data_Rb2CuAuF8
_symmetry_space_group_name_H-M   'P 1'
_cell_length_a   4.11668682
_cell_length_b   7.25846291
_cell_length_c   8.95767117
_cell_angle_alpha   104.79392242
_cell_angle_beta   90.00000000
_cell_angle_gamma   90.00000000
_symmetry_Int_Tables_number   1
_chemical_formula_structural   Rb2CuAuF8
_chemical_formula_sum   'Rb2 Cu1 Au1 F8'
_cell_volume   258.78966188
_cell_formula_units_Z   1
loop_
 _symmetry_equiv_pos_site_id
 _symmetry_equiv_pos_as_xyz
  1  'x, y, z'
loop_
 _atom_site_type_symbol
 _atom_site_label
 _atom_site_symmetry_multiplicity
 _atom_site_fract_x
 _atom_site_fract_y
 _atom_site_fract_z
 _atom_site_occupancy
  Rb  Rb0  1  0.75000003  0.14058800  0.75528502  1
  Rb  Rb1  1  0.25000001  0.85941202  0.24471505  1
  Au  Au2  1  0.75000003  0.38716301  0.32730803  1
  Cu  Cu3  1  0.25000001  0.61283702  0.67269205  1
  F  F4  1  0.75000003  0.77021102  0.91025606  1
  F  F5  1  0.25000001  0.22978901  0.08974401  1
  F  F6  1  0.75000003  0.54840602  0.58348204  1
  F  F7  1  0.25000001  0.45159401  0.41651803  1
  F  F8  1  0.75000003  0.15150500  0.37190702  1
  F  F9  1  0.25000001  0.84849502  0.62809306  1
  F  F10  1  0.75000003  0.61066102  0.26420804  1
  F  F11  1  0.25000001  0.38933901  0.73579204  1
