# generated using pymatgen
data_Zn2InTe3
_symmetry_space_group_name_H-M   'P 1'
_cell_length_a   3.44985008
_cell_length_b   3.44984937
_cell_length_c   12.27101040
_cell_angle_alpha   90.00000000
_cell_angle_beta   90.00000000
_cell_angle_gamma   120.00000763
_symmetry_Int_Tables_number   1
_chemical_formula_structural   Zn2InTe3
_chemical_formula_sum   'Zn2 In1 Te3'
_cell_volume   126.47691905
_cell_formula_units_Z   1
loop_
 _symmetry_equiv_pos_site_id
 _symmetry_equiv_pos_as_xyz
  1  'x, y, z'
loop_
 _atom_site_type_symbol
 _atom_site_label
 _atom_site_symmetry_multiplicity
 _atom_site_fract_x
 _atom_site_fract_y
 _atom_site_fract_z
 _atom_site_occupancy
  Te  Te0  1  0.66666666  0.33333334  0.90618797  1
  Zn  Zn1  1  0.33333335  0.66666668  0.09381200  1
  In  In2  1  0.33333335  0.66666668  0.40618799  1
  Te  Te3  1  0.66666666  0.33333334  0.59381198  1
  Zn  Zn4  1  0.00000000  0.00000000  0.74999998  1
  Te  Te5  1  0.00000000  0.00000000  0.24999999  1
