# generated using pymatgen
data_LaGd3CuTe7
_symmetry_space_group_name_H-M   'P 1'
_cell_length_a   6.22438192
_cell_length_b   8.36331844
_cell_length_c   8.36331844
_cell_angle_alpha   120.00000000
_cell_angle_beta   90.00000000
_cell_angle_gamma   90.00000000
_symmetry_Int_Tables_number   1
_chemical_formula_structural   LaGd3CuTe7
_chemical_formula_sum   'La1 Gd3 Cu1 Te7'
_cell_volume   377.03713897
_cell_formula_units_Z   1
loop_
 _symmetry_equiv_pos_site_id
 _symmetry_equiv_pos_as_xyz
  1  'x, y, z'
loop_
 _atom_site_type_symbol
 _atom_site_label
 _atom_site_symmetry_multiplicity
 _atom_site_fract_x
 _atom_site_fract_y
 _atom_site_fract_z
 _atom_site_occupancy
  La  La0  1  0.50000001  0.00000000  0.64752698  1
  Te  Te1  1  0.50000001  0.64752697  0.00000001  1
  Gd  Gd2  1  0.50000001  0.35247298  0.35247299  1
  Te  Te3  1  1.00000001  0.00000000  0.31320699  1
  Gd  Gd4  1  -0.00000000  0.31320698  0.00000000  1
  Gd  Gd5  1  -0.00000000  0.68679297  0.68679298  1
  Te  Te6  1  0.79085501  0.33333332  0.66666665  1
  Te  Te7  1  0.20914500  0.33333332  0.66666665  1
  Te  Te8  1  0.20914500  0.66666663  0.33333333  1
  Te  Te9  1  0.79085501  0.66666663  0.33333333  1
  Te  Te10  1  0.29608400  0.00000000  -0.00000000  1
  Cu  Cu11  1  0.70391601  0.00000000  -0.00000000  1
