# generated using pymatgen
data_Rb2TlVO4
_symmetry_space_group_name_H-M   'P 1'
_cell_length_a   6.17929506
_cell_length_b   6.27763891
_cell_length_c   8.41885757
_cell_angle_alpha   90.00000000
_cell_angle_beta   87.49983215
_cell_angle_gamma   90.00000000
_symmetry_Int_Tables_number   1
_chemical_formula_structural   Rb2TlVO4
_chemical_formula_sum   'Rb4 Tl2 V2 O8'
_cell_volume   326.26825705
_cell_formula_units_Z   2
loop_
 _symmetry_equiv_pos_site_id
 _symmetry_equiv_pos_as_xyz
  1  'x, y, z'
loop_
 _atom_site_type_symbol
 _atom_site_label
 _atom_site_symmetry_multiplicity
 _atom_site_fract_x
 _atom_site_fract_y
 _atom_site_fract_z
 _atom_site_occupancy
  Rb  Rb0  1  0.83908099  0.75000001  0.18561900  1
  Rb  Rb1  1  0.16091900  0.25000000  0.81438104  1
  Rb  Rb2  1  0.29552000  0.75000001  0.49064002  1
  Rb  Rb3  1  0.70447999  0.25000000  0.50936002  1
  Tl  Tl4  1  0.63850699  0.25000000  0.02391300  1
  Tl  Tl5  1  0.36149300  0.75000001  0.97608704  1
  V  V6  1  0.78754399  0.75000001  0.76000903  1
  V  V7  1  0.21245600  0.25000000  0.23999101  1
  O  O8  1  0.35159700  0.02835200  0.16611801  1
  O  O9  1  0.64840299  0.52835201  0.83388203  1
  O  O10  1  0.64840299  0.97164801  0.83388203  1
  O  O11  1  0.35159700  0.47164801  0.16611801  1
  O  O12  1  0.95013199  0.25000000  0.17446800  1
  O  O13  1  0.20708400  0.25000000  0.44549902  1
  O  O14  1  0.04986800  0.75000001  0.82553204  1
  O  O15  1  0.79291599  0.75000001  0.55450102  1
