# generated using pymatgen
data_Pu2BCNCl
_symmetry_space_group_name_H-M   'P 1'
_cell_length_a   2.93101001
_cell_length_b   5.61882591
_cell_length_c   5.61882687
_cell_angle_alpha   119.99999237
_cell_angle_beta   90.00000000
_cell_angle_gamma   90.00000000
_symmetry_Int_Tables_number   1
_chemical_formula_structural   Pu2BCNCl
_chemical_formula_sum   'Pu2 B1 C1 N1 Cl1'
_cell_volume   80.13812802
_cell_formula_units_Z   1
loop_
 _symmetry_equiv_pos_site_id
 _symmetry_equiv_pos_as_xyz
  1  'x, y, z'
loop_
 _atom_site_type_symbol
 _atom_site_label
 _atom_site_symmetry_multiplicity
 _atom_site_fract_x
 _atom_site_fract_y
 _atom_site_fract_z
 _atom_site_occupancy
  Cl  Cl0  1  0.50000000  0.00000000  -0.00000000  1
  B  B1  1  0.50000000  0.33333333  0.66666664  1
  N  N2  1  0.50000000  0.66666666  0.33333329  1
  C  C3  1  1.00000000  0.49999999  0.99999996  1
  Pu  Pu4  1  1.00000000  0.49999999  0.49999997  1
  Pu  Pu5  1  0.00000000  0.00000000  0.50000000  1
