# generated using pymatgen
data_Ce3As7Ir2S
_symmetry_space_group_name_H-M   'P 1'
_cell_length_a   3.94716692
_cell_length_b   4.04441500
_cell_length_c   16.35646629
_cell_angle_alpha   90.00000000
_cell_angle_beta   90.00000000
_cell_angle_gamma   90.00000000
_symmetry_Int_Tables_number   1
_chemical_formula_structural   Ce3As7Ir2S
_chemical_formula_sum   'Ce3 As7 Ir2 S1'
_cell_volume   261.11431854
_cell_formula_units_Z   1
loop_
 _symmetry_equiv_pos_site_id
 _symmetry_equiv_pos_as_xyz
  1  'x, y, z'
loop_
 _atom_site_type_symbol
 _atom_site_label
 _atom_site_symmetry_multiplicity
 _atom_site_fract_x
 _atom_site_fract_y
 _atom_site_fract_z
 _atom_site_occupancy
  Ce  Ce0  1  0.25000001  0.00000000  0.09957200  1
  Ce  Ce1  1  0.25000001  0.50000000  0.60866903  1
  Ce  Ce2  1  0.75000002  0.50000000  0.39900202  1
  As  As3  1  0.75000002  0.00000000  0.89328404  1
  Ir  Ir4  1  0.25000001  0.00000000  0.32370101  1
  As  As5  1  0.25000001  0.50000000  0.23793401  1
  As  As6  1  0.25000001  0.00000000  0.74921003  1
  As  As7  1  0.75000002  0.00000000  0.23704901  1
  As  As8  1  0.75000002  0.50000000  0.75248503  1
  As  As9  1  0.25000001  0.00000000  0.46574302  1
  As  As10  1  0.25000001  0.50000000  0.94587304  1
  S  S11  1  0.75000002  0.50000000  0.04707600  1
  Ir  Ir12  1  0.75000002  0.00000000  0.56240202  1
