# generated using pymatgen
data_AlTe3
_symmetry_space_group_name_H-M   'P 1'
_cell_length_a   2.76448989
_cell_length_b   2.76448941
_cell_length_c   8.82813835
_cell_angle_alpha   90.00000000
_cell_angle_beta   90.00000000
_cell_angle_gamma   120.00000763
_symmetry_Int_Tables_number   1
_chemical_formula_structural   AlTe3
_chemical_formula_sum   'Al1 Te3'
_cell_volume   58.42916310
_cell_formula_units_Z   1
loop_
 _symmetry_equiv_pos_site_id
 _symmetry_equiv_pos_as_xyz
  1  'x, y, z'
loop_
 _atom_site_type_symbol
 _atom_site_label
 _atom_site_symmetry_multiplicity
 _atom_site_fract_x
 _atom_site_fract_y
 _atom_site_fract_z
 _atom_site_occupancy
  Te  Te0  1  0.00000000  0.00000000  0.00000000  1
  Te  Te1  1  0.66666671  0.33333335  0.74999997  1
  Te  Te2  1  0.00000000  0.00000000  0.49999998  1
  Al  Al3  1  0.33333337  0.66666670  0.24999999  1
