# generated using pymatgen
data_Ce(GeRh)2
_symmetry_space_group_name_H-M   'P 1'
_cell_length_a   4.18621016
_cell_length_b   4.18621016
_cell_length_c   5.78133631
_cell_angle_alpha   111.22585297
_cell_angle_beta   111.22585297
_cell_angle_gamma   90.00000000
_symmetry_Int_Tables_number   1
_chemical_formula_structural   Ce(GeRh)2
_chemical_formula_sum   'Ce1 Ge2 Rh2'
_cell_volume   87.02685819
_cell_formula_units_Z   1
loop_
 _symmetry_equiv_pos_site_id
 _symmetry_equiv_pos_as_xyz
  1  'x, y, z'
loop_
 _atom_site_type_symbol
 _atom_site_label
 _atom_site_symmetry_multiplicity
 _atom_site_fract_x
 _atom_site_fract_y
 _atom_site_fract_z
 _atom_site_occupancy
  Ce  Ce0  1  0.00000000  0.00000000  0.00000000  1
  Ge  Ge1  1  0.61738400  0.61738399  0.23476803  1
  Ge  Ge2  1  0.38261600  0.38261599  0.76523202  1
  Rh  Rh3  1  0.74999999  0.24999999  0.50000002  1
  Rh  Rh4  1  0.25000001  0.74999998  0.50000003  1
