# generated using pymatgen
data_Mg
_symmetry_space_group_name_H-M   'P 1'
_cell_length_a   3.43159103
_cell_length_b   8.41008377
_cell_length_c   8.41008472
_cell_angle_alpha   120.00000000
_cell_angle_beta   90.00000000
_cell_angle_gamma   90.00000000
_symmetry_Int_Tables_number   1
_chemical_formula_structural   Mg
_chemical_formula_sum   Mg9
_cell_volume   210.19716237
_cell_formula_units_Z   9
loop_
 _symmetry_equiv_pos_site_id
 _symmetry_equiv_pos_as_xyz
  1  'x, y, z'
loop_
 _atom_site_type_symbol
 _atom_site_label
 _atom_site_symmetry_multiplicity
 _atom_site_fract_x
 _atom_site_fract_y
 _atom_site_fract_z
 _atom_site_occupancy
  Mg  Mg0  1  -0.00000000  0.70906303  0.70906301  1
  Mg  Mg1  1  0.00000000  0.29093701  0.99999999  1
  Mg  Mg2  1  0.00000000  0.00000000  0.29093699  1
  Mg  Mg3  1  0.50000000  0.37097902  0.37097901  1
  Mg  Mg4  1  0.50000000  0.62902103  0.00000003  1
  Mg  Mg5  1  0.50000000  0.00000000  0.62902099  1
  Mg  Mg6  1  0.50000000  0.00000000  -0.00000000  1
  Mg  Mg7  1  -0.00000000  0.66666670  0.33333335  1
  Mg  Mg8  1  -0.00000000  0.33333335  0.66666667  1
