# generated using pymatgen
data_Gd(CoB)2
_symmetry_space_group_name_H-M   'P 1'
_cell_length_a   3.55523610
_cell_length_b   3.55523610
_cell_length_c   5.35850525
_cell_angle_alpha   109.37427521
_cell_angle_beta   109.37427521
_cell_angle_gamma   90.00000000
_symmetry_Int_Tables_number   1
_chemical_formula_structural   Gd(CoB)2
_chemical_formula_sum   'Gd1 Co2 B2'
_cell_volume   59.81362229
_cell_formula_units_Z   1
loop_
 _symmetry_equiv_pos_site_id
 _symmetry_equiv_pos_as_xyz
  1  'x, y, z'
loop_
 _atom_site_type_symbol
 _atom_site_label
 _atom_site_symmetry_multiplicity
 _atom_site_fract_x
 _atom_site_fract_y
 _atom_site_fract_z
 _atom_site_occupancy
  Gd  Gd0  1  0.00000000  0.00000000  0.00000000  1
  Co  Co1  1  0.74999995  0.24999999  0.49999995  1
  Co  Co2  1  0.24999995  0.74999996  0.49999994  1
  B  B3  1  0.65294794  0.65294796  0.30589593  1
  B  B4  1  0.34705197  0.34705198  0.69410396  1
