# generated using pymatgen
data_Mg2Al9Si5
_symmetry_space_group_name_H-M   'P 1'
_cell_length_a   6.55351686
_cell_length_b   6.55351686
_cell_length_c   7.09896278
_cell_angle_alpha   90.00000000
_cell_angle_beta   90.00000000
_cell_angle_gamma   90.00000000
_symmetry_Int_Tables_number   1
_chemical_formula_structural   Mg2Al9Si5
_chemical_formula_sum   'Mg2 Al9 Si5'
_cell_volume   304.89039444
_cell_formula_units_Z   1
loop_
 _symmetry_equiv_pos_site_id
 _symmetry_equiv_pos_as_xyz
  1  'x, y, z'
loop_
 _atom_site_type_symbol
 _atom_site_label
 _atom_site_symmetry_multiplicity
 _atom_site_fract_x
 _atom_site_fract_y
 _atom_site_fract_z
 _atom_site_occupancy
  Al  Al0  1  0.00000000  0.50000001  0.50000002  1
  Al  Al1  1  0.50000001  0.00000000  -0.00000000  1
  Al  Al2  1  0.50000001  0.00000000  0.50000002  1
  Al  Al3  1  0.00000000  0.50000001  -0.00000000  1
  Al  Al4  1  0.33772001  0.66228001  0.24820101  1
  Al  Al5  1  0.66228001  0.33772001  0.24820101  1
  Mg  Mg6  1  0.16228000  0.16228000  0.74820102  1
  Si  Si7  1  0.83772002  0.83772002  0.74820102  1
  Al  Al8  1  0.66228001  0.33772001  0.75179902  1
  Al  Al9  1  0.33772001  0.66228001  0.75179902  1
  Si  Si10  1  0.83772002  0.83772002  0.25179901  1
  Mg  Mg11  1  0.16228000  0.16228000  0.25179901  1
  Si  Si12  1  0.14387100  0.85612902  0.50000002  1
  Si  Si13  1  0.85612902  0.14387100  0.50000002  1
  Si  Si14  1  0.35612901  0.35612901  -0.00000000  1
  Al  Al15  1  0.64387101  0.64387101  -0.00000000  1
