# generated using pymatgen
data_La7(Ni2Sn)3
_symmetry_space_group_name_H-M   'P 1'
_cell_length_a   5.96036196
_cell_length_b   6.30272293
_cell_length_c   10.46597385
_cell_angle_alpha   95.68354034
_cell_angle_beta   90.00000000
_cell_angle_gamma   90.00000000
_symmetry_Int_Tables_number   1
_chemical_formula_structural   La7(Ni2Sn)3
_chemical_formula_sum   'La7 Ni6 Sn3'
_cell_volume   391.23731102
_cell_formula_units_Z   1
loop_
 _symmetry_equiv_pos_site_id
 _symmetry_equiv_pos_as_xyz
  1  'x, y, z'
loop_
 _atom_site_type_symbol
 _atom_site_label
 _atom_site_symmetry_multiplicity
 _atom_site_fract_x
 _atom_site_fract_y
 _atom_site_fract_z
 _atom_site_occupancy
  La  La0  1  0.39043300  0.11108700  0.32999101  1
  Sn  Sn1  1  0.89043301  0.38891300  0.17000901  1
  La  La2  1  0.60956700  0.88891301  0.67000902  1
  La  La3  1  0.10956700  0.61108701  0.82999102  1
  La  La4  1  0.66337400  0.79765401  0.03240501  1
  La  La5  1  0.16337400  0.70234601  0.46759502  1
  La  La6  1  0.33662600  0.20234600  0.96759502  1
  La  La7  1  0.83662601  0.29765400  0.53240501  1
  Ni  Ni8  1  0.89399801  0.96892201  0.28928801  1
  Ni  Ni9  1  0.39399800  0.53107801  0.21071201  1
  Ni  Ni10  1  0.10600200  0.03107800  0.71071202  1
  Ni  Ni11  1  0.60600200  0.46892201  0.78928802  1
  Sn  Sn12  1  0.16085200  0.80638101  0.11934901  1
  Sn  Sn13  1  0.66085200  0.69361901  0.38065101  1
  Ni  Ni14  1  0.83914801  0.19361900  0.88065102  1
  Ni  Ni15  1  0.33914800  0.30638100  0.61934902  1
