# generated using pymatgen
data_V(AsRh)2
_symmetry_space_group_name_H-M   'P 1'
_cell_length_a   3.31476998
_cell_length_b   6.26121092
_cell_length_c   6.26121092
_cell_angle_alpha   90.00000000
_cell_angle_beta   90.00000000
_cell_angle_gamma   90.00000000
_symmetry_Int_Tables_number   1
_chemical_formula_structural   V(AsRh)2
_chemical_formula_sum   'V2 As4 Rh4'
_cell_volume   129.94813929
_cell_formula_units_Z   2
loop_
 _symmetry_equiv_pos_site_id
 _symmetry_equiv_pos_as_xyz
  1  'x, y, z'
loop_
 _atom_site_type_symbol
 _atom_site_label
 _atom_site_symmetry_multiplicity
 _atom_site_fract_x
 _atom_site_fract_y
 _atom_site_fract_z
 _atom_site_occupancy
  V  V0  1  0.00000000  0.50000001  0.50000001  1
  Rh  Rh1  1  0.50000000  0.17287800  0.67881301  1
  Rh  Rh2  1  0.50000000  0.82712201  0.32118700  1
  Rh  Rh3  1  0.50000000  0.32118700  0.17287800  1
  Rh  Rh4  1  0.50000000  0.67881301  0.82712201  1
  V  V5  1  0.00000000  0.00000000  0.00000000  1
  As  As6  1  0.00000000  0.60688901  0.10511200  1
  As  As7  1  0.00000000  0.39311101  0.89488801  1
  As  As8  1  0.00000000  0.89488801  0.60688901  1
  As  As9  1  0.00000000  0.10511200  0.39311101  1
