# generated using pymatgen
data_CeIn3Ni2
_symmetry_space_group_name_H-M   'P 1'
_cell_length_a   5.27260971
_cell_length_b   5.27260971
_cell_length_c   5.27260971
_cell_angle_alpha   106.62545776
_cell_angle_beta   106.62545776
_cell_angle_gamma   115.32623291
_symmetry_Int_Tables_number   1
_chemical_formula_structural   CeIn3Ni2
_chemical_formula_sum   'Ce1 In3 Ni2'
_cell_volume   111.94515383
_cell_formula_units_Z   1
loop_
 _symmetry_equiv_pos_site_id
 _symmetry_equiv_pos_as_xyz
  1  'x, y, z'
loop_
 _atom_site_type_symbol
 _atom_site_label
 _atom_site_symmetry_multiplicity
 _atom_site_fract_x
 _atom_site_fract_y
 _atom_site_fract_z
 _atom_site_occupancy
  In  In0  1  0.67782808  0.82217306  0.50000003  1
  Ce  Ce1  1  0.17782805  0.67782805  0.85565605  1
  In  In2  1  0.32217202  0.17782701  0.50000002  1
  In  In3  1  0.82217205  0.32217202  0.14434401  1
  Ni  Ni4  1  0.75000008  0.75000006  0.00000001  1
  Ni  Ni5  1  0.25000003  0.25000002  0.00000000  1
