# generated using pymatgen
data_NaLa5O8
_symmetry_space_group_name_H-M   'P 1'
_cell_length_a   7.57677794
_cell_length_b   7.59946823
_cell_length_c   7.59946823
_cell_angle_alpha   60.18529129
_cell_angle_beta   60.09872055
_cell_angle_gamma   60.09872055
_symmetry_Int_Tables_number   1
_chemical_formula_structural   NaLa5O8
_chemical_formula_sum   'Na1 La5 O8'
_cell_volume   310.30493475
_cell_formula_units_Z   1
loop_
 _symmetry_equiv_pos_site_id
 _symmetry_equiv_pos_as_xyz
  1  'x, y, z'
loop_
 _atom_site_type_symbol
 _atom_site_label
 _atom_site_symmetry_multiplicity
 _atom_site_fract_x
 _atom_site_fract_y
 _atom_site_fract_z
 _atom_site_occupancy
  Na  Na0  1  0.88020900  0.37028400  0.37028402  1
  La  La1  1  0.37922300  0.37028500  0.37028402  1
  La  La2  1  0.37501800  0.88370901  0.36625502  1
  La  La3  1  0.37501700  0.36625500  0.88371003  1
  La  La4  1  0.75199100  0.74800901  0.74800904  1
  La  La5  1  0.98902000  0.01098000  0.01098001  1
  O  O6  1  0.13882800  0.58311401  0.13923001  1
  O  O7  1  0.13882800  0.13923000  0.58311402  1
  O  O8  1  0.17614800  0.60726201  0.60726202  1
  O  O9  1  0.60932800  0.60726201  0.60726203  1
  O  O10  1  0.61125200  0.16790700  0.60958902  1
  O  O11  1  0.61125200  0.60958901  0.16790702  1
  O  O12  1  0.57134700  0.14305700  0.14305701  1
  O  O13  1  0.14253900  0.14305700  0.14305701  1
