# generated using pymatgen
data_La4SnSb11
_symmetry_space_group_name_H-M   'P 1'
_cell_length_a   6.41205597
_cell_length_b   6.82721806
_cell_length_c   11.21929359
_cell_angle_alpha   95.24967957
_cell_angle_beta   90.00000000
_cell_angle_gamma   90.00000000
_symmetry_Int_Tables_number   1
_chemical_formula_structural   La4SnSb11
_chemical_formula_sum   'La4 Sn1 Sb11'
_cell_volume   489.08133149
_cell_formula_units_Z   1
loop_
 _symmetry_equiv_pos_site_id
 _symmetry_equiv_pos_as_xyz
  1  'x, y, z'
loop_
 _atom_site_type_symbol
 _atom_site_label
 _atom_site_symmetry_multiplicity
 _atom_site_fract_x
 _atom_site_fract_y
 _atom_site_fract_z
 _atom_site_occupancy
  La  La0  1  0.16298300  0.69191699  0.45895002  1
  Sb  Sb1  1  0.66298300  0.80808299  0.04105000  1
  La  La2  1  0.83701700  0.30808300  0.54105002  1
  Sb  Sb3  1  0.33701700  0.19191700  0.95895004  1
  Sb  Sb4  1  0.90058400  0.40329000  0.17360301  1
  La  La5  1  0.40058400  0.09671000  0.32639701  1
  La  La6  1  0.09941600  0.59671000  0.82639703  1
  Sb  Sb7  1  0.59941600  0.90328999  0.67360303  1
  Sb  Sb8  1  0.66112200  0.68592199  0.39611402  1
  Sb  Sb9  1  0.16112200  0.81407799  0.10388601  1
  Sb  Sb10  1  0.33887800  0.31407800  0.60388602  1
  Sb  Sb11  1  0.83887800  0.18592200  0.89611403  1
  Sb  Sb12  1  0.40345700  0.51011400  0.20292601  1
  Sb  Sb13  1  0.90345700  0.98988599  0.29707401  1
  Sb  Sb14  1  0.59654300  0.48988600  0.79707403  1
  Sn  Sn15  1  0.09654300  0.01011400  0.70292603  1
