# generated using pymatgen
data_Rb2Cl7
_symmetry_space_group_name_H-M   'P 1'
_cell_length_a   7.32021666
_cell_length_b   7.32021666
_cell_length_c   7.32021666
_cell_angle_alpha   60.00000000
_cell_angle_beta   60.00000000
_cell_angle_gamma   60.00000000
_symmetry_Int_Tables_number   1
_chemical_formula_structural   Rb2Cl7
_chemical_formula_sum   'Rb2 Cl7'
_cell_volume   277.36828883
_cell_formula_units_Z   1
loop_
 _symmetry_equiv_pos_site_id
 _symmetry_equiv_pos_as_xyz
  1  'x, y, z'
loop_
 _atom_site_type_symbol
 _atom_site_label
 _atom_site_symmetry_multiplicity
 _atom_site_fract_x
 _atom_site_fract_y
 _atom_site_fract_z
 _atom_site_occupancy
  Rb  Rb0  1  0.25000001  0.25000001  0.25000001  1
  Rb  Rb1  1  0.75000002  0.75000002  0.75000002  1
  Cl  Cl2  1  0.00000000  0.00000000  0.00000000  1
  Cl  Cl3  1  0.24752201  0.24752201  0.75247802  1
  Cl  Cl4  1  0.75247802  0.24752201  0.24752201  1
  Cl  Cl5  1  0.75247802  0.24752201  0.75247802  1
  Cl  Cl6  1  0.75247802  0.75247802  0.24752201  1
  Cl  Cl7  1  0.24752201  0.75247802  0.75247802  1
  Cl  Cl8  1  0.24752201  0.75247802  0.24752201  1
