# generated using pymatgen
data_LaS2
_symmetry_space_group_name_H-M   'P 1'
_cell_length_a   6.88300896
_cell_length_b   6.91533184
_cell_length_c   7.16172695
_cell_angle_alpha   90.00000000
_cell_angle_beta   90.00000000
_cell_angle_gamma   90.00000000
_symmetry_Int_Tables_number   1
_chemical_formula_structural   LaS2
_chemical_formula_sum   'La4 S8'
_cell_volume   340.88596349
_cell_formula_units_Z   4
loop_
 _symmetry_equiv_pos_site_id
 _symmetry_equiv_pos_as_xyz
  1  'x, y, z'
loop_
 _atom_site_type_symbol
 _atom_site_label
 _atom_site_symmetry_multiplicity
 _atom_site_fract_x
 _atom_site_fract_y
 _atom_site_fract_z
 _atom_site_occupancy
  La  La0  1  0.27666100  0.74699202  0.45255800  1
  La  La1  1  0.72333900  0.24699201  0.54744200  1
  La  La2  1  0.27666100  0.24699201  0.04744200  1
  La  La3  1  0.72333900  0.74699202  0.95255801  1
  S  S4  1  0.06630700  0.89521902  0.13570300  1
  S  S5  1  0.93369301  0.39521901  0.86429701  1
  S  S6  1  0.06630700  0.39521901  0.36429700  1
  S  S7  1  0.93369301  0.89521902  0.63570300  1
  S  S8  1  0.55256400  0.00178900  0.25265700  1
  S  S9  1  0.44743600  0.50178901  0.74734301  1
  S  S10  1  0.55256400  0.50178901  0.24734300  1
  S  S11  1  0.44743600  0.00178900  0.75265701  1
