# generated using pymatgen
data_BaCu4SiS2
_symmetry_space_group_name_H-M   'P 1'
_cell_length_a   3.90554595
_cell_length_b   3.90554595
_cell_length_c   9.33997154
_cell_angle_alpha   90.00000000
_cell_angle_beta   90.00000000
_cell_angle_gamma   90.00000000
_symmetry_Int_Tables_number   1
_chemical_formula_structural   BaCu4SiS2
_chemical_formula_sum   'Ba1 Si1 Cu4 S2'
_cell_volume   142.46528675
_cell_formula_units_Z   1
loop_
 _symmetry_equiv_pos_site_id
 _symmetry_equiv_pos_as_xyz
  1  'x, y, z'
loop_
 _atom_site_type_symbol
 _atom_site_label
 _atom_site_symmetry_multiplicity
 _atom_site_fract_x
 _atom_site_fract_y
 _atom_site_fract_z
 _atom_site_occupancy
  Si  Si0  1  0.00000000  0.00000000  0.00000000  1
  S  S1  1  0.50000001  0.50000001  0.26752701  1
  S  S2  1  0.50000001  0.50000001  0.73247304  1
  Ba  Ba3  1  0.00000000  0.00000000  0.50000002  1
  Cu  Cu4  1  0.00000000  0.50000001  0.14681501  1
  Cu  Cu5  1  0.50000001  0.00000000  0.85318504  1
  Cu  Cu6  1  0.00000000  0.50000001  0.85318504  1
  Cu  Cu7  1  0.50000001  0.00000000  0.14681501  1
