# generated using pymatgen
data_Ho(SiNi)4
_symmetry_space_group_name_H-M   'P 1'
_cell_length_a   3.82012796
_cell_length_b   3.82012820
_cell_length_c   12.15639782
_cell_angle_alpha   90.00000000
_cell_angle_beta   90.00000000
_cell_angle_gamma   120.00000000
_symmetry_Int_Tables_number   1
_chemical_formula_structural   Ho(SiNi)4
_chemical_formula_sum   'Ho1 Si4 Ni4'
_cell_volume   153.63543149
_cell_formula_units_Z   1
loop_
 _symmetry_equiv_pos_site_id
 _symmetry_equiv_pos_as_xyz
  1  'x, y, z'
loop_
 _atom_site_type_symbol
 _atom_site_label
 _atom_site_symmetry_multiplicity
 _atom_site_fract_x
 _atom_site_fract_y
 _atom_site_fract_z
 _atom_site_occupancy
  Ho  Ho0  1  0.00000000  0.00000000  0.50000001  1
  Ni  Ni1  1  0.33333335  0.66666665  0.14837200  1
  Ni  Ni2  1  0.66666668  0.33333333  0.85162801  1
  Ni  Ni3  1  0.66666668  0.33333333  0.31145600  1
  Ni  Ni4  1  0.33333335  0.66666665  0.68854401  1
  Si  Si5  1  0.00000000  0.00000000  0.08680000  1
  Si  Si6  1  0.00000000  0.00000000  0.91320001  1
  Si  Si7  1  0.33333335  0.66666665  0.34087901  1
  Si  Si8  1  0.66666668  0.33333333  0.65912101  1
