# generated using pymatgen
data_In3Te5
_symmetry_space_group_name_H-M   'P 1'
_cell_length_a   4.02762985
_cell_length_b   4.02762985
_cell_length_c   13.45554924
_cell_angle_alpha   81.39252472
_cell_angle_beta   81.39252472
_cell_angle_gamma   60.00000763
_symmetry_Int_Tables_number   1
_chemical_formula_structural   In3Te5
_chemical_formula_sum   'In3 Te5'
_cell_volume   186.18602696
_cell_formula_units_Z   1
loop_
 _symmetry_equiv_pos_site_id
 _symmetry_equiv_pos_as_xyz
  1  'x, y, z'
loop_
 _atom_site_type_symbol
 _atom_site_label
 _atom_site_symmetry_multiplicity
 _atom_site_fract_x
 _atom_site_fract_y
 _atom_site_fract_z
 _atom_site_occupancy
  Te  Te0  1  0.00000000  0.00000000  0.00000000  1
  In  In1  1  0.24920799  0.24920798  0.25237600  1
  In  In2  1  0.49999999  0.49999996  0.49999999  1
  In  In3  1  0.75079198  0.75079195  0.74762399  1
  Te  Te4  1  0.37703399  0.37703397  0.86889798  1
  Te  Te5  1  0.12538800  0.12538799  0.62383599  1
  Te  Te6  1  0.62296598  0.62296596  0.13110200  1
  Te  Te7  1  0.87461198  0.87461194  0.37616400  1
