# generated using pymatgen
data_NaSr7BiO7
_symmetry_space_group_name_H-M   'P 1'
_cell_length_a   7.67634583
_cell_length_b   7.79172754
_cell_length_c   7.93219900
_cell_angle_alpha   63.21588516
_cell_angle_beta   62.52017593
_cell_angle_gamma   61.26076508
_symmetry_Int_Tables_number   1
_chemical_formula_structural   NaSr7BiO7
_chemical_formula_sum   'Na1 Sr7 Bi1 O7'
_cell_volume   352.74260213
_cell_formula_units_Z   1
loop_
 _symmetry_equiv_pos_site_id
 _symmetry_equiv_pos_as_xyz
  1  'x, y, z'
loop_
 _atom_site_type_symbol
 _atom_site_label
 _atom_site_symmetry_multiplicity
 _atom_site_fract_x
 _atom_site_fract_y
 _atom_site_fract_z
 _atom_site_occupancy
  Bi  Bi0  1  0.52295403  0.47179100  0.50163698  1
  Sr  Sr1  1  0.45655801  0.02272800  0.48693199  1
  Sr  Sr2  1  0.01186901  0.46118700  0.04130599  1
  Sr  Sr3  1  0.02551300  0.05915700  0.41051299  1
  Na  Na4  1  0.05312601  0.40940200  0.49764798  1
  Sr  Sr5  1  0.82900204  0.77573400  0.25282697  1
  Sr  Sr6  1  0.25366703  0.77878900  0.14981898  1
  O  O7  1  0.28786401  0.14970200  0.84086699  1
  Sr  Sr8  1  0.10879903  0.83385300  0.78487197  1
  Sr  Sr9  1  0.69477603  0.41210600  0.94917198  1
  O  O10  1  0.27772301  0.24221800  0.22476299  1
  O  O11  1  0.61221603  0.61848000  0.16598898  1
  O  O12  1  0.64396102  0.12946700  0.60199399  1
  O  O13  1  0.64074703  0.61133100  0.60857398  1
  O  O14  1  0.16451702  0.59239100  0.62829398  1
  O  O15  1  0.97320802  0.04356600  0.99709199  1
