# generated using pymatgen
data_MgZrNi6
_symmetry_space_group_name_H-M   'P 1'
_cell_length_a   3.73292398
_cell_length_b   3.73292398
_cell_length_c   9.49474430
_cell_angle_alpha   90.00000000
_cell_angle_beta   90.00000000
_cell_angle_gamma   90.00000000
_symmetry_Int_Tables_number   1
_chemical_formula_structural   MgZrNi6
_chemical_formula_sum   'Mg1 Zr1 Ni6'
_cell_volume   132.30661730
_cell_formula_units_Z   1
loop_
 _symmetry_equiv_pos_site_id
 _symmetry_equiv_pos_as_xyz
  1  'x, y, z'
loop_
 _atom_site_type_symbol
 _atom_site_label
 _atom_site_symmetry_multiplicity
 _atom_site_fract_x
 _atom_site_fract_y
 _atom_site_fract_z
 _atom_site_occupancy
  Mg  Mg0  1  0.00000000  0.50000000  0.77306798  1
  Zr  Zr1  1  0.50000000  0.00000000  0.22693199  1
  Ni  Ni2  1  0.50000000  0.50000000  0.49999998  1
  Ni  Ni3  1  0.00000000  0.00000000  0.49999998  1
  Ni  Ni4  1  0.50000000  0.50000000  -0.00000000  1
  Ni  Ni5  1  0.00000000  0.00000000  0.00000000  1
  Ni  Ni6  1  0.00000000  0.50000000  0.31977499  1
  Ni  Ni7  1  0.50000000  0.00000000  0.68022498  1
