# generated using pymatgen
data_Mg
_symmetry_space_group_name_H-M   'P 1'
_cell_length_a   6.60946608
_cell_length_b   6.60946655
_cell_length_c   10.42288208
_cell_angle_alpha   90.00000000
_cell_angle_beta   90.00000000
_cell_angle_gamma   120.00000000
_symmetry_Int_Tables_number   1
_chemical_formula_structural   Mg
_chemical_formula_sum   Mg16
_cell_volume   394.32221355
_cell_formula_units_Z   16
loop_
 _symmetry_equiv_pos_site_id
 _symmetry_equiv_pos_as_xyz
  1  'x, y, z'
loop_
 _atom_site_type_symbol
 _atom_site_label
 _atom_site_symmetry_multiplicity
 _atom_site_fract_x
 _atom_site_fract_y
 _atom_site_fract_z
 _atom_site_occupancy
  Mg  Mg0  1  0.00000000  0.00000000  0.50000000  1
  Mg  Mg1  1  0.00000000  0.00000000  0.00000000  1
  Mg  Mg2  1  0.99052901  0.49526501  0.50000000  1
  Mg  Mg3  1  0.00164202  0.50082101  -0.00000000  1
  Mg  Mg4  1  0.50473599  0.00947200  0.50000000  1
  Mg  Mg5  1  0.49917904  0.99835801  -0.00000000  1
  Mg  Mg6  1  0.50473602  0.49526501  0.50000000  1
  Mg  Mg7  1  0.49917902  0.50082101  -0.00000000  1
  Mg  Mg8  1  0.82966900  0.17033100  0.75956799  1
  Mg  Mg9  1  0.82966900  0.17033100  0.24043200  1
  Mg  Mg10  1  0.82966902  0.65933801  0.75956799  1
  Mg  Mg11  1  0.82966902  0.65933801  0.24043200  1
  Mg  Mg12  1  0.34066200  0.17033100  0.75956799  1
  Mg  Mg13  1  0.34066200  0.17033100  0.24043200  1
  Mg  Mg14  1  0.33333336  0.66666667  0.74638199  1
  Mg  Mg15  1  0.33333336  0.66666667  0.25361800  1
