# generated using pymatgen
data_Sc4(Ge2Ir)3
_symmetry_space_group_name_H-M   'P 1'
_cell_length_a   3.83703589
_cell_length_b   7.90413713
_cell_length_c   7.90413713
_cell_angle_alpha   86.62248993
_cell_angle_beta   75.95267487
_cell_angle_gamma   75.95267487
_symmetry_Int_Tables_number   1
_chemical_formula_structural   Sc4(Ge2Ir)3
_chemical_formula_sum   'Sc4 Ge6 Ir3'
_cell_volume   225.59727019
_cell_formula_units_Z   1
loop_
 _symmetry_equiv_pos_site_id
 _symmetry_equiv_pos_as_xyz
  1  'x, y, z'
loop_
 _atom_site_type_symbol
 _atom_site_label
 _atom_site_symmetry_multiplicity
 _atom_site_fract_x
 _atom_site_fract_y
 _atom_site_fract_z
 _atom_site_occupancy
  Sc  Sc0  1  0.62940302  0.66941199  0.07178204  1
  Sc  Sc1  1  0.37059701  0.33058800  0.92821801  1
  Sc  Sc2  1  0.29881501  0.07178200  0.33058800  1
  Sc  Sc3  1  0.70118502  0.92821799  0.66941204  1
  Ge  Ge4  1  0.00000000  0.00000000  0.00000000  1
  Ge  Ge5  1  0.89524702  0.51920099  0.69030403  1
  Ir  Ir6  1  0.10475300  0.48079899  0.30969602  1
  Ir  Ir7  1  0.41444801  0.69030399  0.48080003  1
  Ir  Ir8  1  0.58555202  0.30969600  0.51920001  1
  Ge  Ge9  1  0.75650402  0.30296300  0.18403002  1
  Ge  Ge10  1  0.24349601  0.69703699  0.81597003  1
  Ge  Ge11  1  0.05946700  0.18403000  0.69703600  1
  Ge  Ge12  1  0.94053303  0.81596999  0.30296404  1
