# generated using pymatgen
data_ZnN
_symmetry_space_group_name_H-M   'P 1'
_cell_length_a   2.91643190
_cell_length_b   2.91643190
_cell_length_c   5.28708029
_cell_angle_alpha   73.98986816
_cell_angle_beta   73.98986816
_cell_angle_gamma   60.00000000
_symmetry_Int_Tables_number   1
_chemical_formula_structural   ZnN
_chemical_formula_sum   'Zn2 N2'
_cell_volume   36.91705787
_cell_formula_units_Z   2
loop_
 _symmetry_equiv_pos_site_id
 _symmetry_equiv_pos_as_xyz
  1  'x, y, z'
loop_
 _atom_site_type_symbol
 _atom_site_label
 _atom_site_symmetry_multiplicity
 _atom_site_fract_x
 _atom_site_fract_y
 _atom_site_fract_z
 _atom_site_occupancy
  Zn  Zn0  1  0.49999998  0.50000001  0.50000004  1
  Zn  Zn1  1  0.00000000  0.00000000  0.00000000  1
  N  N2  1  0.25400999  0.25401001  0.23797002  1
  N  N3  1  0.74598998  0.74599002  0.76203005  1
