# generated using pymatgen
data_Y2Sc3Si4
_symmetry_space_group_name_H-M   'P 1'
_cell_length_a   7.01949883
_cell_length_b   7.12739182
_cell_length_c   7.11743259
_cell_angle_alpha   90.00000000
_cell_angle_beta   69.97447968
_cell_angle_gamma   90.00000000
_symmetry_Int_Tables_number   1
_chemical_formula_structural   Y2Sc3Si4
_chemical_formula_sum   'Y4 Sc6 Si8'
_cell_volume   334.56111550
_cell_formula_units_Z   2
loop_
 _symmetry_equiv_pos_site_id
 _symmetry_equiv_pos_as_xyz
  1  'x, y, z'
loop_
 _atom_site_type_symbol
 _atom_site_label
 _atom_site_symmetry_multiplicity
 _atom_site_fract_x
 _atom_site_fract_y
 _atom_site_fract_z
 _atom_site_occupancy
  Y  Y0  1  0.05709700  0.33758601  0.32114000  1
  Y  Y1  1  0.94290303  0.66241402  0.67885999  1
  Y  Y2  1  0.44290301  0.83758602  0.67885999  1
  Y  Y3  1  0.55709702  0.16241400  0.32113999  1
  Sc  Sc4  1  0.24959101  0.33445201  0.75051100  1
  Sc  Sc5  1  0.75040902  0.66554802  0.24948899  1
  Sc  Sc6  1  0.25040901  0.83445202  0.24948900  1
  Sc  Sc7  1  0.74959102  0.16554800  0.75051099  1
  Sc  Sc8  1  0.00000000  0.00000000  0.00000000  1
  Sc  Sc9  1  0.50000002  0.50000001  0.99999999  1
  Si  Si10  1  0.13707300  0.04548600  0.59051800  1
  Si  Si11  1  0.86292703  0.95451402  0.40948199  1
  Si  Si12  1  0.36292701  0.54548601  0.40948200  1
  Si  Si13  1  0.63707302  0.45451401  0.59051799  1
  Si  Si14  1  0.36111801  0.13668800  0.00348999  1
  Si  Si15  1  0.63888202  0.86331202  0.99650999  1
  Si  Si16  1  0.13888200  0.63668802  0.99651000  1
  Si  Si17  1  0.86111803  0.36331201  0.00348999  1
