# generated using pymatgen
data_LiCu3F10
_symmetry_space_group_name_H-M   'P 1'
_cell_length_a   5.24904871
_cell_length_b   5.24904871
_cell_length_c   7.44104862
_cell_angle_alpha   97.65637970
_cell_angle_beta   110.41669464
_cell_angle_gamma   108.45792389
_symmetry_Int_Tables_number   1
_chemical_formula_structural   LiCu3F10
_chemical_formula_sum   'Li1 Cu3 F10'
_cell_volume   175.27502151
_cell_formula_units_Z   1
loop_
 _symmetry_equiv_pos_site_id
 _symmetry_equiv_pos_as_xyz
  1  'x, y, z'
loop_
 _atom_site_type_symbol
 _atom_site_label
 _atom_site_symmetry_multiplicity
 _atom_site_fract_x
 _atom_site_fract_y
 _atom_site_fract_z
 _atom_site_occupancy
  Li  Li0  1  0.71038201  0.46038201  0.25000001  1
  Cu  Cu1  1  0.28961802  0.53961801  0.75000003  1
  Cu  Cu2  1  0.50000000  0.00000000  0.50000001  1
  Cu  Cu3  1  0.00000000  0.00000000  0.00000000  1
  F  F4  1  0.63815003  0.88815001  0.75000003  1
  F  F5  1  0.36185000  0.11185000  0.25000001  1
  F  F6  1  0.14403902  0.77535001  0.87639903  1
  F  F7  1  0.39895101  0.26764000  0.62360102  1
  F  F8  1  0.86007501  0.29001600  0.53903102  1
  F  F9  1  0.25098501  0.32104400  0.96096903  1
  F  F10  1  0.13992502  0.70998401  0.46096902  1
  F  F11  1  0.74901502  0.67895601  0.03903101  1
  F  F12  1  0.60104902  0.73236001  0.37639902  1
  F  F13  1  0.85596101  0.22465000  0.12360100  1
