# generated using pymatgen
data_Dy2(InNi)3
_symmetry_space_group_name_H-M   'P 1'
_cell_length_a   4.07673311
_cell_length_b   5.20800304
_cell_length_c   7.20905209
_cell_angle_alpha   90.00000000
_cell_angle_beta   90.00000000
_cell_angle_gamma   90.00000000
_symmetry_Int_Tables_number   1
_chemical_formula_structural   Dy2(InNi)3
_chemical_formula_sum   'Dy2 In3 Ni3'
_cell_volume   153.05998752
_cell_formula_units_Z   1
loop_
 _symmetry_equiv_pos_site_id
 _symmetry_equiv_pos_as_xyz
  1  'x, y, z'
loop_
 _atom_site_type_symbol
 _atom_site_label
 _atom_site_symmetry_multiplicity
 _atom_site_fract_x
 _atom_site_fract_y
 _atom_site_fract_z
 _atom_site_occupancy
  Dy  Dy0  1  0.49999999  0.74999999  0.72427099  1
  Dy  Dy1  1  0.49999999  0.25000000  0.27572900  1
  In  In2  1  0.00000000  0.74999999  0.34147600  1
  In  In3  1  0.00000000  0.25000000  0.65852399  1
  In  In4  1  0.00000000  0.00000000  0.00000000  1
  Ni  Ni5  1  0.00000000  0.50000000  -0.00000000  1
  Ni  Ni6  1  0.49999999  0.74999999  0.10476400  1
  Ni  Ni7  1  0.49999999  0.25000000  0.89523599  1
