# generated using pymatgen
data_CeOsPbSeS3
_symmetry_space_group_name_H-M   'P 1'
_cell_length_a   4.20966816
_cell_length_b   4.23083782
_cell_length_c   7.96540403
_cell_angle_alpha   105.40117645
_cell_angle_beta   90.00000000
_cell_angle_gamma   90.00000000
_symmetry_Int_Tables_number   1
_chemical_formula_structural   CeOsPbSeS3
_chemical_formula_sum   'Ce1 Os1 Pb1 Se1 S3'
_cell_volume   136.77275866
_cell_formula_units_Z   1
loop_
 _symmetry_equiv_pos_site_id
 _symmetry_equiv_pos_as_xyz
  1  'x, y, z'
loop_
 _atom_site_type_symbol
 _atom_site_label
 _atom_site_symmetry_multiplicity
 _atom_site_fract_x
 _atom_site_fract_y
 _atom_site_fract_z
 _atom_site_occupancy
  Ce  Ce0  1  0.24999999  0.10214701  0.20429500  1
  Pb  Pb1  1  0.74999997  0.89851105  0.79702302  1
  Os  Os2  1  0.24999999  0.30223302  0.60446600  1
  S  S3  1  0.24999999  0.45341803  0.90683700  1
  Se  Se4  1  0.74999997  0.56395303  0.12790502  1
  S  S5  1  0.24999999  0.74007904  0.48015802  1
  S  S6  1  0.74999997  0.24465701  0.48931500  1
