# generated using pymatgen
data_Lu3Sc(CO3)4
_symmetry_space_group_name_H-M   'P 1'
_cell_length_a   4.86729574
_cell_length_b   6.19998407
_cell_length_c   7.70277262
_cell_angle_alpha   73.78829193
_cell_angle_beta   89.88513184
_cell_angle_gamma   89.53858948
_symmetry_Int_Tables_number   1
_chemical_formula_structural   Lu3Sc(CO3)4
_chemical_formula_sum   'Lu3 Sc1 C4 O12'
_cell_volume   223.19762581
_cell_formula_units_Z   1
loop_
 _symmetry_equiv_pos_site_id
 _symmetry_equiv_pos_as_xyz
  1  'x, y, z'
loop_
 _atom_site_type_symbol
 _atom_site_label
 _atom_site_symmetry_multiplicity
 _atom_site_fract_x
 _atom_site_fract_y
 _atom_site_fract_z
 _atom_site_occupancy
  Sc  Sc0  1  0.31326101  0.24980800  0.50406198  1
  Lu  Lu1  1  0.68672102  0.75019699  0.99593996  1
  Lu  Lu2  1  0.31333901  0.24989400  0.00402199  1
  Lu  Lu3  1  0.68668802  0.75012799  0.49595497  1
  C  C4  1  0.81214703  0.24987800  0.25053798  1
  C  C5  1  0.81215103  0.24987500  0.75053497  1
  C  C6  1  0.18785500  0.75012299  0.24946598  1
  C  C7  1  0.18784900  0.75012099  0.74946597  1
  O  O8  1  0.07905800  0.24883900  0.25412399  1
  O  O9  1  0.07911600  0.24883600  0.75412498  1
  O  O10  1  0.92094003  0.75115899  0.24587597  1
  O  O11  1  0.92088103  0.75114399  0.74587796  1
  O  O12  1  0.67393302  0.11595100  0.37983398  1
  O  O13  1  0.67392202  0.11595200  0.87986597  1
  O  O14  1  0.32606401  0.88404999  0.12016998  1
  O  O15  1  0.32607501  0.88404499  0.62013497  1
  O  O16  1  0.31938201  0.61561000  0.38312398  1
  O  O17  1  0.31940701  0.61562200  0.88316397  1
  O  O18  1  0.68061602  0.38439000  0.11688098  1
  O  O19  1  0.68059602  0.38437800  0.61684097  1
