# generated using pymatgen
data_La4Mn3Ge13
_symmetry_space_group_name_H-M   'P 1'
_cell_length_a   4.48751307
_cell_length_b   8.94685936
_cell_length_c   9.93198013
_cell_angle_alpha   90.81185150
_cell_angle_beta   90.00000000
_cell_angle_gamma   90.00000000
_symmetry_Int_Tables_number   1
_chemical_formula_structural   La4Mn3Ge13
_chemical_formula_sum   'La4 Mn3 Ge13'
_cell_volume   398.72051324
_cell_formula_units_Z   1
loop_
 _symmetry_equiv_pos_site_id
 _symmetry_equiv_pos_as_xyz
  1  'x, y, z'
loop_
 _atom_site_type_symbol
 _atom_site_label
 _atom_site_symmetry_multiplicity
 _atom_site_fract_x
 _atom_site_fract_y
 _atom_site_fract_z
 _atom_site_occupancy
  La  La0  1  0.74494699  0.12697899  0.24424600  1
  La  La1  1  0.24494700  0.37302099  0.75575400  1
  La  La2  1  0.75505299  0.62697898  0.24424601  1
  La  La3  1  0.25505300  0.87302097  0.75575402  1
  Ge  Ge4  1  0.75740699  0.87463097  0.00073402  1
  Mn  Mn5  1  0.20572900  0.38780898  0.37733901  1
  Ge  Ge6  1  0.29427100  0.88780896  0.37733902  1
  Ge  Ge7  1  0.74259299  0.37463099  0.00073401  1
  Mn  Mn8  1  0.79427099  0.61219098  0.62266101  1
  Ge  Ge9  1  0.25740700  0.62536898  0.99926601  1
  Mn  Mn10  1  0.70572899  0.11219100  0.62266100  1
  Ge  Ge11  1  0.24259300  0.12536900  0.99926599  1
  Ge  Ge12  1  0.69354399  0.36131899  0.49989200  1
  Ge  Ge13  1  0.25655300  0.87694097  0.12418202  1
  Ge  Ge14  1  0.80645599  0.86131897  0.49989202  1
  Ge  Ge15  1  0.19354400  0.13868099  0.50010800  1
  Ge  Ge16  1  0.75655299  0.62305898  0.87581801  1
  Ge  Ge17  1  0.74344699  0.12305900  0.87581799  1
  Ge  Ge18  1  0.30645600  0.63868097  0.50010801  1
  Ge  Ge19  1  0.24344700  0.37694099  0.12418201  1
