# generated using pymatgen
data_HoFe11W
_symmetry_space_group_name_H-M   'P 1'
_cell_length_a   4.69068480
_cell_length_b   6.47580862
_cell_length_c   6.47580862
_cell_angle_alpha   81.66451263
_cell_angle_beta   68.76649475
_cell_angle_gamma   68.76648712
_symmetry_Int_Tables_number   1
_chemical_formula_structural   HoFe11W
_chemical_formula_sum   'Ho1 Fe11 W1'
_cell_volume   170.88572746
_cell_formula_units_Z   1
loop_
 _symmetry_equiv_pos_site_id
 _symmetry_equiv_pos_as_xyz
  1  'x, y, z'
loop_
 _atom_site_type_symbol
 _atom_site_label
 _atom_site_symmetry_multiplicity
 _atom_site_fract_x
 _atom_site_fract_y
 _atom_site_fract_z
 _atom_site_occupancy
  Ho  Ho0  1  0.00000000  0.00000000  0.00000000  1
  Fe  Fe1  1  0.00000000  0.00000000  0.49999999  1
  Fe  Fe2  1  0.50000001  0.00000000  0.50000001  1
  Fe  Fe3  1  0.50000007  0.50000000  0.99999997  1
  Fe  Fe4  1  1.00000008  0.50000000  0.99999999  1
  Fe  Fe5  1  0.50000011  0.77978401  0.22021598  1
  Fe  Fe6  1  0.50000004  0.22021600  0.77978399  1
  Fe  Fe7  1  0.72812511  0.77187501  0.77187497  1
  Fe  Fe8  1  0.27187503  0.22812500  0.22812499  1
  Fe  Fe9  1  0.00000004  0.35879500  0.64120497  1
  Fe  Fe10  1  0.00000008  0.64120501  0.35879496  1
  Fe  Fe11  1  0.64252106  0.35747900  0.35747900  1
  W  W12  1  0.35747909  0.64252101  0.64252097  1
