# generated using pymatgen
data_SrPrV2O8
_symmetry_space_group_name_H-M   'P 1'
_cell_length_a   5.38857794
_cell_length_b   5.38857794
_cell_length_c   6.94910669
_cell_angle_alpha   112.81253815
_cell_angle_beta   112.81253815
_cell_angle_gamma   90.00000000
_symmetry_Int_Tables_number   1
_chemical_formula_structural   SrPrV2O8
_chemical_formula_sum   'Sr1 Pr1 V2 O8'
_cell_volume   168.74261889
_cell_formula_units_Z   1
loop_
 _symmetry_equiv_pos_site_id
 _symmetry_equiv_pos_as_xyz
  1  'x, y, z'
loop_
 _atom_site_type_symbol
 _atom_site_label
 _atom_site_symmetry_multiplicity
 _atom_site_fract_x
 _atom_site_fract_y
 _atom_site_fract_z
 _atom_site_occupancy
  Sr  Sr0  1  0.75000000  0.25000000  0.49999998  1
  Pr  Pr1  1  0.50000000  0.50000000  -0.00000001  1
  V  V2  1  0.24999999  0.75000000  0.49999998  1
  V  V3  1  0.00000000  0.00000000  0.00000000  1
  O  O4  1  0.40123399  0.80005800  0.32275998  1
  O  O5  1  0.92152600  0.52270200  0.32275998  1
  O  O6  1  0.06843199  0.67721000  0.83454397  1
  O  O7  1  0.76611200  0.15733400  0.83454497  1
  O  O8  1  0.84266599  0.93156700  0.16545497  1
  O  O9  1  0.32278900  0.23388800  0.16545599  1
  O  O10  1  0.19994200  0.07847400  0.67723999  1
  O  O11  1  0.47729799  0.59876600  0.67723997  1
