# generated using pymatgen
data_Lu2AlFe16
_symmetry_space_group_name_H-M   'P 1'
_cell_length_a   6.32590675
_cell_length_b   6.32590675
_cell_length_c   6.32590675
_cell_angle_alpha   82.50746155
_cell_angle_beta   82.50745392
_cell_angle_gamma   82.50745392
_symmetry_Int_Tables_number   1
_chemical_formula_structural   Lu2AlFe16
_chemical_formula_sum   'Lu2 Al1 Fe16'
_cell_volume   247.17891887
_cell_formula_units_Z   1
loop_
 _symmetry_equiv_pos_site_id
 _symmetry_equiv_pos_as_xyz
  1  'x, y, z'
loop_
 _atom_site_type_symbol
 _atom_site_label
 _atom_site_symmetry_multiplicity
 _atom_site_fract_x
 _atom_site_fract_y
 _atom_site_fract_z
 _atom_site_occupancy
  Lu  Lu0  1  0.64571704  0.64571698  0.64571699  1
  Lu  Lu1  1  0.35428302  0.35428299  0.35428299  1
  Fe  Fe2  1  0.89445106  0.89445097  0.89445099  1
  Fe  Fe3  1  0.10554901  0.10554900  0.10554900  1
  Fe  Fe4  1  0.71405306  0.99999996  0.28594698  1
  Fe  Fe5  1  0.64880904  0.64880898  0.14668398  1
  Fe  Fe6  1  0.00000000  0.00000000  0.50000001  1
  Fe  Fe7  1  0.00000002  0.49999998  0.00000001  1
  Al  Al8  1  0.50000001  0.00000000  -0.00000003  1
  Fe  Fe9  1  0.28594704  0.71405297  -0.00000000  1
  Fe  Fe10  1  0.00000001  0.28594699  0.71405303  1
  Fe  Fe11  1  0.28594701  0.00000000  0.71405300  1
  Fe  Fe12  1  0.71405303  0.28594699  0.99999999  1
  Fe  Fe13  1  0.64880902  0.14668399  0.64880898  1
  Fe  Fe14  1  0.00000003  0.71405297  0.28594702  1
  Fe  Fe15  1  0.85331604  0.35119099  0.35119096  1
  Fe  Fe16  1  0.35119102  0.35119099  0.85331601  1
  Fe  Fe17  1  0.35119104  0.85331597  0.35119101  1
  Fe  Fe18  1  0.14668403  0.64880898  0.64880902  1
