# generated using pymatgen
data_Zr3TiB6
_symmetry_space_group_name_H-M   'P 1'
_cell_length_a   3.14203000
_cell_length_b   3.32754207
_cell_length_c   9.93791866
_cell_angle_alpha   99.63764191
_cell_angle_beta   90.00000000
_cell_angle_gamma   90.00000000
_symmetry_Int_Tables_number   1
_chemical_formula_structural   Zr3TiB6
_chemical_formula_sum   'Zr3 Ti1 B6'
_cell_volume   102.43683098
_cell_formula_units_Z   1
loop_
 _symmetry_equiv_pos_site_id
 _symmetry_equiv_pos_as_xyz
  1  'x, y, z'
loop_
 _atom_site_type_symbol
 _atom_site_label
 _atom_site_symmetry_multiplicity
 _atom_site_fract_x
 _atom_site_fract_y
 _atom_site_fract_z
 _atom_site_occupancy
  Zr  Zr0  1  0.25000000  0.43115600  0.86231205  1
  Zr  Zr1  1  0.75000000  0.56884399  0.13768802  1
  Ti  Ti2  1  0.25000000  0.70260999  0.40522003  1
  Zr  Zr3  1  0.75000000  0.29739000  0.59478003  1
  B  B4  1  0.25000000  0.02298200  0.04596400  1
  B  B5  1  0.75000000  0.97701799  0.95403606  1
  B  B6  1  0.25000000  0.11573900  0.23147801  1
  B  B7  1  0.75000000  0.88426099  0.76852205  1
  B  B8  1  0.25000000  0.83482999  0.66966004  1
  B  B9  1  0.75000000  0.16517000  0.33034002  1
