# generated using pymatgen
data_Ag7Te2
_symmetry_space_group_name_H-M   'P 1'
_cell_length_a   6.29244375
_cell_length_b   6.29244375
_cell_length_c   6.78438282
_cell_angle_alpha   74.16677094
_cell_angle_beta   74.16677094
_cell_angle_gamma   65.60181427
_symmetry_Int_Tables_number   1
_chemical_formula_structural   Ag7Te2
_chemical_formula_sum   'Ag7 Te2'
_cell_volume   231.39129015
_cell_formula_units_Z   1
loop_
 _symmetry_equiv_pos_site_id
 _symmetry_equiv_pos_as_xyz
  1  'x, y, z'
loop_
 _atom_site_type_symbol
 _atom_site_label
 _atom_site_symmetry_multiplicity
 _atom_site_fract_x
 _atom_site_fract_y
 _atom_site_fract_z
 _atom_site_occupancy
  Te  Te0  1  0.80944501  0.80944497  0.59097499  1
  Ag  Ag1  1  0.61499801  0.61499797  0.15791599  1
  Te  Te2  1  0.38500200  0.38500198  0.84208400  1
  Ag  Ag3  1  0.19055500  0.19055499  0.40902500  1
  Ag  Ag4  1  0.00000000  0.00000000  0.00000000  1
  Ag  Ag5  1  0.90455499  0.30745399  0.81722899  1
  Ag  Ag6  1  0.09544502  0.69254597  0.18277099  1
  Ag  Ag7  1  0.30745403  0.90455496  0.81722899  1
  Ag  Ag8  1  0.69254598  0.09544500  0.18277100  1
