# generated using pymatgen
data_Sr3GaN3
_symmetry_space_group_name_H-M   'P 1'
_cell_length_a   5.35454416
_cell_length_b   7.72796488
_cell_length_c   7.72756910
_cell_angle_alpha   119.98482513
_cell_angle_beta   90.00000000
_cell_angle_gamma   90.00000000
_symmetry_Int_Tables_number   1
_chemical_formula_structural   Sr3GaN3
_chemical_formula_sum   'Sr6 Ga2 N6'
_cell_volume   276.96670358
_cell_formula_units_Z   2
loop_
 _symmetry_equiv_pos_site_id
 _symmetry_equiv_pos_as_xyz
  1  'x, y, z'
loop_
 _atom_site_type_symbol
 _atom_site_label
 _atom_site_symmetry_multiplicity
 _atom_site_fract_x
 _atom_site_fract_y
 _atom_site_fract_z
 _atom_site_occupancy
  Sr  Sr0  1  0.74999998  0.63628998  0.90742798  1
  Sr  Sr1  1  0.74999998  0.09263500  0.72880999  1
  Sr  Sr2  1  0.74999998  0.27107299  0.36385699  1
  Sr  Sr3  1  0.24999999  0.36370999  0.09257199  1
  Sr  Sr4  1  0.24999999  0.90736497  0.27118998  1
  Sr  Sr5  1  0.24999999  0.72892698  0.63614298  1
  Ga  Ga6  1  0.24999999  0.33326699  0.66654699  1
  Ga  Ga7  1  0.74999998  0.66666665  0.33345299  1
  N  N8  1  0.24999999  0.59741498  0.89473398  1
  N  N9  1  0.24999999  0.10521900  0.70270599  1
  N  N10  1  0.24999999  0.29726699  0.40251299  1
  N  N11  1  0.74999998  0.40258499  0.10526599  1
  N  N12  1  0.74999998  0.89478097  0.29729398  1
  N  N13  1  0.74999998  0.70273298  0.59748698  1
