# generated using pymatgen
data_Sr5Mg5Al8
_symmetry_space_group_name_H-M   'P 1'
_cell_length_a   4.51526022
_cell_length_b   4.51526022
_cell_length_c   21.38813400
_cell_angle_alpha   96.05915833
_cell_angle_beta   96.05915833
_cell_angle_gamma   90.00000000
_symmetry_Int_Tables_number   1
_chemical_formula_structural   Sr5Mg5Al8
_chemical_formula_sum   'Sr5 Mg5 Al8'
_cell_volume   431.16635548
_cell_formula_units_Z   1
loop_
 _symmetry_equiv_pos_site_id
 _symmetry_equiv_pos_as_xyz
  1  'x, y, z'
loop_
 _atom_site_type_symbol
 _atom_site_label
 _atom_site_symmetry_multiplicity
 _atom_site_fract_x
 _atom_site_fract_y
 _atom_site_fract_z
 _atom_site_occupancy
  Sr  Sr0  1  0.81252396  0.81252396  0.62504801  1
  Sr  Sr1  1  0.18747599  0.18747599  0.37495201  1
  Sr  Sr2  1  0.94451495  0.94451495  0.88903001  1
  Sr  Sr3  1  0.05548500  0.05548500  0.11097000  1
  Mg  Mg4  1  0.61822197  0.11822199  0.23644400  1
  Al  Al5  1  0.71558097  0.71558097  0.43116201  1
  Al  Al6  1  0.88177796  0.38177798  0.76355601  1
  Mg  Mg7  1  0.53724197  0.53724197  0.07448400  1
  Al  Al8  1  0.38177798  0.88177796  0.76355601  1
  Sr  Sr9  1  0.46275798  0.46275798  0.92551601  1
  Mg  Mg10  1  0.11822199  0.61822197  0.23644400  1
  Al  Al11  1  0.28441899  0.28441899  0.56883801  1
  Al  Al12  1  0.65391697  0.65391697  0.30783400  1
  Al  Al13  1  0.74999996  0.24999999  0.50000001  1
  Al  Al14  1  0.24999999  0.74999996  0.50000001  1
  Al  Al15  1  0.34608298  0.34608298  0.69216601  1
  Mg  Mg16  1  0.49999998  0.00000000  0.00000000  1
  Mg  Mg17  1  0.00000000  0.49999998  0.00000000  1
