# generated using pymatgen
data_K2Cu3Te5
_symmetry_space_group_name_H-M   'P 1'
_cell_length_a   5.84711981
_cell_length_b   5.85789013
_cell_length_c   8.09388924
_cell_angle_alpha   90.00000000
_cell_angle_beta   111.17427063
_cell_angle_gamma   90.00000000
_symmetry_Int_Tables_number   1
_chemical_formula_structural   K2Cu3Te5
_chemical_formula_sum   'K2 Cu3 Te5'
_cell_volume   258.51326789
_cell_formula_units_Z   1
loop_
 _symmetry_equiv_pos_site_id
 _symmetry_equiv_pos_as_xyz
  1  'x, y, z'
loop_
 _atom_site_type_symbol
 _atom_site_label
 _atom_site_symmetry_multiplicity
 _atom_site_fract_x
 _atom_site_fract_y
 _atom_site_fract_z
 _atom_site_occupancy
  K  K0  1  0.50000002  0.24861599  0.49999999  1
  K  K1  1  -0.00000000  0.75138398  0.49999998  1
  Te  Te2  1  0.00000000  0.00000000  0.00000000  1
  Cu  Cu3  1  0.50000002  0.49999999  0.00000001  1
  Cu  Cu4  1  0.50000002  0.00000000  0.00000001  1
  Cu  Cu5  1  -0.00000000  0.49999999  -0.00000000  1
  Te  Te6  1  0.35686001  0.75318398  0.21987300  1
  Te  Te7  1  0.86301303  0.24681599  0.21987301  1
  Te  Te8  1  0.13698701  0.24681599  0.78012698  1
  Te  Te9  1  0.64314003  0.75318398  0.78012698  1
