# generated using pymatgen
data_CaHf3F11
_symmetry_space_group_name_H-M   'P 1'
_cell_length_a   5.75785255
_cell_length_b   5.75785255
_cell_length_c   7.81745338
_cell_angle_alpha   69.49821472
_cell_angle_beta   69.49821472
_cell_angle_gamma   73.13076019
_symmetry_Int_Tables_number   1
_chemical_formula_structural   CaHf3F11
_chemical_formula_sum   'Ca1 Hf3 F11'
_cell_volume   223.19597898
_cell_formula_units_Z   1
loop_
 _symmetry_equiv_pos_site_id
 _symmetry_equiv_pos_as_xyz
  1  'x, y, z'
loop_
 _atom_site_type_symbol
 _atom_site_label
 _atom_site_symmetry_multiplicity
 _atom_site_fract_x
 _atom_site_fract_y
 _atom_site_fract_z
 _atom_site_occupancy
  Ca  Ca0  1  0.00000000  0.00000000  0.00000000  1
  Hf  Hf1  1  0.50368302  0.50368298  0.76577295  1
  Hf  Hf2  1  0.49631702  0.49631698  0.23422696  1
  Hf  Hf3  1  0.00000000  0.00000000  0.49999999  1
  F  F4  1  0.22348005  0.80170797  0.69328595  1
  F  F5  1  0.19829205  0.77651997  0.30671396  1
  F  F6  1  0.77651999  0.19829199  0.30671397  1
  F  F7  1  0.80170799  0.22347999  0.69328596  1
  F  F8  1  0.50000002  0.49999998  0.49999996  1
  F  F9  1  0.66758200  0.33241799  -0.00000003  1
  F  F10  1  0.33241804  0.66758197  -0.00000004  1
  F  F11  1  0.25417001  0.25416999  0.35146898  1
  F  F12  1  0.74583003  0.74582997  0.64853094  1
  F  F13  1  0.26868601  0.26868599  0.88829597  1
  F  F14  1  0.73131403  0.73131397  0.11170395  1
