# generated using pymatgen
data_Li2Mn2OF7
_symmetry_space_group_name_H-M   'P 1'
_cell_length_a   5.04237223
_cell_length_b   5.12507534
_cell_length_c   5.13006020
_cell_angle_alpha   91.12019348
_cell_angle_beta   99.17555237
_cell_angle_gamma   92.41935730
_symmetry_Int_Tables_number   1
_chemical_formula_structural   Li2Mn2OF7
_chemical_formula_sum   'Li2 Mn2 O1 F7'
_cell_volume   130.71432360
_cell_formula_units_Z   1
loop_
 _symmetry_equiv_pos_site_id
 _symmetry_equiv_pos_as_xyz
  1  'x, y, z'
loop_
 _atom_site_type_symbol
 _atom_site_label
 _atom_site_symmetry_multiplicity
 _atom_site_fract_x
 _atom_site_fract_y
 _atom_site_fract_z
 _atom_site_occupancy
  Li  Li0  1  0.75327197  0.02232600  0.68290806  1
  Li  Li1  1  0.24672797  0.97767400  0.31709204  1
  Mn  Mn2  1  0.78063096  0.45668300  0.19984105  1
  Mn  Mn3  1  0.21936898  0.54331700  0.80015904  1
  F  F4  1  0.60024897  0.15986800  0.31886804  1
  F  F5  1  0.04438999  0.26203300  0.00640801  1
  F  F6  1  0.08855399  0.28542400  0.50941702  1
  F  F7  1  0.56386797  0.35726700  0.82851206  1
  F  F8  1  0.43613197  0.64273300  0.17148804  1
  F  F9  1  0.91144595  0.71457600  0.49058307  1
  F  F10  1  0.95560995  0.73796700  0.99359209  1
  O  O11  1  0.39975096  0.84013200  0.68113205  1
