# generated using pymatgen
data_Ce2(CdPt)3
_symmetry_space_group_name_H-M   'P 1'
_cell_length_a   4.44291210
_cell_length_b   5.68360233
_cell_length_c   8.07204056
_cell_angle_alpha   90.00000000
_cell_angle_beta   90.00000000
_cell_angle_gamma   113.00762177
_symmetry_Int_Tables_number   1
_chemical_formula_structural   Ce2(CdPt)3
_chemical_formula_sum   'Ce2 Cd3 Pt3'
_cell_volume   187.61877494
_cell_formula_units_Z   1
loop_
 _symmetry_equiv_pos_site_id
 _symmetry_equiv_pos_as_xyz
  1  'x, y, z'
loop_
 _atom_site_type_symbol
 _atom_site_label
 _atom_site_symmetry_multiplicity
 _atom_site_fract_x
 _atom_site_fract_y
 _atom_site_fract_z
 _atom_site_occupancy
  Ce  Ce0  1  0.42959804  0.85919599  0.75000004  1
  Ce  Ce1  1  0.57040199  0.14080400  0.25000001  1
  Cd  Cd2  1  0.14497701  0.28995400  0.94746105  1
  Pt  Pt3  1  0.85502302  0.71004599  0.05253900  1
  Cd  Cd4  1  0.85502302  0.71004599  0.44746102  1
  Cd  Cd5  1  0.14497701  0.28995400  0.55253903  1
  Pt  Pt6  1  0.72070001  0.44139999  0.75000004  1
  Pt  Pt7  1  0.27930003  0.55859999  0.25000001  1
