# generated using pymatgen
data_Li2BN2
_symmetry_space_group_name_H-M   'P 1'
_cell_length_a   3.81931210
_cell_length_b   3.81931210
_cell_length_c   5.19985199
_cell_angle_alpha   111.54624176
_cell_angle_beta   111.54624176
_cell_angle_gamma   90.00000000
_symmetry_Int_Tables_number   1
_chemical_formula_structural   Li2BN2
_chemical_formula_sum   'Li2 B1 N2'
_cell_volume   64.81829878
_cell_formula_units_Z   1
loop_
 _symmetry_equiv_pos_site_id
 _symmetry_equiv_pos_as_xyz
  1  'x, y, z'
loop_
 _atom_site_type_symbol
 _atom_site_label
 _atom_site_symmetry_multiplicity
 _atom_site_fract_x
 _atom_site_fract_y
 _atom_site_fract_z
 _atom_site_occupancy
  Li  Li0  1  0.74999999  0.25000000  0.50000001  1
  Li  Li1  1  0.25000001  0.74999999  0.50000002  1
  B  B2  1  0.50000000  0.49999999  1.00000001  1
  N  N3  1  0.34873600  0.34873700  0.69747301  1
  N  N4  1  0.65126400  0.65126299  0.30252703  1
