# generated using pymatgen
data_K2Na3(GeS2)5
_symmetry_space_group_name_H-M   'P 1'
_cell_length_a   8.02616024
_cell_length_b   8.18110180
_cell_length_c   9.12350845
_cell_angle_alpha   65.64073944
_cell_angle_beta   73.65406036
_cell_angle_gamma   64.13632965
_symmetry_Int_Tables_number   1
_chemical_formula_structural   K2Na3(GeS2)5
_chemical_formula_sum   'K2 Na3 Ge5 S10'
_cell_volume   487.29952479
_cell_formula_units_Z   1
loop_
 _symmetry_equiv_pos_site_id
 _symmetry_equiv_pos_as_xyz
  1  'x, y, z'
loop_
 _atom_site_type_symbol
 _atom_site_label
 _atom_site_symmetry_multiplicity
 _atom_site_fract_x
 _atom_site_fract_y
 _atom_site_fract_z
 _atom_site_occupancy
  K  K0  1  0.80535599  0.15321400  0.62564895  1
  K  K1  1  0.19464404  0.84678598  0.37435096  1
  Ge  Ge2  1  0.38150401  0.25001200  0.40623597  1
  Ge  Ge3  1  0.61849603  0.74998799  0.59376394  1
  Ge  Ge4  1  0.59540999  0.04027600  0.14143797  1
  Ge  Ge5  1  0.40459004  0.95972398  0.85856194  1
  Ge  Ge6  1  0.95307902  0.62280799  0.31308494  1
  Na  Na7  1  0.04692102  0.37719199  0.68691497  1
  Na  Na8  1  0.74515301  0.45882199  0.09408596  1
  Na  Na9  1  0.25484702  0.54117799  0.90591395  1
  S  S10  1  0.86693603  0.81039098  0.05512495  1
  S  S11  1  0.13306401  0.18960900  0.94487496  1
  S  S12  1  0.68246599  0.08626900  0.33222696  1
  S  S13  1  0.31753404  0.91373098  0.66777295  1
  S  S14  1  0.37003403  0.70504099  0.08033497  1
  S  S15  1  0.62996600  0.29495899  0.91966494  1
  S  S16  1  0.67817002  0.58079099  0.42665095  1
  S  S17  1  0.32183002  0.41920899  0.57334896  1
  S  S18  1  0.85450302  0.65479899  0.74063493  1
  S  S19  1  0.14549702  0.34520099  0.25936498  1
