# generated using pymatgen
data_CeCdAu
_symmetry_space_group_name_H-M   'P 1'
_cell_length_a   4.37533808
_cell_length_b   4.37533808
_cell_length_c   8.50609589
_cell_angle_alpha   104.90329742
_cell_angle_beta   104.90329742
_cell_angle_gamma   90.00000000
_symmetry_Int_Tables_number   1
_chemical_formula_structural   CeCdAu
_chemical_formula_sum   'Ce2 Cd2 Au2'
_cell_volume   151.68420802
_cell_formula_units_Z   2
loop_
 _symmetry_equiv_pos_site_id
 _symmetry_equiv_pos_as_xyz
  1  'x, y, z'
loop_
 _atom_site_type_symbol
 _atom_site_label
 _atom_site_symmetry_multiplicity
 _atom_site_fract_x
 _atom_site_fract_y
 _atom_site_fract_z
 _atom_site_occupancy
  Ce  Ce0  1  0.66762701  0.66762700  0.33525405  1
  Ce  Ce1  1  0.33237301  0.33237300  0.66474605  1
  Cd  Cd2  1  0.00000001  0.50000000  0.00000001  1
  Cd  Cd3  1  0.50000000  0.00000000  0.00000001  1
  Au  Au4  1  0.13664000  0.13664000  0.27328002  1
  Au  Au5  1  0.86336002  0.86336000  0.72672009  1
