# generated using pymatgen
data_Zr2CO4
_symmetry_space_group_name_H-M   'P 1'
_cell_length_a   4.34794188
_cell_length_b   4.89084816
_cell_length_c   5.82616282
_cell_angle_alpha   114.81763458
_cell_angle_beta   111.90936279
_cell_angle_gamma   90.00000000
_symmetry_Int_Tables_number   1
_chemical_formula_structural   Zr2CO4
_chemical_formula_sum   'Zr2 C1 O4'
_cell_volume   102.51008480
_cell_formula_units_Z   1
loop_
 _symmetry_equiv_pos_site_id
 _symmetry_equiv_pos_as_xyz
  1  'x, y, z'
loop_
 _atom_site_type_symbol
 _atom_site_label
 _atom_site_symmetry_multiplicity
 _atom_site_fract_x
 _atom_site_fract_y
 _atom_site_fract_z
 _atom_site_occupancy
  O  O0  1  0.99392502  0.00000000  -0.00000002  1
  C  C1  1  0.38084799  0.49999997  0.99999996  1
  O  O2  1  0.18232500  0.18556599  0.37113198  1
  O  O3  1  0.08052898  0.49999997  0.99999996  1
  Zr  Zr4  1  0.81119298  0.81443395  0.62886794  1
  Zr  Zr5  1  0.51023998  0.73580696  -0.00000005  1
  O  O6  1  0.51023900  0.26419299  0.99999897  1
