# generated using pymatgen
data_Li5V2O2F5
_symmetry_space_group_name_H-M   'P 1'
_cell_length_a   6.10187578
_cell_length_b   6.11801434
_cell_length_c   6.11801434
_cell_angle_alpha   60.03915024
_cell_angle_beta   60.08721924
_cell_angle_gamma   60.08721924
_symmetry_Int_Tables_number   1
_chemical_formula_structural   Li5V2O2F5
_chemical_formula_sum   'Li5 V2 O2 F5'
_cell_volume   161.75931474
_cell_formula_units_Z   1
loop_
 _symmetry_equiv_pos_site_id
 _symmetry_equiv_pos_as_xyz
  1  'x, y, z'
loop_
 _atom_site_type_symbol
 _atom_site_label
 _atom_site_symmetry_multiplicity
 _atom_site_fract_x
 _atom_site_fract_y
 _atom_site_fract_z
 _atom_site_occupancy
  Li  Li0  1  0.87435603  0.37564398  0.87564398  1
  O  O1  1  0.12564399  0.62435597  0.12435602  1
  F  F2  1  0.00000000  0.00000000  0.49999998  1
  F  F3  1  0.50000002  0.00000000  0.49999998  1
  O  O4  1  0.50000001  0.49999998  0.50000000  1
  F  F5  1  0.50000002  0.00000000  -0.00000000  1
  V  V6  1  0.70872301  0.76574097  0.26574001  1
  Li  Li7  1  0.25979700  0.76573997  0.26574002  1
  Li  Li8  1  0.26249501  0.20756299  0.26744700  1
  V  V9  1  0.26249500  0.76744697  0.70756300  1
  Li  Li10  1  0.29127701  0.23425899  0.73425998  1
  F  F11  1  0.74020302  0.23425999  0.73425998  1
  F  F12  1  0.73750501  0.79243697  0.73255300  1
  Li  Li13  1  0.73750502  0.23255299  0.29243699  1
