# generated using pymatgen
data_HoSi3Ni2
_symmetry_space_group_name_H-M   'P 1'
_cell_length_a   3.03347397
_cell_length_b   5.61243200
_cell_length_c   5.61243296
_cell_angle_alpha   119.99999237
_cell_angle_beta   90.00000000
_cell_angle_gamma   90.00000000
_symmetry_Int_Tables_number   1
_chemical_formula_structural   HoSi3Ni2
_chemical_formula_sum   'Ho1 Si3 Ni2'
_cell_volume   82.75098960
_cell_formula_units_Z   1
loop_
 _symmetry_equiv_pos_site_id
 _symmetry_equiv_pos_as_xyz
  1  'x, y, z'
loop_
 _atom_site_type_symbol
 _atom_site_label
 _atom_site_symmetry_multiplicity
 _atom_site_fract_x
 _atom_site_fract_y
 _atom_site_fract_z
 _atom_site_occupancy
  Ho  Ho0  1  0.00000000  0.00000000  0.00000000  1
  Ni  Ni1  1  -0.00000000  0.33333333  0.66666668  1
  Ni  Ni2  1  0.00000000  0.66666666  0.33333333  1
  Si  Si3  1  0.50000001  0.50000000  0.50000001  1
  Si  Si4  1  0.50000001  0.00000000  0.50000002  1
  Si  Si5  1  0.50000001  0.50000000  -0.00000001  1
