# generated using pymatgen
data_Mn3Te11
_symmetry_space_group_name_H-M   'P 1'
_cell_length_a   7.91707563
_cell_length_b   7.91707563
_cell_length_c   7.91707563
_cell_angle_alpha   60.00000000
_cell_angle_beta   60.00000000
_cell_angle_gamma   60.00000000
_symmetry_Int_Tables_number   1
_chemical_formula_structural   Mn3Te11
_chemical_formula_sum   'Mn3 Te11'
_cell_volume   350.89678074
_cell_formula_units_Z   1
loop_
 _symmetry_equiv_pos_site_id
 _symmetry_equiv_pos_as_xyz
  1  'x, y, z'
loop_
 _atom_site_type_symbol
 _atom_site_label
 _atom_site_symmetry_multiplicity
 _atom_site_fract_x
 _atom_site_fract_y
 _atom_site_fract_z
 _atom_site_occupancy
  Te  Te0  1  0.87500002  0.87500002  0.87500002  1
  Te  Te1  1  0.87500002  0.37500001  0.87500002  1
  Te  Te2  1  0.87500002  0.87500002  0.37500001  1
  Te  Te3  1  0.37500001  0.87500002  0.87500002  1
  Mn  Mn4  1  0.25000001  0.25000001  0.25000001  1
  Mn  Mn5  1  0.50000001  0.50000001  0.50000001  1
  Mn  Mn6  1  0.63213601  0.63213601  0.63213601  1
  Te  Te7  1  0.11786400  0.64640802  0.11786400  1
  Te  Te8  1  0.11786400  0.11786400  0.64640802  1
  Te  Te9  1  0.64640802  0.11786400  0.11786400  1
  Te  Te10  1  0.63213601  0.63213601  0.10359200  1
  Te  Te11  1  0.10359200  0.63213601  0.63213601  1
  Te  Te12  1  0.63213601  0.10359200  0.63213601  1
  Te  Te13  1  0.11786400  0.11786400  0.11786400  1
