# generated using pymatgen
data_Al3TlSiNiTeP
_symmetry_space_group_name_H-M   'P 1'
_cell_length_a   3.43299794
_cell_length_b   3.43299842
_cell_length_c   12.25626278
_cell_angle_alpha   90.00000000
_cell_angle_beta   90.00000000
_cell_angle_gamma   119.99999237
_symmetry_Int_Tables_number   1
_chemical_formula_structural   Al3TlSiNiTeP
_chemical_formula_sum   'Al3 Tl1 Si1 Ni1 Te1 P1'
_cell_volume   125.09382593
_cell_formula_units_Z   1
loop_
 _symmetry_equiv_pos_site_id
 _symmetry_equiv_pos_as_xyz
  1  'x, y, z'
loop_
 _atom_site_type_symbol
 _atom_site_label
 _atom_site_symmetry_multiplicity
 _atom_site_fract_x
 _atom_site_fract_y
 _atom_site_fract_z
 _atom_site_occupancy
  Al  Al0  1  0.66666666  0.33333333  0.60071301  1
  Si  Si1  1  0.33333329  0.66666665  0.10071300  1
  Al  Al2  1  0.33333329  0.66666665  0.39928701  1
  Tl  Tl3  1  0.66666666  0.33333333  0.89928702  1
  P  P4  1  0.00000000  0.00000000  0.50000001  1
  Al  Al5  1  0.00000000  0.00000000  0.00000000  1
  Ni  Ni6  1  0.33333329  0.66666665  0.75000001  1
  Te  Te7  1  0.66666666  0.33333333  0.25000000  1
