# generated using pymatgen
data_MnV3(SiO3)4
_symmetry_space_group_name_H-M   'P 1'
_cell_length_a   5.35195589
_cell_length_b   6.94484234
_cell_length_c   6.94527102
_cell_angle_alpha   87.99761200
_cell_angle_beta   74.75962067
_cell_angle_gamma   74.76264954
_symmetry_Int_Tables_number   1
_chemical_formula_structural   MnV3(SiO3)4
_chemical_formula_sum   'Mn1 V3 Si4 O12'
_cell_volume   240.14909099
_cell_formula_units_Z   1
loop_
 _symmetry_equiv_pos_site_id
 _symmetry_equiv_pos_as_xyz
  1  'x, y, z'
loop_
 _atom_site_type_symbol
 _atom_site_label
 _atom_site_symmetry_multiplicity
 _atom_site_fract_x
 _atom_site_fract_y
 _atom_site_fract_z
 _atom_site_occupancy
  V  V0  1  0.74998105  0.24137600  0.75862694  1
  V  V1  1  0.24993804  0.75857099  0.24136295  1
  V  V2  1  0.75010807  0.89890999  0.10099493  1
  Mn  Mn3  1  0.24985102  0.10122000  0.89884696  1
  Si  Si4  1  0.22782302  0.21738100  0.38498997  1
  Si  Si5  1  0.27226404  0.61501899  0.78263694  1
  Si  Si6  1  0.72783105  0.38495300  0.21740495  1
  Si  Si7  1  0.77226007  0.78264099  0.61503792  1
  O  O8  1  0.47329604  0.32286700  0.37532096  1
  O  O9  1  0.02677302  0.62472499  0.67708195  1
  O  O10  1  0.52678205  0.67706799  0.62474693  1
  O  O11  1  0.97329806  0.37530000  0.32289594  1
  O  O12  1  0.12068201  0.15053200  0.61173797  1
  O  O13  1  0.37927603  0.38822900  0.84948195  1
  O  O14  1  0.87922908  0.84950099  0.38822992  1
  O  O15  1  0.62067005  0.61170399  0.15053794  1
  O  O16  1  0.84824005  0.21490300  0.03185196  1
  O  O17  1  0.65176407  0.96820699  0.78510691  1
  O  O18  1  0.34821702  0.03179400  0.21493998  1
  O  O19  1  0.15171604  0.78510099  0.96816694  1
