# generated using pymatgen
data_SmScSi8Ir9
_symmetry_space_group_name_H-M   'P 1'
_cell_length_a   6.42590952
_cell_length_b   6.42590952
_cell_length_c   6.42590952
_cell_angle_alpha   83.03208923
_cell_angle_beta   83.03209686
_cell_angle_gamma   83.03209686
_symmetry_Int_Tables_number   1
_chemical_formula_structural   SmScSi8Ir9
_chemical_formula_sum   'Sm1 Sc1 Si8 Ir9'
_cell_volume   259.90114170
_cell_formula_units_Z   1
loop_
 _symmetry_equiv_pos_site_id
 _symmetry_equiv_pos_as_xyz
  1  'x, y, z'
loop_
 _atom_site_type_symbol
 _atom_site_label
 _atom_site_symmetry_multiplicity
 _atom_site_fract_x
 _atom_site_fract_y
 _atom_site_fract_z
 _atom_site_occupancy
  Sm  Sm0  1  0.34223300  0.34223299  0.34223297  1
  Sc  Sc1  1  0.65853600  0.65853598  0.65853594  1
  Ir  Ir2  1  0.50030600  0.99961897  0.99961891  1
  Ir  Ir3  1  0.99961901  0.50030599  0.99961893  1
  Ir  Ir4  1  0.99961901  0.99961897  0.50030592  1
  Si  Si5  1  0.99947201  0.29147299  0.70895395  1
  Ir  Ir6  1  0.70895400  0.99947197  0.29147293  1
  Si  Si7  1  0.29147300  0.70895398  0.99947193  1
  Si  Si8  1  0.29147300  0.99947197  0.70895392  1
  Ir  Ir9  1  0.70895401  0.29147299  0.99947195  1
  Si  Si10  1  0.99947201  0.70895398  0.29147295  1
  Si  Si11  1  0.09694600  0.09694600  0.09694599  1
  Ir  Ir12  1  0.90256001  0.90255997  0.90255992  1
  Si  Si13  1  0.15424100  0.65669798  0.65669794  1
  Si  Si14  1  0.65669801  0.15424100  0.65669796  1
  Si  Si15  1  0.65669800  0.65669798  0.15424096  1
  Ir  Ir16  1  0.84523601  0.34375499  0.34375496  1
  Ir  Ir17  1  0.34375500  0.84523598  0.34375494  1
  Ir  Ir18  1  0.34375500  0.34375499  0.84523595  1
