# generated using pymatgen
data_BaZn3CdTe
_symmetry_space_group_name_H-M   'P 1'
_cell_length_a   4.49765778
_cell_length_b   4.49765778
_cell_length_c   7.50075579
_cell_angle_alpha   90.00000000
_cell_angle_beta   90.00000000
_cell_angle_gamma   120.00000000
_symmetry_Int_Tables_number   1
_chemical_formula_structural   BaZn3CdTe
_chemical_formula_sum   'Ba1 Zn3 Cd1 Te1'
_cell_volume   131.40396556
_cell_formula_units_Z   1
loop_
 _symmetry_equiv_pos_site_id
 _symmetry_equiv_pos_as_xyz
  1  'x, y, z'
loop_
 _atom_site_type_symbol
 _atom_site_label
 _atom_site_symmetry_multiplicity
 _atom_site_fract_x
 _atom_site_fract_y
 _atom_site_fract_z
 _atom_site_occupancy
  Zn  Zn0  1  0.33333334  0.66666669  0.79876102  1
  Zn  Zn1  1  0.66666670  0.33333334  0.20123901  1
  Ba  Ba2  1  0.00000000  0.00000000  0.50000001  1
  Cd  Cd3  1  0.00000000  0.00000000  0.00000000  1
  Zn  Zn4  1  0.33333334  0.66666669  0.16426700  1
  Te  Te5  1  0.66666670  0.33333334  0.83573302  1
