# generated using pymatgen
data_HfScIO2
_symmetry_space_group_name_H-M   'P 1'
_cell_length_a   3.94496799
_cell_length_b   3.94496799
_cell_length_c   6.39491892
_cell_angle_alpha   107.96557617
_cell_angle_beta   107.96557617
_cell_angle_gamma   90.00000000
_symmetry_Int_Tables_number   1
_chemical_formula_structural   HfScIO2
_chemical_formula_sum   'Hf1 Sc1 I1 O2'
_cell_volume   89.55506777
_cell_formula_units_Z   1
loop_
 _symmetry_equiv_pos_site_id
 _symmetry_equiv_pos_as_xyz
  1  'x, y, z'
loop_
 _atom_site_type_symbol
 _atom_site_label
 _atom_site_symmetry_multiplicity
 _atom_site_fract_x
 _atom_site_fract_y
 _atom_site_fract_z
 _atom_site_occupancy
  I  I0  1  0.00000000  0.00000000  0.00000000  1
  Hf  Hf1  1  0.68329803  0.68329801  0.36659604  1
  Sc  Sc2  1  0.31670201  0.31670201  0.63340402  1
  O  O3  1  0.75000002  0.25000000  0.50000003  1
  O  O4  1  0.25000002  0.75000001  0.50000003  1
