# generated using pymatgen
data_K2Ta3S4
_symmetry_space_group_name_H-M   'P 1'
_cell_length_a   6.02701187
_cell_length_b   7.31283712
_cell_length_c   10.76027203
_cell_angle_alpha   106.62509155
_cell_angle_beta   90.00000000
_cell_angle_gamma   90.00000000
_symmetry_Int_Tables_number   1
_chemical_formula_structural   K2Ta3S4
_chemical_formula_sum   'K4 Ta6 S8'
_cell_volume   454.42914075
_cell_formula_units_Z   2
loop_
 _symmetry_equiv_pos_site_id
 _symmetry_equiv_pos_as_xyz
  1  'x, y, z'
loop_
 _atom_site_type_symbol
 _atom_site_label
 _atom_site_symmetry_multiplicity
 _atom_site_fract_x
 _atom_site_fract_y
 _atom_site_fract_z
 _atom_site_occupancy
  K  K0  1  0.49449601  0.25000000  0.74999997  1
  K  K1  1  0.00000000  0.00000000  0.49999998  1
  K  K2  1  0.00000000  0.49999999  -0.00000000  1
  K  K3  1  0.50550401  0.74999999  0.24999999  1
  Ta  Ta4  1  0.24996201  0.53041799  0.52913398  1
  Ta  Ta5  1  0.24996201  0.96958198  0.97086597  1
  Ta  Ta6  1  0.75003802  0.46958199  0.47086598  1
  Ta  Ta7  1  0.75003802  0.03041800  0.02913400  1
  Ta  Ta8  1  0.24940001  0.25000000  0.24999999  1
  Ta  Ta9  1  0.75060002  0.74999999  0.74999997  1
  S  S10  1  0.53463401  0.72875799  0.93688097  1
  S  S11  1  0.03255700  0.95912998  0.16696399  1
  S  S12  1  0.03255700  0.54086999  0.33303599  1
  S  S13  1  0.53463401  0.77124199  0.56311898  1
  S  S14  1  0.96744302  0.45912999  0.66696398  1
  S  S15  1  0.96744302  0.04087000  0.83303597  1
  S  S16  1  0.46536601  0.22875800  0.43688098  1
  S  S17  1  0.46536601  0.27124200  0.06311900  1
