# generated using pymatgen
data_K5AgBrCl2O2F
_symmetry_space_group_name_H-M   'P 1'
_cell_length_a   7.09984159
_cell_length_b   7.25039625
_cell_length_c   7.75133467
_cell_angle_alpha   73.92063141
_cell_angle_beta   76.09526062
_cell_angle_gamma   61.10476303
_symmetry_Int_Tables_number   1
_chemical_formula_structural   K5AgBrCl2O2F
_chemical_formula_sum   'K5 Ag1 Br1 Cl2 O2 F1'
_cell_volume   332.97175884
_cell_formula_units_Z   1
loop_
 _symmetry_equiv_pos_site_id
 _symmetry_equiv_pos_as_xyz
  1  'x, y, z'
loop_
 _atom_site_type_symbol
 _atom_site_label
 _atom_site_symmetry_multiplicity
 _atom_site_fract_x
 _atom_site_fract_y
 _atom_site_fract_z
 _atom_site_occupancy
  F  F0  1  0.98923403  0.70200798  0.49643802  1
  O  O1  1  0.01076600  0.29799199  0.50356203  1
  O  O2  1  0.57649002  0.67859098  0.48908803  1
  Ag  Ag3  1  0.42351001  0.32140899  0.51091201  1
  K  K4  1  0.90080003  0.61996998  0.21740101  1
  K  K5  1  0.09920001  0.38002999  0.78259903  1
  Cl  Cl6  1  0.35309802  0.66166598  0.25313303  1
  Br  Br7  1  0.64690202  0.33833399  0.74686701  1
  K  K8  1  0.61188103  0.89285598  0.70583604  1
  K  K9  1  0.38811901  0.10714400  0.29416400  1
  K  K10  1  0.15718902  0.86332098  0.67826406  1
  Cl  Cl11  1  0.84281102  0.13667900  0.32173599  1
