# generated using pymatgen
data_Li3F4
_symmetry_space_group_name_H-M   'P 1'
_cell_length_a   5.62627363
_cell_length_b   5.69161367
_cell_length_c   5.87192965
_cell_angle_alpha   88.48258972
_cell_angle_beta   61.37630844
_cell_angle_gamma   118.47995758
_symmetry_Int_Tables_number   1
_chemical_formula_structural   Li3F4
_chemical_formula_sum   'Li6 F8'
_cell_volume   136.93231895
_cell_formula_units_Z   2
loop_
 _symmetry_equiv_pos_site_id
 _symmetry_equiv_pos_as_xyz
  1  'x, y, z'
loop_
 _atom_site_type_symbol
 _atom_site_label
 _atom_site_symmetry_multiplicity
 _atom_site_fract_x
 _atom_site_fract_y
 _atom_site_fract_z
 _atom_site_occupancy
  Li  Li0  1  0.50001092  0.99997495  0.49996411  1
  Li  Li1  1  0.49997497  0.49994798  0.49998806  1
  Li  Li2  1  0.99995503  0.00007900  0.99998602  1
  Li  Li3  1  0.50009802  0.00006300  0.00003800  1
  Li  Li4  1  0.99979699  0.49973898  0.00005005  1
  Li  Li5  1  0.50007097  0.49985398  0.00007205  1
  F  F6  1  0.00223693  0.74545696  0.20740208  1
  F  F7  1  0.54326595  0.79023296  0.21279609  1
  F  F8  1  0.02664598  0.25871799  0.19941903  1
  F  F9  1  0.54305599  0.27690999  0.20383003  1
  F  F10  1  0.45705895  0.72330596  0.79597409  1
  F  F11  1  0.97343396  0.74134996  0.80057009  1
  F  F12  1  0.45667100  0.20972799  0.78711304  1
  F  F13  1  0.99773701  0.25462699  0.79278605  1
