# generated using pymatgen
data_TiNi3P2
_symmetry_space_group_name_H-M   'P 1'
_cell_length_a   3.73829889
_cell_length_b   6.17542219
_cell_length_c   6.98315096
_cell_angle_alpha   90.00000000
_cell_angle_beta   90.00000000
_cell_angle_gamma   90.00000000
_symmetry_Int_Tables_number   1
_chemical_formula_structural   TiNi3P2
_chemical_formula_sum   'Ti2 Ni6 P4'
_cell_volume   161.21004782
_cell_formula_units_Z   2
loop_
 _symmetry_equiv_pos_site_id
 _symmetry_equiv_pos_as_xyz
  1  'x, y, z'
loop_
 _atom_site_type_symbol
 _atom_site_label
 _atom_site_symmetry_multiplicity
 _atom_site_fract_x
 _atom_site_fract_y
 _atom_site_fract_z
 _atom_site_occupancy
  Ti  Ti0  1  0.75000002  0.98415497  0.68718700  1
  Ti  Ti1  1  0.75000002  0.48415498  0.81281300  1
  Ni  Ni2  1  0.25000001  0.01584500  0.31281300  1
  Ni  Ni3  1  0.25000001  0.51584498  0.18718700  1
  Ni  Ni4  1  0.75000002  0.85120497  0.06457400  1
  Ni  Ni5  1  0.75000002  0.35120499  0.43542600  1
  Ni  Ni6  1  0.25000001  0.14879500  0.93542601  1
  Ni  Ni7  1  0.25000001  0.64879498  0.56457400  1
  P  P8  1  0.75000002  0.72211098  0.38480300  1
  P  P9  1  0.75000002  0.22211099  0.11519700  1
  P  P10  1  0.25000001  0.27788899  0.61519700  1
  P  P11  1  0.25000001  0.77788898  0.88480301  1
