# generated using pymatgen
data_BeFe2B2Ru
_symmetry_space_group_name_H-M   'P 1'
_cell_length_a   4.12561750
_cell_length_b   4.12561750
_cell_length_c   4.12561750
_cell_angle_alpha   60.00000000
_cell_angle_beta   60.00000000
_cell_angle_gamma   60.00000000
_symmetry_Int_Tables_number   1
_chemical_formula_structural   BeFe2B2Ru
_chemical_formula_sum   'Be1 Fe2 B2 Ru1'
_cell_volume   49.65373079
_cell_formula_units_Z   1
loop_
 _symmetry_equiv_pos_site_id
 _symmetry_equiv_pos_as_xyz
  1  'x, y, z'
loop_
 _atom_site_type_symbol
 _atom_site_label
 _atom_site_symmetry_multiplicity
 _atom_site_fract_x
 _atom_site_fract_y
 _atom_site_fract_z
 _atom_site_occupancy
  Fe  Fe0  1  0.87805697  0.37398099  0.37398099  1
  Be  Be1  1  0.37398199  0.87805597  0.37398099  1
  B  B2  1  0.37398199  0.37398099  0.37398099  1
  B  B3  1  0.37398199  0.37398099  0.87805597  1
  Ru  Ru4  1  0.74999997  0.74999997  0.74999997  1
  Fe  Fe5  1  0.00000000  0.00000000  0.00000000  1
