# generated using pymatgen
data_NbB2
_symmetry_space_group_name_H-M   'P 1'
_cell_length_a   3.06114602
_cell_length_b   3.06114674
_cell_length_c   13.54427338
_cell_angle_alpha   90.00000000
_cell_angle_beta   90.00000000
_cell_angle_gamma   119.99999237
_symmetry_Int_Tables_number   1
_chemical_formula_structural   NbB2
_chemical_formula_sum   'Nb4 B8'
_cell_volume   109.91439420
_cell_formula_units_Z   4
loop_
 _symmetry_equiv_pos_site_id
 _symmetry_equiv_pos_as_xyz
  1  'x, y, z'
loop_
 _atom_site_type_symbol
 _atom_site_label
 _atom_site_symmetry_multiplicity
 _atom_site_fract_x
 _atom_site_fract_y
 _atom_site_fract_z
 _atom_site_occupancy
  Nb  Nb0  1  0.00000000  0.00000000  0.25420299  1
  Nb  Nb1  1  0.00000000  0.00000000  0.49999999  1
  Nb  Nb2  1  0.00000000  0.00000000  0.74579698  1
  Nb  Nb3  1  0.00000000  0.00000000  0.00000000  1
  B  B4  1  0.33333333  0.66666666  0.12086100  1
  B  B5  1  0.33333333  0.66666666  0.37552899  1
  B  B6  1  0.33333333  0.66666666  0.62447098  1
  B  B7  1  0.33333333  0.66666666  0.87913898  1
  B  B8  1  0.66666666  0.33333333  0.12086100  1
  B  B9  1  0.66666666  0.33333333  0.37552899  1
  B  B10  1  0.66666666  0.33333333  0.62447098  1
  B  B11  1  0.66666666  0.33333333  0.87913898  1
