# generated using pymatgen
data_CsLiCIN
_symmetry_space_group_name_H-M   'P 1'
_cell_length_a   5.30984116
_cell_length_b   5.46316385
_cell_length_c   5.46316481
_cell_angle_alpha   60.00000763
_cell_angle_beta   90.00000000
_cell_angle_gamma   90.00000000
_symmetry_Int_Tables_number   1
_chemical_formula_structural   CsLiCIN
_chemical_formula_sum   'Cs1 Li1 C1 I1 N1'
_cell_volume   137.24632446
_cell_formula_units_Z   1
loop_
 _symmetry_equiv_pos_site_id
 _symmetry_equiv_pos_as_xyz
  1  'x, y, z'
loop_
 _atom_site_type_symbol
 _atom_site_label
 _atom_site_symmetry_multiplicity
 _atom_site_fract_x
 _atom_site_fract_y
 _atom_site_fract_z
 _atom_site_occupancy
  Cs  Cs0  1  0.72217198  0.33333334  0.33333336  1
  I  I1  1  0.27782799  0.66666668  0.66666671  1
  Li  Li2  1  0.00000000  0.00000000  0.00000000  1
  N  N3  1  0.38022299  0.00000000  0.00000000  1
  C  C4  1  0.61977698  0.00000000  -0.00000000  1
