# generated using pymatgen
data_Mg5NiO8
_symmetry_space_group_name_H-M   'P 1'
_cell_length_a   6.28929043
_cell_length_b   6.28928137
_cell_length_c   6.32061100
_cell_angle_alpha   60.43246078
_cell_angle_beta   60.43239594
_cell_angle_gamma   60.29589844
_symmetry_Int_Tables_number   1
_chemical_formula_structural   Mg5NiO8
_chemical_formula_sum   'Mg5 Ni1 O8'
_cell_volume   178.33187911
_cell_formula_units_Z   1
loop_
 _symmetry_equiv_pos_site_id
 _symmetry_equiv_pos_as_xyz
  1  'x, y, z'
loop_
 _atom_site_type_symbol
 _atom_site_label
 _atom_site_symmetry_multiplicity
 _atom_site_fract_x
 _atom_site_fract_y
 _atom_site_fract_z
 _atom_site_occupancy
  Mg  Mg0  1  0.49776799  0.49776599  0.50644001  1
  Mg  Mg1  1  0.14223700  0.14223500  0.57317300  1
  Mg  Mg2  1  0.49759900  0.00835700  0.99694499  1
  Mg  Mg3  1  0.00835499  0.49760299  0.99694400  1
  Ni  Ni4  1  0.85481299  0.85481198  0.43751203  1
  Mg  Mg5  1  0.49561199  0.49560899  0.99803600  1
  O  O6  1  0.26889100  0.26889100  0.19215001  1
  O  O7  1  0.72626499  0.72626299  0.82016602  1
  O  O8  1  0.26327300  0.26327400  0.72861700  1
  O  O9  1  0.26391798  0.74717399  0.72593802  1
  O  O10  1  0.74717500  0.26391600  0.72593900  1
  O  O11  1  0.25818898  0.73790699  0.26642802  1
  O  O12  1  0.73790800  0.25818800  0.26642901  1
  O  O13  1  0.73799599  0.73800099  0.26529002  1
