# generated using pymatgen
data_NaLaMg2O4
_symmetry_space_group_name_H-M   'P 1'
_cell_length_a   3.39053512
_cell_length_b   5.73763895
_cell_length_c   10.81983757
_cell_angle_alpha   90.00000000
_cell_angle_beta   90.00000000
_cell_angle_gamma   90.00000000
_symmetry_Int_Tables_number   1
_chemical_formula_structural   NaLaMg2O4
_chemical_formula_sum   'Na2 La2 Mg4 O8'
_cell_volume   210.48551000
_cell_formula_units_Z   2
loop_
 _symmetry_equiv_pos_site_id
 _symmetry_equiv_pos_as_xyz
  1  'x, y, z'
loop_
 _atom_site_type_symbol
 _atom_site_label
 _atom_site_symmetry_multiplicity
 _atom_site_fract_x
 _atom_site_fract_y
 _atom_site_fract_z
 _atom_site_occupancy
  Na  Na0  1  0.24999999  0.08532300  0.86320503  1
  La  La1  1  0.24999999  0.58532301  0.63679503  1
  Na  Na2  1  0.74999997  0.91467701  0.13679501  1
  La  La3  1  0.74999997  0.41467700  0.36320501  1
  Mg  Mg4  1  0.24999999  0.40334200  0.11060500  1
  Mg  Mg5  1  0.24999999  0.90334201  0.38939502  1
  Mg  Mg6  1  0.74999997  0.59665801  0.88939504  1
  Mg  Mg7  1  0.74999997  0.09665800  0.61060502  1
  O  O8  1  0.24999999  0.16050000  0.24725001  1
  O  O9  1  0.24999999  0.66050001  0.25275001  1
  O  O10  1  0.74999997  0.83950001  0.75275003  1
  O  O11  1  0.74999997  0.33950000  0.74725003  1
  O  O12  1  0.24999999  0.72179601  0.98442704  1
  O  O13  1  0.24999999  0.22179600  0.51557302  1
  O  O14  1  0.74999997  0.27820400  0.01557300  1
  O  O15  1  0.74999997  0.77820401  0.48442702  1
