# generated using pymatgen
data_CaSn2
_symmetry_space_group_name_H-M   'P 1'
_cell_length_a   3.48732400
_cell_length_b   6.76913452
_cell_length_c   7.90281248
_cell_angle_alpha   105.98160553
_cell_angle_beta   90.00000000
_cell_angle_gamma   104.92711639
_symmetry_Int_Tables_number   1
_chemical_formula_structural   CaSn2
_chemical_formula_sum   'Ca2 Sn4'
_cell_volume   172.78682551
_cell_formula_units_Z   2
loop_
 _symmetry_equiv_pos_site_id
 _symmetry_equiv_pos_as_xyz
  1  'x, y, z'
loop_
 _atom_site_type_symbol
 _atom_site_label
 _atom_site_symmetry_multiplicity
 _atom_site_fract_x
 _atom_site_fract_y
 _atom_site_fract_z
 _atom_site_occupancy
  Sn  Sn0  1  0.52873800  0.05747600  0.80294101  1
  Sn  Sn1  1  0.47126204  0.94252398  0.19705901  1
  Sn  Sn2  1  0.82355803  0.64711598  0.87311702  1
  Ca  Ca3  1  0.13316601  0.26633199  0.53181501  1
  Ca  Ca4  1  0.86683403  0.73366798  0.46818501  1
  Sn  Sn5  1  0.17644201  0.35288399  0.12688301  1
