# generated using pymatgen
data_Rb(CuS)2
_symmetry_space_group_name_H-M   'P 1'
_cell_length_a   3.79831004
_cell_length_b   3.79831004
_cell_length_c   8.17436600
_cell_angle_alpha   103.43431854
_cell_angle_beta   103.43431854
_cell_angle_gamma   90.00000000
_symmetry_Int_Tables_number   1
_chemical_formula_structural   Rb(CuS)2
_chemical_formula_sum   'Rb1 Cu2 S2'
_cell_volume   111.38540711
_cell_formula_units_Z   1
loop_
 _symmetry_equiv_pos_site_id
 _symmetry_equiv_pos_as_xyz
  1  'x, y, z'
loop_
 _atom_site_type_symbol
 _atom_site_label
 _atom_site_symmetry_multiplicity
 _atom_site_fract_x
 _atom_site_fract_y
 _atom_site_fract_z
 _atom_site_occupancy
  Rb  Rb0  1  0.00000000  0.00000000  0.00000000  1
  Cu  Cu1  1  0.74999998  0.24999999  0.49999997  1
  Cu  Cu2  1  0.24999998  0.74999998  0.49999997  1
  S  S3  1  0.66124997  0.66124999  0.32249997  1
  S  S4  1  0.33874999  0.33874999  0.67749997  1
