# generated using pymatgen
data_CeAl4Ni
_symmetry_space_group_name_H-M   'P 1'
_cell_length_a   4.11533594
_cell_length_b   6.55987501
_cell_length_c   7.90346670
_cell_angle_alpha   90.00000000
_cell_angle_beta   105.09083557
_cell_angle_gamma   90.00000000
_symmetry_Int_Tables_number   1
_chemical_formula_structural   CeAl4Ni
_chemical_formula_sum   'Ce2 Al8 Ni2'
_cell_volume   206.00472887
_cell_formula_units_Z   2
loop_
 _symmetry_equiv_pos_site_id
 _symmetry_equiv_pos_as_xyz
  1  'x, y, z'
loop_
 _atom_site_type_symbol
 _atom_site_label
 _atom_site_symmetry_multiplicity
 _atom_site_fract_x
 _atom_site_fract_y
 _atom_site_fract_z
 _atom_site_occupancy
  Ce  Ce0  1  0.38179301  0.75000000  0.76358600  1
  Ce  Ce1  1  0.61820701  0.25000000  0.23641401  1
  Al  Al2  1  0.00000000  0.00000000  0.00000000  1
  Al  Al3  1  0.00000000  0.50000000  -0.00000000  1
  Al  Al4  1  0.57177701  0.75000000  0.14355401  1
  Al  Al5  1  0.42822301  0.25000000  0.85644600  1
  Al  Al6  1  0.18631100  0.94855400  0.37262200  1
  Al  Al7  1  0.81368902  0.05144600  0.62737801  1
  Al  Al8  1  0.18631100  0.55144600  0.37262200  1
  Al  Al9  1  0.81368902  0.44855400  0.62737801  1
  Ni  Ni10  1  0.72477201  0.75000000  0.44954401  1
  Ni  Ni11  1  0.27522801  0.25000000  0.55045600  1
