# generated using pymatgen
data_Na12P3F
_symmetry_space_group_name_H-M   'P 1'
_cell_length_a   6.59950113
_cell_length_b   7.66227579
_cell_length_c   9.81325436
_cell_angle_alpha   90.00000000
_cell_angle_beta   90.00000000
_cell_angle_gamma   90.00000000
_symmetry_Int_Tables_number   1
_chemical_formula_structural   Na12P3F
_chemical_formula_sum   'Na12 P3 F1'
_cell_volume   496.22877376
_cell_formula_units_Z   1
loop_
 _symmetry_equiv_pos_site_id
 _symmetry_equiv_pos_as_xyz
  1  'x, y, z'
loop_
 _atom_site_type_symbol
 _atom_site_label
 _atom_site_symmetry_multiplicity
 _atom_site_fract_x
 _atom_site_fract_y
 _atom_site_fract_z
 _atom_site_occupancy
  Na  Na0  1  0.33750999  0.67221302  0.06548400  1
  Na  Na1  1  0.16249000  0.17221300  0.43451598  1
  Na  Na2  1  0.66248999  0.32778701  0.56548398  1
  Na  Na3  1  0.83750998  0.82778702  0.93451597  1
  Na  Na4  1  0.66248999  0.32778701  0.93451597  1
  Na  Na5  1  0.83750998  0.82778702  0.56548398  1
  Na  Na6  1  0.33750999  0.67221302  0.43451598  1
  Na  Na7  1  0.16249000  0.17221300  0.06548400  1
  Na  Na8  1  0.86181398  0.53898901  0.24999999  1
  Na  Na9  1  0.63818599  0.03898900  0.24999999  1
  F  F10  1  0.13818600  0.46101101  0.74999997  1
  Na  Na11  1  0.36181399  0.96101103  0.74999997  1
  P  P12  1  0.05114900  0.87954902  0.24999999  1
  P  P13  1  0.44885099  0.37954901  0.24999999  1
  P  P14  1  0.94885098  0.12045100  0.74999997  1
  Na  Na15  1  0.55114899  0.62045102  0.74999997  1
