# generated using pymatgen
data_Sm3Ga5
_symmetry_space_group_name_H-M   'P 1'
_cell_length_a   6.00892210
_cell_length_b   7.71891642
_cell_length_c   9.52897358
_cell_angle_alpha   82.95064545
_cell_angle_beta   71.62123108
_cell_angle_gamma   67.09318542
_symmetry_Int_Tables_number   1
_chemical_formula_structural   Sm3Ga5
_chemical_formula_sum   'Sm6 Ga10'
_cell_volume   386.35561552
_cell_formula_units_Z   2
loop_
 _symmetry_equiv_pos_site_id
 _symmetry_equiv_pos_as_xyz
  1  'x, y, z'
loop_
 _atom_site_type_symbol
 _atom_site_label
 _atom_site_symmetry_multiplicity
 _atom_site_fract_x
 _atom_site_fract_y
 _atom_site_fract_z
 _atom_site_occupancy
  Sm  Sm0  1  0.65644997  0.38198601  0.83518302  1
  Sm  Sm1  1  0.96156396  0.38198601  0.16481704  1
  Sm  Sm2  1  0.24163297  0.88198602  0.66481703  1
  Sm  Sm3  1  0.87638095  0.88198602  0.33518306  1
  Sm  Sm4  1  0.55213096  0.89573802  0.00000006  1
  Sm  Sm5  1  0.30213098  0.39573801  0.50000002  1
  Ga  Ga6  1  0.80106096  0.72512701  0.67447904  1
  Ga  Ga7  1  0.47381097  0.72512701  0.32552204  1
  Ga  Ga8  1  0.22554099  0.22512600  0.82552100  1
  Ga  Ga9  1  0.54933398  0.22512600  0.17447802  1
  Ga  Ga10  1  0.22134299  0.08264100  0.36517000  1
  Ga  Ga11  1  0.69601598  0.08264100  0.63483001  1
  Ga  Ga12  1  0.33651298  0.58264101  0.13483004  1
  Ga  Ga13  1  0.08084598  0.58264101  0.86517001  1
  Ga  Ga14  1  0.99612197  0.00775600  0.00000003  1
  Ga  Ga15  1  0.74612196  0.50775601  0.50000004  1
