# generated using pymatgen
data_SrMnO3
_symmetry_space_group_name_H-M   'P 1'
_cell_length_a   5.53927660
_cell_length_b   5.53937006
_cell_length_c   7.74065304
_cell_angle_alpha   89.99644470
_cell_angle_beta   89.99417877
_cell_angle_gamma   90.03543091
_symmetry_Int_Tables_number   1
_chemical_formula_structural   SrMnO3
_chemical_formula_sum   'Sr4 Mn4 O12'
_cell_volume   237.51494763
_cell_formula_units_Z   4
loop_
 _symmetry_equiv_pos_site_id
 _symmetry_equiv_pos_as_xyz
  1  'x, y, z'
loop_
 _atom_site_type_symbol
 _atom_site_label
 _atom_site_symmetry_multiplicity
 _atom_site_fract_x
 _atom_site_fract_y
 _atom_site_fract_z
 _atom_site_occupancy
  Sr  Sr0  1  0.50000306  0.99999801  0.74659296  1
  Sr  Sr1  1  0.00000202  0.49999001  0.25340898  1
  Sr  Sr2  1  0.49999702  0.00000300  0.25340800  1
  Sr  Sr3  1  0.99999806  0.50000701  0.74659198  1
  Mn  Mn4  1  0.00000600  0.00000300  0.99998800  1
  Mn  Mn5  1  0.50000104  0.50001001  0.49999898  1
  Mn  Mn6  1  0.49999804  0.49999701  -0.00000002  1
  Mn  Mn7  1  0.99999804  0.00000200  0.49999400  1
  O  O8  1  0.00000304  0.99998501  0.73372196  1
  O  O9  1  0.50001904  0.50001201  0.24910298  1
  O  O10  1  0.25017602  0.25017700  0.49998799  1
  O  O11  1  0.75153006  0.75153601  0.00001097  1
  O  O12  1  0.25026404  0.74973101  0.50000697  1
  O  O13  1  0.75175104  0.24824000  0.99999899  1
  O  O14  1  0.99999804  0.00001200  0.26628100  1
  O  O15  1  0.49998204  0.49998701  0.75089898  1
  O  O16  1  0.74982706  0.74982501  0.50001497  1
  O  O17  1  0.24846802  0.24846100  0.99999499  1
  O  O18  1  0.74973204  0.25026700  0.49999699  1
  O  O19  1  0.24824704  0.75175701  -0.00000003  1
