# generated using pymatgen
data_WCl3O
_symmetry_space_group_name_H-M   'P 1'
_cell_length_a   4.00107193
_cell_length_b   11.50113487
_cell_length_c   11.50113487
_cell_angle_alpha   90.00000000
_cell_angle_beta   90.00000000
_cell_angle_gamma   90.00000000
_symmetry_Int_Tables_number   1
_chemical_formula_structural   WCl3O
_chemical_formula_sum   'W4 Cl12 O4'
_cell_volume   529.24620413
_cell_formula_units_Z   4
loop_
 _symmetry_equiv_pos_site_id
 _symmetry_equiv_pos_as_xyz
  1  'x, y, z'
loop_
 _atom_site_type_symbol
 _atom_site_label
 _atom_site_symmetry_multiplicity
 _atom_site_fract_x
 _atom_site_fract_y
 _atom_site_fract_z
 _atom_site_occupancy
  W  W0  1  0.69556601  0.62300801  0.87699201  1
  W  W1  1  0.30443401  0.12300800  0.62300801  1
  W  W2  1  0.69556601  0.37699200  0.12300800  1
  W  W3  1  0.30443401  0.87699201  0.37699200  1
  Cl  Cl4  1  0.23776000  0.09835800  0.40164200  1
  Cl  Cl5  1  0.75489101  0.82066501  0.89959801  1
  Cl  Cl6  1  0.75489101  0.17933500  0.10040200  1
  Cl  Cl7  1  0.76224001  0.40164200  0.90164201  1
  Cl  Cl8  1  0.23776000  0.90164201  0.59835801  1
  Cl  Cl9  1  0.75489101  0.60040201  0.67933501  1
  Cl  Cl10  1  0.75489101  0.39959800  0.32066500  1
  Cl  Cl11  1  0.24510900  0.89959801  0.17933500  1
  Cl  Cl12  1  0.76224001  0.59835801  0.09835800  1
  Cl  Cl13  1  0.24510900  0.67933501  0.39959800  1
  Cl  Cl14  1  0.24510900  0.32066500  0.60040201  1
  Cl  Cl15  1  0.24510900  0.10040200  0.82066501  1
  O  O16  1  0.75234701  0.11481800  0.61481801  1
  O  O17  1  0.24765300  0.61481801  0.88518201  1
  O  O18  1  0.24765300  0.38518200  0.11481800  1
  O  O19  1  0.75234701  0.88518201  0.38518200  1
