# generated using pymatgen
data_Zr3(AlSi2)2
_symmetry_space_group_name_H-M   'P 1'
_cell_length_a   4.11469984
_cell_length_b   5.33741045
_cell_length_c   14.91196442
_cell_angle_alpha   99.45704651
_cell_angle_beta   90.00000000
_cell_angle_gamma   112.67220306
_symmetry_Int_Tables_number   1
_chemical_formula_structural   Zr3(AlSi2)2
_chemical_formula_sum   'Zr6 Al4 Si8'
_cell_volume   297.35763799
_cell_formula_units_Z   2
loop_
 _symmetry_equiv_pos_site_id
 _symmetry_equiv_pos_as_xyz
  1  'x, y, z'
loop_
 _atom_site_type_symbol
 _atom_site_label
 _atom_site_symmetry_multiplicity
 _atom_site_fract_x
 _atom_site_fract_y
 _atom_site_fract_z
 _atom_site_occupancy
  Zr  Zr0  1  0.38827899  0.77655902  0.07050099  1
  Zr  Zr1  1  0.05556100  0.11112000  0.40053099  1
  Zr  Zr2  1  0.72303602  0.44607301  0.73384798  1
  Zr  Zr3  1  0.27979700  0.55959301  0.26220199  1
  Zr  Zr4  1  0.94678501  0.89357202  0.59733698  1
  Zr  Zr5  1  0.61344102  0.22688000  0.93031797  1
  Si  Si6  1  0.61219602  0.22439100  0.53778798  1
  Si  Si7  1  0.27923200  0.55846401  0.87263897  1
  Si  Si8  1  0.09860000  0.19720000  0.07276200  1
  Al  Al9  1  0.76656102  0.53312201  0.40089499  1
  Al  Al10  1  0.43528199  0.87056302  0.73625598  1
  Si  Si11  1  0.56866702  0.13733600  0.26279699  1
  Al  Al12  1  0.24208400  0.48416701  0.59901598  1
  Al  Al13  1  0.90958501  0.81917002  0.93279997  1
  Si  Si14  1  0.71133002  0.42265901  0.12925099  1
  Si  Si15  1  0.37352799  0.74705702  0.46103398  1
  Si  Si16  1  0.04049600  0.08099100  0.79538998  1
  Si  Si17  1  0.95554101  0.91108402  0.20463599  1
