# generated using pymatgen
data_Ce10(SnPt2)3
_symmetry_space_group_name_H-M   'P 1'
_cell_length_a   8.81456280
_cell_length_b   8.81456280
_cell_length_c   8.81456280
_cell_angle_alpha   109.47122192
_cell_angle_beta   109.47122192
_cell_angle_gamma   109.47122192
_symmetry_Int_Tables_number   1
_chemical_formula_structural   Ce10(SnPt2)3
_chemical_formula_sum   'Ce10 Sn3 Pt6'
_cell_volume   527.20608834
_cell_formula_units_Z   1
loop_
 _symmetry_equiv_pos_site_id
 _symmetry_equiv_pos_as_xyz
  1  'x, y, z'
loop_
 _atom_site_type_symbol
 _atom_site_label
 _atom_site_symmetry_multiplicity
 _atom_site_fract_x
 _atom_site_fract_y
 _atom_site_fract_z
 _atom_site_occupancy
  Ce  Ce0  1  0.49473500  0.18546700  0.30926801  1
  Ce  Ce1  1  0.50526504  0.81453300  0.69073203  1
  Ce  Ce2  1  0.12380105  0.81453300  0.30926804  1
  Ce  Ce3  1  0.87619898  0.18546700  0.69073200  1
  Sn  Sn4  1  0.18546704  0.69073200  0.87619901  1
  Ce  Ce5  1  0.81453299  0.30926800  0.12380103  1
  Ce  Ce6  1  0.81453302  0.69073200  0.50526504  1
  Ce  Ce7  1  0.18546701  0.30926800  0.49473500  1
  Sn  Sn8  1  0.30926800  0.12380100  0.81453298  1
  Ce  Ce9  1  0.69073203  0.87619900  0.18546706  1
  Ce  Ce10  1  0.69073201  0.50526500  0.81453301  1
  Ce  Ce11  1  0.30926802  0.49473500  0.18546703  1
  Pt  Pt12  1  0.50000004  0.88021300  0.38021305  1
  Pt  Pt13  1  0.49999999  0.11978700  0.61978699  1
  Pt  Pt14  1  0.11978704  0.61978700  0.50000002  1
  Pt  Pt15  1  0.88021300  0.38021300  0.50000002  1
  Pt  Pt16  1  0.61978701  0.50000000  0.11978704  1
  Pt  Pt17  1  0.38021302  0.50000000  0.88021300  1
  Sn  Sn18  1  0.00000000  0.00000000  0.00000000  1
