# generated using pymatgen
data_Ce(GePd)2
_symmetry_space_group_name_H-M   'P 1'
_cell_length_a   4.21806622
_cell_length_b   4.21806622
_cell_length_c   5.82775450
_cell_angle_alpha   111.21659851
_cell_angle_beta   111.21659851
_cell_angle_gamma   90.00000000
_symmetry_Int_Tables_number   1
_chemical_formula_structural   Ce(GePd)2
_chemical_formula_sum   'Ce1 Ge2 Pd2'
_cell_volume   89.07897289
_cell_formula_units_Z   1
loop_
 _symmetry_equiv_pos_site_id
 _symmetry_equiv_pos_as_xyz
  1  'x, y, z'
loop_
 _atom_site_type_symbol
 _atom_site_label
 _atom_site_symmetry_multiplicity
 _atom_site_fract_x
 _atom_site_fract_y
 _atom_site_fract_z
 _atom_site_occupancy
  Ce  Ce0  1  0.00000000  0.00000000  0.00000000  1
  Ge  Ge1  1  0.38656000  0.38655999  0.77312006  1
  Ge  Ge2  1  0.61344000  0.61343998  0.22688006  1
  Pd  Pd3  1  0.74999998  0.24999999  0.50000005  1
  Pd  Pd4  1  0.25000002  0.74999998  0.50000006  1
