# generated using pymatgen
data_In5S9
_symmetry_space_group_name_H-M   'P 1'
_cell_length_a   4.24630308
_cell_length_b   6.13005495
_cell_length_c   17.09165382
_cell_angle_alpha   90.00000000
_cell_angle_beta   90.00000000
_cell_angle_gamma   90.00000000
_symmetry_Int_Tables_number   1
_chemical_formula_structural   In5S9
_chemical_formula_sum   'In5 S9'
_cell_volume   444.89696642
_cell_formula_units_Z   1
loop_
 _symmetry_equiv_pos_site_id
 _symmetry_equiv_pos_as_xyz
  1  'x, y, z'
loop_
 _atom_site_type_symbol
 _atom_site_label
 _atom_site_symmetry_multiplicity
 _atom_site_fract_x
 _atom_site_fract_y
 _atom_site_fract_z
 _atom_site_occupancy
  In  In0  1  0.49999999  0.49223000  0.93391895  1
  S  S1  1  0.00000000  0.99223001  0.06608100  1
  S  S2  1  0.00000000  0.99754701  0.30580399  1
  In  In3  1  0.49999999  0.49046400  0.43676698  1
  In  In4  1  0.00000000  0.99046401  0.56323297  1
  In  In5  1  0.49999999  0.49754700  0.69419597  1
  S  S6  1  0.00000000  0.74862901  0.43434798  1
  S  S7  1  0.49999999  0.24862900  0.56565197  1
  S  S8  1  0.49999999  0.24406400  0.81336496  1
  S  S9  1  0.00000000  0.76116601  0.93394895  1
  S  S10  1  0.49999999  0.26116600  0.06605100  1
  In  In11  1  0.00000000  0.74406401  0.18663499  1
  S  S12  1  0.49999999  0.26590000  0.30449999  1
  S  S13  1  0.00000000  0.76590001  0.69549997  1
