# generated using pymatgen
data_K2NaSeO4
_symmetry_space_group_name_H-M   'P 1'
_cell_length_a   6.07124186
_cell_length_b   6.08634806
_cell_length_c   7.97168112
_cell_angle_alpha   90.00000000
_cell_angle_beta   87.16797638
_cell_angle_gamma   90.00000000
_symmetry_Int_Tables_number   1
_chemical_formula_structural   K2NaSeO4
_chemical_formula_sum   'K4 Na2 Se2 O8'
_cell_volume   294.20733681
_cell_formula_units_Z   2
loop_
 _symmetry_equiv_pos_site_id
 _symmetry_equiv_pos_as_xyz
  1  'x, y, z'
loop_
 _atom_site_type_symbol
 _atom_site_label
 _atom_site_symmetry_multiplicity
 _atom_site_fract_x
 _atom_site_fract_y
 _atom_site_fract_z
 _atom_site_occupancy
  K  K0  1  0.88242802  0.25000000  0.17260600  1
  K  K1  1  0.11757200  0.74999999  0.82739399  1
  K  K2  1  0.69500402  0.74999999  0.51607000  1
  K  K3  1  0.30499601  0.25000000  0.48392999  1
  Na  Na4  1  0.38376901  0.25000000  0.96578099  1
  Na  Na5  1  0.61623101  0.74999999  0.03421900  1
  Se  Se6  1  0.19488400  0.74999999  0.25542200  1
  Se  Se7  1  0.80511602  0.25000000  0.74457799  1
  O  O8  1  0.66938402  0.47729500  0.82917199  1
  O  O9  1  0.33061601  0.97729499  0.17082900  1
  O  O10  1  0.33061601  0.52270500  0.17082900  1
  O  O11  1  0.66938402  0.02270500  0.82917199  1
  O  O12  1  0.79598702  0.25000000  0.53022700  1
  O  O13  1  0.07299000  0.25000000  0.80769999  1
  O  O14  1  0.20401300  0.74999999  0.46977299  1
  O  O15  1  0.92701002  0.74999999  0.19230000  1
