# generated using pymatgen
data_LaPb
_symmetry_space_group_name_H-M   'P 1'
_cell_length_a   4.70617819
_cell_length_b   4.74316978
_cell_length_c   17.98140717
_cell_angle_alpha   90.00000000
_cell_angle_beta   97.51942444
_cell_angle_gamma   90.00000000
_symmetry_Int_Tables_number   1
_chemical_formula_structural   LaPb
_chemical_formula_sum   'La7 Pb7'
_cell_volume   397.93292079
_cell_formula_units_Z   7
loop_
 _symmetry_equiv_pos_site_id
 _symmetry_equiv_pos_as_xyz
  1  'x, y, z'
loop_
 _atom_site_type_symbol
 _atom_site_label
 _atom_site_symmetry_multiplicity
 _atom_site_fract_x
 _atom_site_fract_y
 _atom_site_fract_z
 _atom_site_occupancy
  La  La0  1  0.29720499  0.00000000  0.59440997  1
  Pb  Pb1  1  0.70279497  0.00000000  0.40558997  1
  La  La2  1  0.43215298  0.00000000  0.86430595  1
  Pb  Pb3  1  0.56784697  0.00000000  0.13569399  1
  Pb  Pb4  1  0.22119999  0.50000002  0.44239997  1
  La  La5  1  0.77879996  0.50000002  0.55759996  1
  La  La6  1  0.13794899  0.00000000  0.27589798  1
  Pb  Pb7  1  0.86205096  0.00000000  0.72410195  1
  Pb  Pb8  1  0.36203898  0.50000002  0.72407796  1
  La  La9  1  0.63796097  0.50000002  0.27592198  1
  Pb  Pb10  1  0.07170300  0.50000002  0.14340599  1
  Pb  Pb11  1  0.92829696  0.50000002  0.85659395  1
  La  La12  1  0.00000000  0.00000000  0.00000000  1
  La  La13  1  0.49999998  0.50000002  -0.00000001  1
