# generated using pymatgen
data_Sr5As7Pt3
_symmetry_space_group_name_H-M   'P 1'
_cell_length_a   4.20654202
_cell_length_b   4.20654202
_cell_length_c   21.78218079
_cell_angle_alpha   90.00000000
_cell_angle_beta   90.00000000
_cell_angle_gamma   120.00000000
_symmetry_Int_Tables_number   1
_chemical_formula_structural   Sr5As7Pt3
_chemical_formula_sum   'Sr5 As7 Pt3'
_cell_volume   333.79701756
_cell_formula_units_Z   1
loop_
 _symmetry_equiv_pos_site_id
 _symmetry_equiv_pos_as_xyz
  1  'x, y, z'
loop_
 _atom_site_type_symbol
 _atom_site_label
 _atom_site_symmetry_multiplicity
 _atom_site_fract_x
 _atom_site_fract_y
 _atom_site_fract_z
 _atom_site_occupancy
  Sr  Sr0  1  0.00000000  0.00000000  0.30097599  1
  Sr  Sr1  1  0.00000000  0.00000000  0.69902397  1
  Sr  Sr2  1  0.00000000  0.00000000  0.90122997  1
  Sr  Sr3  1  0.00000000  0.00000000  0.09877000  1
  Sr  Sr4  1  0.00000000  0.00000000  0.49999998  1
  Pt  Pt5  1  0.66666665  0.33333331  0.41196399  1
  As  As6  1  0.66666665  0.33333331  0.58803598  1
  As  As7  1  0.33333331  0.66666662  0.80895697  1
  As  As8  1  0.33333331  0.66666662  0.99999996  1
  Pt  Pt9  1  0.33333331  0.66666662  0.19104299  1
  Pt  Pt10  1  0.33333331  0.66666662  0.60629298  1
  As  As11  1  0.66666665  0.33333331  0.79270597  1
  As  As12  1  0.66666665  0.33333331  0.20729399  1
  As  As13  1  0.33333331  0.66666662  0.39370699  1
  As  As14  1  0.66666665  0.33333331  -0.00000000  1
