# generated using pymatgen
data_SiAg2GeTe3Se
_symmetry_space_group_name_H-M   'P 1'
_cell_length_a   5.58812809
_cell_length_b   5.94227743
_cell_length_c   7.01485634
_cell_angle_alpha   113.49262238
_cell_angle_beta   113.47236633
_cell_angle_gamma   90.00000000
_symmetry_Int_Tables_number   1
_chemical_formula_structural   SiAg2GeTe3Se
_chemical_formula_sum   'Si1 Ag2 Ge1 Te3 Se1'
_cell_volume   192.42961698
_cell_formula_units_Z   1
loop_
 _symmetry_equiv_pos_site_id
 _symmetry_equiv_pos_as_xyz
  1  'x, y, z'
loop_
 _atom_site_type_symbol
 _atom_site_label
 _atom_site_symmetry_multiplicity
 _atom_site_fract_x
 _atom_site_fract_y
 _atom_site_fract_z
 _atom_site_occupancy
  Ag  Ag0  1  0.37367201  0.13544401  0.74734401  1
  Ag  Ag1  1  0.62632806  0.86455606  0.25265609  1
  Si  Si2  1  0.13137403  0.41056003  0.26274803  1
  Ge  Ge3  1  0.86862605  0.58944004  0.73725207  1
  Se  Se4  1  0.88170102  0.19012401  0.76340204  1
  Te  Te5  1  0.36265705  0.63244604  0.72531405  1
  Te  Te6  1  0.11829905  0.80987605  0.23659806  1
  Te  Te7  1  0.63734303  0.36755402  0.27468605  1
