# generated using pymatgen
data_Na3V4O12
_symmetry_space_group_name_H-M   'P 1'
_cell_length_a   4.96519184
_cell_length_b   7.41288805
_cell_length_c   8.21101284
_cell_angle_alpha   65.75575256
_cell_angle_beta   86.14015198
_cell_angle_gamma   76.33199310
_symmetry_Int_Tables_number   1
_chemical_formula_structural   Na3V4O12
_chemical_formula_sum   'Na3 V4 O12'
_cell_volume   267.60904553
_cell_formula_units_Z   1
loop_
 _symmetry_equiv_pos_site_id
 _symmetry_equiv_pos_as_xyz
  1  'x, y, z'
loop_
 _atom_site_type_symbol
 _atom_site_label
 _atom_site_symmetry_multiplicity
 _atom_site_fract_x
 _atom_site_fract_y
 _atom_site_fract_z
 _atom_site_occupancy
  Na  Na0  1  0.03979799  0.76878501  0.45558298  1
  Na  Na1  1  0.96020202  0.23121500  0.54441703  1
  Na  Na2  1  0.00000000  0.00000000  0.00000000  1
  V  V3  1  0.57575800  0.61885201  0.20034100  1
  V  V4  1  0.42424200  0.38114800  0.79965901  1
  V  V5  1  0.45747401  0.17401300  0.21436901  1
  V  V6  1  0.54252600  0.82598701  0.78563100  1
  O  O7  1  0.24603999  0.78166201  0.18441999  1
  O  O8  1  0.75396002  0.21833800  0.81558003  1
  O  O9  1  0.25979700  0.29821800  0.00797000  1
  O  O10  1  0.74020301  0.70178201  0.99203001  1
  O  O11  1  0.22981800  0.41812500  0.61525700  1
  O  O12  1  0.77018201  0.58187501  0.38474301  1
  O  O13  1  0.24349099  0.99841501  0.80748098  1
  O  O14  1  0.75650902  0.00158500  0.19251903  1
  O  O15  1  0.57048001  0.35326000  0.27381301  1
  O  O16  1  0.42952000  0.64674001  0.72618700  1
  O  O17  1  0.23844101  0.06452900  0.38249801  1
  O  O18  1  0.76155900  0.93547101  0.61750200  1
