# generated using pymatgen
data_In2Se3
_symmetry_space_group_name_H-M   'P 1'
_cell_length_a   6.69240093
_cell_length_b   6.69240093
_cell_length_c   12.20825863
_cell_angle_alpha   100.67008209
_cell_angle_beta   100.67008209
_cell_angle_gamma   108.93449402
_symmetry_Int_Tables_number   1
_chemical_formula_structural   In2Se3
_chemical_formula_sum   'In8 Se12'
_cell_volume   490.25012704
_cell_formula_units_Z   4
loop_
 _symmetry_equiv_pos_site_id
 _symmetry_equiv_pos_as_xyz
  1  'x, y, z'
loop_
 _atom_site_type_symbol
 _atom_site_label
 _atom_site_symmetry_multiplicity
 _atom_site_fract_x
 _atom_site_fract_y
 _atom_site_fract_z
 _atom_site_occupancy
  In  In0  1  0.33316400  0.83316400  0.66632796  1
  In  In1  1  0.16683600  0.66683600  0.33367198  1
  In  In2  1  0.91683600  0.91683600  0.83367195  1
  In  In3  1  0.08316400  0.08316400  0.16632799  1
  In  In4  1  0.99791600  0.49791600  0.99583195  1
  In  In5  1  0.50208400  0.00208400  0.00416799  1
  In  In6  1  0.25208400  0.25208400  0.50416798  1
  In  In7  1  0.74791600  0.74791600  0.49583196  1
  Se  Se8  1  0.00532200  0.50532200  0.49999998  1
  Se  Se9  1  0.49467800  0.99467800  0.49999996  1
  Se  Se10  1  0.24467800  0.24467800  -0.00000001  1
  Se  Se11  1  0.75532200  0.75532200  0.99999995  1
  Se  Se12  1  0.66400700  0.16017900  0.83724296  1
  Se  Se13  1  0.83982100  0.33599300  0.16275697  1
  Se  Se14  1  0.32293600  0.82676400  0.16275697  1
  Se  Se15  1  0.17323600  0.67706400  0.83724296  1
  Se  Se16  1  0.58599300  0.58982100  0.66275696  1
  Se  Se17  1  0.41017900  0.41400700  0.33724298  1
  Se  Se18  1  0.92706400  0.92323600  0.33724296  1
  Se  Se19  1  0.07676400  0.07293600  0.66275698  1
