# generated using pymatgen
data_NaNbSO2
_symmetry_space_group_name_H-M   'P 1'
_cell_length_a   3.57780099
_cell_length_b   3.66996408
_cell_length_c   6.68620110
_cell_angle_alpha   74.07116699
_cell_angle_beta   74.48140717
_cell_angle_gamma   90.00000000
_symmetry_Int_Tables_number   1
_chemical_formula_structural   NaNbSO2
_chemical_formula_sum   'Na1 Nb1 S1 O2'
_cell_volume   81.08802649
_cell_formula_units_Z   1
loop_
 _symmetry_equiv_pos_site_id
 _symmetry_equiv_pos_as_xyz
  1  'x, y, z'
loop_
 _atom_site_type_symbol
 _atom_site_label
 _atom_site_symmetry_multiplicity
 _atom_site_fract_x
 _atom_site_fract_y
 _atom_site_fract_z
 _atom_site_occupancy
  O  O0  1  0.85166202  0.35166400  0.79667397  1
  S  S1  1  0.14833801  0.64833599  0.20332598  1
  O  O2  1  0.50000001  0.00000000  0.49999998  1
  Na  Na3  1  0.35000402  0.85000399  0.79999197  1
  Nb  Nb4  1  0.64999601  0.14999600  0.20000798  1
