# generated using pymatgen
data_Nb7S8
_symmetry_space_group_name_H-M   'P 1'
_cell_length_a   3.38033795
_cell_length_b   9.71146393
_cell_length_c   9.71146488
_cell_angle_alpha   120.00000000
_cell_angle_beta   90.00000000
_cell_angle_gamma   90.00000000
_symmetry_Int_Tables_number   1
_chemical_formula_structural   Nb7S8
_chemical_formula_sum   'Nb7 S8'
_cell_volume   276.09605337
_cell_formula_units_Z   1
loop_
 _symmetry_equiv_pos_site_id
 _symmetry_equiv_pos_as_xyz
  1  'x, y, z'
loop_
 _atom_site_type_symbol
 _atom_site_label
 _atom_site_symmetry_multiplicity
 _atom_site_fract_x
 _atom_site_fract_y
 _atom_site_fract_z
 _atom_site_occupancy
  Nb  Nb0  1  0.75010701  0.88626602  0.51371600  1
  Nb  Nb1  1  0.75010701  0.48628401  0.37255000  1
  Nb  Nb2  1  0.75010701  0.62745001  0.11373401  1
  Nb  Nb3  1  0.24989300  0.11373400  0.48628398  1
  Nb  Nb4  1  0.24989300  0.51371601  0.62744998  1
  Nb  Nb5  1  0.24989300  0.37255001  0.88626597  1
  Nb  Nb6  1  0.50000001  0.00000000  -0.00000000  1
  S  S7  1  0.75006001  0.33333334  0.66666664  1
  S  S8  1  0.24994000  0.66666668  0.33333334  1
  S  S9  1  0.74966401  0.71265702  0.65607799  1
  S  S10  1  0.74966401  0.34392101  0.05657801  1
  S  S11  1  0.74966401  0.94342102  0.28734201  1
  S  S12  1  0.25033600  0.28734301  0.34392199  1
  S  S13  1  0.25033600  0.65607901  0.94342197  1
  S  S14  1  0.25033600  0.05657900  0.71265797  1
