# generated using pymatgen
data_Eu(MgGe)2
_symmetry_space_group_name_H-M   'P 1'
_cell_length_a   4.30769777
_cell_length_b   4.30769777
_cell_length_c   5.84463596
_cell_angle_alpha   90.00000000
_cell_angle_beta   90.00000000
_cell_angle_gamma   90.00000000
_symmetry_Int_Tables_number   1
_chemical_formula_structural   Eu(MgGe)2
_chemical_formula_sum   'Eu1 Mg2 Ge2'
_cell_volume   108.45458515
_cell_formula_units_Z   1
loop_
 _symmetry_equiv_pos_site_id
 _symmetry_equiv_pos_as_xyz
  1  'x, y, z'
loop_
 _atom_site_type_symbol
 _atom_site_label
 _atom_site_symmetry_multiplicity
 _atom_site_fract_x
 _atom_site_fract_y
 _atom_site_fract_z
 _atom_site_occupancy
  Eu  Eu0  1  0.00000000  0.00000000  0.00000000  1
  Mg  Mg1  1  0.00000000  0.50000003  0.50000000  1
  Mg  Mg2  1  0.50000003  0.00000000  0.50000000  1
  Ge  Ge3  1  0.50000003  0.50000003  0.19795100  1
  Ge  Ge4  1  0.50000003  0.50000003  0.80204901  1
