# generated using pymatgen
data_Rb3ZnF6
_symmetry_space_group_name_H-M   'P 1'
_cell_length_a   6.07279587
_cell_length_b   6.11469173
_cell_length_c   6.07279587
_cell_angle_alpha   60.22639084
_cell_angle_beta   90.00000000
_cell_angle_gamma   119.77360535
_symmetry_Int_Tables_number   1
_chemical_formula_structural   Rb3ZnF6
_chemical_formula_sum   'Rb3 Zn1 F6'
_cell_volume   160.53964726
_cell_formula_units_Z   1
loop_
 _symmetry_equiv_pos_site_id
 _symmetry_equiv_pos_as_xyz
  1  'x, y, z'
loop_
 _atom_site_type_symbol
 _atom_site_label
 _atom_site_symmetry_multiplicity
 _atom_site_fract_x
 _atom_site_fract_y
 _atom_site_fract_z
 _atom_site_occupancy
  Rb  Rb0  1  0.24999999  0.49999999  0.24999999  1
  Rb  Rb1  1  0.75000000  0.49999999  0.75000000  1
  Rb  Rb2  1  0.00000000  0.00000000  0.00000000  1
  Zn  Zn3  1  0.49999998  0.99999998  0.49999999  1
  F  F4  1  0.77425602  0.00000000  0.69099502  1
  F  F5  1  0.69099498  0.99999898  0.22574498  1
  F  F6  1  0.30900501  0.00000100  0.77425502  1
  F  F7  1  0.22574397  0.99999998  0.30900498  1
  F  F8  1  0.26665899  0.53331799  0.73334100  1
  F  F9  1  0.73334100  0.46668199  0.26665899  1
