# generated using pymatgen
data_BeCrF6
_symmetry_space_group_name_H-M   'P 1'
_cell_length_a   4.46881723
_cell_length_b   4.46881723
_cell_length_c   4.71612835
_cell_angle_alpha   61.72002792
_cell_angle_beta   61.72002792
_cell_angle_gamma   60.00000763
_symmetry_Int_Tables_number   1
_chemical_formula_structural   BeCrF6
_chemical_formula_sum   'Be1 Cr1 F6'
_cell_volume   68.27637636
_cell_formula_units_Z   1
loop_
 _symmetry_equiv_pos_site_id
 _symmetry_equiv_pos_as_xyz
  1  'x, y, z'
loop_
 _atom_site_type_symbol
 _atom_site_label
 _atom_site_symmetry_multiplicity
 _atom_site_fract_x
 _atom_site_fract_y
 _atom_site_fract_z
 _atom_site_occupancy
  Cr  Cr0  1  0.50000002  0.50000003  0.49999998  1
  Be  Be1  1  0.00000000  0.00000000  0.00000000  1
  F  F2  1  0.37859201  0.75000004  0.74999998  1
  F  F3  1  0.75000004  0.12140801  0.74999997  1
  F  F4  1  0.87859204  0.62140803  0.24999999  1
  F  F5  1  0.25000000  0.87859205  0.24999999  1
  F  F6  1  0.62140803  0.25000001  0.24999999  1
  F  F7  1  0.12140800  0.37859202  0.74999998  1
