# generated using pymatgen
data_Al19Mo
_symmetry_space_group_name_H-M   'P 1'
_cell_length_a   6.55081987
_cell_length_b   7.20166588
_cell_length_c   7.20166588
_cell_angle_alpha   90.00000000
_cell_angle_beta   90.00000000
_cell_angle_gamma   90.00000000
_symmetry_Int_Tables_number   1
_chemical_formula_structural   Al19Mo
_chemical_formula_sum   'Al19 Mo1'
_cell_volume   339.75166575
_cell_formula_units_Z   1
loop_
 _symmetry_equiv_pos_site_id
 _symmetry_equiv_pos_as_xyz
  1  'x, y, z'
loop_
 _atom_site_type_symbol
 _atom_site_label
 _atom_site_symmetry_multiplicity
 _atom_site_fract_x
 _atom_site_fract_y
 _atom_site_fract_z
 _atom_site_occupancy
  Al  Al0  1  0.00000000  0.17455100  0.17455100  1
  Al  Al1  1  0.00000000  0.82544901  0.82544901  1
  Al  Al2  1  0.50000001  0.32544901  0.67455101  1
  Al  Al3  1  0.50000001  0.67455101  0.32544901  1
  Al  Al4  1  1.00000002  0.65798301  0.34201701  1
  Al  Al5  1  1.00000002  0.34201701  0.65798301  1
  Al  Al6  1  0.50000001  0.84201701  0.84201701  1
  Al  Al7  1  0.50000001  0.15798300  0.15798300  1
  Al  Al8  1  0.25000000  0.50000001  -0.00000000  1
  Al  Al9  1  0.25000000  1.00000002  0.50000001  1
  Al  Al10  1  0.75000001  1.00000002  0.50000001  1
  Al  Al11  1  0.75000001  0.50000001  -0.00000000  1
  Al  Al12  1  0.27038601  0.37399601  0.37399601  1
  Al  Al13  1  0.27038601  0.62600401  0.62600401  1
  Al  Al14  1  0.22961400  0.12600400  0.87399601  1
  Al  Al15  1  0.22961400  0.87399601  0.12600400  1
  Mo  Mo16  1  0.72961401  0.62600401  0.62600401  1
  Al  Al17  1  0.72961401  0.37399601  0.37399601  1
  Al  Al18  1  0.77038601  0.12600400  0.87399601  1
  Al  Al19  1  0.77038601  0.87399601  0.12600400  1
