# generated using pymatgen
data_SmLu3MgScAl2O12
_symmetry_space_group_name_H-M   'P 1'
_cell_length_a   5.29230452
_cell_length_b   5.42311430
_cell_length_c   7.74436235
_cell_angle_alpha   89.61561584
_cell_angle_beta   90.02828979
_cell_angle_gamma   89.89536285
_symmetry_Int_Tables_number   1
_chemical_formula_structural   SmLu3MgScAl2O12
_chemical_formula_sum   'Sm1 Lu3 Mg1 Sc1 Al2 O12'
_cell_volume   222.26377954
_cell_formula_units_Z   1
loop_
 _symmetry_equiv_pos_site_id
 _symmetry_equiv_pos_as_xyz
  1  'x, y, z'
loop_
 _atom_site_type_symbol
 _atom_site_label
 _atom_site_symmetry_multiplicity
 _atom_site_fract_x
 _atom_site_fract_y
 _atom_site_fract_z
 _atom_site_occupancy
  Lu  Lu0  1  0.49212996  0.44731102  0.75147894  1
  Sm  Sm1  1  0.00532695  0.94911004  0.75375393  1
  Lu  Lu2  1  0.99328397  0.05217900  0.24398895  1
  Lu  Lu3  1  0.50818596  0.55276502  0.25195395  1
  Mg  Mg4  1  0.99935295  0.50024102  0.00213893  1
  Sc  Sc5  1  0.49937093  0.99961204  0.49997292  1
  Al  Al6  1  0.00036597  0.49991402  0.50092396  1
  Al  Al7  1  0.49930399  0.00071200  0.99836595  1
  O  O8  1  0.84171493  0.80245603  0.43254991  1
  O  O9  1  0.31851095  0.69822303  0.93282593  1
  O  O10  1  0.15948798  0.19627001  0.56712697  1
  O  O11  1  0.68036196  0.30347501  0.06678595  1
  O  O12  1  0.80778493  0.81206803  0.05907493  1
  O  O13  1  0.31276095  0.67178203  0.55949494  1
  O  O14  1  0.18929598  0.18714401  0.94184095  1
  O  O15  1  0.69193496  0.32344601  0.43953894  1
  O  O16  1  0.38060794  0.94038704  0.23630093  1
  O  O17  1  0.88096795  0.55822202  0.74119691  1
  O  O18  1  0.62018398  0.06080500  0.76200195  1
  O  O19  1  0.11906797  0.44387702  0.25868297  1
