# generated using pymatgen
data_KH6(BrO5)2
_symmetry_space_group_name_H-M   'P 1'
_cell_length_a   4.78319550
_cell_length_b   6.05796671
_cell_length_c   8.74319267
_cell_angle_alpha   103.58896637
_cell_angle_beta   97.65803528
_cell_angle_gamma   98.26683807
_symmetry_Int_Tables_number   1
_chemical_formula_structural   KH6(BrO5)2
_chemical_formula_sum   'K1 H6 Br2 O10'
_cell_volume   239.99296750
_cell_formula_units_Z   1
loop_
 _symmetry_equiv_pos_site_id
 _symmetry_equiv_pos_as_xyz
  1  'x, y, z'
loop_
 _atom_site_type_symbol
 _atom_site_label
 _atom_site_symmetry_multiplicity
 _atom_site_fract_x
 _atom_site_fract_y
 _atom_site_fract_z
 _atom_site_occupancy
  K  K0  1  0.99962301  0.00362500  0.49385300  1
  H  H1  1  0.00126300  0.00612400  0.00457500  1
  H  H2  1  0.91670000  0.32299499  0.84127199  1
  H  H3  1  0.07374498  0.67175298  0.15929701  1
  H  H4  1  0.62197300  0.26089899  0.90270898  1
  H  H5  1  0.37973598  0.74220998  0.11049602  1
  H  H6  1  0.48491199  0.52880199  0.51167100  1
  Br  Br7  1  0.36660398  0.67911998  0.76290099  1
  Br  Br8  1  0.62239700  0.32244199  0.24449501  1
  O  O9  1  0.47472198  0.69863698  0.58304400  1
  O  O10  1  0.50449800  0.30718999  0.41625200  1
  O  O11  1  0.79660700  0.20472199  0.87726999  1
  O  O12  1  0.19462898  0.78876198  0.12153002  1
  O  O13  1  0.17998799  0.41617199  0.73208698  1
  O  O14  1  0.81804699  0.58246398  0.26972102  1
  O  O15  1  0.17930298  0.89115298  0.79596099  1
  O  O16  1  0.81309601  0.11075600  0.20608501  1
  O  O17  1  0.65127799  0.71915198  0.90430099  1
  O  O18  1  0.35188000  0.27902099  0.09148101  1
