# generated using pymatgen
data_LaCr5CuSe10
_symmetry_space_group_name_H-M   'P 1'
_cell_length_a   7.25921726
_cell_length_b   7.25921726
_cell_length_c   7.25921726
_cell_angle_alpha   109.47122192
_cell_angle_beta   109.47122192
_cell_angle_gamma   109.47122192
_symmetry_Int_Tables_number   1
_chemical_formula_structural   LaCr5CuSe10
_chemical_formula_sum   'La1 Cr5 Cu1 Se10'
_cell_volume   294.47435047
_cell_formula_units_Z   1
loop_
 _symmetry_equiv_pos_site_id
 _symmetry_equiv_pos_as_xyz
  1  'x, y, z'
loop_
 _atom_site_type_symbol
 _atom_site_label
 _atom_site_symmetry_multiplicity
 _atom_site_fract_x
 _atom_site_fract_y
 _atom_site_fract_z
 _atom_site_occupancy
  La  La0  1  0.00000000  0.00000000  0.00000000  1
  Cr  Cr1  1  0.50000003  0.50000001  0.50000003  1
  Cu  Cu2  1  1.00000006  1.00000003  0.50000007  1
  Se  Se3  1  1.00000003  0.50000001  0.00000005  1
  Se  Se4  1  0.50000000  0.00000000  0.00000001  1
  Se  Se5  1  0.15669302  0.34268101  0.49937402  1
  Se  Se6  1  0.84330704  0.65731902  0.50062605  1
  Cr  Cr7  1  0.15669304  0.65731902  0.81401203  1
  Cr  Cr8  1  0.84330702  0.34268101  0.18598804  1
  Se  Se9  1  0.65731903  0.50062601  0.84330704  1
  Se  Se10  1  0.34268103  0.49937401  0.15669303  1
  Cr  Cr11  1  0.34268101  0.18598801  0.84330701  1
  Cr  Cr12  1  0.65731905  0.81401202  0.15669306  1
  Se  Se13  1  0.81401201  0.15669300  0.65731902  1
  Se  Se14  1  0.18598805  0.84330703  0.34268105  1
  Se  Se15  1  0.49937401  0.15669300  0.34268102  1
  Se  Se16  1  0.50062605  0.84330703  0.65731905  1
