# generated using pymatgen
data_La3YInS9
_symmetry_space_group_name_H-M   'P 1'
_cell_length_a   3.99823999
_cell_length_b   7.09750223
_cell_length_c   12.14078331
_cell_angle_alpha   90.00000000
_cell_angle_beta   90.00000000
_cell_angle_gamma   90.00000000
_symmetry_Int_Tables_number   1
_chemical_formula_structural   La3YInS9
_chemical_formula_sum   'La3 Y1 In1 S9'
_cell_volume   344.52528817
_cell_formula_units_Z   1
loop_
 _symmetry_equiv_pos_site_id
 _symmetry_equiv_pos_as_xyz
  1  'x, y, z'
loop_
 _atom_site_type_symbol
 _atom_site_label
 _atom_site_symmetry_multiplicity
 _atom_site_fract_x
 _atom_site_fract_y
 _atom_site_fract_z
 _atom_site_occupancy
  In  In0  1  0.50000000  0.08877900  0.68483298  1
  La  La1  1  0.50000000  0.91122097  0.31516699  1
  La  La2  1  0.50000000  0.41122099  0.18483300  1
  La  La3  1  0.50000000  0.58877898  0.81516698  1
  Y  Y4  1  0.00000000  0.49999998  0.49999999  1
  S  S5  1  0.00000000  0.00000000  0.00000000  1
  S  S6  1  0.50000000  0.74607998  0.54313799  1
  S  S7  1  0.50000000  0.25391999  0.45686199  1
  S  S8  1  0.00000000  0.12571900  0.20306299  1
  S  S9  1  0.00000000  0.87428097  0.79693698  1
  S  S10  1  0.00000000  0.62571898  0.29693699  1
  S  S11  1  0.00000000  0.37428099  0.70306298  1
  S  S12  1  0.50000000  0.24607999  0.95686198  1
  S  S13  1  0.50000000  0.75391998  0.04313800  1
