# generated using pymatgen
data_LiMn5O8
_symmetry_space_group_name_H-M   'P 1'
_cell_length_a   6.15239382
_cell_length_b   6.23557472
_cell_length_c   6.23557472
_cell_angle_alpha   60.79977798
_cell_angle_beta   60.44030380
_cell_angle_gamma   60.44030380
_symmetry_Int_Tables_number   1
_chemical_formula_structural   LiMn5O8
_chemical_formula_sum   'Li1 Mn5 O8'
_cell_volume   171.28995487
_cell_formula_units_Z   1
loop_
 _symmetry_equiv_pos_site_id
 _symmetry_equiv_pos_as_xyz
  1  'x, y, z'
loop_
 _atom_site_type_symbol
 _atom_site_label
 _atom_site_symmetry_multiplicity
 _atom_site_fract_x
 _atom_site_fract_y
 _atom_site_fract_z
 _atom_site_occupancy
  Li  Li0  1  0.50000004  1.00000001  -0.00000000  1
  Mn  Mn1  1  0.50000002  0.50000000  0.50000002  1
  Mn  Mn2  1  1.00000001  0.00000000  0.50000004  1
  Mn  Mn3  1  0.50000001  0.00000000  0.50000003  1
  Mn  Mn4  1  0.12420802  0.62579201  0.12579199  1
  Mn  Mn5  1  0.87579202  0.37420800  0.87420804  1
  O  O6  1  0.25144903  0.77465501  0.72244600  1
  O  O7  1  0.25145001  0.22244500  0.27465501  1
  O  O8  1  0.72627503  0.76607501  0.26607401  1
  O  O9  1  0.24157703  0.76607401  0.26607400  1
  O  O10  1  0.74855102  0.22534500  0.27755403  1
  O  O11  1  0.74855003  0.77755501  0.72534502  1
  O  O12  1  0.27372501  0.23392500  0.73392602  1
  O  O13  1  0.75842302  0.23392600  0.73392603  1
