# generated using pymatgen
data_LiInTe2
_symmetry_space_group_name_H-M   'P 1'
_cell_length_a   5.62113190
_cell_length_b   5.62113190
_cell_length_c   7.00583839
_cell_angle_alpha   113.65164185
_cell_angle_beta   113.65164185
_cell_angle_gamma   90.00000000
_symmetry_Int_Tables_number   1
_chemical_formula_structural   LiInTe2
_chemical_formula_sum   'Li2 In2 Te4'
_cell_volume   182.28887262
_cell_formula_units_Z   2
loop_
 _symmetry_equiv_pos_site_id
 _symmetry_equiv_pos_as_xyz
  1  'x, y, z'
loop_
 _atom_site_type_symbol
 _atom_site_label
 _atom_site_symmetry_multiplicity
 _atom_site_fract_x
 _atom_site_fract_y
 _atom_site_fract_z
 _atom_site_occupancy
  In  In0  1  0.24999998  0.75000000  0.49999995  1
  Li  Li1  1  0.49999999  0.50000000  -0.00000003  1
  Li  Li2  1  0.00000000  0.00000000  0.00000000  1
  In  In3  1  0.75000000  0.25000000  0.49999996  1
  Te  Te4  1  0.50338800  0.00338800  0.00677599  1
  Te  Te5  1  0.99661199  0.49661200  0.99322393  1
  Te  Te6  1  0.75338798  0.75338800  0.50677594  1
  Te  Te7  1  0.24661199  0.24661200  0.49322397  1
