# generated using pymatgen
data_GdBeGa2Ir
_symmetry_space_group_name_H-M   'P 1'
_cell_length_a   4.05192184
_cell_length_b   4.05192184
_cell_length_c   5.56452703
_cell_angle_alpha   111.35128784
_cell_angle_beta   111.35128784
_cell_angle_gamma   90.00000000
_symmetry_Int_Tables_number   1
_chemical_formula_structural   GdBeGa2Ir
_chemical_formula_sum   'Gd1 Be1 Ga2 Ir1'
_cell_volume   78.31767830
_cell_formula_units_Z   1
loop_
 _symmetry_equiv_pos_site_id
 _symmetry_equiv_pos_as_xyz
  1  'x, y, z'
loop_
 _atom_site_type_symbol
 _atom_site_label
 _atom_site_symmetry_multiplicity
 _atom_site_fract_x
 _atom_site_fract_y
 _atom_site_fract_z
 _atom_site_occupancy
  Gd  Gd0  1  0.00283400  0.00283400  0.00566800  1
  Be  Be1  1  0.66077706  0.66077704  0.32155403  1
  Ir  Ir2  1  0.42904104  0.42904102  0.85808199  1
  Ga  Ga3  1  0.26117404  0.76117404  0.52234801  1
  Ga  Ga4  1  0.76117405  0.26117402  0.52234801  1
