# generated using pymatgen
data_Ho3Al(SiNi)4
_symmetry_space_group_name_H-M   'P 1'
_cell_length_a   4.02914286
_cell_length_b   4.02914286
_cell_length_c   13.04139423
_cell_angle_alpha   90.00000000
_cell_angle_beta   90.00000000
_cell_angle_gamma   90.00000000
_symmetry_Int_Tables_number   1
_chemical_formula_structural   Ho3Al(SiNi)4
_chemical_formula_sum   'Ho3 Al1 Si4 Ni4'
_cell_volume   211.71389173
_cell_formula_units_Z   1
loop_
 _symmetry_equiv_pos_site_id
 _symmetry_equiv_pos_as_xyz
  1  'x, y, z'
loop_
 _atom_site_type_symbol
 _atom_site_label
 _atom_site_symmetry_multiplicity
 _atom_site_fract_x
 _atom_site_fract_y
 _atom_site_fract_z
 _atom_site_occupancy
  Ho  Ho0  1  0.50000002  0.50000002  0.15962900  1
  Ho  Ho1  1  0.50000002  0.50000002  0.65890499  1
  Ho  Ho2  1  0.00000000  0.00000000  0.33836799  1
  Al  Al3  1  0.00000000  0.00000000  0.84394498  1
  Ni  Ni4  1  0.50000002  0.00000000  0.00098800  1
  Ni  Ni5  1  0.50000002  0.00000000  0.50026699  1
  Ni  Ni6  1  0.00000000  0.50000002  0.00098800  1
  Ni  Ni7  1  0.00000000  0.50000002  0.50026699  1
  Si  Si8  1  0.50000002  0.50000002  0.40495299  1
  Si  Si9  1  0.50000002  0.50000002  0.91017098  1
  Si  Si10  1  0.00000000  0.00000000  0.08899400  1
  Si  Si11  1  0.00000000  0.00000000  0.59252399  1
