# generated using pymatgen
data_La3Te4
_symmetry_space_group_name_H-M   'P 1'
_cell_length_a   8.37768555
_cell_length_b   8.37768555
_cell_length_c   8.37768555
_cell_angle_alpha   109.47122192
_cell_angle_beta   109.47122192
_cell_angle_gamma   109.47122192
_symmetry_Int_Tables_number   1
_chemical_formula_structural   La3Te4
_chemical_formula_sum   'La6 Te8'
_cell_volume   452.63721116
_cell_formula_units_Z   2
loop_
 _symmetry_equiv_pos_site_id
 _symmetry_equiv_pos_as_xyz
  1  'x, y, z'
loop_
 _atom_site_type_symbol
 _atom_site_label
 _atom_site_symmetry_multiplicity
 _atom_site_fract_x
 _atom_site_fract_y
 _atom_site_fract_z
 _atom_site_occupancy
  La  La0  1  0.75000001  0.12500000  0.37500002  1
  La  La1  1  0.62500002  0.25000001  0.87500003  1
  La  La2  1  0.87500005  0.75000003  0.62500006  1
  La  La3  1  0.12500006  0.87500003  0.25000005  1
  La  La4  1  0.37500004  0.62500002  0.75000004  1
  La  La5  1  0.25000003  0.37500001  0.12500003  1
  Te  Te6  1  0.84066601  0.00000000  0.00000002  1
  Te  Te7  1  0.15933401  0.15933401  0.65933401  1
  Te  Te8  1  0.00000003  0.50000002  0.84066603  1
  Te  Te9  1  0.50000003  0.34066601  0.50000003  1
  Te  Te10  1  0.00000003  0.50000002  0.34066603  1
  Te  Te11  1  0.50000006  0.84066603  0.50000006  1
  Te  Te12  1  0.65933405  0.65933403  0.15933405  1
  Te  Te13  1  0.34066600  0.00000000  0.00000001  1
