# generated using pymatgen
data_Na2BeH7
_symmetry_space_group_name_H-M   'P 1'
_cell_length_a   4.89193678
_cell_length_b   5.31901121
_cell_length_c   8.06875515
_cell_angle_alpha   89.87514496
_cell_angle_beta   90.00000000
_cell_angle_gamma   90.00000000
_symmetry_Int_Tables_number   1
_chemical_formula_structural   Na2BeH7
_chemical_formula_sum   'Na4 Be2 H14'
_cell_volume   209.95066142
_cell_formula_units_Z   2
loop_
 _symmetry_equiv_pos_site_id
 _symmetry_equiv_pos_as_xyz
  1  'x, y, z'
loop_
 _atom_site_type_symbol
 _atom_site_label
 _atom_site_symmetry_multiplicity
 _atom_site_fract_x
 _atom_site_fract_y
 _atom_site_fract_z
 _atom_site_occupancy
  Na  Na0  1  0.25000001  0.24334099  0.90002000  1
  Na  Na1  1  0.75000003  0.25025899  0.43261000  1
  Na  Na2  1  0.25000001  0.74974097  0.56739001  1
  Na  Na3  1  0.75000003  0.75665897  0.09998001  1
  H  H4  1  0.25000001  0.19311099  0.25199400  1
  H  H5  1  0.75000003  0.50849298  0.75489201  1
  Be  Be6  1  0.25000001  0.49150698  0.24510801  1
  Be  Be7  1  0.75000003  0.80688897  0.74800601  1
  H  H8  1  0.48588002  0.11241800  0.17303200  1
  H  H9  1  0.01412000  0.11241800  0.17303200  1
  H  H10  1  0.25000001  0.12401200  0.42186600  1
  H  H11  1  0.75000003  0.42249298  0.91687701  1
  H  H12  1  0.51588702  0.41800398  0.67202301  1
  H  H13  1  0.98411304  0.41800398  0.67202301  1
  H  H14  1  0.01588700  0.58199598  0.32797701  1
  H  H15  1  0.48411302  0.58199598  0.32797701  1
  H  H16  1  0.25000001  0.57750698  0.08312301  1
  H  H17  1  0.75000003  0.87598797  0.57813401  1
  H  H18  1  0.98588004  0.88758196  0.82696801  1
  H  H19  1  0.51412002  0.88758196  0.82696801  1
