# generated using pymatgen
data_SrMoO3
_symmetry_space_group_name_H-M   'P 1'
_cell_length_a   3.89993811
_cell_length_b   5.52610254
_cell_length_c   5.52632284
_cell_angle_alpha   89.99028015
_cell_angle_beta   90.00380707
_cell_angle_gamma   89.99475098
_symmetry_Int_Tables_number   1
_chemical_formula_structural   SrMoO3
_chemical_formula_sum   'Sr2 Mo2 O6'
_cell_volume   119.10031152
_cell_formula_units_Z   2
loop_
 _symmetry_equiv_pos_site_id
 _symmetry_equiv_pos_as_xyz
  1  'x, y, z'
loop_
 _atom_site_type_symbol
 _atom_site_label
 _atom_site_symmetry_multiplicity
 _atom_site_fract_x
 _atom_site_fract_y
 _atom_site_fract_z
 _atom_site_occupancy
  Sr  Sr0  1  0.50000002  0.49999999  0.00000000  1
  Sr  Sr1  1  0.49999999  0.00000000  0.50000001  1
  Mo  Mo2  1  0.00000003  0.49999899  0.49999903  1
  Mo  Mo3  1  0.00000000  0.00000000  0.00000000  1
  O  O4  1  0.99997199  0.27059900  0.72926602  1
  O  O5  1  0.00002804  0.72940099  0.27073303  1
  O  O6  1  0.99996899  0.22948700  0.22935600  1
  O  O7  1  0.00003104  0.77051299  0.77064505  1
  O  O8  1  0.49999999  0.00000000  -0.00000001  1
  O  O9  1  0.50000002  0.49999999  0.50000102  1
