# generated using pymatgen
data_Ce5Ni4
_symmetry_space_group_name_H-M   'P 1'
_cell_length_a   5.78670788
_cell_length_b   8.60098171
_cell_length_c   8.60098171
_cell_angle_alpha   120.00000000
_cell_angle_beta   90.00000000
_cell_angle_gamma   90.00000000
_symmetry_Int_Tables_number   1
_chemical_formula_structural   Ce5Ni4
_chemical_formula_sum   'Ce10 Ni8'
_cell_volume   370.73043373
_cell_formula_units_Z   2
loop_
 _symmetry_equiv_pos_site_id
 _symmetry_equiv_pos_as_xyz
  1  'x, y, z'
loop_
 _atom_site_type_symbol
 _atom_site_label
 _atom_site_symmetry_multiplicity
 _atom_site_fract_x
 _atom_site_fract_y
 _atom_site_fract_z
 _atom_site_occupancy
  Ce  Ce0  1  0.75000002  0.26911201  1.00000004  1
  Ni  Ni1  1  0.25000001  0.26911201  0.26911201  1
  Ni  Ni2  1  0.75000002  1.00000004  0.26911202  1
  Ce  Ce3  1  0.25000001  0.00000000  0.73088803  1
  Ni  Ni4  1  0.25000001  0.73088803  1.00000005  1
  Ni  Ni5  1  0.75000002  0.73088803  0.73088804  1
  Ni  Ni6  1  0.50000001  0.66666669  0.33333335  1
  Ce  Ce7  1  1.00000002  0.33333335  0.66666670  1
  Ni  Ni8  1  0.50000001  0.33333335  0.66666670  1
  Ce  Ce9  1  1.00000002  0.66666669  0.33333335  1
  Ce  Ce10  1  0.00000000  0.00000000  0.00000000  1
  Ni  Ni11  1  0.50000001  0.00000000  -0.00000000  1
  Ce  Ce12  1  0.25000001  0.61395902  0.61395903  1
  Ce  Ce13  1  0.75000002  0.61395902  0.00000000  1
  Ni  Ni14  1  0.75000002  0.00000000  0.61395903  1
  Ce  Ce15  1  0.25000001  1.00000004  0.38604102  1
  Ce  Ce16  1  0.25000001  0.38604101  0.00000000  1
  Ce  Ce17  1  0.75000002  0.38604101  0.38604102  1
