# generated using pymatgen
data_ScI4
_symmetry_space_group_name_H-M   'P 1'
_cell_length_a   7.29463387
_cell_length_b   8.04884815
_cell_length_c   8.04884815
_cell_angle_alpha   60.00000000
_cell_angle_beta   90.00000000
_cell_angle_gamma   90.00000000
_symmetry_Int_Tables_number   1
_chemical_formula_structural   ScI4
_chemical_formula_sum   'Sc2 I8'
_cell_volume   409.26216614
_cell_formula_units_Z   2
loop_
 _symmetry_equiv_pos_site_id
 _symmetry_equiv_pos_as_xyz
  1  'x, y, z'
loop_
 _atom_site_type_symbol
 _atom_site_label
 _atom_site_symmetry_multiplicity
 _atom_site_fract_x
 _atom_site_fract_y
 _atom_site_fract_z
 _atom_site_occupancy
  I  I0  1  0.75000001  0.68686299  0.15656799  1
  I  I1  1  0.25000000  0.31313700  0.84343200  1
  I  I2  1  0.75000001  0.15656900  0.15656800  1
  I  I3  1  0.25000000  0.84343099  0.84343199  1
  I  I4  1  0.75000001  0.15656900  0.68686200  1
  I  I5  1  0.25000000  0.84343099  0.31313799  1
  I  I6  1  0.25000000  0.33333333  0.33333333  1
  I  I7  1  0.75000001  0.66666666  0.66666666  1
  Sc  Sc8  1  0.00000000  0.00000000  0.00000000  1
  Sc  Sc9  1  0.50000001  0.00000000  0.00000000  1
