# generated using pymatgen
data_InGaAsS
_symmetry_space_group_name_H-M   'P 1'
_cell_length_a   3.65557003
_cell_length_b   3.65557003
_cell_length_c   6.36442327
_cell_angle_alpha   73.31034088
_cell_angle_beta   73.31034088
_cell_angle_gamma   60.00000000
_symmetry_Int_Tables_number   1
_chemical_formula_structural   InGaAsS
_chemical_formula_sum   'In1 Ga1 As1 S1'
_cell_volume   69.48682562
_cell_formula_units_Z   1
loop_
 _symmetry_equiv_pos_site_id
 _symmetry_equiv_pos_as_xyz
  1  'x, y, z'
loop_
 _atom_site_type_symbol
 _atom_site_label
 _atom_site_symmetry_multiplicity
 _atom_site_fract_x
 _atom_site_fract_y
 _atom_site_fract_z
 _atom_site_occupancy
  In  In0  1  0.00000000  0.00000000  0.00000000  1
  Ga  Ga1  1  0.49999995  0.49999999  0.50000005  1
  S  S2  1  0.76457792  0.76457798  0.70626608  1
  As  As3  1  0.23542197  0.23542199  0.29373403  1
