# generated using pymatgen
data_EuScH2NO
_symmetry_space_group_name_H-M   'P 1'
_cell_length_a   3.70436430
_cell_length_b   3.70436430
_cell_length_c   5.64232922
_cell_angle_alpha   84.60518646
_cell_angle_beta   84.60518646
_cell_angle_gamma   82.73695374
_symmetry_Int_Tables_number   1
_chemical_formula_structural   EuScH2NO
_chemical_formula_sum   'Eu1 Sc1 H2 N1 O1'
_cell_volume   76.19947400
_cell_formula_units_Z   1
loop_
 _symmetry_equiv_pos_site_id
 _symmetry_equiv_pos_as_xyz
  1  'x, y, z'
loop_
 _atom_site_type_symbol
 _atom_site_label
 _atom_site_symmetry_multiplicity
 _atom_site_fract_x
 _atom_site_fract_y
 _atom_site_fract_z
 _atom_site_occupancy
  Sc  Sc0  1  0.23181399  0.23181400  0.24145499  1
  H  H1  1  0.76818597  0.76818601  0.75854496  1
  N  N2  1  0.34497497  0.65502501  0.49999998  1
  H  H3  1  0.65502499  0.34497501  0.49999997  1
  Eu  Eu4  1  0.24696697  0.75303301  0.99999998  1
  O  O5  1  0.75303300  0.24696700  0.99999998  1
