# generated using pymatgen
data_Mg3O4
_symmetry_space_group_name_H-M   'P 1'
_cell_length_a   2.97636604
_cell_length_b   5.05278873
_cell_length_c   9.90172291
_cell_angle_alpha   90.00000000
_cell_angle_beta   90.00000000
_cell_angle_gamma   107.12918091
_symmetry_Int_Tables_number   1
_chemical_formula_structural   Mg3O4
_chemical_formula_sum   'Mg6 O8'
_cell_volume   142.30625652
_cell_formula_units_Z   2
loop_
 _symmetry_equiv_pos_site_id
 _symmetry_equiv_pos_as_xyz
  1  'x, y, z'
loop_
 _atom_site_type_symbol
 _atom_site_label
 _atom_site_symmetry_multiplicity
 _atom_site_fract_x
 _atom_site_fract_y
 _atom_site_fract_z
 _atom_site_occupancy
  Mg  Mg0  1  0.37426803  0.74853602  0.56109901  1
  Mg  Mg1  1  0.37426803  0.74853602  0.93890101  1
  Mg  Mg2  1  0.62573200  0.25146401  0.43890100  1
  Mg  Mg3  1  0.62573200  0.25146401  0.06109900  1
  Mg  Mg4  1  0.11803301  0.23606601  0.75000001  1
  Mg  Mg5  1  0.88196702  0.76393402  0.25000000  1
  O  O6  1  0.00000000  0.00000000  0.00000000  1
  O  O7  1  0.00000000  0.00000000  0.50000000  1
  O  O8  1  0.45837303  0.91674602  0.75000001  1
  O  O9  1  0.27896302  0.55792601  0.38194600  1
  O  O10  1  0.27896302  0.55792601  0.11805400  1
  O  O11  1  0.54162700  0.08325400  0.25000000  1
  O  O12  1  0.72103701  0.44207401  0.88194601  1
  O  O13  1  0.72103701  0.44207401  0.61805401  1
