# generated using pymatgen
data_HfAlPt4
_symmetry_space_group_name_H-M   'P 1'
_cell_length_a   4.34171391
_cell_length_b   4.34171343
_cell_length_c   5.70325089
_cell_angle_alpha   90.00000000
_cell_angle_beta   90.00000000
_cell_angle_gamma   120.00000763
_symmetry_Int_Tables_number   1
_chemical_formula_structural   HfAlPt4
_chemical_formula_sum   'Hf1 Al1 Pt4'
_cell_volume   93.10552045
_cell_formula_units_Z   1
loop_
 _symmetry_equiv_pos_site_id
 _symmetry_equiv_pos_as_xyz
  1  'x, y, z'
loop_
 _atom_site_type_symbol
 _atom_site_label
 _atom_site_symmetry_multiplicity
 _atom_site_fract_x
 _atom_site_fract_y
 _atom_site_fract_z
 _atom_site_occupancy
  Al  Al0  1  0.33333339  0.66666670  0.75000002  1
  Pt  Pt1  1  0.66666670  0.33333335  0.25000001  1
  Pt  Pt2  1  0.33333339  0.66666670  0.25000001  1
  Pt  Pt3  1  0.66666670  0.33333335  0.75000002  1
  Pt  Pt4  1  0.00000000  0.00000000  0.00000000  1
  Hf  Hf5  1  0.00000000  0.00000000  0.50000001  1
