# generated using pymatgen
data_ZrGe
_symmetry_space_group_name_H-M   'P 1'
_cell_length_a   4.69252777
_cell_length_b   4.69252825
_cell_length_c   17.08968925
_cell_angle_alpha   90.00000000
_cell_angle_beta   90.00000000
_cell_angle_gamma   120.00000000
_symmetry_Int_Tables_number   1
_chemical_formula_structural   ZrGe
_chemical_formula_sum   'Zr9 Ge9'
_cell_volume   325.89563587
_cell_formula_units_Z   9
loop_
 _symmetry_equiv_pos_site_id
 _symmetry_equiv_pos_as_xyz
  1  'x, y, z'
loop_
 _atom_site_type_symbol
 _atom_site_label
 _atom_site_symmetry_multiplicity
 _atom_site_fract_x
 _atom_site_fract_y
 _atom_site_fract_z
 _atom_site_occupancy
  Zr  Zr0  1  0.00000000  0.00000000  0.50000002  1
  Ge  Ge1  1  0.00000000  0.00000000  0.32835901  1
  Ge  Ge2  1  0.00000000  0.00000000  0.67164103  1
  Zr  Zr3  1  0.00000000  0.00000000  0.16352801  1
  Zr  Zr4  1  0.00000000  0.00000000  0.83647204  1
  Zr  Zr5  1  0.66666672  0.33333336  0.05330500  1
  Zr  Zr6  1  0.33333339  0.66666672  0.94669504  1
  Ge  Ge7  1  0.66666672  0.33333336  0.55377202  1
  Ge  Ge8  1  0.33333339  0.66666672  0.44622802  1
  Zr  Zr9  1  0.66666672  0.33333336  0.71628203  1
  Zr  Zr10  1  0.33333339  0.66666672  0.28371801  1
  Ge  Ge11  1  0.66666672  0.33333336  0.88796104  1
  Ge  Ge12  1  0.33333339  0.66666672  0.11203900  1
  Ge  Ge13  1  0.00000000  0.00000000  0.00000000  1
  Ge  Ge14  1  0.66666672  0.33333336  0.22172801  1
  Ge  Ge15  1  0.33333339  0.66666672  0.77827203  1
  Zr  Zr16  1  0.66666672  0.33333336  0.39196302  1
  Zr  Zr17  1  0.33333339  0.66666672  0.60803703  1
