# generated using pymatgen
data_Zr4MnSn7Pd5
_symmetry_space_group_name_H-M   'P 1'
_cell_length_a   7.46162653
_cell_length_b   7.46162653
_cell_length_c   7.46162653
_cell_angle_alpha   109.47122192
_cell_angle_beta   109.47122192
_cell_angle_gamma   109.47122192
_symmetry_Int_Tables_number   1
_chemical_formula_structural   Zr4MnSn7Pd5
_chemical_formula_sum   'Zr4 Mn1 Sn7 Pd5'
_cell_volume   319.80011249
_cell_formula_units_Z   1
loop_
 _symmetry_equiv_pos_site_id
 _symmetry_equiv_pos_as_xyz
  1  'x, y, z'
loop_
 _atom_site_type_symbol
 _atom_site_label
 _atom_site_symmetry_multiplicity
 _atom_site_fract_x
 _atom_site_fract_y
 _atom_site_fract_z
 _atom_site_occupancy
  Zr  Zr0  1  0.50000003  0.50000001  0.50000003  1
  Zr  Zr1  1  1.00000002  0.50000001  1.00000003  1
  Zr  Zr2  1  0.00000000  0.00000000  0.49999999  1
  Zr  Zr3  1  0.50000006  1.00000002  0.00000007  1
  Mn  Mn4  1  0.00000000  0.00000000  0.00000000  1
  Sn  Sn5  1  0.00000005  0.71438101  0.71438103  1
  Sn  Sn6  1  0.71438104  0.71438101  0.00000006  1
  Sn  Sn7  1  0.71438106  1.00000002  0.71438106  1
  Sn  Sn8  1  1.00000001  0.28561901  0.28561903  1
  Sn  Sn9  1  0.28561901  0.28561901  0.00000002  1
  Sn  Sn10  1  0.28561906  1.00000002  0.28561906  1
  Pd  Pd11  1  0.50000004  0.75000001  0.25000005  1
  Pd  Pd12  1  0.75000001  0.25000000  0.50000002  1
  Pd  Pd13  1  0.25000003  0.50000001  0.75000002  1
  Pd  Pd14  1  0.25000004  0.75000001  0.50000004  1
  Sn  Sn15  1  0.50000001  0.25000000  0.75000001  1
  Pd  Pd16  1  0.75000002  0.50000001  0.25000004  1
