# generated using pymatgen
data_Ni5BP2
_symmetry_space_group_name_H-M   'P 1'
_cell_length_a   5.35166883
_cell_length_b   5.35166883
_cell_length_c   6.45714378
_cell_angle_alpha   114.48148346
_cell_angle_beta   114.48147583
_cell_angle_gamma   90.00000000
_symmetry_Int_Tables_number   1
_chemical_formula_structural   Ni5BP2
_chemical_formula_sum   'Ni10 B2 P4'
_cell_volume   149.84828031
_cell_formula_units_Z   2
loop_
 _symmetry_equiv_pos_site_id
 _symmetry_equiv_pos_as_xyz
  1  'x, y, z'
loop_
 _atom_site_type_symbol
 _atom_site_label
 _atom_site_symmetry_multiplicity
 _atom_site_fract_x
 _atom_site_fract_y
 _atom_site_fract_z
 _atom_site_occupancy
  Ni  Ni0  1  0.19082301  0.02851200  0.71933500  1
  Ni  Ni1  1  0.52851101  0.69082401  0.71933499  1
  Ni  Ni2  1  0.69082302  0.19082400  0.71933500  1
  Ni  Ni3  1  0.02851100  0.52851201  0.71933498  1
  Ni  Ni4  1  0.80917702  0.97148802  0.28066498  1
  Ni  Ni5  1  0.47148901  0.30917601  0.28066500  1
  Ni  Ni6  1  0.30917701  0.80917601  0.28066498  1
  Ni  Ni7  1  0.97148903  0.47148801  0.28066500  1
  Ni  Ni8  1  0.50000001  0.50000001  -0.00000001  1
  Ni  Ni9  1  0.00000000  0.00000000  0.00000000  1
  B  B10  1  0.12126200  0.37873801  -0.00000001  1
  B  B11  1  0.87873803  0.62126201  -0.00000001  1
  P  P12  1  0.62126202  0.12126200  0.00000000  1
  P  P13  1  0.37873801  0.87873802  0.99999998  1
  P  P14  1  0.25000001  0.25000000  0.49999999  1
  P  P15  1  0.75000002  0.75000001  0.49999999  1
