# generated using pymatgen
data_BaO2
_symmetry_space_group_name_H-M   'P 1'
_cell_length_a   4.20803595
_cell_length_b   6.34927082
_cell_length_c   6.50550699
_cell_angle_alpha   90.00000000
_cell_angle_beta   90.00000000
_cell_angle_gamma   90.00000000
_symmetry_Int_Tables_number   1
_chemical_formula_structural   BaO2
_chemical_formula_sum   'Ba2 O4'
_cell_volume   173.81387458
_cell_formula_units_Z   2
loop_
 _symmetry_equiv_pos_site_id
 _symmetry_equiv_pos_as_xyz
  1  'x, y, z'
loop_
 _atom_site_type_symbol
 _atom_site_label
 _atom_site_symmetry_multiplicity
 _atom_site_fract_x
 _atom_site_fract_y
 _atom_site_fract_z
 _atom_site_occupancy
  Ba  Ba0  1  0.50000001  0.50000001  0.50000000  1
  Ba  Ba1  1  0.00000000  0.00000000  0.00000000  1
  O  O2  1  0.50000001  0.78209002  0.17512400  1
  O  O3  1  0.50000001  0.21791001  0.82487600  1
  O  O4  1  0.00000000  0.71791002  0.67512400  1
  O  O5  1  0.00000000  0.28209001  0.32487600  1
