# generated using pymatgen
data_Li4CrTeO6
_symmetry_space_group_name_H-M   'P 1'
_cell_length_a   2.91066957
_cell_length_b   5.96964216
_cell_length_c   6.47710705
_cell_angle_alpha   103.84090424
_cell_angle_beta   102.98507690
_cell_angle_gamma   89.96778107
_symmetry_Int_Tables_number   1
_chemical_formula_structural   Li4CrTeO6
_chemical_formula_sum   'Li4 Cr1 Te1 O6'
_cell_volume   106.31337666
_cell_formula_units_Z   1
loop_
 _symmetry_equiv_pos_site_id
 _symmetry_equiv_pos_as_xyz
  1  'x, y, z'
loop_
 _atom_site_type_symbol
 _atom_site_label
 _atom_site_symmetry_multiplicity
 _atom_site_fract_x
 _atom_site_fract_y
 _atom_site_fract_z
 _atom_site_occupancy
  Li  Li0  1  0.33332339  0.66662668  0.66670667  1
  Li  Li1  1  0.33336802  0.16666500  0.66664400  1
  Li  Li2  1  0.99382407  0.50218101  0.98762700  1
  Li  Li3  1  0.67285508  0.83113802  0.34571700  1
  Cr  Cr4  1  0.99110610  0.99074803  0.98193900  1
  Te  Te5  1  0.67517805  0.34260701  0.35131600  1
  O  O6  1  0.50289907  0.78088802  0.00610099  1
  O  O7  1  0.16021601  0.10494300  0.32120900  1
  O  O8  1  0.16427904  0.55239601  0.32727000  1
  O  O9  1  0.82218105  0.41023701  0.64404200  1
  O  O10  1  0.84461909  0.92311202  0.68932400  1
  O  O11  1  0.50618703  0.22842401  0.01217400  1
