# generated using pymatgen
data_GdSiAu
_symmetry_space_group_name_H-M   'P 1'
_cell_length_a   3.54987788
_cell_length_b   4.44680977
_cell_length_c   4.44680977
_cell_angle_alpha   120.00000000
_cell_angle_beta   90.00000000
_cell_angle_gamma   90.00000000
_symmetry_Int_Tables_number   1
_chemical_formula_structural   GdSiAu
_chemical_formula_sum   'Gd1 Si1 Au1'
_cell_volume   60.79126030
_cell_formula_units_Z   1
loop_
 _symmetry_equiv_pos_site_id
 _symmetry_equiv_pos_as_xyz
  1  'x, y, z'
loop_
 _atom_site_type_symbol
 _atom_site_label
 _atom_site_symmetry_multiplicity
 _atom_site_fract_x
 _atom_site_fract_y
 _atom_site_fract_z
 _atom_site_occupancy
  Gd  Gd0  1  0.00000000  0.33333334  0.66666663  1
  Si  Si1  1  0.50000002  0.00000000  -0.00000000  1
  Au  Au2  1  0.50000002  0.66666668  0.33333329  1
