# generated using pymatgen
data_Hf3Sc(Si3Pd)2
_symmetry_space_group_name_H-M   'P 1'
_cell_length_a   4.92468214
_cell_length_b   4.98446178
_cell_length_c   8.25263596
_cell_angle_alpha   90.00000000
_cell_angle_beta   90.00000000
_cell_angle_gamma   119.60405731
_symmetry_Int_Tables_number   1
_chemical_formula_structural   Hf3Sc(Si3Pd)2
_chemical_formula_sum   'Hf3 Sc1 Si6 Pd2'
_cell_volume   176.13219385
_cell_formula_units_Z   1
loop_
 _symmetry_equiv_pos_site_id
 _symmetry_equiv_pos_as_xyz
  1  'x, y, z'
loop_
 _atom_site_type_symbol
 _atom_site_label
 _atom_site_symmetry_multiplicity
 _atom_site_fract_x
 _atom_site_fract_y
 _atom_site_fract_z
 _atom_site_occupancy
  Hf  Hf0  1  0.66559200  0.33118401  0.81054900  1
  Sc  Sc1  1  0.33333337  0.66660935  0.68518400  1
  Hf  Hf2  1  0.33333337  0.66660935  0.31481600  1
  Hf  Hf3  1  0.66559200  0.33118401  0.18945100  1
  Si  Si4  1  0.17077605  0.83220902  -0.00000000  1
  Si  Si5  1  0.66143303  0.83220902  -0.00000000  1
  Si  Si6  1  0.16935102  0.33870201  -0.00000000  1
  Si  Si7  1  0.83289699  0.16619600  0.50000000  1
  Si  Si8  1  0.33333333  0.16623034  0.50000000  1
  Pd  Pd9  1  0.83344502  0.66689002  0.50000000  1
  Si  Si10  1  0.00057900  0.00115800  0.75156200  1
  Pd  Pd11  1  0.00057900  0.00115800  0.24843800  1
