# generated using pymatgen
data_Na4MgTi2O11
_symmetry_space_group_name_H-M   'P 1'
_cell_length_a   5.48369074
_cell_length_b   5.63887644
_cell_length_c   8.38598442
_cell_angle_alpha   108.49494934
_cell_angle_beta   108.10234070
_cell_angle_gamma   92.86115265
_symmetry_Int_Tables_number   1
_chemical_formula_structural   Na4MgTi2O11
_chemical_formula_sum   'Na4 Mg1 Ti2 O11'
_cell_volume   230.55217817
_cell_formula_units_Z   1
loop_
 _symmetry_equiv_pos_site_id
 _symmetry_equiv_pos_as_xyz
  1  'x, y, z'
loop_
 _atom_site_type_symbol
 _atom_site_label
 _atom_site_symmetry_multiplicity
 _atom_site_fract_x
 _atom_site_fract_y
 _atom_site_fract_z
 _atom_site_occupancy
  Na  Na0  1  0.59904700  0.08606800  0.21261300  1
  Na  Na1  1  0.39622098  0.91230002  0.78209397  1
  Na  Na2  1  0.11104499  0.63297802  0.21678699  1
  Na  Na3  1  0.88330499  0.36955201  0.78740798  1
  Ti  Ti4  1  0.29062799  0.30716201  0.50099398  1
  Mg  Mg5  1  0.78304998  0.68047002  0.49919099  1
  Ti  Ti6  1  0.48807499  0.50763801  0.00375301  1
  O  O7  1  0.98611400  0.00295600  0.99781897  1
  O  O8  1  0.64796099  0.32965101  0.49913399  1
  O  O9  1  0.15681799  0.62604902  0.50006598  1
  O  O10  1  0.72155298  0.73466302  0.97163997  1
  O  O11  1  0.74469199  0.29685901  0.03914201  1
  O  O12  1  0.23275898  0.72233802  0.96238496  1
  O  O13  1  0.25386499  0.26895501  0.02781800  1
  O  O14  1  0.11119800  0.07527100  0.26514499  1
  O  O15  1  0.82573998  0.93913202  0.74046198  1
  O  O16  1  0.58506798  0.69966602  0.25598600  1
  O  O17  1  0.35486099  0.30829101  0.73756297  1
