# generated using pymatgen
data_K(CuO)2
_symmetry_space_group_name_H-M   'P 1'
_cell_length_a   5.79748392
_cell_length_b   6.52359200
_cell_length_c   5.79748392
_cell_angle_alpha   116.38159943
_cell_angle_beta   90.00000000
_cell_angle_gamma   116.38159943
_symmetry_Int_Tables_number   1
_chemical_formula_structural   K(CuO)2
_chemical_formula_sum   'K2 Cu4 O4'
_cell_volume   170.56239198
_cell_formula_units_Z   2
loop_
 _symmetry_equiv_pos_site_id
 _symmetry_equiv_pos_as_xyz
  1  'x, y, z'
loop_
 _atom_site_type_symbol
 _atom_site_label
 _atom_site_symmetry_multiplicity
 _atom_site_fract_x
 _atom_site_fract_y
 _atom_site_fract_z
 _atom_site_occupancy
  K  K0  1  0.00000000  0.00000000  0.00000000  1
  K  K1  1  0.24999996  0.49999995  0.74999996  1
  Cu  Cu2  1  0.62499999  0.24999997  0.87499999  1
  Cu  Cu3  1  0.12499993  0.74999992  0.37499994  1
  Cu  Cu4  1  0.62499999  0.24999997  0.37499998  1
  Cu  Cu5  1  0.62499994  0.74999992  0.37499994  1
  O  O6  1  0.26207796  0.52415594  0.26207796  1
  O  O7  1  0.51207800  0.02415600  0.01207800  1
  O  O8  1  0.98792192  0.97584390  0.48792192  1
  O  O9  1  0.73792197  0.47584395  0.73792197  1
