# generated using pymatgen
data_Sc2CoGe3
_symmetry_space_group_name_H-M   'P 1'
_cell_length_a   4.13156319
_cell_length_b   6.78767490
_cell_length_c   6.94452477
_cell_angle_alpha   90.00000000
_cell_angle_beta   90.00000000
_cell_angle_gamma   90.00000000
_symmetry_Int_Tables_number   1
_chemical_formula_structural   Sc2CoGe3
_chemical_formula_sum   'Sc4 Co2 Ge6'
_cell_volume   194.75022301
_cell_formula_units_Z   2
loop_
 _symmetry_equiv_pos_site_id
 _symmetry_equiv_pos_as_xyz
  1  'x, y, z'
loop_
 _atom_site_type_symbol
 _atom_site_label
 _atom_site_symmetry_multiplicity
 _atom_site_fract_x
 _atom_site_fract_y
 _atom_site_fract_z
 _atom_site_occupancy
  Sc  Sc0  1  0.74999997  0.51514501  0.80766703  1
  Sc  Sc1  1  0.74999997  0.01514500  0.69233302  1
  Sc  Sc2  1  0.24999999  0.48485501  0.19233301  1
  Sc  Sc3  1  0.24999999  0.98485501  0.30766701  1
  Ge  Ge4  1  0.74999997  0.35220000  0.43819001  1
  Ge  Ge5  1  0.74999997  0.85220001  0.06181000  1
  Ge  Ge6  1  0.24999999  0.64780001  0.56181002  1
  Ge  Ge7  1  0.24999999  0.14780000  0.93819003  1
  Ge  Ge8  1  0.74999997  0.19764300  0.10524100  1
  Co  Co9  1  0.74999997  0.69764301  0.39475901  1
  Ge  Ge10  1  0.24999999  0.80235701  0.89475903  1
  Co  Co11  1  0.24999999  0.30235700  0.60524102  1
