# generated using pymatgen
data_Lu5Ga3
_symmetry_space_group_name_H-M   'P 1'
_cell_length_a   6.15157890
_cell_length_b   8.42333603
_cell_length_c   8.42389488
_cell_angle_alpha   120.00219727
_cell_angle_beta   90.00000000
_cell_angle_gamma   90.00000000
_symmetry_Int_Tables_number   1
_chemical_formula_structural   Lu5Ga3
_chemical_formula_sum   'Lu10 Ga6'
_cell_volume   378.01121025
_cell_formula_units_Z   2
loop_
 _symmetry_equiv_pos_site_id
 _symmetry_equiv_pos_as_xyz
  1  'x, y, z'
loop_
 _atom_site_type_symbol
 _atom_site_label
 _atom_site_symmetry_multiplicity
 _atom_site_fract_x
 _atom_site_fract_y
 _atom_site_fract_z
 _atom_site_occupancy
  Lu  Lu0  1  0.50000201  0.66666668  0.33333336  1
  Lu  Lu1  1  0.50000201  0.33327301  0.66660634  1
  Lu  Lu2  1  0.00000200  0.33327301  0.66660634  1
  Lu  Lu3  1  0.00000200  0.66666668  0.33327270  1
  Lu  Lu4  1  0.75000401  1.00000003  0.75539404  1
  Lu  Lu5  1  0.74999401  0.75536002  0.99999202  1
  Lu  Lu6  1  0.74999401  0.24464001  0.24463201  1
  Lu  Lu7  1  0.25000400  1.00000003  0.24460605  1
  Lu  Lu8  1  0.24999400  0.24464001  0.00000801  1
  Lu  Lu9  1  0.24999400  0.75536002  0.75536803  1
  Ga  Ga10  1  0.74999801  0.00000000  0.39256299  1
  Ga  Ga11  1  0.75000301  0.39252601  0.99999100  1
  Ga  Ga12  1  0.75000301  0.60747402  0.60746502  1
  Ga  Ga13  1  0.24999800  0.00000000  0.60743699  1
  Ga  Ga14  1  0.25000300  0.60747402  0.00000904  1
  Ga  Ga15  1  0.25000300  0.39252601  0.39253501  1
