# generated using pymatgen
data_NaS
_symmetry_space_group_name_H-M   'P 1'
_cell_length_a   4.13436794
_cell_length_b   4.13436794
_cell_length_c   9.21416950
_cell_angle_alpha   102.96456146
_cell_angle_beta   102.96456146
_cell_angle_gamma   90.00000000
_symmetry_Int_Tables_number   1
_chemical_formula_structural   NaS
_chemical_formula_sum   'Na3 S3'
_cell_volume   149.36035894
_cell_formula_units_Z   3
loop_
 _symmetry_equiv_pos_site_id
 _symmetry_equiv_pos_as_xyz
  1  'x, y, z'
loop_
 _atom_site_type_symbol
 _atom_site_label
 _atom_site_symmetry_multiplicity
 _atom_site_fract_x
 _atom_site_fract_y
 _atom_site_fract_z
 _atom_site_occupancy
  S  S0  1  0.67018100  0.67018100  0.34036199  1
  S  S1  1  0.00000000  0.00000000  0.00000000  1
  S  S2  1  0.32981900  0.32981900  0.65963802  1
  Na  Na3  1  0.50000000  0.50000000  -0.00000001  1
  Na  Na4  1  0.83244600  0.83244601  0.66489200  1
  Na  Na5  1  0.16755400  0.16755400  0.33510801  1
