# generated using pymatgen
data_Li3Cr5O8
_symmetry_space_group_name_H-M   'P 1'
_cell_length_a   5.24401903
_cell_length_b   5.26719522
_cell_length_c   5.73875093
_cell_angle_alpha   89.99994659
_cell_angle_beta   89.99999237
_cell_angle_gamma   113.81213379
_symmetry_Int_Tables_number   1
_chemical_formula_structural   Li3Cr5O8
_chemical_formula_sum   'Li3 Cr5 O8'
_cell_volume   145.01817160
_cell_formula_units_Z   1
loop_
 _symmetry_equiv_pos_site_id
 _symmetry_equiv_pos_as_xyz
  1  'x, y, z'
loop_
 _atom_site_type_symbol
 _atom_site_label
 _atom_site_symmetry_multiplicity
 _atom_site_fract_x
 _atom_site_fract_y
 _atom_site_fract_z
 _atom_site_occupancy
  Li  Li0  1  0.50000001  0.00000000  0.25004002  1
  Li  Li1  1  0.99999903  0.50000000  0.75004004  1
  Li  Li2  1  0.49999902  0.49999900  0.99995903  1
  Cr  Cr3  1  0.00000000  0.00000000  0.49995901  1
  Cr  Cr4  1  0.49999502  0.50001000  0.49898102  1
  Cr  Cr5  1  0.50000703  1.00000000  0.75101502  1
  Cr  Cr6  1  0.00000102  0.99999700  0.99902000  1
  Cr  Cr7  1  0.00000301  0.49999700  0.25098700  1
  O  O8  1  0.23006401  0.26914000  0.24950201  1
  O  O9  1  0.73005303  0.76913500  0.74949703  1
  O  O10  1  0.26994602  0.73086600  0.50050301  1
  O  O11  1  0.76993602  0.23085900  0.00049703  1
  O  O12  1  0.76993603  0.73085900  0.24950203  1
  O  O13  1  0.26994701  0.23086300  0.74949502  1
  O  O14  1  0.23006302  0.76913900  0.00049800  1
  O  O15  1  0.73005102  0.26913500  0.50050403  1
