# generated using pymatgen
data_Dy3Mg
_symmetry_space_group_name_H-M   'P 1'
_cell_length_a   5.69116211
_cell_length_b   6.91351414
_cell_length_c   6.91351318
_cell_angle_alpha   120.00000000
_cell_angle_beta   90.00000000
_cell_angle_gamma   90.00000000
_symmetry_Int_Tables_number   1
_chemical_formula_structural   Dy3Mg
_chemical_formula_sum   'Dy6 Mg2'
_cell_volume   235.57502111
_cell_formula_units_Z   2
loop_
 _symmetry_equiv_pos_site_id
 _symmetry_equiv_pos_as_xyz
  1  'x, y, z'
loop_
 _atom_site_type_symbol
 _atom_site_label
 _atom_site_symmetry_multiplicity
 _atom_site_fract_x
 _atom_site_fract_y
 _atom_site_fract_z
 _atom_site_occupancy
  Mg  Mg0  1  0.74999999  0.82990196  0.17009695  1
  Dy  Dy1  1  0.74999999  0.34019498  0.17009698  1
  Dy  Dy2  1  0.74999999  0.82990196  0.65980396  1
  Dy  Dy3  1  0.25000000  0.17009799  0.82990301  1
  Dy  Dy4  1  0.25000000  0.65980497  0.82990298  1
  Dy  Dy5  1  0.25000000  0.17009799  0.34019600  1
  Dy  Dy6  1  0.25000000  0.66666663  0.33333330  1
  Mg  Mg7  1  0.74999999  0.33333332  0.66666666  1
