# generated using pymatgen
data_Cu
_symmetry_space_group_name_H-M   'P 1'
_cell_length_a   5.04796600
_cell_length_b   6.17650318
_cell_length_c   6.17650318
_cell_angle_alpha   80.38720703
_cell_angle_beta   65.88040161
_cell_angle_gamma   65.88040161
_symmetry_Int_Tables_number   1
_chemical_formula_structural   Cu
_chemical_formula_sum   Cu10
_cell_volume   160.41780932
_cell_formula_units_Z   10
loop_
 _symmetry_equiv_pos_site_id
 _symmetry_equiv_pos_as_xyz
  1  'x, y, z'
loop_
 _atom_site_type_symbol
 _atom_site_label
 _atom_site_symmetry_multiplicity
 _atom_site_fract_x
 _atom_site_fract_y
 _atom_site_fract_z
 _atom_site_occupancy
  Cu  Cu0  1  0.00000000  0.00000000  0.00000000  1
  Cu  Cu1  1  0.20056402  0.39936901  0.19950199  1
  Cu  Cu2  1  0.59993301  0.19950200  0.60063202  1
  Cu  Cu3  1  0.40006704  0.80049802  0.39936797  1
  Cu  Cu4  1  0.79943603  0.60063101  0.80049801  1
  Cu  Cu5  1  0.50000000  0.00000000  0.00000001  1
  Cu  Cu6  1  0.70720402  0.39127401  0.19431800  1
  Cu  Cu7  1  0.09847801  0.19431800  0.60872601  1
  Cu  Cu8  1  0.90152204  0.80568202  0.39127398  1
  Cu  Cu9  1  0.29279603  0.60872601  0.80568200  1
