# generated using pymatgen
data_ErSc3(CrSe4)2
_symmetry_space_group_name_H-M   'P 1'
_cell_length_a   3.75728989
_cell_length_b   6.43078852
_cell_length_c   12.77402020
_cell_angle_alpha   90.00000000
_cell_angle_beta   90.00000000
_cell_angle_gamma   106.98569489
_symmetry_Int_Tables_number   1
_chemical_formula_structural   ErSc3(CrSe4)2
_chemical_formula_sum   'Er1 Sc3 Cr2 Se8'
_cell_volume   295.18615292
_cell_formula_units_Z   1
loop_
 _symmetry_equiv_pos_site_id
 _symmetry_equiv_pos_as_xyz
  1  'x, y, z'
loop_
 _atom_site_type_symbol
 _atom_site_label
 _atom_site_symmetry_multiplicity
 _atom_site_fract_x
 _atom_site_fract_y
 _atom_site_fract_z
 _atom_site_occupancy
  Sc  Sc0  1  0.61883003  0.23766000  0.21573200  1
  Er  Er1  1  0.38117004  0.76234002  0.71573199  1
  Sc  Sc2  1  0.86230806  0.72461601  0.41808599  1
  Sc  Sc3  1  0.13769202  0.27538401  0.91808599  1
  Cr  Cr4  1  0.87387806  0.74775601  0.05448000  1
  Cr  Cr5  1  0.12612201  0.25224401  0.55447999  1
  Se  Se6  1  0.21015702  0.42031401  0.36449199  1
  Se  Se7  1  0.78984305  0.57968601  0.86449199  1
  Se  Se8  1  0.51043202  0.02086400  0.00344900  1
  Se  Se9  1  0.48956805  0.97913602  0.50344899  1
  Se  Se10  1  0.23840303  0.47680601  0.10467400  1
  Se  Se11  1  0.76159704  0.52319401  0.60467399  1
  Se  Se12  1  0.96232107  0.92464202  0.23108600  1
  Se  Se13  1  0.03767900  0.07535800  0.73108599  1
