# generated using pymatgen
data_Sc6(AlSi)7
_symmetry_space_group_name_H-M   'P 1'
_cell_length_a   6.85395718
_cell_length_b   7.11124611
_cell_length_c   7.11124611
_cell_angle_alpha   90.00000000
_cell_angle_beta   90.00000000
_cell_angle_gamma   90.00000000
_symmetry_Int_Tables_number   1
_chemical_formula_structural   Sc6(AlSi)7
_chemical_formula_sum   'Sc6 Al7 Si7'
_cell_volume   346.60338907
_cell_formula_units_Z   1
loop_
 _symmetry_equiv_pos_site_id
 _symmetry_equiv_pos_as_xyz
  1  'x, y, z'
loop_
 _atom_site_type_symbol
 _atom_site_label
 _atom_site_symmetry_multiplicity
 _atom_site_fract_x
 _atom_site_fract_y
 _atom_site_fract_z
 _atom_site_occupancy
  Sc  Sc0  1  0.00000000  0.18331400  0.18331400  1
  Al  Al1  1  0.49999999  0.68331399  0.31668600  1
  Al  Al2  1  0.49999999  0.31668600  0.68331399  1
  Al  Al3  1  0.00000000  0.81668599  0.81668599  1
  Al  Al4  1  0.00000000  0.65494599  0.34505399  1
  Al  Al5  1  0.49999999  0.84505399  0.84505399  1
  Al  Al6  1  0.49999999  0.15494600  0.15494600  1
  Sc  Sc7  1  0.00000000  0.34505399  0.65494599  1
  Si  Si8  1  0.28476799  0.37463499  0.37463499  1
  Si  Si9  1  0.78476798  0.87463499  0.12536500  1
  Si  Si10  1  0.78476798  0.12536500  0.87463499  1
  Si  Si11  1  0.28476799  0.62536499  0.62536499  1
  Si  Si12  1  0.21523199  0.12536500  0.87463499  1
  Si  Si13  1  0.21523199  0.87463499  0.12536500  1
  Al  Al14  1  0.71523198  0.37463499  0.37463499  1
  Si  Si15  1  0.71523198  0.62536499  0.62536499  1
  Sc  Sc16  1  0.24999999  0.49999999  -0.00000000  1
  Sc  Sc17  1  0.74999998  0.49999999  -0.00000000  1
  Sc  Sc18  1  0.24999999  0.00000000  0.49999999  1
  Sc  Sc19  1  0.74999998  0.00000000  0.49999999  1
