# generated using pymatgen
data_Te
_symmetry_space_group_name_H-M   'P 1'
_cell_length_a   4.37496805
_cell_length_b   4.37496805
_cell_length_c   21.75575829
_cell_angle_alpha   84.22930908
_cell_angle_beta   84.22930908
_cell_angle_gamma   59.99999619
_symmetry_Int_Tables_number   1
_chemical_formula_structural   Te
_chemical_formula_sum   Te11
_cell_volume   358.18519085
_cell_formula_units_Z   11
loop_
 _symmetry_equiv_pos_site_id
 _symmetry_equiv_pos_as_xyz
  1  'x, y, z'
loop_
 _atom_site_type_symbol
 _atom_site_label
 _atom_site_symmetry_multiplicity
 _atom_site_fract_x
 _atom_site_fract_y
 _atom_site_fract_z
 _atom_site_occupancy
  Te  Te0  1  0.17838901  0.17838901  0.46483298  1
  Te  Te1  1  0.36371902  0.36371902  0.90884296  1
  Te  Te2  1  0.63628103  0.63628103  0.09115700  1
  Te  Te3  1  0.82161104  0.82161104  0.53516699  1
  Te  Te4  1  0.54770103  0.54770103  0.35689699  1
  Te  Te5  1  0.09536100  0.09536100  0.71391697  1
  Te  Te6  1  0.90463904  0.90463904  0.28608300  1
  Te  Te7  1  0.45229902  0.45229902  0.64310298  1
  Te  Te8  1  0.27683501  0.27683501  0.16949500  1
  Te  Te9  1  0.72316503  0.72316403  0.83050697  1
  Te  Te10  1  0.00000000  0.00000000  0.00000000  1
