# generated using pymatgen
data_Na2Mn3P2(HO5)2
_symmetry_space_group_name_H-M   'P 1'
_cell_length_a   4.98507977
_cell_length_b   5.74283218
_cell_length_c   7.78789043
_cell_angle_alpha   111.63562775
_cell_angle_beta   102.93212891
_cell_angle_gamma   90.00000000
_symmetry_Int_Tables_number   1
_chemical_formula_structural   Na2Mn3P2(HO5)2
_chemical_formula_sum   'Na2 Mn3 P2 H2 O10'
_cell_volume   201.15145550
_cell_formula_units_Z   1
loop_
 _symmetry_equiv_pos_site_id
 _symmetry_equiv_pos_as_xyz
  1  'x, y, z'
loop_
 _atom_site_type_symbol
 _atom_site_label
 _atom_site_symmetry_multiplicity
 _atom_site_fract_x
 _atom_site_fract_y
 _atom_site_fract_z
 _atom_site_occupancy
  Na  Na0  1  0.28432201  0.23510899  0.47021800  1
  Na  Na1  1  0.71567803  0.76489097  0.52978200  1
  Mn  Mn2  1  0.00000000  0.00000000  0.00000000  1
  Mn  Mn3  1  0.50000002  0.73177797  1.00000000  1
  Mn  Mn4  1  0.50000002  0.26822199  0.00000000  1
  P  P5  1  0.90380104  0.37622498  0.75245001  1
  P  P6  1  0.09619901  0.62377497  0.24754999  1
  H  H7  1  0.75238203  0.14015899  0.28031801  1
  H  H8  1  0.24761801  0.85984096  0.71968199  1
  O  O9  1  0.77112403  0.59291097  0.18582100  1
  O  O10  1  0.22887601  0.40708898  0.81417900  1
  O  O11  1  0.21734301  0.81212196  0.17368299  1
  O  O12  1  0.21734301  0.36155998  0.17368300  1
  O  O13  1  0.78265703  0.18787799  0.82631702  1
  O  O14  1  0.78265703  0.63843997  0.82631701  1
  O  O15  1  0.71099403  0.07053000  0.14106101  1
  O  O16  1  0.28900601  0.92946996  0.85893899  1
  O  O17  1  0.80938603  0.26683699  0.53367301  1
  O  O18  1  0.19061401  0.73316297  0.46632699  1
