# generated using pymatgen
data_ZnS
_symmetry_space_group_name_H-M   'P 1'
_cell_length_a   3.31187391
_cell_length_b   3.31187391
_cell_length_c   13.80327892
_cell_angle_alpha   83.10980988
_cell_angle_beta   83.10980988
_cell_angle_gamma   60.00000381
_symmetry_Int_Tables_number   1
_chemical_formula_structural   ZnS
_chemical_formula_sum   'Zn5 S5'
_cell_volume   129.85332562
_cell_formula_units_Z   5
loop_
 _symmetry_equiv_pos_site_id
 _symmetry_equiv_pos_as_xyz
  1  'x, y, z'
loop_
 _atom_site_type_symbol
 _atom_site_label
 _atom_site_symmetry_multiplicity
 _atom_site_fract_x
 _atom_site_fract_y
 _atom_site_fract_z
 _atom_site_occupancy
  Zn  Zn0  1  0.59615298  0.59615298  0.21154100  1
  Zn  Zn1  1  0.19870899  0.19870899  0.40387299  1
  Zn  Zn2  1  0.80129097  0.80129097  0.59612699  1
  Zn  Zn3  1  0.40384699  0.40384699  0.78845898  1
  Zn  Zn4  1  0.00000000  0.00000000  0.00000000  1
  S  S5  1  0.70269698  0.70269698  0.89190898  1
  S  S6  1  0.49999998  0.49999998  0.49999999  1
  S  S7  1  0.10151700  0.10151700  0.69544898  1
  S  S8  1  0.29730299  0.29730299  0.10809100  1
  S  S9  1  0.89848297  0.89848297  0.30455099  1
