# generated using pymatgen
data_GaCu3Te2Se
_symmetry_space_group_name_H-M   'P 1'
_cell_length_a   6.05621195
_cell_length_b   6.89680529
_cell_length_c   6.05621195
_cell_angle_alpha   63.95613098
_cell_angle_beta   90.00000000
_cell_angle_gamma   116.04386902
_symmetry_Int_Tables_number   1
_chemical_formula_structural   GaCu3Te2Se
_chemical_formula_sum   'Ga1 Cu3 Te2 Se1'
_cell_volume   198.28725707
_cell_formula_units_Z   1
loop_
 _symmetry_equiv_pos_site_id
 _symmetry_equiv_pos_as_xyz
  1  'x, y, z'
loop_
 _atom_site_type_symbol
 _atom_site_label
 _atom_site_symmetry_multiplicity
 _atom_site_fract_x
 _atom_site_fract_y
 _atom_site_fract_z
 _atom_site_occupancy
  Se  Se0  1  0.50000000  0.00000000  0.50000000  1
  Te  Te1  1  0.74999998  0.50000000  0.75000003  1
  Te  Te2  1  0.24999998  0.50000000  0.25000003  1
  Cu  Cu3  1  0.86267300  0.21570500  0.15148601  1
  Ga  Ga4  1  0.35303199  0.21570500  0.63280902  1
  Cu  Cu5  1  0.63280897  0.78429499  0.86267305  1
  Cu  Cu6  1  0.15148596  0.78429499  0.35303204  1
