# generated using pymatgen
data_Cr3Se4
_symmetry_space_group_name_H-M   'P 1'
_cell_length_a   3.48848605
_cell_length_b   5.93466091
_cell_length_c   6.54156828
_cell_angle_alpha   91.46918488
_cell_angle_beta   90.00000000
_cell_angle_gamma   90.00000000
_symmetry_Int_Tables_number   1
_chemical_formula_structural   Cr3Se4
_chemical_formula_sum   'Cr3 Se4'
_cell_volume   135.38544772
_cell_formula_units_Z   1
loop_
 _symmetry_equiv_pos_site_id
 _symmetry_equiv_pos_as_xyz
  1  'x, y, z'
loop_
 _atom_site_type_symbol
 _atom_site_label
 _atom_site_symmetry_multiplicity
 _atom_site_fract_x
 _atom_site_fract_y
 _atom_site_fract_z
 _atom_site_occupancy
  Cr  Cr0  1  0.49999999  0.50000001  0.50000003  1
  Cr  Cr1  1  0.00000000  0.00000000  0.50000001  1
  Cr  Cr2  1  0.00000000  0.00000000  0.00000000  1
  Se  Se3  1  0.99999999  0.67070001  0.71391804  1
  Se  Se4  1  0.49999999  0.16737600  0.71113303  1
  Se  Se5  1  0.49999999  0.83262401  0.28886704  1
  Se  Se6  1  0.99999999  0.32930001  0.28608202  1
