# generated using pymatgen
data_LiV3F10
_symmetry_space_group_name_H-M   'P 1'
_cell_length_a   4.59955978
_cell_length_b   6.78199387
_cell_length_c   6.78199387
_cell_angle_alpha   90.00000000
_cell_angle_beta   90.00000000
_cell_angle_gamma   90.00000000
_symmetry_Int_Tables_number   1
_chemical_formula_structural   LiV3F10
_chemical_formula_sum   'Li1 V3 F10'
_cell_volume   211.55877974
_cell_formula_units_Z   1
loop_
 _symmetry_equiv_pos_site_id
 _symmetry_equiv_pos_as_xyz
  1  'x, y, z'
loop_
 _atom_site_type_symbol
 _atom_site_label
 _atom_site_symmetry_multiplicity
 _atom_site_fract_x
 _atom_site_fract_y
 _atom_site_fract_z
 _atom_site_occupancy
  V  V0  1  0.50000002  0.00000000  -0.00000000  1
  Li  Li1  1  0.50000002  0.50000001  0.50000001  1
  V  V2  1  0.62065703  0.50000001  -0.00000000  1
  V  V3  1  0.37934302  0.00000000  0.50000001  1
  F  F4  1  0.24065501  0.50000001  -0.00000000  1
  F  F5  1  0.71620603  0.23591900  0.03752600  1
  F  F6  1  0.28379401  0.96247402  0.23591900  1
  F  F7  1  0.71620603  0.53752601  0.26408101  1
  F  F8  1  0.28379401  0.26408101  0.46247401  1
  F  F9  1  0.75934504  0.00000000  0.50000001  1
  F  F10  1  0.28379401  0.73591901  0.53752601  1
  F  F11  1  0.71620603  0.46247401  0.73591901  1
  F  F12  1  0.28379401  0.03752600  0.76408102  1
  F  F13  1  0.71620603  0.76408102  0.96247402  1
