# generated using pymatgen
data_EuZn4Sn3
_symmetry_space_group_name_H-M   'P 1'
_cell_length_a   4.43658686
_cell_length_b   4.43658686
_cell_length_c   8.75841618
_cell_angle_alpha   90.00000000
_cell_angle_beta   90.00000000
_cell_angle_gamma   90.00000000
_symmetry_Int_Tables_number   1
_chemical_formula_structural   EuZn4Sn3
_chemical_formula_sum   'Eu1 Zn4 Sn3'
_cell_volume   172.39455885
_cell_formula_units_Z   1
loop_
 _symmetry_equiv_pos_site_id
 _symmetry_equiv_pos_as_xyz
  1  'x, y, z'
loop_
 _atom_site_type_symbol
 _atom_site_label
 _atom_site_symmetry_multiplicity
 _atom_site_fract_x
 _atom_site_fract_y
 _atom_site_fract_z
 _atom_site_occupancy
  Eu  Eu0  1  0.00000000  0.00000000  0.49999999  1
  Sn  Sn1  1  0.00000000  0.50000002  0.17358500  1
  Zn  Zn2  1  0.00000000  0.50000002  0.82641498  1
  Sn  Sn3  1  0.50000002  0.00000000  0.17358500  1
  Zn  Zn4  1  0.50000002  0.00000000  0.82641498  1
  Zn  Zn5  1  0.50000002  0.50000002  0.34068399  1
  Sn  Sn6  1  0.50000002  0.50000002  0.65931599  1
  Zn  Zn7  1  0.00000000  0.00000000  0.00000000  1
