# generated using pymatgen
data_CeEu2P3Pd3Rh2
_symmetry_space_group_name_H-M   'P 1'
_cell_length_a   6.40593290
_cell_length_b   6.40593290
_cell_length_c   6.40593290
_cell_angle_alpha   109.47122192
_cell_angle_beta   109.47122192
_cell_angle_gamma   109.47122192
_symmetry_Int_Tables_number   1
_chemical_formula_structural   CeEu2P3Pd3Rh2
_chemical_formula_sum   'Ce1 Eu2 P3 Pd3 Rh2'
_cell_volume   202.36026757
_cell_formula_units_Z   1
loop_
 _symmetry_equiv_pos_site_id
 _symmetry_equiv_pos_as_xyz
  1  'x, y, z'
loop_
 _atom_site_type_symbol
 _atom_site_label
 _atom_site_symmetry_multiplicity
 _atom_site_fract_x
 _atom_site_fract_y
 _atom_site_fract_z
 _atom_site_occupancy
  Ce  Ce0  1  0.00000003  0.50000001  0.50000002  1
  Eu  Eu1  1  0.50000006  1.00000002  0.50000006  1
  Eu  Eu2  1  0.50000002  0.50000001  1.00000002  1
  Rh  Rh3  1  1.00000002  0.61001701  0.00000006  1
  P  P4  1  0.38998302  0.38998301  0.38998302  1
  Rh  Rh5  1  0.61001699  0.00000000  0.00000001  1
  P  P6  1  1.00000005  1.00000002  0.61001706  1
  Pd  Pd7  1  0.00000000  0.00000000  0.24539399  1
  Pd  Pd8  1  0.75460604  0.75460601  0.75460604  1
  Pd  Pd9  1  0.00000002  0.24539400  0.00000001  1
  P  P10  1  0.24539400  0.00000000  0.99999998  1
