# generated using pymatgen
data_Li2YbH4
_symmetry_space_group_name_H-M   'P 1'
_cell_length_a   2.91860008
_cell_length_b   2.94284391
_cell_length_c   6.84325171
_cell_angle_alpha   102.41658020
_cell_angle_beta   102.31267548
_cell_angle_gamma   90.00000000
_symmetry_Int_Tables_number   1
_chemical_formula_structural   Li2YbH4
_chemical_formula_sum   'Li2 Yb1 H4'
_cell_volume   56.01667982
_cell_formula_units_Z   1
loop_
 _symmetry_equiv_pos_site_id
 _symmetry_equiv_pos_as_xyz
  1  'x, y, z'
loop_
 _atom_site_type_symbol
 _atom_site_label
 _atom_site_symmetry_multiplicity
 _atom_site_fract_x
 _atom_site_fract_y
 _atom_site_fract_z
 _atom_site_occupancy
  Li  Li0  1  0.31400898  0.81400902  0.62801798  1
  Li  Li1  1  0.68599097  0.18599100  0.37198198  1
  Yb  Yb2  1  0.49999997  0.50000001  0.99999997  1
  H  H3  1  0.06637800  0.06637800  0.13275600  1
  H  H4  1  0.93362195  0.93362202  0.86724396  1
  H  H5  1  0.13982099  0.63982102  0.27964199  1
  H  H6  1  0.86017896  0.36017901  0.72035797  1
