# generated using pymatgen
data_LiSm4Ge7
_symmetry_space_group_name_H-M   'P 1'
_cell_length_a   4.65679216
_cell_length_b   7.05123520
_cell_length_c   8.00551701
_cell_angle_alpha   90.00000000
_cell_angle_beta   90.00000000
_cell_angle_gamma   90.00000000
_symmetry_Int_Tables_number   1
_chemical_formula_structural   LiSm4Ge7
_chemical_formula_sum   'Li1 Sm4 Ge7'
_cell_volume   262.87025172
_cell_formula_units_Z   1
loop_
 _symmetry_equiv_pos_site_id
 _symmetry_equiv_pos_as_xyz
  1  'x, y, z'
loop_
 _atom_site_type_symbol
 _atom_site_label
 _atom_site_symmetry_multiplicity
 _atom_site_fract_x
 _atom_site_fract_y
 _atom_site_fract_z
 _atom_site_occupancy
  Sm  Sm0  1  0.24999999  0.50593499  0.78180100  1
  Sm  Sm1  1  0.24999999  0.00593500  0.71819900  1
  Sm  Sm2  1  0.74999997  0.49406499  0.21819900  1
  Sm  Sm3  1  0.74999997  0.99406497  0.28180100  1
  Ge  Ge4  1  0.24999999  0.70409698  0.41511800  1
  Ge  Ge5  1  0.24999999  0.20409699  0.08488200  1
  Ge  Ge6  1  0.74999997  0.29590299  0.58488200  1
  Ge  Ge7  1  0.74999997  0.79590298  0.91511800  1
  Ge  Ge8  1  0.24999999  0.77798298  0.08284600  1
  Li  Li9  1  0.24999999  0.27798299  0.41715400  1
  Ge  Ge10  1  0.74999997  0.22201699  0.91715400  1
  Ge  Ge11  1  0.74999997  0.72201698  0.58284600  1
