# generated using pymatgen
data_PbF5
_symmetry_space_group_name_H-M   'P 1'
_cell_length_a   4.84573221
_cell_length_b   5.59681177
_cell_length_c   5.63557053
_cell_angle_alpha   119.77275085
_cell_angle_beta   115.46272278
_cell_angle_gamma   90.00000000
_symmetry_Int_Tables_number   1
_chemical_formula_structural   PbF5
_chemical_formula_sum   'Pb1 F5'
_cell_volume   115.24937269
_cell_formula_units_Z   1
loop_
 _symmetry_equiv_pos_site_id
 _symmetry_equiv_pos_as_xyz
  1  'x, y, z'
loop_
 _atom_site_type_symbol
 _atom_site_label
 _atom_site_symmetry_multiplicity
 _atom_site_fract_x
 _atom_site_fract_y
 _atom_site_fract_z
 _atom_site_occupancy
  F  F0  1  0.49999992  0.75466500  -0.00000008  1
  Pb  Pb1  1  0.49999995  0.24533500  -0.00000004  1
  F  F2  1  0.16246695  0.66246700  0.32493395  1
  F  F3  1  0.83753293  0.33753300  0.67506596  1
  F  F4  1  0.82564990  0.82565000  0.65129992  1
  F  F5  1  0.17434998  0.17435000  0.34869999  1
