# generated using pymatgen
data_FeO
_symmetry_space_group_name_H-M   'P 1'
_cell_length_a   3.02096772
_cell_length_b   3.02096772
_cell_length_c   10.04474831
_cell_angle_alpha   81.35131073
_cell_angle_beta   81.35131073
_cell_angle_gamma   60.00000763
_symmetry_Int_Tables_number   1
_chemical_formula_structural   FeO
_chemical_formula_sum   'Fe4 O4'
_cell_volume   78.18331662
_cell_formula_units_Z   4
loop_
 _symmetry_equiv_pos_site_id
 _symmetry_equiv_pos_as_xyz
  1  'x, y, z'
loop_
 _atom_site_type_symbol
 _atom_site_label
 _atom_site_symmetry_multiplicity
 _atom_site_fract_x
 _atom_site_fract_y
 _atom_site_fract_z
 _atom_site_occupancy
  Fe  Fe0  1  0.62564900  0.62564899  0.12305301  1
  O  O1  1  0.37435100  0.37435099  0.87694702  1
  Fe  Fe2  1  0.87485100  0.87485098  0.37544702  1
  Fe  Fe3  1  0.12514900  0.12514900  0.62455301  1
  O  O4  1  0.50000000  0.49999999  0.50000002  1
  Fe  Fe5  1  0.74898300  0.74898299  0.75305103  1
  O  O6  1  0.00000000  0.00000000  0.00000000  1
  O  O7  1  0.25101700  0.25101700  0.24694901  1
