# generated using pymatgen
data_Mg3InCuBiS3Br8O
_symmetry_space_group_name_H-M   'P 1'
_cell_length_a   4.13642883
_cell_length_b   9.72265720
_cell_length_c   11.62119675
_cell_angle_alpha   100.23200226
_cell_angle_beta   90.00000000
_cell_angle_gamma   90.00000000
_symmetry_Int_Tables_number   1
_chemical_formula_structural   Mg3InCuBiS3Br8O
_chemical_formula_sum   'Mg3 In1 Cu1 Bi1 S3 Br8 O1'
_cell_volume   459.93778715
_cell_formula_units_Z   1
loop_
 _symmetry_equiv_pos_site_id
 _symmetry_equiv_pos_as_xyz
  1  'x, y, z'
loop_
 _atom_site_type_symbol
 _atom_site_label
 _atom_site_symmetry_multiplicity
 _atom_site_fract_x
 _atom_site_fract_y
 _atom_site_fract_z
 _atom_site_occupancy
  Bi  Bi0  1  0.50839602  0.71111002  0.60724199  1
  Mg  Mg1  1  0.00839600  0.78889002  0.89275798  1
  In  In2  1  0.49160402  0.28889001  0.39275799  1
  Mg  Mg3  1  0.99160404  0.21111000  0.10724200  1
  Cu  Cu4  1  0.50203202  0.44647101  0.80934898  1
  Mg  Mg5  1  0.00203200  0.05352900  0.69065098  1
  Br  Br6  1  0.49796802  0.55352901  0.19065100  1
  Br  Br7  1  0.99796804  0.94647102  0.30934899  1
  Br  Br8  1  0.50000002  0.00000000  0.49999999  1
  Br  Br9  1  0.00000000  0.50000001  0.00000000  1
  Br  Br10  1  0.49959802  0.08730700  0.87043698  1
  Br  Br11  1  0.99959804  0.41269301  0.62956298  1
  Br  Br12  1  0.50040202  0.91269302  0.12956300  1
  Br  Br13  1  0.00040200  0.58730701  0.37043699  1
  O  O14  1  0.49632702  0.33363501  0.18727200  1
  S  S15  1  0.99632704  0.16636500  0.31272799  1
  S  S16  1  0.50367302  0.66636502  0.81272798  1
  S  S17  1  0.00367300  0.83363502  0.68727198  1
