# generated using pymatgen
data_Ce6ScSi13
_symmetry_space_group_name_H-M   'P 1'
_cell_length_a   8.29895878
_cell_length_b   8.29895878
_cell_length_c   8.29895878
_cell_angle_alpha   109.47122192
_cell_angle_beta   109.47122192
_cell_angle_gamma   109.47122192
_symmetry_Int_Tables_number   1
_chemical_formula_structural   Ce6ScSi13
_chemical_formula_sum   'Ce6 Sc1 Si13'
_cell_volume   439.99618482
_cell_formula_units_Z   1
loop_
 _symmetry_equiv_pos_site_id
 _symmetry_equiv_pos_as_xyz
  1  'x, y, z'
loop_
 _atom_site_type_symbol
 _atom_site_label
 _atom_site_symmetry_multiplicity
 _atom_site_fract_x
 _atom_site_fract_y
 _atom_site_fract_z
 _atom_site_occupancy
  Ce  Ce0  1  0.87500000  0.12500000  0.75000001  1
  Ce  Ce1  1  0.62500002  0.37500001  0.25000003  1
  Ce  Ce2  1  0.12500001  0.25000001  0.37500001  1
  Ce  Ce3  1  0.37500004  0.75000002  0.12500005  1
  Ce  Ce4  1  0.75000003  0.62500001  0.87500004  1
  Ce  Ce5  1  0.25000005  0.87500002  0.62500004  1
  Si  Si6  1  0.37500004  0.62500001  0.75000003  1
  Si  Si7  1  0.12500005  0.87500002  0.25000005  1
  Si  Si8  1  0.62500001  0.25000001  0.87500001  1
  Si  Si9  1  0.87500004  0.75000002  0.62500005  1
  Si  Si10  1  0.75000000  0.12500000  0.37500002  1
  Si  Si11  1  0.25000002  0.37500001  0.12500002  1
  Si  Si12  1  0.00000003  0.50000001  0.65983502  1
  Si  Si13  1  0.34016502  0.34016501  0.84016501  1
  Sc  Sc14  1  0.50000001  0.15983500  0.50000001  1
  Si  Si15  1  0.15983506  1.00000002  0.00000006  1
  Si  Si16  1  0.84016505  0.84016502  0.34016506  1
  Si  Si17  1  1.00000002  0.50000001  0.15983505  1
  Si  Si18  1  0.50000004  0.65983501  0.50000004  1
  Si  Si19  1  0.65983506  1.00000002  1.00000005  1
