# generated using pymatgen
data_Zn11S9
_symmetry_space_group_name_H-M   'P 1'
_cell_length_a   6.40302706
_cell_length_b   6.74996424
_cell_length_c   10.31235409
_cell_angle_alpha   70.89325714
_cell_angle_beta   89.99561310
_cell_angle_gamma   89.94505310
_symmetry_Int_Tables_number   1
_chemical_formula_structural   Zn11S9
_chemical_formula_sum   'Zn11 S9'
_cell_volume   421.14828816
_cell_formula_units_Z   1
loop_
 _symmetry_equiv_pos_site_id
 _symmetry_equiv_pos_as_xyz
  1  'x, y, z'
loop_
 _atom_site_type_symbol
 _atom_site_label
 _atom_site_symmetry_multiplicity
 _atom_site_fract_x
 _atom_site_fract_y
 _atom_site_fract_z
 _atom_site_occupancy
  S  S0  1  0.50563597  0.52911698  0.59839203  1
  S  S1  1  0.49915199  0.13536099  0.40146602  1
  S  S2  1  0.49654296  0.73348797  0.20110804  1
  Zn  Zn3  1  0.00106996  0.66942697  0.00022503  1
  S  S4  1  0.99931998  0.26457699  0.79759903  1
  S  S5  1  0.00301198  0.46557598  0.40244102  1
  S  S6  1  0.50088895  0.93695696  0.79951605  1
  S  S7  1  0.00189800  0.06905400  0.19960400  1
  S  S8  1  0.50252098  0.33223199  0.99992002  1
  S  S9  1  0.00192695  0.86538996  0.60026403  1
  Zn  Zn10  1  0.90039197  0.33227199  0.00182304  1
  Zn  Zn11  1  0.86118694  0.93319696  0.81306506  1
  Zn  Zn12  1  0.86954497  0.51080298  0.59990304  1
  Zn  Zn13  1  0.86905998  0.14842399  0.38338103  1
  Zn  Zn14  1  0.87370195  0.74118897  0.20144905  1
  Zn  Zn15  1  0.36258199  0.05222400  0.21385901  1
  Zn  Zn16  1  0.37026396  0.69082397  0.99640103  1
  Zn  Zn17  1  0.36806798  0.25976599  0.78731901  1
  Zn  Zn18  1  0.39947295  0.86327896  0.60470904  1
  Zn  Zn19  1  0.37375797  0.46684398  0.39755503  1
