# generated using pymatgen
data_CeGaAu
_symmetry_space_group_name_H-M   'P 1'
_cell_length_a   4.51252222
_cell_length_b   5.68628931
_cell_length_c   5.76658583
_cell_angle_alpha   76.25022125
_cell_angle_beta   66.96678925
_cell_angle_gamma   66.62236023
_symmetry_Int_Tables_number   1
_chemical_formula_structural   CeGaAu
_chemical_formula_sum   'Ce2 Ga2 Au2'
_cell_volume   124.39655995
_cell_formula_units_Z   2
loop_
 _symmetry_equiv_pos_site_id
 _symmetry_equiv_pos_as_xyz
  1  'x, y, z'
loop_
 _atom_site_type_symbol
 _atom_site_label
 _atom_site_symmetry_multiplicity
 _atom_site_fract_x
 _atom_site_fract_y
 _atom_site_fract_z
 _atom_site_occupancy
  Ce  Ce0  1  0.53715198  0.22137999  0.70431598  1
  Ce  Ce1  1  0.46284799  0.77861997  0.29568398  1
  Au  Au2  1  0.84135996  0.20834199  0.10893800  1
  Ga  Ga3  1  0.15864001  0.79165796  0.89106196  1
  Ga  Ga4  1  0.17718500  0.36363598  0.28199399  1
  Au  Au5  1  0.82281497  0.63636397  0.71800597  1
