# generated using pymatgen
data_Al2Te
_symmetry_space_group_name_H-M   'P 1'
_cell_length_a   4.27569103
_cell_length_b   4.27569151
_cell_length_c   10.95754623
_cell_angle_alpha   90.00000000
_cell_angle_beta   90.00000000
_cell_angle_gamma   119.97453308
_symmetry_Int_Tables_number   1
_chemical_formula_structural   Al2Te
_chemical_formula_sum   'Al6 Te3'
_cell_volume   173.52738170
_cell_formula_units_Z   3
loop_
 _symmetry_equiv_pos_site_id
 _symmetry_equiv_pos_as_xyz
  1  'x, y, z'
loop_
 _atom_site_type_symbol
 _atom_site_label
 _atom_site_symmetry_multiplicity
 _atom_site_fract_x
 _atom_site_fract_y
 _atom_site_fract_z
 _atom_site_occupancy
  Te  Te0  1  0.99999599  0.00000300  0.74991898  1
  Te  Te1  1  0.99998899  0.00001100  0.25139699  1
  Al  Al2  1  0.99999599  0.00000300  0.00008100  1
  Al  Al3  1  0.99998899  0.00001100  0.49860299  1
  Al  Al4  1  0.33326800  0.66673200  0.87499998  1
  Te  Te5  1  0.33354200  0.66645700  0.62279099  1
  Al  Al6  1  0.33354200  0.66645700  0.12720900  1
  Al  Al7  1  0.66666666  0.33333333  0.87499998  1
  Al  Al8  1  0.66632199  0.33367900  0.37499999  1
