# generated using pymatgen
data_Ce5Sn3
_symmetry_space_group_name_H-M   'P 1'
_cell_length_a   6.74613094
_cell_length_b   9.18262577
_cell_length_c   9.18262577
_cell_angle_alpha   120.00000000
_cell_angle_beta   90.00000000
_cell_angle_gamma   90.00000000
_symmetry_Int_Tables_number   1
_chemical_formula_structural   Ce5Sn3
_chemical_formula_sum   'Ce10 Sn6'
_cell_volume   492.62808679
_cell_formula_units_Z   2
loop_
 _symmetry_equiv_pos_site_id
 _symmetry_equiv_pos_as_xyz
  1  'x, y, z'
loop_
 _atom_site_type_symbol
 _atom_site_label
 _atom_site_symmetry_multiplicity
 _atom_site_fract_x
 _atom_site_fract_y
 _atom_site_fract_z
 _atom_site_occupancy
  Ce  Ce0  1  0.00000000  0.33333334  0.66666665  1
  Ce  Ce1  1  -0.00000000  0.66666667  0.33333331  1
  Ce  Ce2  1  0.50000000  0.66666667  0.33333331  1
  Ce  Ce3  1  0.50000000  0.33333334  0.66666665  1
  Ce  Ce4  1  0.25000000  0.24065600  -0.00000001  1
  Ce  Ce5  1  0.25000000  0.75934401  0.75934397  1
  Ce  Ce6  1  0.25000000  1.00000001  0.24065597  1
  Ce  Ce7  1  0.75000001  0.75934401  -0.00000002  1
  Ce  Ce8  1  0.75000001  0.24065600  0.24065599  1
  Ce  Ce9  1  0.75000001  0.00000000  0.75934399  1
  Sn  Sn10  1  0.25000000  0.60568001  0.99999997  1
  Sn  Sn11  1  0.25000000  0.39432000  0.39431999  1
  Sn  Sn12  1  0.25000000  1.00000001  0.60567997  1
  Sn  Sn13  1  0.75000001  0.39432000  -0.00000001  1
  Sn  Sn14  1  0.75000001  0.60568001  0.60567998  1
  Sn  Sn15  1  0.75000001  1.00000001  0.39431997  1
