# generated using pymatgen
data_LaSn
_symmetry_space_group_name_H-M   'P 1'
_cell_length_a   5.13032722
_cell_length_b   7.44145679
_cell_length_c   9.91867733
_cell_angle_alpha   90.00000000
_cell_angle_beta   90.00000000
_cell_angle_gamma   90.00000000
_symmetry_Int_Tables_number   1
_chemical_formula_structural   LaSn
_chemical_formula_sum   'La6 Sn6'
_cell_volume   378.66641947
_cell_formula_units_Z   6
loop_
 _symmetry_equiv_pos_site_id
 _symmetry_equiv_pos_as_xyz
  1  'x, y, z'
loop_
 _atom_site_type_symbol
 _atom_site_label
 _atom_site_symmetry_multiplicity
 _atom_site_fract_x
 _atom_site_fract_y
 _atom_site_fract_z
 _atom_site_occupancy
  La  La0  1  0.24999999  0.02943000  0.81135297  1
  La  La1  1  0.24999999  0.52943001  0.68864698  1
  La  La2  1  0.74999997  0.97057003  0.18864699  1
  La  La3  1  0.74999997  0.47057001  0.31135299  1
  La  La4  1  0.24999999  0.15916900  0.43210499  1
  Sn  Sn5  1  0.24999999  0.65916902  0.06789500  1
  Sn  Sn6  1  0.74999997  0.84083102  0.56789498  1
  Sn  Sn7  1  0.74999997  0.34083101  0.93210497  1
  Sn  Sn8  1  0.24999999  0.73112202  0.38614999  1
  Sn  Sn9  1  0.24999999  0.23112201  0.11385000  1
  Sn  Sn10  1  0.74999997  0.26887801  0.61384998  1
  La  La11  1  0.74999997  0.76887802  0.88614997  1
