# generated using pymatgen
data_CeAl7Si
_symmetry_space_group_name_H-M   'P 1'
_cell_length_a   5.19468021
_cell_length_b   5.19468021
_cell_length_c   13.14076138
_cell_angle_alpha   90.00000000
_cell_angle_beta   90.00000000
_cell_angle_gamma   120.00000000
_symmetry_Int_Tables_number   1
_chemical_formula_structural   CeAl7Si
_chemical_formula_sum   'Ce2 Al14 Si2'
_cell_volume   307.09220692
_cell_formula_units_Z   2
loop_
 _symmetry_equiv_pos_site_id
 _symmetry_equiv_pos_as_xyz
  1  'x, y, z'
loop_
 _atom_site_type_symbol
 _atom_site_label
 _atom_site_symmetry_multiplicity
 _atom_site_fract_x
 _atom_site_fract_y
 _atom_site_fract_z
 _atom_site_occupancy
  Al  Al0  1  0.49999999  0.50000000  0.88430697  1
  Al  Al1  1  0.50000000  0.99999999  0.55097298  1
  Al  Al2  1  0.00000001  0.50000000  0.21763999  1
  Al  Al3  1  0.49999999  0.50000000  0.11569300  1
  Al  Al4  1  0.50000000  0.99999999  0.78235998  1
  Ce  Ce5  1  0.00000001  0.50000000  0.44902699  1
  Al  Al6  1  0.83524197  0.16475900  0.99999997  1
  Al  Al7  1  0.16475800  0.32951600  0.66666665  1
  Al  Al8  1  0.67048299  0.83524099  0.33333332  1
  Al  Al9  1  0.32951699  0.16475900  0.33333332  1
  Ce  Ce10  1  0.83524198  0.67048399  0.66666665  1
  Al  Al11  1  0.16475801  0.83524099  -0.00000000  1
  Al  Al12  1  0.00000000  0.00000000  0.83333298  1
  Si  Si13  1  0.00000000  0.00000000  0.49999999  1
  Al  Al14  1  0.00000000  0.00000000  0.16666700  1
  Al  Al15  1  0.00000001  0.50000000  0.83333298  1
  Si  Si16  1  0.49999999  0.50000000  0.49999999  1
  Al  Al17  1  0.50000000  0.99999999  0.16666700  1
