# generated using pymatgen
data_Li3Mn2O5
_symmetry_space_group_name_H-M   'P 1'
_cell_length_a   2.94497705
_cell_length_b   7.77563047
_cell_length_c   8.17089176
_cell_angle_alpha   104.79719543
_cell_angle_beta   90.80595398
_cell_angle_gamma   97.47674561
_symmetry_Int_Tables_number   1
_chemical_formula_structural   Li3Mn2O5
_chemical_formula_sum   'Li6 Mn4 O10'
_cell_volume   179.14396299
_cell_formula_units_Z   2
loop_
 _symmetry_equiv_pos_site_id
 _symmetry_equiv_pos_as_xyz
  1  'x, y, z'
loop_
 _atom_site_type_symbol
 _atom_site_label
 _atom_site_symmetry_multiplicity
 _atom_site_fract_x
 _atom_site_fract_y
 _atom_site_fract_z
 _atom_site_occupancy
  Li  Li0  1  0.77320205  0.58226598  0.89532396  1
  Li  Li1  1  0.99625698  0.00191500  0.51810598  1
  Li  Li2  1  0.20209004  0.39961199  0.08614998  1
  Li  Li3  1  0.42545308  0.81663197  0.70187396  1
  Li  Li4  1  0.60313801  0.19923899  0.29925598  1
  Li  Li5  1  0.60022401  0.20129099  0.79977898  1
  Mn  Mn6  1  0.01228800  0.00599300  0.99214901  1
  Mn  Mn7  1  0.18976204  0.39514499  0.60557098  1
  Mn  Mn8  1  0.40891108  0.80087697  0.20403995  1
  Mn  Mn9  1  0.78421805  0.59579398  0.39894196  1
  O  O10  1  0.44258008  0.82490497  0.96388896  1
  O  O11  1  0.62394901  0.22427199  0.55507398  1
  O  O12  1  0.77290205  0.60486198  0.16209196  1
  O  O13  1  0.99566509  0.99514696  0.76597494  1
  O  O14  1  0.16346804  0.41169699  0.36321998  1
  O  O15  1  0.20605204  0.40740899  0.83261198  1
  O  O16  1  0.42040808  0.78825597  0.44253696  1
  O  O17  1  0.57835101  0.17664699  0.04333198  1
  O  O18  1  0.76037705  0.57481298  0.63219496  1
  O  O19  1  0.04070611  0.99322796  0.23788095  1
