# generated using pymatgen
data_Mn2HO4
_symmetry_space_group_name_H-M   'P 1'
_cell_length_a   2.96128893
_cell_length_b   4.74871922
_cell_length_c   9.90909576
_cell_angle_alpha   90.00000000
_cell_angle_beta   90.00000000
_cell_angle_gamma   90.00000000
_symmetry_Int_Tables_number   1
_chemical_formula_structural   Mn2HO4
_chemical_formula_sum   'Mn4 H2 O8'
_cell_volume   139.34497106
_cell_formula_units_Z   2
loop_
 _symmetry_equiv_pos_site_id
 _symmetry_equiv_pos_as_xyz
  1  'x, y, z'
loop_
 _atom_site_type_symbol
 _atom_site_label
 _atom_site_symmetry_multiplicity
 _atom_site_fract_x
 _atom_site_fract_y
 _atom_site_fract_z
 _atom_site_occupancy
  Mn  Mn0  1  0.00000000  0.22216099  0.63815202  1
  Mn  Mn1  1  0.00000000  0.77783896  0.13815200  1
  Mn  Mn2  1  0.50000001  0.29381599  0.35998401  1
  Mn  Mn3  1  0.50000001  0.70618397  0.85998402  1
  H  H4  1  0.00000000  0.70220497  0.46003901  1
  O  O5  1  0.00000000  0.29779499  0.96003902  1
  O  O6  1  0.00000000  0.49331898  0.45795701  1
  H  H7  1  0.00000000  0.50668098  0.95795702  1
  O  O8  1  0.50000001  0.05982900  0.52659801  1
  O  O9  1  0.50000001  0.94017096  0.02659800  1
  O  O10  1  0.00000000  0.90661396  0.78316602  1
  O  O11  1  0.00000000  0.09338600  0.28316601  1
  O  O12  1  0.50000001  0.58475897  0.22392401  1
  O  O13  1  0.50000001  0.41524098  0.72392402  1
