# generated using pymatgen
data_Lu2Al4Co
_symmetry_space_group_name_H-M   'P 1'
_cell_length_a   3.97195506
_cell_length_b   4.08085012
_cell_length_c   7.77064753
_cell_angle_alpha   105.22326660
_cell_angle_beta   90.00000000
_cell_angle_gamma   90.00000000
_symmetry_Int_Tables_number   1
_chemical_formula_structural   Lu2Al4Co
_chemical_formula_sum   'Lu2 Al4 Co1'
_cell_volume   121.53432795
_cell_formula_units_Z   1
loop_
 _symmetry_equiv_pos_site_id
 _symmetry_equiv_pos_as_xyz
  1  'x, y, z'
loop_
 _atom_site_type_symbol
 _atom_site_label
 _atom_site_symmetry_multiplicity
 _atom_site_fract_x
 _atom_site_fract_y
 _atom_site_fract_z
 _atom_site_occupancy
  Al  Al0  1  0.25000000  0.10294900  0.20589700  1
  Lu  Lu1  1  0.74999999  0.90020596  0.80041198  1
  Co  Co2  1  0.25000000  0.30644399  0.61288799  1
  Al  Al3  1  0.25000000  0.45675598  0.91351199  1
  Lu  Lu4  1  0.74999999  0.56313698  0.12627399  1
  Al  Al5  1  0.25000000  0.74353797  0.48707698  1
  Al  Al6  1  0.74999999  0.24296999  0.48593900  1
