# generated using pymatgen
data_ScIn15Co2
_symmetry_space_group_name_H-M   'P 1'
_cell_length_a   6.49644709
_cell_length_b   8.54581833
_cell_length_c   8.54581833
_cell_angle_alpha   60.00000000
_cell_angle_beta   90.00000000
_cell_angle_gamma   90.00000000
_symmetry_Int_Tables_number   1
_chemical_formula_structural   ScIn15Co2
_chemical_formula_sum   'Sc1 In15 Co2'
_cell_volume   410.87890953
_cell_formula_units_Z   1
loop_
 _symmetry_equiv_pos_site_id
 _symmetry_equiv_pos_as_xyz
  1  'x, y, z'
loop_
 _atom_site_type_symbol
 _atom_site_label
 _atom_site_symmetry_multiplicity
 _atom_site_fract_x
 _atom_site_fract_y
 _atom_site_fract_z
 _atom_site_occupancy
  Sc  Sc0  1  0.00000000  0.66666665  0.66666665  1
  In  In1  1  0.00000000  0.33333333  0.33333333  1
  In  In2  1  0.49999999  0.33333333  0.33333333  1
  In  In3  1  0.49999999  0.66666665  0.66666665  1
  In  In4  1  0.25000000  0.22245600  -0.00000001  1
  In  In5  1  0.25000000  0.00000000  0.77754401  1
  In  In6  1  0.25000000  0.77754398  0.22245598  1
  In  In7  1  0.74999999  0.77754398  -0.00000003  1
  In  In8  1  0.74999999  0.00000000  0.22245600  1
  In  In9  1  0.74999999  0.22245600  0.77754400  1
  In  In10  1  0.25000000  0.59172999  -0.00000002  1
  In  In11  1  0.25000000  0.00000000  0.40827001  1
  In  In12  1  0.25000000  0.40826999  0.59172999  1
  In  In13  1  0.74999999  0.40826999  -0.00000001  1
  In  In14  1  0.74999999  0.00000000  0.59173001  1
  In  In15  1  0.74999999  0.59172999  0.40826999  1
  Co  Co16  1  0.00000000  0.00000000  0.00000000  1
  Co  Co17  1  0.49999999  0.00000000  0.00000000  1
