# generated using pymatgen
data_Zr3GaSnPt4
_symmetry_space_group_name_H-M   'P 1'
_cell_length_a   3.93817806
_cell_length_b   6.95619822
_cell_length_c   6.95619774
_cell_angle_alpha   120.00000000
_cell_angle_beta   90.00000000
_cell_angle_gamma   90.00000000
_symmetry_Int_Tables_number   1
_chemical_formula_structural   Zr3GaSnPt4
_chemical_formula_sum   'Zr3 Ga1 Sn1 Pt4'
_cell_volume   165.03264029
_cell_formula_units_Z   1
loop_
 _symmetry_equiv_pos_site_id
 _symmetry_equiv_pos_as_xyz
  1  'x, y, z'
loop_
 _atom_site_type_symbol
 _atom_site_label
 _atom_site_symmetry_multiplicity
 _atom_site_fract_x
 _atom_site_fract_y
 _atom_site_fract_z
 _atom_site_occupancy
  Zr  Zr0  1  0.49999999  0.00000000  0.41397201  1
  Zr  Zr1  1  0.49999999  0.41397198  -0.00000001  1
  Zr  Zr2  1  0.49999999  0.58602798  0.58602800  1
  Pt  Pt3  1  0.99999998  0.00000000  0.75211901  1
  Sn  Sn4  1  0.99999998  0.75211897  1.00000000  1
  Ga  Ga5  1  0.00000000  0.24788099  0.24788100  1
  Pt  Pt6  1  0.99999998  0.66666664  0.33333333  1
  Pt  Pt7  1  0.00000000  0.33333332  0.66666667  1
  Pt  Pt8  1  0.49999999  0.00000000  -0.00000000  1
