# generated using pymatgen
data_CsU2Te5
_symmetry_space_group_name_H-M   'P 1'
_cell_length_a   6.41493416
_cell_length_b   8.59957790
_cell_length_c   10.47264957
_cell_angle_alpha   90.00000000
_cell_angle_beta   90.00000000
_cell_angle_gamma   90.00000000
_symmetry_Int_Tables_number   1
_chemical_formula_structural   CsU2Te5
_chemical_formula_sum   'Cs2 U4 Te10'
_cell_volume   577.73131735
_cell_formula_units_Z   2
loop_
 _symmetry_equiv_pos_site_id
 _symmetry_equiv_pos_as_xyz
  1  'x, y, z'
loop_
 _atom_site_type_symbol
 _atom_site_label
 _atom_site_symmetry_multiplicity
 _atom_site_fract_x
 _atom_site_fract_y
 _atom_site_fract_z
 _atom_site_occupancy
  Cs  Cs0  1  0.24999999  0.50000001  0.78616503  1
  Cs  Cs1  1  0.74999998  0.50000001  0.21383501  1
  U  U2  1  0.49999999  0.00000000  0.00000000  1
  U  U3  1  0.00000000  0.00000000  0.00000000  1
  U  U4  1  0.24999999  0.00000000  0.34035001  1
  U  U5  1  0.74999998  0.00000000  0.65965003  1
  Te  Te6  1  0.24999999  0.75504801  0.12225500  1
  Te  Te7  1  0.74999998  0.75504801  0.87774504  1
  Te  Te8  1  0.74999998  0.24495200  0.87774504  1
  Te  Te9  1  0.24999999  0.24495200  0.12225500  1
  Te  Te10  1  0.49999999  0.75865701  0.50000002  1
  Te  Te11  1  0.00000000  0.75865701  0.50000002  1
  Te  Te12  1  0.49999999  0.24134300  0.50000002  1
  Te  Te13  1  0.00000000  0.24134300  0.50000002  1
  Te  Te14  1  0.24999999  0.00000000  0.76620803  1
  Te  Te15  1  0.74999998  0.00000000  0.23379201  1
