# generated using pymatgen
data_Na2Zn7BiO8
_symmetry_space_group_name_H-M   'P 1'
_cell_length_a   3.33529806
_cell_length_b   3.33529806
_cell_length_c   22.16093636
_cell_angle_alpha   90.00000000
_cell_angle_beta   90.00000000
_cell_angle_gamma   120.00000000
_symmetry_Int_Tables_number   1
_chemical_formula_structural   Na2Zn7BiO8
_chemical_formula_sum   'Na2 Zn7 Bi1 O8'
_cell_volume   213.49516313
_cell_formula_units_Z   1
loop_
 _symmetry_equiv_pos_site_id
 _symmetry_equiv_pos_as_xyz
  1  'x, y, z'
loop_
 _atom_site_type_symbol
 _atom_site_label
 _atom_site_symmetry_multiplicity
 _atom_site_fract_x
 _atom_site_fract_y
 _atom_site_fract_z
 _atom_site_occupancy
  Na  Na0  1  0.33333335  0.66666670  0.94234798  1
  Na  Na1  1  0.66666667  0.33333335  0.05765200  1
  Bi  Bi2  1  0.66666667  0.33333335  0.44234799  1
  Zn  Zn3  1  0.33333335  0.66666670  0.55765199  1
  Zn  Zn4  1  0.00000000  0.00000000  0.84152799  1
  Zn  Zn5  1  0.00000000  0.00000000  0.65847299  1
  Zn  Zn6  1  0.00000000  0.00000000  0.15847300  1
  Zn  Zn7  1  0.00000000  0.00000000  0.34152699  1
  Zn  Zn8  1  0.33333335  0.66666670  0.25000000  1
  Zn  Zn9  1  0.66666667  0.33333335  0.74999999  1
  O  O10  1  0.33333335  0.66666670  0.37324399  1
  O  O11  1  0.66666667  0.33333335  0.62675599  1
  O  O12  1  0.00000000  0.00000000  0.74999999  1
  O  O13  1  0.66666667  0.33333335  0.87324399  1
  O  O14  1  0.00000000  0.00000000  0.00000000  1
  O  O15  1  0.33333335  0.66666670  0.12675600  1
  O  O16  1  0.00000000  0.00000000  0.49999999  1
  O  O17  1  0.00000000  0.00000000  0.25000000  1
