# generated using pymatgen
data_Zr5NiSn2Sb
_symmetry_space_group_name_H-M   'P 1'
_cell_length_a   5.79387522
_cell_length_b   8.58158779
_cell_length_c   8.58158779
_cell_angle_alpha   120.00000000
_cell_angle_beta   90.00000000
_cell_angle_gamma   90.00000000
_symmetry_Int_Tables_number   1
_chemical_formula_structural   Zr5NiSn2Sb
_chemical_formula_sum   'Zr10 Ni2 Sn4 Sb2'
_cell_volume   369.51754919
_cell_formula_units_Z   2
loop_
 _symmetry_equiv_pos_site_id
 _symmetry_equiv_pos_as_xyz
  1  'x, y, z'
loop_
 _atom_site_type_symbol
 _atom_site_label
 _atom_site_symmetry_multiplicity
 _atom_site_fract_x
 _atom_site_fract_y
 _atom_site_fract_z
 _atom_site_occupancy
  Zr  Zr0  1  0.24999999  0.25777600  0.00000001  1
  Zr  Zr1  1  0.24999999  0.74222401  0.74222402  1
  Zr  Zr2  1  0.24999999  0.00000000  0.25777600  1
  Zr  Zr3  1  0.74999997  0.74222401  0.00000002  1
  Zr  Zr4  1  0.74999997  0.25777600  0.25777601  1
  Zr  Zr5  1  0.74999997  0.00000000  0.74222400  1
  Zr  Zr6  1  0.00000000  0.33333334  0.66666668  1
  Zr  Zr7  1  0.00000000  0.66666668  0.33333335  1
  Zr  Zr8  1  0.49999998  0.66666668  0.33333335  1
  Zr  Zr9  1  0.49999998  0.33333334  0.66666668  1
  Ni  Ni10  1  0.00000000  0.00000000  0.00000000  1
  Ni  Ni11  1  0.49999998  0.00000000  -0.00000000  1
  Sn  Sn12  1  0.24999999  0.61259301  0.00000002  1
  Sn  Sn13  1  0.24999999  0.38740701  0.38740701  1
  Sn  Sn14  1  0.24999999  0.00000000  0.61259300  1
  Sn  Sn15  1  0.74999997  0.38740701  0.00000001  1
  Sb  Sb16  1  0.74999997  0.61259301  0.61259302  1
  Sb  Sb17  1  0.74999997  0.00000000  0.38740700  1
