# generated using pymatgen
data_Li8SiP3
_symmetry_space_group_name_H-M   'P 1'
_cell_length_a   3.97244501
_cell_length_b   5.50540018
_cell_length_c   7.44653082
_cell_angle_alpha   90.00000000
_cell_angle_beta   90.00000000
_cell_angle_gamma   90.00000000
_symmetry_Int_Tables_number   1
_chemical_formula_structural   Li8SiP3
_chemical_formula_sum   'Li8 Si1 P3'
_cell_volume   162.85488050
_cell_formula_units_Z   1
loop_
 _symmetry_equiv_pos_site_id
 _symmetry_equiv_pos_as_xyz
  1  'x, y, z'
loop_
 _atom_site_type_symbol
 _atom_site_label
 _atom_site_symmetry_multiplicity
 _atom_site_fract_x
 _atom_site_fract_y
 _atom_site_fract_z
 _atom_site_occupancy
  Si  Si0  1  0.25000000  0.27778899  0.89427402  1
  P  P1  1  0.75000000  0.72221098  0.10572600  1
  P  P2  1  0.25000000  0.77778897  0.60572601  1
  P  P3  1  0.75000000  0.22221099  0.39427401  1
  Li  Li4  1  0.75000000  0.52578198  0.80379602  1
  Li  Li5  1  0.25000000  0.47421798  0.19620400  1
  Li  Li6  1  0.75000000  0.02578200  0.69620402  1
  Li  Li7  1  0.25000000  0.97421797  0.30379601  1
  Li  Li8  1  0.25000000  0.84132697  0.92967802  1
  Li  Li9  1  0.75000000  0.15867299  0.07032200  1
  Li  Li10  1  0.25000000  0.34132699  0.57032201  1
  Li  Li11  1  0.75000000  0.65867298  0.42967801  1
