# generated using pymatgen
data_YbEuC12
_symmetry_space_group_name_H-M   'P 1'
_cell_length_a   4.34336996
_cell_length_b   4.34336948
_cell_length_c   9.49093819
_cell_angle_alpha   90.00000000
_cell_angle_beta   90.00000000
_cell_angle_gamma   120.00000763
_symmetry_Int_Tables_number   1
_chemical_formula_structural   YbEuC12
_chemical_formula_sum   'Yb1 Eu1 C12'
_cell_volume   155.05770164
_cell_formula_units_Z   1
loop_
 _symmetry_equiv_pos_site_id
 _symmetry_equiv_pos_as_xyz
  1  'x, y, z'
loop_
 _atom_site_type_symbol
 _atom_site_label
 _atom_site_symmetry_multiplicity
 _atom_site_fract_x
 _atom_site_fract_y
 _atom_site_fract_z
 _atom_site_occupancy
  Eu  Eu0  1  0.66666669  0.33333333  0.74999999  1
  Yb  Yb1  1  0.33333337  0.66666666  0.25000000  1
  C  C2  1  0.66650906  0.99999999  0.49999999  1
  C  C3  1  0.33349102  0.33349100  0.49999999  1
  C  C4  1  0.00000004  0.66650900  0.49999999  1
  C  C5  1  0.33349106  0.99999999  0.49999999  1
  C  C6  1  0.00000002  0.33349100  0.49999999  1
  C  C7  1  0.66650904  0.66650900  0.49999999  1
  C  C8  1  0.33349106  0.99999999  0.99999998  1
  C  C9  1  0.66650904  0.66650900  -0.00000000  1
  C  C10  1  0.00000002  0.33349100  0.99999998  1
  C  C11  1  0.66650906  0.99999999  0.99999998  1
  C  C12  1  0.00000004  0.66650900  0.99999998  1
  C  C13  1  0.33349102  0.33349100  0.99999998  1
