# generated using pymatgen
data_Mg3Sc2InS8
_symmetry_space_group_name_H-M   'P 1'
_cell_length_a   7.53322792
_cell_length_b   7.60437918
_cell_length_c   7.60437918
_cell_angle_alpha   60.73850250
_cell_angle_beta   60.30903244
_cell_angle_gamma   60.30903244
_symmetry_Int_Tables_number   1
_chemical_formula_structural   Mg3Sc2InS8
_chemical_formula_sum   'Mg3 Sc2 In1 S8'
_cell_volume   311.16778518
_cell_formula_units_Z   1
loop_
 _symmetry_equiv_pos_site_id
 _symmetry_equiv_pos_as_xyz
  1  'x, y, z'
loop_
 _atom_site_type_symbol
 _atom_site_label
 _atom_site_symmetry_multiplicity
 _atom_site_fract_x
 _atom_site_fract_y
 _atom_site_fract_z
 _atom_site_occupancy
  In  In0  1  -0.00000002  0.49999999  1.00000001  1
  Mg  Mg1  1  0.49999999  0.49999999  0.00000001  1
  Sc  Sc2  1  0.49999999  0.49999999  0.50000000  1
  Sc  Sc3  1  0.50000001  0.00000000  0.99999997  1
  Mg  Mg4  1  0.87640899  0.87359099  0.37359101  1
  Mg  Mg5  1  0.12359100  0.12640900  0.62640900  1
  S  S6  1  0.74053599  0.76031299  0.75861500  1
  S  S7  1  0.74053701  0.25861500  0.26031199  1
  S  S8  1  0.26823398  0.75134099  0.25134202  1
  S  S9  1  0.72908199  0.75134199  0.25134201  1
  S  S10  1  0.25946400  0.23968700  0.24138500  1
  S  S11  1  0.25946298  0.74138499  0.73968802  1
  S  S12  1  0.73176601  0.24865900  0.74865798  1
  S  S13  1  0.27091800  0.24865800  0.74865799  1
