# generated using pymatgen
data_LaSn5
_symmetry_space_group_name_H-M   'P 1'
_cell_length_a   4.82811594
_cell_length_b   4.82811689
_cell_length_c   7.51836395
_cell_angle_alpha   90.00000000
_cell_angle_beta   90.00000000
_cell_angle_gamma   119.99999237
_symmetry_Int_Tables_number   1
_chemical_formula_structural   LaSn5
_chemical_formula_sum   'La1 Sn5'
_cell_volume   151.77822769
_cell_formula_units_Z   1
loop_
 _symmetry_equiv_pos_site_id
 _symmetry_equiv_pos_as_xyz
  1  'x, y, z'
loop_
 _atom_site_type_symbol
 _atom_site_label
 _atom_site_symmetry_multiplicity
 _atom_site_fract_x
 _atom_site_fract_y
 _atom_site_fract_z
 _atom_site_occupancy
  La  La0  1  0.00000000  0.00000000  0.99769301  1
  Sn  Sn1  1  0.00000000  0.00000000  0.49769300  1
  Sn  Sn2  1  0.66666666  0.33333332  0.17780400  1
  Sn  Sn3  1  0.33333331  0.66666663  0.67780400  1
  Sn  Sn4  1  0.66666666  0.33333332  0.77300300  1
  Sn  Sn5  1  0.33333331  0.66666663  0.27300300  1
