# generated using pymatgen
data_TiNiAs
_symmetry_space_group_name_H-M   'P 1'
_cell_length_a   3.47673106
_cell_length_b   6.40731382
_cell_length_c   6.40731525
_cell_angle_alpha   119.99999237
_cell_angle_beta   90.00000000
_cell_angle_gamma   90.00000000
_symmetry_Int_Tables_number   1
_chemical_formula_structural   TiNiAs
_chemical_formula_sum   'Ti3 Ni3 As3'
_cell_volume   123.61006972
_cell_formula_units_Z   3
loop_
 _symmetry_equiv_pos_site_id
 _symmetry_equiv_pos_as_xyz
  1  'x, y, z'
loop_
 _atom_site_type_symbol
 _atom_site_label
 _atom_site_symmetry_multiplicity
 _atom_site_fract_x
 _atom_site_fract_y
 _atom_site_fract_z
 _atom_site_occupancy
  Ti  Ti0  1  0.49999999  0.58938401  0.58938397  1
  Ti  Ti1  1  0.49999999  0.00000000  0.41061599  1
  Ti  Ti2  1  0.49999999  0.41061600  -0.00000001  1
  Ni  Ni3  1  0.99999998  0.24646800  0.24646799  1
  Ni  Ni4  1  0.99999998  0.00000000  0.75353199  1
  Ni  Ni5  1  0.99999998  0.75353201  -0.00000003  1
  As  As6  1  0.99999998  0.66666667  0.33333330  1
  As  As7  1  0.99999998  0.33333334  0.66666664  1
  As  As8  1  0.49999999  0.00000000  -0.00000000  1
