# generated using pymatgen
data_RbWO4
_symmetry_space_group_name_H-M   'P 1'
_cell_length_a   5.67884016
_cell_length_b   6.90441990
_cell_length_c   7.76245356
_cell_angle_alpha   116.40618134
_cell_angle_beta   111.45614624
_cell_angle_gamma   90.00000000
_symmetry_Int_Tables_number   1
_chemical_formula_structural   RbWO4
_chemical_formula_sum   'Rb2 W2 O8'
_cell_volume   248.83300594
_cell_formula_units_Z   2
loop_
 _symmetry_equiv_pos_site_id
 _symmetry_equiv_pos_as_xyz
  1  'x, y, z'
loop_
 _atom_site_type_symbol
 _atom_site_label
 _atom_site_symmetry_multiplicity
 _atom_site_fract_x
 _atom_site_fract_y
 _atom_site_fract_z
 _atom_site_occupancy
  Rb  Rb0  1  0.27881399  0.77881401  0.55762800  1
  Rb  Rb1  1  0.72118598  0.22118600  0.44237200  1
  W  W2  1  0.49999999  0.50000001  0.00000000  1
  W  W3  1  0.00000000  0.00000000  0.00000000  1
  O  O4  1  0.49999999  0.78479901  0.00000000  1
  O  O5  1  0.65515698  0.65515701  0.31031400  1
  O  O6  1  0.11275000  0.30837201  0.22550000  1
  O  O7  1  0.88724998  0.08287200  0.77450000  1
  O  O8  1  0.49999999  0.21520100  0.00000000  1
  O  O9  1  0.11275000  0.91712802  0.22550000  1
  O  O10  1  0.34484299  0.34484301  0.68968600  1
  O  O11  1  0.88724998  0.69162801  0.77450000  1
