# generated using pymatgen
data_Ba7SrO12
_symmetry_space_group_name_H-M   'P 1'
_cell_length_a   6.93705082
_cell_length_b   7.32344818
_cell_length_c   10.30947304
_cell_angle_alpha   90.00000000
_cell_angle_beta   90.67275238
_cell_angle_gamma   90.00000000
_symmetry_Int_Tables_number   1
_chemical_formula_structural   Ba7SrO12
_chemical_formula_sum   'Ba7 Sr1 O12'
_cell_volume   523.71741755
_cell_formula_units_Z   1
loop_
 _symmetry_equiv_pos_site_id
 _symmetry_equiv_pos_as_xyz
  1  'x, y, z'
loop_
 _atom_site_type_symbol
 _atom_site_label
 _atom_site_symmetry_multiplicity
 _atom_site_fract_x
 _atom_site_fract_y
 _atom_site_fract_z
 _atom_site_occupancy
  Sr  Sr0  1  0.00000000  0.49999999  0.49999998  1
  Ba  Ba1  1  0.50000001  0.00000000  0.00000001  1
  Ba  Ba2  1  0.97672503  0.07439300  0.25867502  1
  Ba  Ba3  1  0.52327501  0.57439299  0.24132501  1
  Ba  Ba4  1  0.02327500  0.92560698  0.74132497  1
  Ba  Ba5  1  0.47672501  0.42560699  0.75867499  1
  Ba  Ba6  1  0.50000001  0.00000000  0.50000000  1
  Ba  Ba7  1  0.00000000  0.49999999  0.00000000  1
  O  O8  1  0.63837002  0.06634200  0.73821299  1
  O  O9  1  0.33082901  0.69489198  0.57921099  1
  O  O10  1  0.16917100  0.19489200  0.92078897  1
  O  O11  1  0.66917102  0.30510799  0.42078900  1
  O  O12  1  0.31435601  0.67872598  0.93490097  1
  O  O13  1  0.18564400  0.17872600  0.56509898  1
  O  O14  1  0.68564402  0.32127399  0.06509902  1
  O  O15  1  0.81435602  0.82127398  0.43490101  1
  O  O16  1  0.36163001  0.93365798  0.26178700  1
  O  O17  1  0.13837000  0.43365799  0.23821300  1
  O  O18  1  0.83082902  0.80510798  0.07921102  1
  O  O19  1  0.86163002  0.56634199  0.76178700  1
