# generated using pymatgen
data_La(Cr3Te4)2
_symmetry_space_group_name_H-M   'P 1'
_cell_length_a   3.52452588
_cell_length_b   10.19564629
_cell_length_c   10.19564629
_cell_angle_alpha   120.00000000
_cell_angle_beta   90.00000000
_cell_angle_gamma   90.00000000
_symmetry_Int_Tables_number   1
_chemical_formula_structural   La(Cr3Te4)2
_chemical_formula_sum   'La1 Cr6 Te8'
_cell_volume   317.29326679
_cell_formula_units_Z   1
loop_
 _symmetry_equiv_pos_site_id
 _symmetry_equiv_pos_as_xyz
  1  'x, y, z'
loop_
 _atom_site_type_symbol
 _atom_site_label
 _atom_site_symmetry_multiplicity
 _atom_site_fract_x
 _atom_site_fract_y
 _atom_site_fract_z
 _atom_site_occupancy
  La  La0  1  0.50000002  0.00000000  -0.00000000  1
  Cr  Cr1  1  0.74980303  0.89381799  0.51191104  1
  Cr  Cr2  1  0.74980303  0.48808899  0.38190702  1
  Cr  Cr3  1  0.74980303  0.61809299  0.10618202  1
  Cr  Cr4  1  0.25019701  0.10618200  0.48808901  1
  Cr  Cr5  1  0.25019701  0.51191099  0.61809303  1
  Cr  Cr6  1  0.25019701  0.38190700  0.89381803  1
  Te  Te7  1  0.75122503  0.71813599  0.65836104  1
  Te  Te8  1  0.75122503  0.34163800  0.05977401  1
  Te  Te9  1  0.75122503  0.94022499  0.28186303  1
  Te  Te10  1  0.24877501  0.28186400  0.34163902  1
  Te  Te11  1  0.24877501  0.65836199  0.94022604  1
  Te  Te12  1  0.24877501  0.05977500  0.71813702  1
  Te  Te13  1  0.74999603  0.33333333  0.66666669  1
  Te  Te14  1  0.25000401  0.66666666  0.33333336  1
