# generated using pymatgen
data_LiCrO2
_symmetry_space_group_name_H-M   'P 1'
_cell_length_a   2.91452408
_cell_length_b   5.86465836
_cell_length_c   6.68550968
_cell_angle_alpha   103.51097107
_cell_angle_beta   102.59001923
_cell_angle_gamma   90.00000000
_symmetry_Int_Tables_number   1
_chemical_formula_structural   LiCrO2
_chemical_formula_sum   'Li3 Cr3 O6'
_cell_volume   108.28288851
_cell_formula_units_Z   3
loop_
 _symmetry_equiv_pos_site_id
 _symmetry_equiv_pos_as_xyz
  1  'x, y, z'
loop_
 _atom_site_type_symbol
 _atom_site_label
 _atom_site_symmetry_multiplicity
 _atom_site_fract_x
 _atom_site_fract_y
 _atom_site_fract_z
 _atom_site_occupancy
  Li  Li0  1  0.50000000  0.50000001  0.00000001  1
  Li  Li1  1  0.83172399  0.17167600  0.66344802  1
  Li  Li2  1  0.16827601  0.82832401  0.33655201  1
  Cr  Cr3  1  0.49999999  0.00000000  0.00000001  1
  Cr  Cr4  1  0.16608500  0.33444201  0.33217001  1
  Cr  Cr5  1  0.83391499  0.66555801  0.66783002  1
  O  O6  1  0.33811601  0.89967701  0.67623201  1
  O  O7  1  0.66188399  0.10032300  0.32376801  1
  O  O8  1  0.99934499  0.76306201  0.99869002  1
  O  O9  1  0.67080300  0.56526201  0.34160601  1
  O  O10  1  0.00065500  0.23693800  0.00131000  1
  O  O11  1  0.32919700  0.43473801  0.65839401  1
