# generated using pymatgen
data_Mg5Cd
_symmetry_space_group_name_H-M   'P 1'
_cell_length_a   3.21415997
_cell_length_b   5.08526897
_cell_length_c   8.22666836
_cell_angle_alpha   90.00000000
_cell_angle_beta   101.26517487
_cell_angle_gamma   90.00000000
_symmetry_Int_Tables_number   1
_chemical_formula_structural   Mg5Cd
_chemical_formula_sum   'Mg5 Cd1'
_cell_volume   131.87317126
_cell_formula_units_Z   1
loop_
 _symmetry_equiv_pos_site_id
 _symmetry_equiv_pos_as_xyz
  1  'x, y, z'
loop_
 _atom_site_type_symbol
 _atom_site_label
 _atom_site_symmetry_multiplicity
 _atom_site_fract_x
 _atom_site_fract_y
 _atom_site_fract_z
 _atom_site_occupancy
  Mg  Mg0  1  0.44457001  0.25000000  0.88914001  1
  Mg  Mg1  1  0.77678101  0.25000000  0.55356202  1
  Cd  Cd2  1  0.22321900  0.75000000  0.44643801  1
  Mg  Mg3  1  0.55543001  0.75000000  0.11086001  1
  Mg  Mg4  1  0.11180000  0.25000000  0.22360000  1
  Mg  Mg5  1  0.88820002  0.75000000  0.77640002  1
