# generated using pymatgen
data_Be
_symmetry_space_group_name_H-M   'P 1'
_cell_length_a   3.70153999
_cell_length_b   4.59180403
_cell_length_c   4.59180307
_cell_angle_alpha   120.00000763
_cell_angle_beta   90.00000000
_cell_angle_gamma   90.00000000
_symmetry_Int_Tables_number   1
_chemical_formula_structural   Be
_chemical_formula_sum   Be8
_cell_volume   67.58956377
_cell_formula_units_Z   8
loop_
 _symmetry_equiv_pos_site_id
 _symmetry_equiv_pos_as_xyz
  1  'x, y, z'
loop_
 _atom_site_type_symbol
 _atom_site_label
 _atom_site_symmetry_multiplicity
 _atom_site_fract_x
 _atom_site_fract_y
 _atom_site_fract_z
 _atom_site_occupancy
  Be  Be0  1  0.25000000  0.16595000  0.33190002  1
  Be  Be1  1  0.25000000  0.66810001  0.83405005  1
  Be  Be2  1  0.25000000  0.16595000  0.83405003  1
  Be  Be3  1  0.75000000  0.83405001  0.66810005  1
  Be  Be4  1  0.75000000  0.33190000  0.16595002  1
  Be  Be5  1  0.75000000  0.83405001  0.16595004  1
  Be  Be6  1  0.75000000  0.33333334  0.66666670  1
  Be  Be7  1  0.25000000  0.66666668  0.33333337  1
