# generated using pymatgen
data_CaCrO3
_symmetry_space_group_name_H-M   'P 1'
_cell_length_a   3.21564198
_cell_length_b   5.18882084
_cell_length_c   7.38363981
_cell_angle_alpha   90.00000000
_cell_angle_beta   90.00000000
_cell_angle_gamma   108.05094147
_symmetry_Int_Tables_number   1
_chemical_formula_structural   CaCrO3
_chemical_formula_sum   'Ca2 Cr2 O6'
_cell_volume   117.13523200
_cell_formula_units_Z   2
loop_
 _symmetry_equiv_pos_site_id
 _symmetry_equiv_pos_as_xyz
  1  'x, y, z'
loop_
 _atom_site_type_symbol
 _atom_site_label
 _atom_site_symmetry_multiplicity
 _atom_site_fract_x
 _atom_site_fract_y
 _atom_site_fract_z
 _atom_site_occupancy
  Ca  Ca0  1  0.74962295  0.49924597  0.75000002  1
  Ca  Ca1  1  0.25037695  0.50075397  0.25000001  1
  Cr  Cr2  1  0.50000000  0.00000000  0.50000001  1
  Cr  Cr3  1  0.50000000  0.00000000  0.00000000  1
  O  O4  1  0.42173591  0.84347195  0.75000002  1
  O  O5  1  0.57826399  0.15652799  0.25000001  1
  O  O6  1  0.12544997  0.25089998  0.54968501  1
  O  O7  1  0.87454993  0.74909995  0.45031501  1
  O  O8  1  0.12544997  0.25089998  0.95031502  1
  O  O9  1  0.87454993  0.74909995  0.04968500  1
