# generated using pymatgen
data_V5O11
_symmetry_space_group_name_H-M   'P 1'
_cell_length_a   4.99458790
_cell_length_b   6.71263218
_cell_length_c   6.95958948
_cell_angle_alpha   90.00000000
_cell_angle_beta   91.49459076
_cell_angle_gamma   90.00000000
_symmetry_Int_Tables_number   1
_chemical_formula_structural   V5O11
_chemical_formula_sum   'V5 O11'
_cell_volume   233.25360171
_cell_formula_units_Z   1
loop_
 _symmetry_equiv_pos_site_id
 _symmetry_equiv_pos_as_xyz
  1  'x, y, z'
loop_
 _atom_site_type_symbol
 _atom_site_label
 _atom_site_symmetry_multiplicity
 _atom_site_fract_x
 _atom_site_fract_y
 _atom_site_fract_z
 _atom_site_occupancy
  O  O0  1  0.00000000  0.00000000  0.00000000  1
  V  V1  1  0.34968401  0.24999999  0.26908101  1
  V  V2  1  0.00000000  0.49999999  -0.00000000  1
  V  V3  1  0.65031601  0.74999998  0.73091902  1
  V  V4  1  0.51007901  0.74999998  0.23991901  1
  V  V5  1  0.48992101  0.24999999  0.76008102  1
  O  O6  1  0.83432602  0.24999999  0.23254501  1
  O  O7  1  0.16567400  0.74999998  0.76745503  1
  O  O8  1  0.69446601  0.04387100  0.79862303  1
  O  O9  1  0.32354501  0.24999999  0.54675602  1
  O  O10  1  0.69446601  0.45612899  0.79862303  1
  O  O11  1  0.30553401  0.95612897  0.20137701  1
  O  O12  1  0.67645501  0.74999998  0.45324401  1
  O  O13  1  0.24008600  0.24999999  0.93554103  1
  O  O14  1  0.30553401  0.54387099  0.20137701  1
  O  O15  1  0.75991402  0.74999998  0.06445900  1
