# generated using pymatgen
data_RbF3
_symmetry_space_group_name_H-M   'P 1'
_cell_length_a   5.06761503
_cell_length_b   5.17273998
_cell_length_c   6.17911482
_cell_angle_alpha   90.00000000
_cell_angle_beta   90.00000000
_cell_angle_gamma   90.00000000
_symmetry_Int_Tables_number   1
_chemical_formula_structural   RbF3
_chemical_formula_sum   'Rb2 F6'
_cell_volume   161.97594758
_cell_formula_units_Z   2
loop_
 _symmetry_equiv_pos_site_id
 _symmetry_equiv_pos_as_xyz
  1  'x, y, z'
loop_
 _atom_site_type_symbol
 _atom_site_label
 _atom_site_symmetry_multiplicity
 _atom_site_fract_x
 _atom_site_fract_y
 _atom_site_fract_z
 _atom_site_occupancy
  F  F0  1  0.50000000  0.65502300  0.50000001  1
  F  F1  1  0.00000000  0.34497700  -0.00000000  1
  F  F2  1  0.50000000  0.15798300  0.75509302  1
  Rb  Rb3  1  0.50000000  0.15798300  0.24490701  1
  F  F4  1  0.00000000  0.84201700  0.74490702  1
  Rb  Rb5  1  0.00000000  0.84201700  0.25509301  1
  F  F6  1  0.00000000  0.33876400  0.50000001  1
  F  F7  1  0.50000000  0.66123600  -0.00000000  1
