# generated using pymatgen
data_BaHg
_symmetry_space_group_name_H-M   'P 1'
_cell_length_a   4.36416292
_cell_length_b   5.09768009
_cell_length_c   6.60036802
_cell_angle_alpha   112.71616364
_cell_angle_beta   90.00000000
_cell_angle_gamma   90.00000000
_symmetry_Int_Tables_number   1
_chemical_formula_structural   BaHg
_chemical_formula_sum   'Ba2 Hg2'
_cell_volume   135.44866214
_cell_formula_units_Z   2
loop_
 _symmetry_equiv_pos_site_id
 _symmetry_equiv_pos_as_xyz
  1  'x, y, z'
loop_
 _atom_site_type_symbol
 _atom_site_label
 _atom_site_symmetry_multiplicity
 _atom_site_fract_x
 _atom_site_fract_y
 _atom_site_fract_z
 _atom_site_occupancy
  Ba  Ba0  1  0.75000001  0.86318896  0.72637796  1
  Ba  Ba1  1  0.25000000  0.13681099  0.27362200  1
  Hg  Hg2  1  0.75000001  0.56415297  0.12830597  1
  Hg  Hg3  1  0.25000000  0.43584698  0.87169399  1
