# generated using pymatgen
data_NaBi7SO7
_symmetry_space_group_name_H-M   'P 1'
_cell_length_a   6.62962198
_cell_length_b   6.85525417
_cell_length_c   8.10158539
_cell_angle_alpha   90.00000000
_cell_angle_beta   90.00000000
_cell_angle_gamma   90.00000000
_symmetry_Int_Tables_number   1
_chemical_formula_structural   NaBi7SO7
_chemical_formula_sum   'Na1 Bi7 S1 O7'
_cell_volume   368.19877680
_cell_formula_units_Z   1
loop_
 _symmetry_equiv_pos_site_id
 _symmetry_equiv_pos_as_xyz
  1  'x, y, z'
loop_
 _atom_site_type_symbol
 _atom_site_label
 _atom_site_symmetry_multiplicity
 _atom_site_fract_x
 _atom_site_fract_y
 _atom_site_fract_z
 _atom_site_occupancy
  S  S0  1  0.62865500  0.34810199  0.49999998  1
  O  O1  1  0.12865500  0.65189798  -0.00000000  1
  O  O2  1  0.13078600  0.17573500  0.24900999  1
  O  O3  1  0.13078600  0.17573500  0.75098996  1
  O  O4  1  0.63078600  0.82426498  0.25098999  1
  O  O5  1  0.63078600  0.82426498  0.74900996  1
  O  O6  1  0.12105800  0.67724398  0.49999998  1
  O  O7  1  0.62105800  0.32275599  0.00000000  1
  Na  Na8  1  0.03242900  0.35047899  0.49999998  1
  Bi  Bi9  1  0.53242900  0.64952098  -0.00000000  1
  Bi  Bi10  1  0.47080400  0.70540998  0.49999998  1
  Bi  Bi11  1  0.97080400  0.29458999  -0.00000000  1
  Bi  Bi12  1  0.49524100  0.15679200  0.22777299  1
  Bi  Bi13  1  0.49524100  0.15679200  0.77222696  1
  Bi  Bi14  1  0.99524100  0.84320798  0.27222699  1
  Bi  Bi15  1  0.99524100  0.84320798  0.72777297  1
