# generated using pymatgen
data_Ce2SiAsPt2
_symmetry_space_group_name_H-M   'P 1'
_cell_length_a   4.28573608
_cell_length_b   4.28573561
_cell_length_c   16.16006279
_cell_angle_alpha   90.00000000
_cell_angle_beta   90.00000000
_cell_angle_gamma   120.00000000
_symmetry_Int_Tables_number   1
_chemical_formula_structural   Ce2SiAsPt2
_chemical_formula_sum   'Ce4 Si2 As2 Pt4'
_cell_volume   257.05406408
_cell_formula_units_Z   2
loop_
 _symmetry_equiv_pos_site_id
 _symmetry_equiv_pos_as_xyz
  1  'x, y, z'
loop_
 _atom_site_type_symbol
 _atom_site_label
 _atom_site_symmetry_multiplicity
 _atom_site_fract_x
 _atom_site_fract_y
 _atom_site_fract_z
 _atom_site_occupancy
  Ce  Ce0  1  0.00000000  0.00000000  0.75000001  1
  Ce  Ce1  1  0.00000000  0.00000000  0.25000000  1
  Ce  Ce2  1  0.00000000  0.00000000  0.00000000  1
  Ce  Ce3  1  0.00000000  0.00000000  0.50000001  1
  As  As4  1  0.66666664  0.33333334  0.85749701  1
  Si  Si5  1  0.33333330  0.66666668  0.14250300  1
  Si  Si6  1  0.33333330  0.66666668  0.35749700  1
  As  As7  1  0.66666664  0.33333334  0.64250301  1
  Pt  Pt8  1  0.66666664  0.33333334  0.38461100  1
  Pt  Pt9  1  0.33333330  0.66666668  0.61538901  1
  Pt  Pt10  1  0.33333330  0.66666668  0.88461101  1
  Pt  Pt11  1  0.66666664  0.33333334  0.11538900  1
