# generated using pymatgen
data_CaDyHo2Cr2WO13
_symmetry_space_group_name_H-M   'P 1'
_cell_length_a   5.28648520
_cell_length_b   5.67375994
_cell_length_c   7.65019894
_cell_angle_alpha   90.00000000
_cell_angle_beta   90.00000000
_cell_angle_gamma   90.00000000
_symmetry_Int_Tables_number   1
_chemical_formula_structural   CaDyHo2Cr2WO13
_chemical_formula_sum   'Ca1 Dy1 Ho2 Cr2 W1 O13'
_cell_volume   229.46196346
_cell_formula_units_Z   1
loop_
 _symmetry_equiv_pos_site_id
 _symmetry_equiv_pos_as_xyz
  1  'x, y, z'
loop_
 _atom_site_type_symbol
 _atom_site_label
 _atom_site_symmetry_multiplicity
 _atom_site_fract_x
 _atom_site_fract_y
 _atom_site_fract_z
 _atom_site_occupancy
  Ca  Ca0  1  0.47605098  0.92585201  0.75000001  1
  Ho  Ho1  1  0.02394900  0.42585200  0.75000001  1
  Dy  Dy2  1  0.97605096  0.57414801  0.25000000  1
  Ho  Ho3  1  0.52394898  0.07414800  0.25000000  1
  Cr  Cr4  1  0.49999998  0.50000001  -0.00000000  1
  O  O5  1  0.00000000  0.00000000  0.00000000  1
  W  W6  1  0.00000000  0.00000000  0.50000000  1
  Cr  Cr7  1  0.49999998  0.50000001  0.50000000  1
  O  O8  1  0.36868899  0.44733000  0.25000000  1
  O  O9  1  0.31250499  0.19577200  0.93632701  1
  O  O10  1  0.31250499  0.19577200  0.56367300  1
  O  O11  1  0.18749499  0.69577201  0.93632701  1
  O  O12  1  0.18749499  0.69577201  0.56367300  1
  O  O13  1  0.13131100  0.94733001  0.25000000  1
  O  O14  1  0.86868897  0.05267000  0.75000001  1
  O  O15  1  0.81250497  0.30422800  0.43632700  1
  O  O16  1  0.81250497  0.30422800  0.06367300  1
  O  O17  1  0.68749497  0.80422801  0.43632700  1
  O  O18  1  0.68749497  0.80422801  0.06367300  1
  O  O19  1  0.63131098  0.55267001  0.75000001  1
