# generated using pymatgen
data_La3NiO5
_symmetry_space_group_name_H-M   'P 1'
_cell_length_a   3.84137201
_cell_length_b   5.90570021
_cell_length_c   6.79611254
_cell_angle_alpha   115.75291443
_cell_angle_beta   106.41635895
_cell_angle_gamma   90.00000000
_symmetry_Int_Tables_number   1
_chemical_formula_structural   La3NiO5
_chemical_formula_sum   'La3 Ni1 O5'
_cell_volume   131.84989671
_cell_formula_units_Z   1
loop_
 _symmetry_equiv_pos_site_id
 _symmetry_equiv_pos_as_xyz
  1  'x, y, z'
loop_
 _atom_site_type_symbol
 _atom_site_label
 _atom_site_symmetry_multiplicity
 _atom_site_fract_x
 _atom_site_fract_y
 _atom_site_fract_z
 _atom_site_occupancy
  La  La0  1  0.99999997  0.49999999  -0.00000002  1
  La  La1  1  0.20482299  0.20482300  0.40964599  1
  La  La2  1  0.79517697  0.79517698  0.59035398  1
  Ni  Ni3  1  0.49999999  0.00000000  -0.00000002  1
  O  O4  1  0.00000000  0.00000000  0.00000000  1
  O  O5  1  0.64083397  0.90050898  0.28166899  1
  O  O6  1  0.35916599  0.09949100  0.71833098  1
  O  O7  1  0.35916498  0.61883998  0.71832999  1
  O  O8  1  0.64083498  0.38115999  0.28166998  1
