# generated using pymatgen
data_CrS
_symmetry_space_group_name_H-M   'P 1'
_cell_length_a   5.70378590
_cell_length_b   5.70378590
_cell_length_c   6.93708372
_cell_angle_alpha   114.27447510
_cell_angle_beta   114.27447510
_cell_angle_gamma   90.00000000
_symmetry_Int_Tables_number   1
_chemical_formula_structural   CrS
_chemical_formula_sum   'Cr4 S4'
_cell_volume   183.62245145
_cell_formula_units_Z   4
loop_
 _symmetry_equiv_pos_site_id
 _symmetry_equiv_pos_as_xyz
  1  'x, y, z'
loop_
 _atom_site_type_symbol
 _atom_site_label
 _atom_site_symmetry_multiplicity
 _atom_site_fract_x
 _atom_site_fract_y
 _atom_site_fract_z
 _atom_site_occupancy
  S  S0  1  0.00000000  0.00000000  0.00000000  1
  S  S1  1  0.74999998  0.24999999  0.49999993  1
  S  S2  1  0.24999995  0.74999998  0.49999992  1
  S  S3  1  0.49999996  0.49999999  -0.00000007  1
  Cr  Cr4  1  0.36099797  0.36099799  0.26470795  1
  Cr  Cr5  1  0.90370993  0.90370998  0.26470787  1
  Cr  Cr6  1  0.63900199  0.09629100  0.73529295  1
  Cr  Cr7  1  0.09628996  0.63900099  0.73529093  1
