# generated using pymatgen
data_Sc4TeI11
_symmetry_space_group_name_H-M   'P 1'
_cell_length_a   6.37004185
_cell_length_b   7.26395702
_cell_length_c   9.35835743
_cell_angle_alpha   90.00000000
_cell_angle_beta   90.00000000
_cell_angle_gamma   90.00000000
_symmetry_Int_Tables_number   1
_chemical_formula_structural   Sc4TeI11
_chemical_formula_sum   'Sc4 Te1 I11'
_cell_volume   433.02720308
_cell_formula_units_Z   1
loop_
 _symmetry_equiv_pos_site_id
 _symmetry_equiv_pos_as_xyz
  1  'x, y, z'
loop_
 _atom_site_type_symbol
 _atom_site_label
 _atom_site_symmetry_multiplicity
 _atom_site_fract_x
 _atom_site_fract_y
 _atom_site_fract_z
 _atom_site_occupancy
  Te  Te0  1  0.32872701  0.67638400  0.06350200  1
  I  I1  1  0.17127300  0.17638400  0.43649798  1
  I  I2  1  0.67127302  0.32361600  0.56350197  1
  I  I3  1  0.82872702  0.82361600  0.93649796  1
  I  I4  1  0.67127302  0.32361600  0.93649796  1
  I  I5  1  0.82872702  0.82361600  0.56350197  1
  I  I6  1  0.32872701  0.67638400  0.43649798  1
  I  I7  1  0.17127300  0.17638400  0.06350200  1
  I  I8  1  0.86539802  0.53525800  0.24999999  1
  I  I9  1  0.63460202  0.03525800  0.24999999  1
  I  I10  1  0.13460200  0.46474200  0.74999997  1
  I  I11  1  0.36539801  0.96474200  0.74999997  1
  Sc  Sc12  1  0.05141600  0.88174900  0.24999999  1
  Sc  Sc13  1  0.44858401  0.38174900  0.24999999  1
  Sc  Sc14  1  0.94858402  0.11825100  0.74999997  1
  Sc  Sc15  1  0.55141601  0.61825100  0.74999997  1
