# generated using pymatgen
data_Li8Cr2NO5
_symmetry_space_group_name_H-M   'P 1'
_cell_length_a   3.64991593
_cell_length_b   5.73691368
_cell_length_c   7.22160292
_cell_angle_alpha   78.58702850
_cell_angle_beta   75.36217499
_cell_angle_gamma   71.45146179
_symmetry_Int_Tables_number   1
_chemical_formula_structural   Li8Cr2NO5
_chemical_formula_sum   'Li8 Cr2 N1 O5'
_cell_volume   137.56441769
_cell_formula_units_Z   1
loop_
 _symmetry_equiv_pos_site_id
 _symmetry_equiv_pos_as_xyz
  1  'x, y, z'
loop_
 _atom_site_type_symbol
 _atom_site_label
 _atom_site_symmetry_multiplicity
 _atom_site_fract_x
 _atom_site_fract_y
 _atom_site_fract_z
 _atom_site_occupancy
  Li  Li0  1  0.91930504  0.31783301  0.84355698  1
  Li  Li1  1  0.08069506  0.68216702  0.15644299  1
  Li  Li2  1  0.32613207  0.77371102  0.57402498  1
  Li  Li3  1  0.67386803  0.22628901  0.42597499  1
  Cr  Cr4  1  0.62284508  0.90525402  0.84905598  1
  Cr  Cr5  1  0.37715501  0.09474600  0.15094400  1
  Li  Li6  1  0.86462508  0.84720902  0.42354099  1
  Li  Li7  1  0.13537501  0.15279100  0.57645898  1
  N  N8  1  0.53446006  0.60302001  0.32805999  1
  Li  Li9  1  0.46554004  0.39698001  0.67193998  1
  Li  Li10  1  0.68434906  0.61180601  0.01949600  1
  O  O11  1  0.31565104  0.38819401  0.98050397  1
  O  O12  1  0.81561707  0.66589001  0.70287598  1
  O  O13  1  0.18438303  0.33411001  0.29712399  1
  O  O14  1  0.11810108  0.90396002  0.85983797  1
  O  O15  1  0.88189902  0.09604000  0.14016200  1
