# generated using pymatgen
data_Sr3CaMn4O12
_symmetry_space_group_name_H-M   'P 1'
_cell_length_a   5.53177023
_cell_length_b   5.58874702
_cell_length_c   7.87165165
_cell_angle_alpha   89.91439819
_cell_angle_beta   89.97146606
_cell_angle_gamma   89.96516418
_symmetry_Int_Tables_number   1
_chemical_formula_structural   Sr3CaMn4O12
_chemical_formula_sum   'Sr3 Ca1 Mn4 O12'
_cell_volume   243.35699409
_cell_formula_units_Z   1
loop_
 _symmetry_equiv_pos_site_id
 _symmetry_equiv_pos_as_xyz
  1  'x, y, z'
loop_
 _atom_site_type_symbol
 _atom_site_label
 _atom_site_symmetry_multiplicity
 _atom_site_fract_x
 _atom_site_fract_y
 _atom_site_fract_z
 _atom_site_occupancy
  Sr  Sr0  1  0.49568098  0.51330500  0.74941100  1
  Sr  Sr1  1  0.00348000  0.01331000  0.74982301  1
  Sr  Sr2  1  0.50503498  0.47843900  0.25025099  1
  Ca  Ca3  1  0.99633297  0.96056800  0.25001198  1
  Mn  Mn4  1  0.49908999  0.98527000  0.00520098  1
  Mn  Mn5  1  0.00536600  0.48431900  0.49559200  1
  Mn  Mn6  1  0.49910599  0.99264500  0.51296599  1
  Mn  Mn7  1  0.00493400  0.48524900  0.98607101  1
  O  O8  1  0.56188398  0.98768300  0.75337899  1
  O  O9  1  0.92972497  0.49514900  0.74686199  1
  O  O10  1  0.43005498  0.01679000  0.24659300  1
  O  O11  1  0.06331400  0.51632500  0.25340600  1
  O  O12  1  0.21318300  0.79557300  0.97760900  1
  O  O13  1  0.27785799  0.28876900  0.52997500  1
  O  O14  1  0.78786997  0.22213800  0.46048699  1
  O  O15  1  0.72361898  0.73606500  0.04389998  1
  O  O16  1  0.78305397  0.21894700  0.03999299  1
  O  O17  1  0.72744998  0.73314800  0.45644799  1
  O  O18  1  0.21041300  0.79114500  0.52336200  1
  O  O19  1  0.28254999  0.28516100  0.96865801  1
