# generated using pymatgen
data_Mg8Zn
_symmetry_space_group_name_H-M   'P 1'
_cell_length_a   3.65484810
_cell_length_b   7.98076391
_cell_length_c   7.98076439
_cell_angle_alpha   120.00000000
_cell_angle_beta   90.00000000
_cell_angle_gamma   90.00000000
_symmetry_Int_Tables_number   1
_chemical_formula_structural   Mg8Zn
_chemical_formula_sum   'Mg8 Zn1'
_cell_volume   201.59925212
_cell_formula_units_Z   1
loop_
 _symmetry_equiv_pos_site_id
 _symmetry_equiv_pos_as_xyz
  1  'x, y, z'
loop_
 _atom_site_type_symbol
 _atom_site_label
 _atom_site_symmetry_multiplicity
 _atom_site_fract_x
 _atom_site_fract_y
 _atom_site_fract_z
 _atom_site_occupancy
  Mg  Mg0  1  0.49999999  0.76449603  1.00000006  1
  Mg  Mg1  1  0.49999999  0.23550401  0.23550402  1
  Mg  Mg2  1  0.49999999  0.00000000  0.76449602  1
  Mg  Mg3  1  0.00000000  0.39066301  1.00000004  1
  Mg  Mg4  1  -0.00000000  0.60933702  0.60933704  1
  Mg  Mg5  1  0.00000000  0.00000000  0.39066301  1
  Zn  Zn6  1  0.00000000  0.00000000  0.00000000  1
  Mg  Mg7  1  0.49999999  0.33333334  0.66666670  1
  Mg  Mg8  1  0.49999999  0.66666669  0.33333337  1
