# generated using pymatgen
data_K7In2H6Cl
_symmetry_space_group_name_H-M   'P 1'
_cell_length_a   6.00322390
_cell_length_b   6.00322437
_cell_length_c   14.74353886
_cell_angle_alpha   90.00000000
_cell_angle_beta   90.00000000
_cell_angle_gamma   120.00000000
_symmetry_Int_Tables_number   1
_chemical_formula_structural   K7In2H6Cl
_chemical_formula_sum   'K7 In2 H6 Cl1'
_cell_volume   460.15218340
_cell_formula_units_Z   1
loop_
 _symmetry_equiv_pos_site_id
 _symmetry_equiv_pos_as_xyz
  1  'x, y, z'
loop_
 _atom_site_type_symbol
 _atom_site_label
 _atom_site_symmetry_multiplicity
 _atom_site_fract_x
 _atom_site_fract_y
 _atom_site_fract_z
 _atom_site_occupancy
  K  K0  1  0.66666669  0.33333335  0.12399600  1
  In  In1  1  0.33333337  0.66666669  0.62399601  1
  Cl  Cl2  1  0.33333337  0.66666669  0.87600401  1
  K  K3  1  0.00000000  0.00000000  0.00000000  1
  K  K4  1  0.66666669  0.33333335  0.37600400  1
  K  K5  1  0.00000000  0.00000000  0.50000000  1
  H  H6  1  0.15761804  0.84238203  0.25000000  1
  H  H7  1  0.31523601  0.15761801  0.75000001  1
  H  H8  1  0.15761802  0.31523601  0.25000000  1
  H  H9  1  0.84238205  0.68476402  0.75000001  1
  H  H10  1  0.68476405  0.84238203  0.25000000  1
  H  H11  1  0.84238202  0.15761801  0.75000001  1
  K  K12  1  0.33333337  0.66666669  0.11340200  1
  K  K13  1  0.66666669  0.33333335  0.88659801  1
  In  In14  1  0.66666669  0.33333335  0.61340201  1
  K  K15  1  0.33333337  0.66666669  0.38659800  1
