# generated using pymatgen
data_SmFe12
_symmetry_space_group_name_H-M   'P 1'
_cell_length_a   4.65253592
_cell_length_b   6.32271433
_cell_length_c   6.32271481
_cell_angle_alpha   82.11161804
_cell_angle_beta   68.41245270
_cell_angle_gamma   68.41246796
_symmetry_Int_Tables_number   1
_chemical_formula_structural   SmFe12
_chemical_formula_sum   'Sm1 Fe12'
_cell_volume   160.81544120
_cell_formula_units_Z   1
loop_
 _symmetry_equiv_pos_site_id
 _symmetry_equiv_pos_as_xyz
  1  'x, y, z'
loop_
 _atom_site_type_symbol
 _atom_site_label
 _atom_site_symmetry_multiplicity
 _atom_site_fract_x
 _atom_site_fract_y
 _atom_site_fract_z
 _atom_site_occupancy
  Sm  Sm0  1  0.00000000  0.00000000  0.00000000  1
  Fe  Fe1  1  0.63817300  0.36182699  0.36182702  1
  Fe  Fe2  1  0.36182700  0.63817299  0.63817302  1
  Fe  Fe3  1  0.50000000  0.78098898  0.21901101  1
  Fe  Fe4  1  0.50000000  0.21901100  0.78098902  1
  Fe  Fe5  1  0.72201900  0.77798098  0.77798103  1
  Fe  Fe6  1  0.27798100  0.22201900  0.22201901  1
  Fe  Fe7  1  1.00000001  0.00000000  0.50000003  1
  Fe  Fe8  1  0.50000000  0.00000000  0.50000002  1
  Fe  Fe9  1  0.50000000  0.49999999  1.00000003  1
  Fe  Fe10  1  -0.00000000  0.49999999  -0.00000000  1
  Fe  Fe11  1  1.00000001  0.35969099  0.64030903  1
  Fe  Fe12  1  1.00000001  0.64030899  0.35969102  1
