# generated using pymatgen
data_Mg2BIr3
_symmetry_space_group_name_H-M   'P 1'
_cell_length_a   3.57654095
_cell_length_b   3.57654095
_cell_length_c   6.36312199
_cell_angle_alpha   90.00000000
_cell_angle_beta   90.00000000
_cell_angle_gamma   90.00000000
_symmetry_Int_Tables_number   1
_chemical_formula_structural   Mg2BIr3
_chemical_formula_sum   'Mg2 B1 Ir3'
_cell_volume   81.39479847
_cell_formula_units_Z   1
loop_
 _symmetry_equiv_pos_site_id
 _symmetry_equiv_pos_as_xyz
  1  'x, y, z'
loop_
 _atom_site_type_symbol
 _atom_site_label
 _atom_site_symmetry_multiplicity
 _atom_site_fract_x
 _atom_site_fract_y
 _atom_site_fract_z
 _atom_site_occupancy
  B  B0  1  0.50000001  0.00000000  0.19648200  1
  Ir  Ir1  1  0.00000000  0.50000001  0.80351800  1
  Mg  Mg2  1  0.50000001  0.00000000  0.62739900  1
  Mg  Mg3  1  0.00000000  0.50000001  0.37260100  1
  Ir  Ir4  1  0.00000000  0.00000000  0.00000000  1
  Ir  Ir5  1  0.50000001  0.50000001  -0.00000000  1
