# generated using pymatgen
data_In
_symmetry_space_group_name_H-M   'P 1'
_cell_length_a   4.16576576
_cell_length_b   7.83904696
_cell_length_c   7.83904696
_cell_angle_alpha   90.00000000
_cell_angle_beta   90.00000000
_cell_angle_gamma   90.00000000
_symmetry_Int_Tables_number   1
_chemical_formula_structural   In
_chemical_formula_sum   In10
_cell_volume   255.98904369
_cell_formula_units_Z   10
loop_
 _symmetry_equiv_pos_site_id
 _symmetry_equiv_pos_as_xyz
  1  'x, y, z'
loop_
 _atom_site_type_symbol
 _atom_site_label
 _atom_site_symmetry_multiplicity
 _atom_site_fract_x
 _atom_site_fract_y
 _atom_site_fract_z
 _atom_site_occupancy
  In  In0  1  0.00000000  0.50000000  0.50000000  1
  In  In1  1  0.00000000  0.00000000  0.00000000  1
  In  In2  1  0.50000003  0.68121500  0.18121500  1
  In  In3  1  0.50000003  0.31878500  0.81878500  1
  In  In4  1  0.50000003  0.18121500  0.31878500  1
  In  In5  1  0.50000003  0.81878500  0.68121500  1
  In  In6  1  0.00000000  0.11253300  0.61253300  1
  In  In7  1  0.00000000  0.88746701  0.38746700  1
  In  In8  1  0.00000000  0.61253300  0.88746701  1
  In  In9  1  0.00000000  0.38746700  0.11253300  1
