# generated using pymatgen
data_KRbIn2(Ag2Te3)2
_symmetry_space_group_name_H-M   'P 1'
_cell_length_a   7.67224789
_cell_length_b   7.67224789
_cell_length_c   7.67224789
_cell_angle_alpha   107.59292603
_cell_angle_beta   107.59292603
_cell_angle_gamma   113.29688263
_symmetry_Int_Tables_number   1
_chemical_formula_structural   KRbIn2(Ag2Te3)2
_chemical_formula_sum   'Rb1 K1 In2 Ag4 Te6'
_cell_volume   346.48234349
_cell_formula_units_Z   1
loop_
 _symmetry_equiv_pos_site_id
 _symmetry_equiv_pos_as_xyz
  1  'x, y, z'
loop_
 _atom_site_type_symbol
 _atom_site_label
 _atom_site_symmetry_multiplicity
 _atom_site_fract_x
 _atom_site_fract_y
 _atom_site_fract_z
 _atom_site_occupancy
  Rb  Rb0  1  0.24999999  0.24999999  0.99999995  1
  K  K1  1  0.74999997  0.74999997  0.99999989  1
  Te  Te2  1  0.14140300  0.35859699  0.49999996  1
  Te  Te3  1  0.64140298  0.14140299  0.78280594  1
  Ag  Ag4  1  0.35859699  0.85859697  0.21719392  1
  Ag  Ag5  1  0.85859697  0.64140298  0.49999989  1
  Ag  Ag6  1  0.31736299  0.81736297  0.80451791  1
  In  In7  1  0.51284498  0.31736399  0.49999994  1
  Ag  Ag8  1  0.01284500  0.51284498  0.19548196  1
  In  In9  1  0.81736297  0.01284400  0.49999994  1
  Te  Te10  1  0.48715498  0.68263598  0.49999992  1
  Te  Te11  1  0.98715496  0.48715498  0.80451789  1
  Te  Te12  1  0.68263697  0.18263699  0.19548194  1
  Te  Te13  1  0.18263700  0.98715596  0.49999992  1
