# generated using pymatgen
data_SmGePt
_symmetry_space_group_name_H-M   'P 1'
_cell_length_a   4.24043989
_cell_length_b   4.24044037
_cell_length_c   7.92568779
_cell_angle_alpha   90.00000000
_cell_angle_beta   90.00000000
_cell_angle_gamma   120.00000000
_symmetry_Int_Tables_number   1
_chemical_formula_structural   SmGePt
_chemical_formula_sum   'Sm2 Ge2 Pt2'
_cell_volume   123.42111456
_cell_formula_units_Z   2
loop_
 _symmetry_equiv_pos_site_id
 _symmetry_equiv_pos_as_xyz
  1  'x, y, z'
loop_
 _atom_site_type_symbol
 _atom_site_label
 _atom_site_symmetry_multiplicity
 _atom_site_fract_x
 _atom_site_fract_y
 _atom_site_fract_z
 _atom_site_occupancy
  Sm  Sm0  1  0.33333336  0.66666665  0.76454602  1
  Sm  Sm1  1  0.33333336  0.66666665  0.23545401  1
  Pt  Pt2  1  0.00000000  0.00000000  0.00000000  1
  Ge  Ge3  1  0.00000000  0.00000000  0.50000001  1
  Ge  Ge4  1  0.66666670  0.33333333  1.00000003  1
  Pt  Pt5  1  0.66666670  0.33333333  0.50000001  1
