# generated using pymatgen
data_Ce6GePd3
_symmetry_space_group_name_H-M   'P 1'
_cell_length_a   4.15573502
_cell_length_b   7.74370050
_cell_length_c   7.74370050
_cell_angle_alpha   89.86678314
_cell_angle_beta   90.00000000
_cell_angle_gamma   90.00000000
_symmetry_Int_Tables_number   1
_chemical_formula_structural   Ce6GePd3
_chemical_formula_sum   'Ce6 Ge1 Pd3'
_cell_volume   249.19755069
_cell_formula_units_Z   1
loop_
 _symmetry_equiv_pos_site_id
 _symmetry_equiv_pos_as_xyz
  1  'x, y, z'
loop_
 _atom_site_type_symbol
 _atom_site_label
 _atom_site_symmetry_multiplicity
 _atom_site_fract_x
 _atom_site_fract_y
 _atom_site_fract_z
 _atom_site_occupancy
  Ce  Ce0  1  0.00000000  0.00257900  0.50136401  1
  Ce  Ce1  1  0.00000000  0.49863601  0.99742099  1
  Ce  Ce2  1  0.50000000  0.31890300  0.68109699  1
  Ce  Ce3  1  0.50000000  0.68028501  0.31971498  1
  Ce  Ce4  1  0.50000000  0.18047300  0.17986699  1
  Ce  Ce5  1  0.50000000  0.82013301  0.81952698  1
  Pd  Pd6  1  1.00000000  0.88645501  0.11354497  1
  Pd  Pd7  1  0.00000000  0.11485200  0.88514801  1
  Ge  Ge8  1  -0.00000000  0.61164501  0.61396098  1
  Pd  Pd9  1  0.00000000  0.38603900  0.38835499  1
