# generated using pymatgen
data_AlCuTe4
_symmetry_space_group_name_H-M   'P 1'
_cell_length_a   5.48948717
_cell_length_b   6.46885300
_cell_length_c   7.81044292
_cell_angle_alpha   92.23645782
_cell_angle_beta   100.40451813
_cell_angle_gamma   110.42527771
_symmetry_Int_Tables_number   1
_chemical_formula_structural   AlCuTe4
_chemical_formula_sum   'Al2 Cu2 Te8'
_cell_volume   254.07098146
_cell_formula_units_Z   2
loop_
 _symmetry_equiv_pos_site_id
 _symmetry_equiv_pos_as_xyz
  1  'x, y, z'
loop_
 _atom_site_type_symbol
 _atom_site_label
 _atom_site_symmetry_multiplicity
 _atom_site_fract_x
 _atom_site_fract_y
 _atom_site_fract_z
 _atom_site_occupancy
  Te  Te0  1  0.14210301  0.75681700  0.05114400  1
  Te  Te1  1  0.10485301  0.93762600  0.68943800  1
  Te  Te2  1  0.89514698  0.06237400  0.31056202  1
  Al  Al3  1  0.85789698  0.24318300  0.94885601  1
  Al  Al4  1  0.46191299  0.52670600  0.74711300  1
  Te  Te5  1  0.53808699  0.47329400  0.25288701  1
  Te  Te6  1  0.62625299  0.91082600  0.52864001  1
  Te  Te7  1  0.96543998  0.55941600  0.75100601  1
  Te  Te8  1  0.35046999  0.19560000  0.95412700  1
  Cu  Cu9  1  0.64952999  0.80440000  0.04587302  1
  Cu  Cu10  1  0.03456000  0.44058400  0.24899400  1
  Te  Te11  1  0.37374699  0.08917400  0.47136000  1
