# generated using pymatgen
data_Lu3Ge2
_symmetry_space_group_name_H-M   'P 1'
_cell_length_a   3.83598900
_cell_length_b   7.81784678
_cell_length_c   7.81784678
_cell_angle_alpha   90.00000000
_cell_angle_beta   90.00000000
_cell_angle_gamma   90.00000000
_symmetry_Int_Tables_number   1
_chemical_formula_structural   Lu3Ge2
_chemical_formula_sum   'Lu6 Ge4'
_cell_volume   234.45076897
_cell_formula_units_Z   2
loop_
 _symmetry_equiv_pos_site_id
 _symmetry_equiv_pos_as_xyz
  1  'x, y, z'
loop_
 _atom_site_type_symbol
 _atom_site_label
 _atom_site_symmetry_multiplicity
 _atom_site_fract_x
 _atom_site_fract_y
 _atom_site_fract_z
 _atom_site_occupancy
  Lu  Lu0  1  0.50000000  0.32491101  0.82491102  1
  Lu  Lu1  1  0.50000000  0.82491102  0.67508902  1
  Lu  Lu2  1  0.50000000  0.17508901  0.32491101  1
  Lu  Lu3  1  0.50000000  0.67508902  0.17508901  1
  Lu  Lu4  1  0.00000000  0.00000000  0.00000000  1
  Lu  Lu5  1  0.00000000  0.50000001  0.50000001  1
  Ge  Ge6  1  0.00000000  0.37300901  0.12699100  1
  Ge  Ge7  1  0.00000000  0.87300903  0.37300901  1
  Ge  Ge8  1  0.00000000  0.12699100  0.62699102  1
  Ge  Ge9  1  0.00000000  0.62699102  0.87300903  1
