# generated using pymatgen
data_Lu4Si5Pd3
_symmetry_space_group_name_H-M   'P 1'
_cell_length_a   4.29732513
_cell_length_b   6.84460688
_cell_length_c   7.10232592
_cell_angle_alpha   90.00000000
_cell_angle_beta   90.00000000
_cell_angle_gamma   90.00000000
_symmetry_Int_Tables_number   1
_chemical_formula_structural   Lu4Si5Pd3
_chemical_formula_sum   'Lu4 Si5 Pd3'
_cell_volume   208.90427161
_cell_formula_units_Z   1
loop_
 _symmetry_equiv_pos_site_id
 _symmetry_equiv_pos_as_xyz
  1  'x, y, z'
loop_
 _atom_site_type_symbol
 _atom_site_label
 _atom_site_symmetry_multiplicity
 _atom_site_fract_x
 _atom_site_fract_y
 _atom_site_fract_z
 _atom_site_occupancy
  Lu  Lu0  1  0.24999999  0.98251002  0.79970301  1
  Lu  Lu1  1  0.24999999  0.48251001  0.70029701  1
  Lu  Lu2  1  0.74999998  0.01749000  0.20029700  1
  Lu  Lu3  1  0.74999998  0.51749001  0.29970300  1
  Pd  Pd4  1  0.24999999  0.19084800  0.42105500  1
  Si  Si5  1  0.24999999  0.69084801  0.07894500  1
  Si  Si6  1  0.74999998  0.80915201  0.57894501  1
  Pd  Pd7  1  0.74999998  0.30915201  0.92105501  1
  Pd  Pd8  1  0.24999999  0.80504501  0.40794200  1
  Si  Si9  1  0.24999999  0.30504501  0.09205800  1
  Si  Si10  1  0.74999998  0.19495500  0.59205801  1
  Si  Si11  1  0.74999998  0.69495501  0.90794201  1
