# generated using pymatgen
data_Sm3Fe3Co13
_symmetry_space_group_name_H-M   'P 1'
_cell_length_a   6.47215986
_cell_length_b   6.47215986
_cell_length_c   6.47215939
_cell_angle_alpha   82.75116730
_cell_angle_beta   82.75116730
_cell_angle_gamma   82.75117493
_symmetry_Int_Tables_number   1
_chemical_formula_structural   Sm3Fe3Co13
_chemical_formula_sum   'Sm3 Fe3 Co13'
_cell_volume   265.11508709
_cell_formula_units_Z   1
loop_
 _symmetry_equiv_pos_site_id
 _symmetry_equiv_pos_as_xyz
  1  'x, y, z'
loop_
 _atom_site_type_symbol
 _atom_site_label
 _atom_site_symmetry_multiplicity
 _atom_site_fract_x
 _atom_site_fract_y
 _atom_site_fract_z
 _atom_site_occupancy
  Sm  Sm0  1  0.34263102  0.34263099  0.34263097  1
  Sm  Sm1  1  0.65519703  0.65519699  0.65519695  1
  Sm  Sm2  1  0.90495304  0.90495299  0.90495292  1
  Co  Co3  1  0.71518201  0.28500700  0.99949398  1
  Co  Co4  1  0.28500705  0.99949398  0.71518195  1
  Co  Co5  1  0.99949403  0.71518199  0.28500691  1
  Co  Co6  1  0.71518205  0.99949398  0.28500691  1
  Co  Co7  1  0.99949401  0.28500700  0.71518195  1
  Co  Co8  1  0.28500704  0.71518199  0.99949397  1
  Fe  Fe9  1  0.00009400  0.00009400  0.49952402  1
  Fe  Fe10  1  0.00009403  0.49952399  0.00009397  1
  Fe  Fe11  1  0.49952400  0.00009400  0.00009397  1
  Co  Co12  1  0.65862903  0.65862899  0.15486493  1
  Co  Co13  1  0.65862900  0.15486500  0.65862898  1
  Co  Co14  1  0.15486504  0.65862899  0.65862897  1
  Co  Co15  1  0.34131002  0.34130999  0.84451599  1
  Co  Co16  1  0.34131005  0.84451599  0.34130994  1
  Co  Co17  1  0.84451601  0.34130999  0.34130994  1
  Co  Co18  1  0.09888100  0.09888100  0.09888099  1
