# generated using pymatgen
data_SrB11H
_symmetry_space_group_name_H-M   'P 1'
_cell_length_a   5.22895622
_cell_length_b   5.22895622
_cell_length_c   5.22895575
_cell_angle_alpha   64.64423370
_cell_angle_beta   64.64423370
_cell_angle_gamma   64.64424133
_symmetry_Int_Tables_number   1
_chemical_formula_structural   SrB11H
_chemical_formula_sum   'Sr1 B11 H1'
_cell_volume   111.37947393
_cell_formula_units_Z   1
loop_
 _symmetry_equiv_pos_site_id
 _symmetry_equiv_pos_as_xyz
  1  'x, y, z'
loop_
 _atom_site_type_symbol
 _atom_site_label
 _atom_site_symmetry_multiplicity
 _atom_site_fract_x
 _atom_site_fract_y
 _atom_site_fract_z
 _atom_site_occupancy
  B  B0  1  0.49601198  0.17190899  0.49601204  1
  B  B1  1  0.49601200  0.49601197  0.17190904  1
  B  B2  1  0.17190901  0.49601197  0.49601203  1
  H  H3  1  0.50529601  0.83378794  0.50529606  1
  B  B4  1  0.50529600  0.50529597  0.83378806  1
  B  B5  1  0.83378798  0.50529597  0.50529607  1
  B  B6  1  0.69940897  0.17905999  0.69940905  1
  B  B7  1  0.69940900  0.69940895  0.17906006  1
  B  B8  1  0.17906002  0.69940895  0.69940904  1
  B  B9  1  0.31380102  0.79905095  0.31380105  1
  B  B10  1  0.31380100  0.31380098  0.79905104  1
  B  B11  1  0.79905097  0.31380098  0.31380105  1
  Sr  Sr12  1  0.08635500  0.08635499  0.08635501  1
