# generated using pymatgen
data_Tm2(CoB2)3
_symmetry_space_group_name_H-M   'P 1'
_cell_length_a   3.46684790
_cell_length_b   5.80028009
_cell_length_c   5.80028009
_cell_angle_alpha   96.72865295
_cell_angle_beta   90.00000000
_cell_angle_gamma   90.00000000
_symmetry_Int_Tables_number   1
_chemical_formula_structural   Tm2(CoB2)3
_chemical_formula_sum   'Tm2 Co3 B6'
_cell_volume   115.83265962
_cell_formula_units_Z   1
loop_
 _symmetry_equiv_pos_site_id
 _symmetry_equiv_pos_as_xyz
  1  'x, y, z'
loop_
 _atom_site_type_symbol
 _atom_site_label
 _atom_site_symmetry_multiplicity
 _atom_site_fract_x
 _atom_site_fract_y
 _atom_site_fract_z
 _atom_site_occupancy
  Tm  Tm0  1  1.00000003  0.72282403  0.27717602  1
  Tm  Tm1  1  1.00000003  0.27717601  0.72282403  1
  Co  Co2  1  0.50000001  0.00000000  -0.00000000  1
  Co  Co3  1  -0.00000000  0.22558601  0.22558601  1
  Co  Co4  1  -0.00000000  0.77441403  0.77441404  1
  B  B5  1  0.50000001  0.08412200  0.38494902  1
  B  B6  1  0.50000001  0.91587804  0.61505103  1
  B  B7  1  0.50000001  0.38494902  0.08412201  1
  B  B8  1  0.50000001  0.61505102  0.91587804  1
  B  B9  1  0.50000001  0.38691402  0.38691402  1
  B  B10  1  0.50000001  0.61308602  0.61308603  1
