# generated using pymatgen
data_CaMgTi2(BiO4)2
_symmetry_space_group_name_H-M   'P 1'
_cell_length_a   5.52852488
_cell_length_b   5.52873421
_cell_length_c   6.59438038
_cell_angle_alpha   65.21313477
_cell_angle_beta   89.99831390
_cell_angle_gamma   89.99605560
_symmetry_Int_Tables_number   1
_chemical_formula_structural   CaMgTi2(BiO4)2
_chemical_formula_sum   'Ca1 Mg1 Ti2 Bi2 O8'
_cell_volume   182.99295346
_cell_formula_units_Z   1
loop_
 _symmetry_equiv_pos_site_id
 _symmetry_equiv_pos_as_xyz
  1  'x, y, z'
loop_
 _atom_site_type_symbol
 _atom_site_label
 _atom_site_symmetry_multiplicity
 _atom_site_fract_x
 _atom_site_fract_y
 _atom_site_fract_z
 _atom_site_occupancy
  Mg  Mg0  1  0.49999998  0.84912003  0.30176898  1
  Ca  Ca1  1  -0.00000003  0.65071302  0.69857298  1
  Bi  Bi2  1  0.50000000  0.15070800  0.69858200  1
  Bi  Bi3  1  -0.00000001  0.34936801  0.30126699  1
  Ti  Ti4  1  0.50000199  0.50001801  0.99995898  1
  Ti  Ti5  1  0.00000100  0.00001500  0.99996299  1
  O  O6  1  0.24998099  0.49999701  0.49995798  1
  O  O7  1  0.75001401  0.00004700  0.49996201  1
  O  O8  1  0.24999000  0.00000200  0.50005400  1
  O  O9  1  0.75001399  0.49995101  0.50005099  1
  O  O10  1  0.75012300  0.24993201  0.99996400  1
  O  O11  1  0.24987498  0.75009702  0.99996897  1
  O  O12  1  0.24987399  0.24993901  0.99996299  1
  O  O13  1  0.75012598  0.75009102  0.99996798  1
