# generated using pymatgen
data_Tm3(Si2Ir)2
_symmetry_space_group_name_H-M   'P 1'
_cell_length_a   4.18065786
_cell_length_b   5.70432615
_cell_length_c   8.00740051
_cell_angle_alpha   106.43229675
_cell_angle_beta   90.00000000
_cell_angle_gamma   111.49661255
_symmetry_Int_Tables_number   1
_chemical_formula_structural   Tm3(Si2Ir)2
_chemical_formula_sum   'Tm3 Si4 Ir2'
_cell_volume   169.26512309
_cell_formula_units_Z   1
loop_
 _symmetry_equiv_pos_site_id
 _symmetry_equiv_pos_as_xyz
  1  'x, y, z'
loop_
 _atom_site_type_symbol
 _atom_site_label
 _atom_site_symmetry_multiplicity
 _atom_site_fract_x
 _atom_site_fract_y
 _atom_site_fract_z
 _atom_site_occupancy
  Tm  Tm0  1  0.62344301  0.24688601  0.69326401  1
  Tm  Tm1  1  0.37655698  0.75311403  0.30673602  1
  Tm  Tm2  1  0.00000000  0.00000000  0.00000000  1
  Ir  Ir3  1  0.69090401  0.38180801  0.37157101  1
  Ir  Ir4  1  0.30909598  0.61819202  0.62842902  1
  Si  Si5  1  0.90170999  0.80342003  0.59979102  1
  Si  Si6  1  0.09828999  0.19658001  0.40020901  1
  Si  Si7  1  0.28997798  0.57995602  0.92045102  1
  Si  Si8  1  0.71002201  0.42004402  0.07954901  1
