# generated using pymatgen
data_Li2MnVCr2O10
_symmetry_space_group_name_H-M   'P 1'
_cell_length_a   5.19499397
_cell_length_b   5.43113232
_cell_length_c   7.09398508
_cell_angle_alpha   105.22679901
_cell_angle_beta   101.97829437
_cell_angle_gamma   107.93413544
_symmetry_Int_Tables_number   1
_chemical_formula_structural   Li2MnVCr2O10
_chemical_formula_sum   'Li2 Mn1 V1 Cr2 O10'
_cell_volume   174.44035252
_cell_formula_units_Z   1
loop_
 _symmetry_equiv_pos_site_id
 _symmetry_equiv_pos_as_xyz
  1  'x, y, z'
loop_
 _atom_site_type_symbol
 _atom_site_label
 _atom_site_symmetry_multiplicity
 _atom_site_fract_x
 _atom_site_fract_y
 _atom_site_fract_z
 _atom_site_occupancy
  Li  Li0  1  0.83995203  0.71405300  0.29766900  1
  Li  Li1  1  0.15376301  0.30565200  0.73751201  1
  Mn  Mn2  1  0.48689000  0.00702800  0.50087600  1
  V  V3  1  0.51000904  0.99515001  0.00217801  1
  Cr  Cr4  1  0.18888001  0.32205100  0.23090200  1
  Cr  Cr5  1  0.81096203  0.67536600  0.74497701  1
  O  O6  1  0.47380502  0.35714900  0.15511900  1
  O  O7  1  0.18877701  0.12949400  0.37971600  1
  O  O8  1  0.53165603  0.64386400  0.82571601  1
  O  O9  1  0.80612004  0.86674600  0.59523301  1
  O  O10  1  0.80118202  0.37442800  0.60375100  1
  O  O11  1  0.10617303  0.78149200  0.93350502  1
  O  O12  1  0.19211503  0.62076500  0.36800601  1
  O  O13  1  0.90819201  0.20152900  0.02609299  1
  O  O14  1  0.39837500  0.07544700  0.73654600  1
  O  O15  1  0.60117004  0.93113501  0.24024801  1
