# generated using pymatgen
data_SiTePbSe
_symmetry_space_group_name_H-M   'P 1'
_cell_length_a   3.81175804
_cell_length_b   3.81175780
_cell_length_c   14.99283028
_cell_angle_alpha   90.00000000
_cell_angle_beta   90.00000000
_cell_angle_gamma   120.00000000
_symmetry_Int_Tables_number   1
_chemical_formula_structural   SiTePbSe
_chemical_formula_sum   'Si2 Te2 Pb2 Se2'
_cell_volume   188.65350550
_cell_formula_units_Z   2
loop_
 _symmetry_equiv_pos_site_id
 _symmetry_equiv_pos_as_xyz
  1  'x, y, z'
loop_
 _atom_site_type_symbol
 _atom_site_label
 _atom_site_symmetry_multiplicity
 _atom_site_fract_x
 _atom_site_fract_y
 _atom_site_fract_z
 _atom_site_occupancy
  Te  Te0  1  0.66666665  0.33333332  0.58537299  1
  Se  Se1  1  0.33333330  0.66666665  0.08537300  1
  Te  Te2  1  0.33333330  0.66666665  0.41462699  1
  Se  Se3  1  0.66666665  0.33333332  0.91462698  1
  Si  Si4  1  0.00000000  0.00000000  0.49999999  1
  Si  Si5  1  0.00000000  0.00000000  0.00000000  1
  Pb  Pb6  1  0.33333330  0.66666665  0.74999999  1
  Pb  Pb7  1  0.66666665  0.33333332  0.25000000  1
