# generated using pymatgen
data_Ce3In
_symmetry_space_group_name_H-M   'P 1'
_cell_length_a   5.17210102
_cell_length_b   6.91087389
_cell_length_c   6.91087341
_cell_angle_alpha   120.00000000
_cell_angle_beta   90.00000000
_cell_angle_gamma   90.00000000
_symmetry_Int_Tables_number   1
_chemical_formula_structural   Ce3In
_chemical_formula_sum   'Ce6 In2'
_cell_volume   213.92598317
_cell_formula_units_Z   2
loop_
 _symmetry_equiv_pos_site_id
 _symmetry_equiv_pos_as_xyz
  1  'x, y, z'
loop_
 _atom_site_type_symbol
 _atom_site_label
 _atom_site_symmetry_multiplicity
 _atom_site_fract_x
 _atom_site_fract_y
 _atom_site_fract_z
 _atom_site_occupancy
  In  In0  1  0.75000000  0.66666666  0.33333332  1
  In  In1  1  0.25000000  0.33333333  0.66666667  1
  Ce  Ce2  1  0.75000000  0.16220700  0.32441400  1
  Ce  Ce3  1  0.75000000  0.16220700  0.83779202  1
  Ce  Ce4  1  0.75000000  0.67558500  0.83779200  1
  Ce  Ce5  1  0.25000000  0.83779300  0.67558599  1
  Ce  Ce6  1  0.25000000  0.83779300  0.16220797  1
  Ce  Ce7  1  0.25000000  0.32441500  0.16220799  1
