# generated using pymatgen
data_Ba(WO3)2
_symmetry_space_group_name_H-M   'P 1'
_cell_length_a   5.66291809
_cell_length_b   7.15062761
_cell_length_c   7.46171618
_cell_angle_alpha   90.00000000
_cell_angle_beta   90.00000000
_cell_angle_gamma   113.32670593
_symmetry_Int_Tables_number   1
_chemical_formula_structural   Ba(WO3)2
_chemical_formula_sum   'Ba2 W4 O12'
_cell_volume   277.45320095
_cell_formula_units_Z   2
loop_
 _symmetry_equiv_pos_site_id
 _symmetry_equiv_pos_as_xyz
  1  'x, y, z'
loop_
 _atom_site_type_symbol
 _atom_site_label
 _atom_site_symmetry_multiplicity
 _atom_site_fract_x
 _atom_site_fract_y
 _atom_site_fract_z
 _atom_site_occupancy
  Ba  Ba0  1  0.27792304  0.55584600  0.24999999  1
  Ba  Ba1  1  0.72207702  0.44415400  0.74999998  1
  W  W2  1  0.00000000  0.00000000  0.00000000  1
  W  W3  1  0.00000000  0.00000000  0.49999999  1
  W  W4  1  0.41520906  0.83041800  0.74999998  1
  W  W5  1  0.58479100  0.16958200  0.24999999  1
  O  O6  1  0.13157706  0.78989200  0.95524598  1
  O  O7  1  0.34168501  0.21010800  0.04475400  1
  O  O8  1  0.86842300  0.21010800  0.45524599  1
  O  O9  1  0.65831505  0.78989200  0.54475399  1
  O  O10  1  0.86842300  0.21010800  0.04475400  1
  O  O11  1  0.65831505  0.78989200  0.95524598  1
  O  O12  1  0.95158405  0.90316800  0.24999999  1
  O  O13  1  0.04841601  0.09683200  0.74999998  1
  O  O14  1  0.72591102  0.45182200  0.24999999  1
  O  O15  1  0.27408904  0.54817800  0.74999998  1
  O  O16  1  0.34168501  0.21010800  0.45524599  1
  O  O17  1  0.13157706  0.78989200  0.54475399  1
