# generated using pymatgen
data_Mg2Ga
_symmetry_space_group_name_H-M   'P 1'
_cell_length_a   2.90037799
_cell_length_b   5.61428642
_cell_length_c   7.43590498
_cell_angle_alpha   105.08568573
_cell_angle_beta   90.00000000
_cell_angle_gamma   104.96941376
_symmetry_Int_Tables_number   1
_chemical_formula_structural   Mg2Ga
_chemical_formula_sum   'Mg4 Ga2'
_cell_volume   112.64895511
_cell_formula_units_Z   2
loop_
 _symmetry_equiv_pos_site_id
 _symmetry_equiv_pos_as_xyz
  1  'x, y, z'
loop_
 _atom_site_type_symbol
 _atom_site_label
 _atom_site_symmetry_multiplicity
 _atom_site_fract_x
 _atom_site_fract_y
 _atom_site_fract_z
 _atom_site_occupancy
  Mg  Mg0  1  0.36539801  0.73079596  0.47805296  1
  Mg  Mg1  1  0.63460200  0.26920399  0.52194698  1
  Mg  Mg2  1  0.69298001  0.38595998  0.12853598  1
  Ga  Ga3  1  0.96272601  0.92545196  0.16351296  1
  Ga  Ga4  1  0.03727400  0.07454800  0.83648699  1
  Mg  Mg5  1  0.30702001  0.61403997  0.87146396  1
