# generated using pymatgen
data_LaZnGa3Ag
_symmetry_space_group_name_H-M   'P 1'
_cell_length_a   4.08547688
_cell_length_b   5.64649200
_cell_length_c   5.64649153
_cell_angle_alpha   120.00000000
_cell_angle_beta   90.00000000
_cell_angle_gamma   90.00000000
_symmetry_Int_Tables_number   1
_chemical_formula_structural   LaZnGa3Ag
_chemical_formula_sum   'La1 Zn1 Ga3 Ag1'
_cell_volume   112.80563294
_cell_formula_units_Z   1
loop_
 _symmetry_equiv_pos_site_id
 _symmetry_equiv_pos_as_xyz
  1  'x, y, z'
loop_
 _atom_site_type_symbol
 _atom_site_label
 _atom_site_symmetry_multiplicity
 _atom_site_fract_x
 _atom_site_fract_y
 _atom_site_fract_z
 _atom_site_occupancy
  La  La0  1  0.00000000  0.00000000  0.00000000  1
  Ga  Ga1  1  -0.00000000  0.33333332  0.66666665  1
  Zn  Zn2  1  1.00000003  0.66666665  0.33333330  1
  Ag  Ag3  1  0.50000002  0.49999999  0.99999998  1
  Ga  Ga4  1  0.50000002  0.49999999  0.49999998  1
  Ga  Ga5  1  0.50000002  0.00000000  0.50000000  1
