# generated using pymatgen
data_Ce4CdInPd4
_symmetry_space_group_name_H-M   'P 1'
_cell_length_a   4.27890205
_cell_length_b   7.27026415
_cell_length_c   7.27026415
_cell_angle_alpha   90.00000000
_cell_angle_beta   90.00000000
_cell_angle_gamma   90.00000000
_symmetry_Int_Tables_number   1
_chemical_formula_structural   Ce4CdInPd4
_chemical_formula_sum   'Ce4 Cd1 In1 Pd4'
_cell_volume   226.16881673
_cell_formula_units_Z   1
loop_
 _symmetry_equiv_pos_site_id
 _symmetry_equiv_pos_as_xyz
  1  'x, y, z'
loop_
 _atom_site_type_symbol
 _atom_site_label
 _atom_site_symmetry_multiplicity
 _atom_site_fract_x
 _atom_site_fract_y
 _atom_site_fract_z
 _atom_site_occupancy
  Ce  Ce0  1  0.49999999  0.67762399  0.17762400  1
  Ce  Ce1  1  0.49999999  0.32237599  0.82237598  1
  Ce  Ce2  1  0.49999999  0.17762400  0.32237599  1
  Ce  Ce3  1  0.49999999  0.82237598  0.67762399  1
  Cd  Cd4  1  0.00000000  0.49999999  0.49999999  1
  In  In5  1  0.00000000  0.00000000  0.00000000  1
  Pd  Pd6  1  0.00000000  0.87640998  0.37640999  1
  Pd  Pd7  1  0.00000000  0.12359000  0.62358999  1
  Pd  Pd8  1  0.00000000  0.37640999  0.12359000  1
  Pd  Pd9  1  0.00000000  0.62358999  0.87640998  1
