# generated using pymatgen
data_SrPr3Te8
_symmetry_space_group_name_H-M   'P 1'
_cell_length_a   4.52349997
_cell_length_b   4.52349997
_cell_length_c   18.81717682
_cell_angle_alpha   90.00000000
_cell_angle_beta   90.00000000
_cell_angle_gamma   90.00000000
_symmetry_Int_Tables_number   1
_chemical_formula_structural   SrPr3Te8
_chemical_formula_sum   'Sr1 Pr3 Te8'
_cell_volume   385.03804942
_cell_formula_units_Z   1
loop_
 _symmetry_equiv_pos_site_id
 _symmetry_equiv_pos_as_xyz
  1  'x, y, z'
loop_
 _atom_site_type_symbol
 _atom_site_label
 _atom_site_symmetry_multiplicity
 _atom_site_fract_x
 _atom_site_fract_y
 _atom_site_fract_z
 _atom_site_occupancy
  Sr  Sr0  1  0.50000000  0.00000000  0.13889999  1
  Pr  Pr1  1  0.50000000  0.00000000  0.63663597  1
  Pr  Pr2  1  0.00000000  0.50000000  0.36336398  1
  Pr  Pr3  1  0.00000000  0.50000000  0.86109996  1
  Te  Te4  1  0.50000000  0.50000000  -0.00000000  1
  Te  Te5  1  0.50000000  0.00000000  0.31715099  1
  Te  Te6  1  0.50000000  0.00000000  0.81577896  1
  Te  Te7  1  0.00000000  0.50000000  0.18422099  1
  Te  Te8  1  0.00000000  0.50000000  0.68284897  1
  Te  Te9  1  0.50000000  0.50000000  0.49999998  1
  Te  Te10  1  0.00000000  0.00000000  0.49999998  1
  Te  Te11  1  0.00000000  0.00000000  0.00000000  1
