# generated using pymatgen
data_Na(Mo3Se4)2
_symmetry_space_group_name_H-M   'P 1'
_cell_length_a   6.96426296
_cell_length_b   6.96426296
_cell_length_c   6.96426392
_cell_angle_alpha   88.76341248
_cell_angle_beta   88.76341248
_cell_angle_gamma   88.76342010
_symmetry_Int_Tables_number   1
_chemical_formula_structural   Na(Mo3Se4)2
_chemical_formula_sum   'Na1 Mo6 Se8'
_cell_volume   337.54082330
_cell_formula_units_Z   1
loop_
 _symmetry_equiv_pos_site_id
 _symmetry_equiv_pos_as_xyz
  1  'x, y, z'
loop_
 _atom_site_type_symbol
 _atom_site_label
 _atom_site_symmetry_multiplicity
 _atom_site_fract_x
 _atom_site_fract_y
 _atom_site_fract_z
 _atom_site_occupancy
  Na  Na0  1  0.00000000  0.00000000  0.00000000  1
  Mo  Mo1  1  0.42079402  0.24324001  0.56224000  1
  Mo  Mo2  1  0.24324001  0.56224002  0.42079400  1
  Mo  Mo3  1  0.56224002  0.42079401  0.24324001  1
  Mo  Mo4  1  0.57920603  0.75676002  0.43776001  1
  Mo  Mo5  1  0.75676003  0.43776001  0.57920600  1
  Mo  Mo6  1  0.43776002  0.57920602  0.75676000  1
  Se  Se7  1  0.24725101  0.24725101  0.24725100  1
  Se  Se8  1  0.75274903  0.75274902  0.75274900  1
  Se  Se9  1  0.39041402  0.74055002  0.12130502  1
  Se  Se10  1  0.74055003  0.12130500  0.39041400  1
  Se  Se11  1  0.12130501  0.39041401  0.74054999  1
  Se  Se12  1  0.60958602  0.25945001  0.87869499  1
  Se  Se13  1  0.25945002  0.87869503  0.60958600  1
  Se  Se14  1  0.87869504  0.60958602  0.25945002  1
