# generated using pymatgen
data_Sm4Eu(FeB3)2
_symmetry_space_group_name_H-M   'P 1'
_cell_length_a   5.43249989
_cell_length_b   5.43249989
_cell_length_c   8.36636734
_cell_angle_alpha   71.05484009
_cell_angle_beta   71.05484009
_cell_angle_gamma   60.00000000
_symmetry_Int_Tables_number   1
_chemical_formula_structural   Sm4Eu(FeB3)2
_chemical_formula_sum   'Sm4 Eu1 Fe2 B6'
_cell_volume   198.23461249
_cell_formula_units_Z   1
loop_
 _symmetry_equiv_pos_site_id
 _symmetry_equiv_pos_as_xyz
  1  'x, y, z'
loop_
 _atom_site_type_symbol
 _atom_site_label
 _atom_site_symmetry_multiplicity
 _atom_site_fract_x
 _atom_site_fract_y
 _atom_site_fract_z
 _atom_site_occupancy
  Eu  Eu0  1  0.00000000  0.00000000  0.00000000  1
  Sm  Sm1  1  0.25106400  0.25106400  0.24680800  1
  Sm  Sm2  1  0.74893601  0.74893601  0.75319201  1
  Sm  Sm3  1  0.41640600  0.41640600  0.75078200  1
  Sm  Sm4  1  0.58359401  0.58359401  0.24921801  1
  Fe  Fe5  1  0.11748400  0.11748400  0.64754699  1
  Fe  Fe6  1  0.88251601  0.88251601  0.35245302  1
  B  B7  1  0.83245701  0.50000000  0.50000001  1
  B  B8  1  0.50000001  0.16754300  0.50000000  1
  B  B9  1  0.16754300  0.83245701  0.50000002  1
  B  B10  1  0.50000000  0.83245701  0.50000002  1
  B  B11  1  0.83245701  0.16754300  0.50000000  1
  B  B12  1  0.16754300  0.50000000  0.50000001  1
