# generated using pymatgen
data_Ho2(Ni3P)3
_symmetry_space_group_name_H-M   'P 1'
_cell_length_a   3.84757495
_cell_length_b   7.22652483
_cell_length_c   7.22652483
_cell_angle_alpha   90.00000000
_cell_angle_beta   90.00000000
_cell_angle_gamma   90.00000000
_symmetry_Int_Tables_number   1
_chemical_formula_structural   Ho2(Ni3P)3
_chemical_formula_sum   'Ho2 Ni9 P3'
_cell_volume   200.93060270
_cell_formula_units_Z   1
loop_
 _symmetry_equiv_pos_site_id
 _symmetry_equiv_pos_as_xyz
  1  'x, y, z'
loop_
 _atom_site_type_symbol
 _atom_site_label
 _atom_site_symmetry_multiplicity
 _atom_site_fract_x
 _atom_site_fract_y
 _atom_site_fract_z
 _atom_site_occupancy
  Ho  Ho0  1  0.50000001  0.00000000  -0.00000000  1
  Ho  Ho1  1  0.00000000  0.50000001  0.50000001  1
  Ni  Ni2  1  0.50000001  0.40810901  0.85861402  1
  Ni  Ni3  1  0.50000001  0.85861402  0.40810901  1
  Ni  Ni4  1  1.00000001  0.64138602  0.90810902  1
  Ni  Ni5  1  0.00000000  0.09189100  0.35861401  1
  Ni  Ni6  1  0.00000000  0.35861401  0.09189100  1
  Ni  Ni7  1  0.50000001  0.59189101  0.14138600  1
  Ni  Ni8  1  0.50000001  0.14138600  0.59189101  1
  Ni  Ni9  1  1.00000001  0.90810902  0.64138602  1
  P  P10  1  0.50000001  0.28448501  0.28448501  1
  P  P11  1  0.00000000  0.78448502  0.21551501  1
  P  P12  1  0.00000000  0.21551501  0.78448502  1
  Ni  Ni13  1  0.50000001  0.71551502  0.71551502  1
