# generated using pymatgen
data_RbMnTe3
_symmetry_space_group_name_H-M   'P 1'
_cell_length_a   5.55963516
_cell_length_b   5.57501793
_cell_length_c   5.56046343
_cell_angle_alpha   90.00000000
_cell_angle_beta   89.91136169
_cell_angle_gamma   90.00000000
_symmetry_Int_Tables_number   1
_chemical_formula_structural   RbMnTe3
_chemical_formula_sum   'Rb1 Mn1 Te3'
_cell_volume   172.34672310
_cell_formula_units_Z   1
loop_
 _symmetry_equiv_pos_site_id
 _symmetry_equiv_pos_as_xyz
  1  'x, y, z'
loop_
 _atom_site_type_symbol
 _atom_site_label
 _atom_site_symmetry_multiplicity
 _atom_site_fract_x
 _atom_site_fract_y
 _atom_site_fract_z
 _atom_site_occupancy
  Rb  Rb0  1  0.00085500  0.50000001  0.00484700  1
  Mn  Mn1  1  0.49690799  0.00000000  0.51416500  1
  Te  Te2  1  0.49510699  0.50000001  0.51370700  1
  Te  Te3  1  0.50031799  0.00000000  0.01439698  1
  Te  Te4  1  0.99681497  0.00000000  0.51288398  1
