# generated using pymatgen
data_Cs5NaBS9
_symmetry_space_group_name_H-M   'P 1'
_cell_length_a   6.77533388
_cell_length_b   7.23697424
_cell_length_c   12.93378353
_cell_angle_alpha   101.11611176
_cell_angle_beta   90.00000000
_cell_angle_gamma   117.91138458
_symmetry_Int_Tables_number   1
_chemical_formula_structural   Cs5NaBS9
_chemical_formula_sum   'Cs5 Na1 B1 S9'
_cell_volume   546.90770958
_cell_formula_units_Z   1
loop_
 _symmetry_equiv_pos_site_id
 _symmetry_equiv_pos_as_xyz
  1  'x, y, z'
loop_
 _atom_site_type_symbol
 _atom_site_label
 _atom_site_symmetry_multiplicity
 _atom_site_fract_x
 _atom_site_fract_y
 _atom_site_fract_z
 _atom_site_occupancy
  Cs  Cs0  1  0.12147500  0.00000000  0.75000001  1
  S  S1  1  0.87852501  0.00000000  0.25000000  1
  B  B2  1  0.49999999  0.50000000  0.50000002  1
  Cs  Cs3  1  -0.00000002  0.50000000  0.00000001  1
  S  S4  1  0.54489098  0.83294000  0.60580003  1
  Na  Na5  1  0.28804898  0.83294000  0.10580002  1
  Cs  Cs6  1  0.19641898  0.56717000  0.84554502  1
  S  S7  1  0.45510900  0.16706000  0.39420001  1
  S  S8  1  0.37075099  0.56717000  0.34554502  1
  S  S9  1  0.80358100  0.43283000  0.15445501  1
  S  S10  1  0.80099699  0.68293400  0.95889103  1
  S  S11  1  0.88193699  0.68293400  0.45889102  1
  Cs  Cs12  1  0.19900299  0.31706600  0.04110901  1
  Cs  Cs13  1  0.62924900  0.43283000  0.65445502  1
  S  S14  1  0.11806299  0.31706600  0.54110901  1
  S  S15  1  0.71195101  0.16706000  0.89420001  1
