# generated using pymatgen
data_Ce3Cd5Au4
_symmetry_space_group_name_H-M   'P 1'
_cell_length_a   4.67432022
_cell_length_b   7.47006083
_cell_length_c   8.50819969
_cell_angle_alpha   90.00000000
_cell_angle_beta   90.00000000
_cell_angle_gamma   90.00000000
_symmetry_Int_Tables_number   1
_chemical_formula_structural   Ce3Cd5Au4
_chemical_formula_sum   'Ce3 Cd5 Au4'
_cell_volume   297.08469150
_cell_formula_units_Z   1
loop_
 _symmetry_equiv_pos_site_id
 _symmetry_equiv_pos_as_xyz
  1  'x, y, z'
loop_
 _atom_site_type_symbol
 _atom_site_label
 _atom_site_symmetry_multiplicity
 _atom_site_fract_x
 _atom_site_fract_y
 _atom_site_fract_z
 _atom_site_occupancy
  Ce  Ce0  1  0.74999996  0.97844502  0.68571102  1
  Cd  Cd1  1  0.24999999  0.02155500  0.31428901  1
  Ce  Ce2  1  0.74999996  0.47844501  0.81428903  1
  Ce  Ce3  1  0.24999999  0.52155501  0.18571101  1
  Cd  Cd4  1  0.74999996  0.33889501  0.43455002  1
  Cd  Cd5  1  0.24999999  0.16110500  0.93455003  1
  Cd  Cd6  1  0.24999999  0.66110502  0.56545002  1
  Cd  Cd7  1  0.74999996  0.83889502  0.06545000  1
  Au  Au8  1  0.24999999  0.77285502  0.88284203  1
  Au  Au9  1  0.24999999  0.27285501  0.61715802  1
  Au  Au10  1  0.74999996  0.72714502  0.38284201  1
  Au  Au11  1  0.74999996  0.22714501  0.11715800  1
