# generated using pymatgen
data_Yb4SnGe
_symmetry_space_group_name_H-M   'P 1'
_cell_length_a   4.85672903
_cell_length_b   6.07535410
_cell_length_c   6.07535410
_cell_angle_alpha   60.00000000
_cell_angle_beta   90.00000000
_cell_angle_gamma   90.00000000
_symmetry_Int_Tables_number   1
_chemical_formula_structural   Yb4SnGe
_chemical_formula_sum   'Yb4 Sn1 Ge1'
_cell_volume   155.24502684
_cell_formula_units_Z   1
loop_
 _symmetry_equiv_pos_site_id
 _symmetry_equiv_pos_as_xyz
  1  'x, y, z'
loop_
 _atom_site_type_symbol
 _atom_site_label
 _atom_site_symmetry_multiplicity
 _atom_site_fract_x
 _atom_site_fract_y
 _atom_site_fract_z
 _atom_site_occupancy
  Sn  Sn0  1  0.00000000  0.00000000  0.00000000  1
  Yb  Yb1  1  0.50000000  0.31023800  0.68976200  1
  Yb  Yb2  1  0.50000000  0.00000000  0.31023800  1
  Yb  Yb3  1  0.50000000  0.68976199  -0.00000001  1
  Yb  Yb4  1  0.99999999  0.66666666  0.66666666  1
  Ge  Ge5  1  0.99999999  0.33333333  0.33333333  1
