# generated using pymatgen
data_KTeIO6
_symmetry_space_group_name_H-M   'P 1'
_cell_length_a   7.11998415
_cell_length_b   7.15251827
_cell_length_c   7.15251827
_cell_angle_alpha   60.47978973
_cell_angle_beta   60.15035629
_cell_angle_gamma   60.15035629
_symmetry_Int_Tables_number   1
_chemical_formula_structural   KTeIO6
_chemical_formula_sum   'K2 Te2 I2 O12'
_cell_volume   259.07319219
_cell_formula_units_Z   2
loop_
 _symmetry_equiv_pos_site_id
 _symmetry_equiv_pos_as_xyz
  1  'x, y, z'
loop_
 _atom_site_type_symbol
 _atom_site_label
 _atom_site_symmetry_multiplicity
 _atom_site_fract_x
 _atom_site_fract_y
 _atom_site_fract_z
 _atom_site_occupancy
  K  K0  1  0.87119300  0.87880703  0.37880699  1
  K  K1  1  0.12880700  0.12119300  0.62119301  1
  I  I2  1  0.00000002  0.50000002  -0.00000002  1
  I  I3  1  0.50000000  0.50000002  -0.00000001  1
  Te  Te4  1  0.50000000  0.50000002  0.50000000  1
  Te  Te5  1  0.50000002  1.00000003  -0.00000004  1
  O  O6  1  0.79875599  0.45124401  0.95124402  1
  O  O7  1  0.41387501  0.83612503  0.33612498  1
  O  O8  1  0.41717001  0.80259802  0.94226399  1
  O  O9  1  0.83796899  0.44226401  0.30259701  1
  O  O10  1  0.41717100  0.44226401  0.30259700  1
  O  O11  1  0.83796800  0.80259802  0.94226400  1
  O  O12  1  0.20124401  0.54875602  0.04875598  1
  O  O13  1  0.58612499  0.16387501  0.66387502  1
  O  O14  1  0.58282999  0.19740201  0.05773601  1
  O  O15  1  0.16203101  0.55773602  0.69740299  1
  O  O16  1  0.58282900  0.55773602  0.69740300  1
  O  O17  1  0.16203200  0.19740201  0.05773600  1
