# generated using pymatgen
data_Li11N2O3
_symmetry_space_group_name_H-M   'P 1'
_cell_length_a   2.96011996
_cell_length_b   6.10783482
_cell_length_c   9.87022114
_cell_angle_alpha   90.00000000
_cell_angle_beta   90.00000000
_cell_angle_gamma   104.02359772
_symmetry_Int_Tables_number   1
_chemical_formula_structural   Li11N2O3
_chemical_formula_sum   'Li11 N2 O3'
_cell_volume   173.13423830
_cell_formula_units_Z   1
loop_
 _symmetry_equiv_pos_site_id
 _symmetry_equiv_pos_as_xyz
  1  'x, y, z'
loop_
 _atom_site_type_symbol
 _atom_site_label
 _atom_site_symmetry_multiplicity
 _atom_site_fract_x
 _atom_site_fract_y
 _atom_site_fract_z
 _atom_site_occupancy
  Li  Li0  1  0.50000001  0.00000000  0.99999999  1
  Li  Li1  1  0.50000001  0.00000000  0.49999999  1
  O  O2  1  0.62914898  0.25829800  0.74999999  1
  O  O3  1  0.37085093  0.74170201  0.25000000  1
  N  N4  1  0.35047393  0.70094801  0.74999999  1
  Li  Li5  1  0.64952598  0.29905200  0.25000000  1
  O  O6  1  0.15631497  0.31263000  0.10873700  1
  Li  Li7  1  0.84368494  0.68737001  0.60873699  1
  Li  Li8  1  0.84368494  0.68737001  0.89126299  1
  N  N9  1  0.15631497  0.31263000  0.39126299  1
  Li  Li10  1  0.20175796  0.40351600  0.89169199  1
  Li  Li11  1  0.01114000  0.02228000  0.25000000  1
  Li  Li12  1  0.98885991  0.97772001  0.74999999  1
  Li  Li13  1  0.79824195  0.59648401  0.10830800  1
  Li  Li14  1  0.79824195  0.59648401  0.39169199  1
  Li  Li15  1  0.20175796  0.40351600  0.60830799  1
