# generated using pymatgen
data_LaCrS3
_symmetry_space_group_name_H-M   'P 1'
_cell_length_a   5.89651489
_cell_length_b   8.25883389
_cell_length_c   8.25883389
_cell_angle_alpha   92.95281982
_cell_angle_beta   110.33612061
_cell_angle_gamma   110.33612061
_symmetry_Int_Tables_number   1
_chemical_formula_structural   LaCrS3
_chemical_formula_sum   'La4 Cr4 S12'
_cell_volume   346.76122893
_cell_formula_units_Z   4
loop_
 _symmetry_equiv_pos_site_id
 _symmetry_equiv_pos_as_xyz
  1  'x, y, z'
loop_
 _atom_site_type_symbol
 _atom_site_label
 _atom_site_symmetry_multiplicity
 _atom_site_fract_x
 _atom_site_fract_y
 _atom_site_fract_z
 _atom_site_occupancy
  La  La0  1  0.23477405  0.59808199  0.87119200  1
  La  La1  1  0.26522601  0.12880800  0.40191800  1
  La  La2  1  0.76522604  0.40191800  0.12880803  1
  La  La3  1  0.73477408  0.87119199  0.59808203  1
  Cr  Cr4  1  0.38569605  0.53607699  0.26016302  1
  Cr  Cr5  1  0.11430407  0.73983699  0.46392302  1
  Cr  Cr6  1  0.61430404  0.46392299  0.73983701  1
  Cr  Cr7  1  0.88569603  0.26016300  0.53607702  1
  S  S8  1  0.25000009  0.99736599  0.00263405  1
  S  S9  1  0.75000000  0.00263500  0.99736498  1
  S  S10  1  0.16515802  0.25754700  0.06711201  1
  S  S11  1  0.33484208  0.93288799  0.74245302  1
  S  S12  1  0.83484207  0.74245299  0.93288802  1
  S  S13  1  0.66515801  0.06711200  0.25754701  1
  S  S14  1  0.25000007  0.77722899  0.22277103  1
  S  S15  1  0.75000002  0.22277100  0.77722900  1
  S  S16  1  0.25000004  0.49479999  0.50520001  1
  S  S17  1  0.75000005  0.50519999  0.49480002  1
  S  S18  1  0.25000002  0.23092600  0.76907399  1
  S  S19  1  0.75000007  0.76907399  0.23092604  1
