# generated using pymatgen
data_KSrCaHfF6
_symmetry_space_group_name_H-M   'P 1'
_cell_length_a   5.61004210
_cell_length_b   5.62448025
_cell_length_c   5.62448025
_cell_angle_alpha   60.07154846
_cell_angle_beta   60.08488083
_cell_angle_gamma   60.08488083
_symmetry_Int_Tables_number   1
_chemical_formula_structural   KSrCaHfF6
_chemical_formula_sum   'K1 Sr1 Ca1 Hf1 F6'
_cell_volume   125.72070235
_cell_formula_units_Z   1
loop_
 _symmetry_equiv_pos_site_id
 _symmetry_equiv_pos_as_xyz
  1  'x, y, z'
loop_
 _atom_site_type_symbol
 _atom_site_label
 _atom_site_symmetry_multiplicity
 _atom_site_fract_x
 _atom_site_fract_y
 _atom_site_fract_z
 _atom_site_occupancy
  Sr  Sr0  1  0.74999999  0.75002603  0.74997400  1
  K  K1  1  0.25000000  0.24997401  0.25002600  1
  Hf  Hf2  1  0.49999999  0.50000002  0.50000000  1
  Ca  Ca3  1  0.00000000  0.00000000  0.00000000  1
  F  F4  1  0.74999999  0.21460601  0.28539399  1
  F  F5  1  0.24999999  0.78539403  0.71460600  1
  F  F6  1  0.73313799  0.26686201  0.76686201  1
  F  F7  1  0.76686199  0.73313803  0.23313798  1
  F  F8  1  0.23313800  0.26686201  0.76686201  1
  F  F9  1  0.26686199  0.73313803  0.23313799  1
