# generated using pymatgen
data_Lu2O3
_symmetry_space_group_name_H-M   'P 1'
_cell_length_a   3.63055110
_cell_length_b   6.81440306
_cell_length_c   6.86598110
_cell_angle_alpha   117.01000214
_cell_angle_beta   99.71238708
_cell_angle_gamma   95.21055603
_symmetry_Int_Tables_number   1
_chemical_formula_structural   Lu2O3
_chemical_formula_sum   'Lu4 O6'
_cell_volume   146.43153885
_cell_formula_units_Z   2
loop_
 _symmetry_equiv_pos_site_id
 _symmetry_equiv_pos_as_xyz
  1  'x, y, z'
loop_
 _atom_site_type_symbol
 _atom_site_label
 _atom_site_symmetry_multiplicity
 _atom_site_fract_x
 _atom_site_fract_y
 _atom_site_fract_z
 _atom_site_occupancy
  Lu  Lu0  1  0.98690004  0.72630004  0.26120003  1
  Lu  Lu1  1  0.01310002  0.27370001  0.73880001  1
  Lu  Lu2  1  0.37090001  0.24830001  0.21000001  1
  Lu  Lu3  1  0.62910005  0.75170004  0.79000003  1
  O  O4  1  0.48280002  0.34970002  0.58240001  1
  O  O5  1  0.51720004  0.65030003  0.41760003  1
  O  O6  1  0.17760008  0.98450005  0.81490004  1
  O  O7  1  0.82239998  0.01550000  0.18510000  1
  O  O8  1  0.15960005  0.65340003  0.92660002  1
  O  O9  1  0.84040001  0.34660002  0.07340002  1
