# generated using pymatgen
data_Ce7Ni9
_symmetry_space_group_name_H-M   'P 1'
_cell_length_a   4.08802414
_cell_length_b   5.69838476
_cell_length_c   13.66019344
_cell_angle_alpha   90.00000000
_cell_angle_beta   90.00000000
_cell_angle_gamma   111.02039337
_symmetry_Int_Tables_number   1
_chemical_formula_structural   Ce7Ni9
_chemical_formula_sum   'Ce7 Ni9'
_cell_volume   297.03966049
_cell_formula_units_Z   1
loop_
 _symmetry_equiv_pos_site_id
 _symmetry_equiv_pos_as_xyz
  1  'x, y, z'
loop_
 _atom_site_type_symbol
 _atom_site_label
 _atom_site_symmetry_multiplicity
 _atom_site_fract_x
 _atom_site_fract_y
 _atom_site_fract_z
 _atom_site_occupancy
  Ce  Ce0  1  0.36317394  0.72634796  0.74999998  1
  Ce  Ce1  1  0.63682596  0.27365199  0.24999999  1
  Ce  Ce2  1  0.07879699  0.15759399  0.88719197  1
  Ce  Ce3  1  0.92120292  0.84240596  0.11280800  1
  Ce  Ce4  1  0.92120292  0.84240596  0.38719199  1
  Ce  Ce5  1  0.07879699  0.15759399  0.61280798  1
  Ni  Ni6  1  0.21528797  0.43057598  0.41991599  1
  Ni  Ni7  1  0.78471194  0.56942397  0.58008398  1
  Ni  Ni8  1  0.78471194  0.56942397  0.91991597  1
  Ce  Ce9  1  0.21528797  0.43057598  0.08008400  1
  Ni  Ni10  1  0.67430296  0.34860598  0.74999998  1
  Ni  Ni11  1  0.32569695  0.65139397  0.24999999  1
  Ni  Ni12  1  0.37380594  0.74761196  0.96060397  1
  Ni  Ni13  1  0.62619396  0.25238799  0.03939600  1
  Ni  Ni14  1  0.62619396  0.25238799  0.46060399  1
  Ni  Ni15  1  0.37380594  0.74761196  0.53939598  1
