# generated using pymatgen
data_Eu3Sn2Ge
_symmetry_space_group_name_H-M   'P 1'
_cell_length_a   4.48051691
_cell_length_b   4.48051691
_cell_length_c   8.24558926
_cell_angle_alpha   90.00000000
_cell_angle_beta   90.00000000
_cell_angle_gamma   90.00000000
_symmetry_Int_Tables_number   1
_chemical_formula_structural   Eu3Sn2Ge
_chemical_formula_sum   'Eu3 Sn2 Ge1'
_cell_volume   165.53046641
_cell_formula_units_Z   1
loop_
 _symmetry_equiv_pos_site_id
 _symmetry_equiv_pos_as_xyz
  1  'x, y, z'
loop_
 _atom_site_type_symbol
 _atom_site_label
 _atom_site_symmetry_multiplicity
 _atom_site_fract_x
 _atom_site_fract_y
 _atom_site_fract_z
 _atom_site_occupancy
  Sn  Sn0  1  0.00000000  0.50000001  0.76097498  1
  Ge  Ge1  1  0.50000001  0.00000000  0.23902499  1
  Eu  Eu2  1  0.00000000  0.50000001  0.36578699  1
  Eu  Eu3  1  0.50000001  0.00000000  0.63421298  1
  Sn  Sn4  1  0.00000000  0.00000000  0.00000000  1
  Eu  Eu5  1  0.50000001  0.50000001  -0.00000000  1
