# generated using pymatgen
data_K3(SbSe2)2
_symmetry_space_group_name_H-M   'P 1'
_cell_length_a   4.66860390
_cell_length_b   7.41637421
_cell_length_c   8.94727898
_cell_angle_alpha   111.33251953
_cell_angle_beta   105.12318420
_cell_angle_gamma   90.00000000
_symmetry_Int_Tables_number   1
_chemical_formula_structural   K3(SbSe2)2
_chemical_formula_sum   'K3 Sb2 Se4'
_cell_volume   277.01638019
_cell_formula_units_Z   1
loop_
 _symmetry_equiv_pos_site_id
 _symmetry_equiv_pos_as_xyz
  1  'x, y, z'
loop_
 _atom_site_type_symbol
 _atom_site_label
 _atom_site_symmetry_multiplicity
 _atom_site_fract_x
 _atom_site_fract_y
 _atom_site_fract_z
 _atom_site_occupancy
  K  K0  1  0.85845699  0.42204600  0.71691395  1
  K  K1  1  0.14154297  0.57795400  0.28308596  1
  K  K2  1  0.00000000  0.00000000  0.00000000  1
  Sb  Sb3  1  0.66953196  0.97080299  0.33906393  1
  Sb  Sb4  1  0.33046800  0.02919700  0.66093599  1
  Se  Se5  1  0.79279897  0.80731999  0.58559793  1
  Se  Se6  1  0.20720099  0.19268000  0.41440198  1
  Se  Se7  1  0.50527897  0.67434199  0.01055795  1
  Se  Se8  1  0.49472099  0.32565800  0.98944197  1
