# generated using pymatgen
data_AlFe3
_symmetry_space_group_name_H-M   'P 1'
_cell_length_a   5.29345083
_cell_length_b   5.29345083
_cell_length_c   6.77028704
_cell_angle_alpha   90.00000000
_cell_angle_beta   90.00000000
_cell_angle_gamma   90.00000000
_symmetry_Int_Tables_number   1
_chemical_formula_structural   AlFe3
_chemical_formula_sum   'Al4 Fe12'
_cell_volume   189.70765196
_cell_formula_units_Z   4
loop_
 _symmetry_equiv_pos_site_id
 _symmetry_equiv_pos_as_xyz
  1  'x, y, z'
loop_
 _atom_site_type_symbol
 _atom_site_label
 _atom_site_symmetry_multiplicity
 _atom_site_fract_x
 _atom_site_fract_y
 _atom_site_fract_z
 _atom_site_occupancy
  Al  Al0  1  0.50000002  0.00000000  0.00000000  1
  Fe  Fe1  1  0.00000000  0.00000000  0.50000000  1
  Fe  Fe2  1  0.00000000  0.50000002  -0.00000000  1
  Fe  Fe3  1  0.00000000  0.00000000  0.00000000  1
  Fe  Fe4  1  0.00000000  0.50000002  0.50000000  1
  Fe  Fe5  1  0.50000002  0.00000000  0.50000000  1
  Fe  Fe6  1  0.50000002  0.50000002  0.00000000  1
  Fe  Fe7  1  0.24774601  0.24774601  0.25035100  1
  Fe  Fe8  1  0.24774601  0.75225402  0.74964900  1
  Al  Al9  1  0.75225402  0.24774601  0.74964900  1
  Fe  Fe10  1  0.75225402  0.75225402  0.25035100  1
  Al  Al11  1  0.24774601  0.24774601  0.74964900  1
  Fe  Fe12  1  0.24774601  0.75225402  0.25035100  1
  Fe  Fe13  1  0.75225402  0.24774601  0.25035100  1
  Al  Al14  1  0.75225402  0.75225402  0.74964900  1
  Fe  Fe15  1  0.50000002  0.50000002  0.50000000  1
