# generated using pymatgen
data_Mg5Zn2S7
_symmetry_space_group_name_H-M   'P 1'
_cell_length_a   3.96537399
_cell_length_b   6.74207306
_cell_length_c   12.78693295
_cell_angle_alpha   99.42001343
_cell_angle_beta   90.00000000
_cell_angle_gamma   90.00000000
_symmetry_Int_Tables_number   1
_chemical_formula_structural   Mg5Zn2S7
_chemical_formula_sum   'Mg5 Zn2 S7'
_cell_volume   337.24670241
_cell_formula_units_Z   1
loop_
 _symmetry_equiv_pos_site_id
 _symmetry_equiv_pos_as_xyz
  1  'x, y, z'
loop_
 _atom_site_type_symbol
 _atom_site_label
 _atom_site_symmetry_multiplicity
 _atom_site_fract_x
 _atom_site_fract_y
 _atom_site_fract_z
 _atom_site_occupancy
  S  S0  1  0.00000000  0.23731300  0.69820901  1
  S  S1  1  0.00000000  0.76268700  0.30179102  1
  S  S2  1  0.00000000  0.00000000  0.00000000  1
  S  S3  1  0.50000000  0.72270400  0.68649102  1
  S  S4  1  0.50000000  0.50000000  1.00000002  1
  S  S5  1  0.50000000  0.27729600  0.31350901  1
  Mg  Mg6  1  0.00000000  0.10921300  0.37634701  1
  Mg  Mg7  1  0.50000000  0.64235100  0.36985802  1
  Mg  Mg8  1  0.50000000  0.79891400  0.89010902  1
  S  S9  1  1.00000000  0.70307200  0.11022202  1
  Mg  Mg10  1  0.00000000  0.29692800  0.88977801  1
  Mg  Mg11  1  0.50000000  0.20108600  0.10989101  1
  Zn  Zn12  1  0.50000000  0.35764900  0.63014201  1
  Zn  Zn13  1  0.00000000  0.89078700  0.62365302  1
