# generated using pymatgen
data_In3SO2
_symmetry_space_group_name_H-M   'P 1'
_cell_length_a   3.57798409
_cell_length_b   4.15798283
_cell_length_c   8.66275311
_cell_angle_alpha   90.00000000
_cell_angle_beta   90.00000000
_cell_angle_gamma   90.00000000
_symmetry_Int_Tables_number   1
_chemical_formula_structural   In3SO2
_chemical_formula_sum   'In3 S1 O2'
_cell_volume   128.87747947
_cell_formula_units_Z   1
loop_
 _symmetry_equiv_pos_site_id
 _symmetry_equiv_pos_as_xyz
  1  'x, y, z'
loop_
 _atom_site_type_symbol
 _atom_site_label
 _atom_site_symmetry_multiplicity
 _atom_site_fract_x
 _atom_site_fract_y
 _atom_site_fract_z
 _atom_site_occupancy
  In  In0  1  0.00000000  0.00000000  0.11647700  1
  O  O1  1  0.49999999  0.50000002  0.88352299  1
  In  In2  1  0.00000000  0.50000002  0.67311199  1
  S  S3  1  0.49999999  0.00000000  0.32688800  1
  In  In4  1  0.49999999  0.00000000  0.95728899  1
  O  O5  1  0.00000000  0.50000002  0.04271100  1
