# generated using pymatgen
data_Eu2MgHg
_symmetry_space_group_name_H-M   'P 1'
_cell_length_a   5.36570215
_cell_length_b   5.36570215
_cell_length_c   5.36570215
_cell_angle_alpha   85.50035858
_cell_angle_beta   62.56296539
_cell_angle_gamma   117.43703461
_symmetry_Int_Tables_number   1
_chemical_formula_structural   Eu2MgHg
_chemical_formula_sum   'Eu2 Mg1 Hg1'
_cell_volume   113.09011537
_cell_formula_units_Z   1
loop_
 _symmetry_equiv_pos_site_id
 _symmetry_equiv_pos_as_xyz
  1  'x, y, z'
loop_
 _atom_site_type_symbol
 _atom_site_label
 _atom_site_symmetry_multiplicity
 _atom_site_fract_x
 _atom_site_fract_y
 _atom_site_fract_z
 _atom_site_occupancy
  Mg  Mg0  1  0.00000000  0.00000000  0.00000000  1
  Hg  Hg1  1  1.00000001  0.50000000  0.50000005  1
  Eu  Eu2  1  0.49999998  0.75000001  0.75000007  1
  Eu  Eu3  1  0.50000000  0.25000000  0.25000002  1
