# generated using pymatgen
data_Na2VF4
_symmetry_space_group_name_H-M   'P 1'
_cell_length_a   5.44626379
_cell_length_b   5.69797707
_cell_length_c   6.73203754
_cell_angle_alpha   90.00000000
_cell_angle_beta   113.86000824
_cell_angle_gamma   90.00000000
_symmetry_Int_Tables_number   1
_chemical_formula_structural   Na2VF4
_chemical_formula_sum   'Na4 V2 F8'
_cell_volume   191.05875785
_cell_formula_units_Z   2
loop_
 _symmetry_equiv_pos_site_id
 _symmetry_equiv_pos_as_xyz
  1  'x, y, z'
loop_
 _atom_site_type_symbol
 _atom_site_label
 _atom_site_symmetry_multiplicity
 _atom_site_fract_x
 _atom_site_fract_y
 _atom_site_fract_z
 _atom_site_occupancy
  Na  Na0  1  0.13692700  0.51638299  0.27385399  1
  Na  Na1  1  0.86307302  0.48361699  0.72614596  1
  Na  Na2  1  0.36307301  0.01638300  0.72614598  1
  Na  Na3  1  0.63692701  0.98361699  0.27385397  1
  V  V4  1  0.50000001  0.49999999  -0.00000002  1
  V  V5  1  0.00000000  0.00000000  0.00000000  1
  F  F6  1  0.32108101  0.43154199  0.64216198  1
  F  F7  1  0.67891901  0.56845799  0.35783797  1
  F  F8  1  0.17891900  0.93154199  0.35783799  1
  F  F9  1  0.82108102  0.06845800  0.64216196  1
  F  F10  1  0.26971700  0.25000000  0.03943399  1
  F  F11  1  0.23028300  0.74999999  0.96056598  1
  F  F12  1  0.76971701  0.25000000  0.03943397  1
  F  F13  1  0.73028301  0.74999999  0.96056596  1
