# generated using pymatgen
data_Cs(NiTe3)2
_symmetry_space_group_name_H-M   'P 1'
_cell_length_a   6.69495583
_cell_length_b   6.69495583
_cell_length_c   8.01937675
_cell_angle_alpha   102.37509155
_cell_angle_beta   102.37509155
_cell_angle_gamma   119.11650848
_symmetry_Int_Tables_number   1
_chemical_formula_structural   Cs(NiTe3)2
_chemical_formula_sum   'Cs1 Ni2 Te6'
_cell_volume   284.54975016
_cell_formula_units_Z   1
loop_
 _symmetry_equiv_pos_site_id
 _symmetry_equiv_pos_as_xyz
  1  'x, y, z'
loop_
 _atom_site_type_symbol
 _atom_site_label
 _atom_site_symmetry_multiplicity
 _atom_site_fract_x
 _atom_site_fract_y
 _atom_site_fract_z
 _atom_site_occupancy
  Cs  Cs0  1  0.64496600  0.64496600  0.28993204  1
  Te  Te1  1  0.35503400  0.35503400  0.71006805  1
  Ni  Ni2  1  0.50000000  0.00000000  0.00000001  1
  Te  Te3  1  0.00000000  0.00000000  0.00000000  1
  Ni  Ni4  1  -0.00000000  0.50000000  0.00000001  1
  Te  Te5  1  0.05997499  0.72421400  0.78418905  1
  Te  Te6  1  0.72421400  0.05997500  0.78418905  1
  Te  Te7  1  0.94002500  0.27578600  0.21581104  1
  Te  Te8  1  0.27578599  0.94002500  0.21581104  1
