# generated using pymatgen
data_Sr2Ca2Mn3WO12
_symmetry_space_group_name_H-M   'P 1'
_cell_length_a   5.58032227
_cell_length_b   5.62914324
_cell_length_c   7.91435099
_cell_angle_alpha   90.00003815
_cell_angle_beta   89.96372986
_cell_angle_gamma   89.99958038
_symmetry_Int_Tables_number   1
_chemical_formula_structural   Sr2Ca2Mn3WO12
_chemical_formula_sum   'Sr2 Ca2 Mn3 W1 O12'
_cell_volume   248.60897303
_cell_formula_units_Z   1
loop_
 _symmetry_equiv_pos_site_id
 _symmetry_equiv_pos_as_xyz
  1  'x, y, z'
loop_
 _atom_site_type_symbol
 _atom_site_label
 _atom_site_symmetry_multiplicity
 _atom_site_fract_x
 _atom_site_fract_y
 _atom_site_fract_z
 _atom_site_occupancy
  Sr  Sr0  1  0.50414101  0.97576096  0.75031405  1
  Sr  Sr1  1  0.00413000  0.52427598  0.25030703  1
  Ca  Ca2  1  0.49294702  0.03890500  0.24819800  1
  Ca  Ca3  1  0.99292403  0.46111298  0.74818301  1
  Mn  Mn4  1  0.49996601  0.50104398  0.50024402  1
  W  W5  1  0.99995103  0.99886996  0.00026802  1
  Mn  Mn6  1  0.99999503  0.99844096  0.49972003  1
  Mn  Mn7  1  0.49999201  0.50147098  0.99977904  1
  O  O8  1  0.79043302  0.70834097  0.53914102  1
  O  O9  1  0.29043300  0.79167697  0.03913703  1
  O  O10  1  0.22045301  0.27952599  0.47014902  1
  O  O11  1  0.72046702  0.22049299  0.97014002  1
  O  O12  1  0.72086102  0.22146199  0.53229501  1
  O  O13  1  0.22085701  0.27855399  0.03229401  1
  O  O14  1  0.29295300  0.78952697  0.45987104  1
  O  O15  1  0.79295402  0.71049497  0.95986504  1
  O  O16  1  0.55680701  0.48046498  0.25051001  1
  O  O17  1  0.05681800  0.01956400  0.75052002  1
  O  O18  1  0.42145601  0.51209998  0.74953403  1
  O  O19  1  0.92145902  0.98791596  0.24952802  1
