# generated using pymatgen
data_K4B2IrN2O5F6
_symmetry_space_group_name_H-M   'P 1'
_cell_length_a   6.31196022
_cell_length_b   6.94053221
_cell_length_c   8.06393623
_cell_angle_alpha   90.00000000
_cell_angle_beta   90.00000000
_cell_angle_gamma   90.00000000
_symmetry_Int_Tables_number   1
_chemical_formula_structural   K4B2IrN2O5F6
_chemical_formula_sum   'K4 B2 Ir1 N2 O5 F6'
_cell_volume   353.26784735
_cell_formula_units_Z   1
loop_
 _symmetry_equiv_pos_site_id
 _symmetry_equiv_pos_as_xyz
  1  'x, y, z'
loop_
 _atom_site_type_symbol
 _atom_site_label
 _atom_site_symmetry_multiplicity
 _atom_site_fract_x
 _atom_site_fract_y
 _atom_site_fract_z
 _atom_site_occupancy
  K  K0  1  0.74999997  0.86673797  0.38361399  1
  K  K1  1  0.74999997  0.36673799  0.11638600  1
  K  K2  1  0.24999999  0.63326198  0.88361397  1
  K  K3  1  0.24999999  0.13326200  0.61638598  1
  B  B4  1  0.24999999  0.05461900  0.21322399  1
  B  B5  1  0.74999997  0.94538097  0.78677598  1
  N  N6  1  0.24999999  0.55461898  0.28677599  1
  N  N7  1  0.74999997  0.44538099  0.71322398  1
  O  O8  1  0.24999999  0.62233198  0.41583499  1
  O  O9  1  0.74999997  0.37766799  0.58416498  1
  O  O10  1  0.74999997  0.87766797  0.91583497  1
  O  O11  1  0.24999999  0.12233200  0.08416500  1
  F  F12  1  0.48359498  0.66710898  0.16653200  1
  Ir  Ir13  1  0.98359497  0.33289099  0.83346798  1
  F  F14  1  0.01640500  0.66710898  0.16653200  1
  F  F15  1  0.98359497  0.83289098  0.66653198  1
  F  F16  1  0.48359498  0.16710900  0.33346799  1
  F  F17  1  0.51640498  0.83289098  0.66653198  1
  F  F18  1  0.01640500  0.16710900  0.33346799  1
  O  O19  1  0.51640498  0.33289099  0.83346798  1
