# generated using pymatgen
data_Rb2NaRuF6
_symmetry_space_group_name_H-M   'P 1'
_cell_length_a   6.21893930
_cell_length_b   6.21893930
_cell_length_c   6.21893930
_cell_angle_alpha   60.06341171
_cell_angle_beta   60.06341171
_cell_angle_gamma   60.06340408
_symmetry_Int_Tables_number   1
_chemical_formula_structural   Rb2NaRuF6
_chemical_formula_sum   'Rb2 Na1 Ru1 F6'
_cell_volume   170.31685135
_cell_formula_units_Z   1
loop_
 _symmetry_equiv_pos_site_id
 _symmetry_equiv_pos_as_xyz
  1  'x, y, z'
loop_
 _atom_site_type_symbol
 _atom_site_label
 _atom_site_symmetry_multiplicity
 _atom_site_fract_x
 _atom_site_fract_y
 _atom_site_fract_z
 _atom_site_occupancy
  Rb  Rb0  1  0.24996800  0.24996799  0.24996800  1
  Rb  Rb1  1  0.75003199  0.75003197  0.75003200  1
  Na  Na2  1  0.49999999  0.49999998  0.50000000  1
  Ru  Ru3  1  0.00000000  0.00000000  0.00000000  1
  F  F4  1  0.79038699  0.73869197  0.23527101  1
  F  F5  1  0.23527101  0.79038697  0.73869199  1
  F  F6  1  0.73869198  0.23527099  0.79038700  1
  F  F7  1  0.20961300  0.26130799  0.76472899  1
  F  F8  1  0.76472898  0.20961299  0.26130800  1
  F  F9  1  0.26130801  0.76472897  0.20961300  1
