# generated using pymatgen
data_Dy2Ni2B6Ru
_symmetry_space_group_name_H-M   'P 1'
_cell_length_a   3.45771408
_cell_length_b   5.76756716
_cell_length_c   5.76756716
_cell_angle_alpha   96.49958038
_cell_angle_beta   90.00000000
_cell_angle_gamma   90.00000000
_symmetry_Int_Tables_number   1
_chemical_formula_structural   Dy2Ni2B6Ru
_chemical_formula_sum   'Dy2 Ni2 B6 Ru1'
_cell_volume   114.28100270
_cell_formula_units_Z   1
loop_
 _symmetry_equiv_pos_site_id
 _symmetry_equiv_pos_as_xyz
  1  'x, y, z'
loop_
 _atom_site_type_symbol
 _atom_site_label
 _atom_site_symmetry_multiplicity
 _atom_site_fract_x
 _atom_site_fract_y
 _atom_site_fract_z
 _atom_site_occupancy
  Dy  Dy0  1  -0.00000000  0.72485700  0.27514300  1
  Dy  Dy1  1  -0.00000000  0.27514200  0.72485700  1
  Ni  Ni2  1  -0.00000000  0.22852800  0.22852800  1
  Ni  Ni3  1  -0.00000000  0.77147201  0.77147200  1
  Ru  Ru4  1  0.49999999  0.00000000  -0.00000000  1
  B  B5  1  0.49999999  0.61238300  0.61238300  1
  B  B6  1  0.49999999  0.38761700  0.38761700  1
  B  B7  1  0.49999999  0.91578701  0.61538200  1
  B  B8  1  0.49999999  0.08421300  0.38461800  1
  B  B9  1  0.49999999  0.61538200  0.91578700  1
  B  B10  1  0.49999999  0.38461800  0.08421300  1
