# generated using pymatgen
data_Sc3Te17
_symmetry_space_group_name_H-M   'P 1'
_cell_length_a   6.62291908
_cell_length_b   10.35682964
_cell_length_c   10.35682964
_cell_angle_alpha   120.00000000
_cell_angle_beta   90.00000000
_cell_angle_gamma   90.00000000
_symmetry_Int_Tables_number   1
_chemical_formula_structural   Sc3Te17
_chemical_formula_sum   'Sc3 Te17'
_cell_volume   615.22467579
_cell_formula_units_Z   1
loop_
 _symmetry_equiv_pos_site_id
 _symmetry_equiv_pos_as_xyz
  1  'x, y, z'
loop_
 _atom_site_type_symbol
 _atom_site_label
 _atom_site_symmetry_multiplicity
 _atom_site_fract_x
 _atom_site_fract_y
 _atom_site_fract_z
 _atom_site_occupancy
  Te  Te0  1  0.46172599  0.33333335  0.66666670  1
  Te  Te1  1  0.96172599  0.66666669  0.33333335  1
  Te  Te2  1  0.25016700  0.12584300  0.87415704  1
  Te  Te3  1  0.25016700  0.74831403  0.87415704  1
  Te  Te4  1  0.25016700  0.12584300  0.25168601  1
  Te  Te5  1  0.75016699  0.87415703  0.12584301  1
  Te  Te6  1  0.75016699  0.25168601  0.12584301  1
  Te  Te7  1  0.75016699  0.87415703  0.74831404  1
  Te  Te8  1  0.43718499  0.53826602  0.46173402  1
  Te  Te9  1  0.43718499  0.92346803  0.46173403  1
  Te  Te10  1  0.43718499  0.53826602  0.07653201  1
  Te  Te11  1  0.93718499  0.46173402  0.53826603  1
  Te  Te12  1  0.93718499  0.07653200  0.53826602  1
  Te  Te13  1  0.93718499  0.46173402  0.92346804  1
  Te  Te14  1  0.18965200  0.81172303  0.18827801  1
  Te  Te15  1  0.18965200  0.37655501  0.18827801  1
  Te  Te16  1  0.18965200  0.81172303  0.62344603  1
  Sc  Sc17  1  0.68965199  0.18827701  0.81172204  1
  Sc  Sc18  1  0.68965199  0.62344502  0.81172204  1
  Sc  Sc19  1  0.68965199  0.18827701  0.37655402  1
