# generated using pymatgen
data_Mn6O11F
_symmetry_space_group_name_H-M   'P 1'
_cell_length_a   5.51567602
_cell_length_b   5.52144957
_cell_length_c   7.26034880
_cell_angle_alpha   70.89633179
_cell_angle_beta   71.01897430
_cell_angle_gamma   73.85538483
_symmetry_Int_Tables_number   1
_chemical_formula_structural   Mn6O11F
_chemical_formula_sum   'Mn6 O11 F1'
_cell_volume   193.89487689
_cell_formula_units_Z   1
loop_
 _symmetry_equiv_pos_site_id
 _symmetry_equiv_pos_as_xyz
  1  'x, y, z'
loop_
 _atom_site_type_symbol
 _atom_site_label
 _atom_site_symmetry_multiplicity
 _atom_site_fract_x
 _atom_site_fract_y
 _atom_site_fract_z
 _atom_site_occupancy
  Mn  Mn0  1  0.31022098  0.32268102  0.18402601  1
  Mn  Mn1  1  0.66146995  0.66515103  0.32935802  1
  Mn  Mn2  1  0.34621497  0.35649402  0.66378301  1
  Mn  Mn3  1  0.67509395  0.69325903  0.81990702  1
  Mn  Mn4  1  0.99166393  0.99710805  0.48887202  1
  Mn  Mn5  1  0.02414894  0.96627305  0.01542801  1
  O  O6  1  0.37158794  0.97427305  0.32294101  1
  O  O7  1  0.02853296  0.63145003  0.67332401  1
  O  O8  1  0.78324094  0.78247504  0.01931102  1
  O  O9  1  0.41427597  0.42334302  0.38032501  1
  O  O10  1  0.90730794  0.89806804  0.29544402  1
  O  O11  1  0.21989298  0.22448701  0.96386202  1
  O  O12  1  0.56378996  0.57139903  0.63949102  1
  O  O13  1  0.31652095  0.68125003  0.00372601  1
  O  O14  1  0.95953797  0.37203502  0.32958902  1
  O  O15  1  0.62415799  0.04066900  0.67074302  1
  O  O16  1  0.10359999  0.09845500  0.69914701  1
  F  F17  1  0.69874197  0.30113402  0.00072301  1
