# generated using pymatgen
data_La2MgSi9
_symmetry_space_group_name_H-M   'P 1'
_cell_length_a   3.71095610
_cell_length_b   7.43886900
_cell_length_c   9.75999737
_cell_angle_alpha   90.00000000
_cell_angle_beta   90.00000000
_cell_angle_gamma   104.44379425
_symmetry_Int_Tables_number   1
_chemical_formula_structural   La2MgSi9
_chemical_formula_sum   'La2 Mg1 Si9'
_cell_volume   260.91195290
_cell_formula_units_Z   1
loop_
 _symmetry_equiv_pos_site_id
 _symmetry_equiv_pos_as_xyz
  1  'x, y, z'
loop_
 _atom_site_type_symbol
 _atom_site_label
 _atom_site_symmetry_multiplicity
 _atom_site_fract_x
 _atom_site_fract_y
 _atom_site_fract_z
 _atom_site_occupancy
  Si  Si0  1  0.00000000  0.00000000  0.49999998  1
  Mg  Mg1  1  0.00000000  0.00000000  0.00000000  1
  La  La2  1  0.25565302  0.51130599  0.74999997  1
  La  La3  1  0.74434701  0.48869399  0.24999999  1
  Si  Si4  1  0.46186504  0.92372999  0.24999999  1
  Si  Si5  1  0.53813499  0.07627000  0.74999997  1
  Si  Si6  1  0.38032003  0.76063999  0.45163298  1
  Si  Si7  1  0.61968000  0.23936000  0.54836698  1
  Si  Si8  1  0.61968000  0.23936000  0.95163296  1
  Si  Si9  1  0.06057901  0.12115800  0.24999999  1
  Si  Si10  1  0.93942103  0.87884199  0.74999997  1
  Si  Si11  1  0.38032003  0.76063999  0.04836700  1
