# generated using pymatgen
data_Te
_symmetry_space_group_name_H-M   'P 1'
_cell_length_a   4.08492422
_cell_length_b   4.08492422
_cell_length_c   7.06512737
_cell_angle_alpha   73.19647980
_cell_angle_beta   73.19647980
_cell_angle_gamma   59.99999619
_symmetry_Int_Tables_number   1
_chemical_formula_structural   Te
_chemical_formula_sum   Te2
_cell_volume   96.24189293
_cell_formula_units_Z   2
loop_
 _symmetry_equiv_pos_site_id
 _symmetry_equiv_pos_as_xyz
  1  'x, y, z'
loop_
 _atom_site_type_symbol
 _atom_site_label
 _atom_site_symmetry_multiplicity
 _atom_site_fract_x
 _atom_site_fract_y
 _atom_site_fract_z
 _atom_site_occupancy
  Te  Te0  1  0.50000003  0.50000001  0.49999996  1
  Te  Te1  1  0.00000000  0.00000000  0.00000000  1
