# generated using pymatgen
data_Nb5Cr2InS12
_symmetry_space_group_name_H-M   'P 1'
_cell_length_a   5.80475616
_cell_length_b   5.80475664
_cell_length_c   12.19620705
_cell_angle_alpha   90.00000000
_cell_angle_beta   90.00000000
_cell_angle_gamma   119.99999237
_symmetry_Int_Tables_number   1
_chemical_formula_structural   Nb5Cr2InS12
_chemical_formula_sum   'Nb5 Cr2 In1 S12'
_cell_volume   355.89628287
_cell_formula_units_Z   1
loop_
 _symmetry_equiv_pos_site_id
 _symmetry_equiv_pos_as_xyz
  1  'x, y, z'
loop_
 _atom_site_type_symbol
 _atom_site_label
 _atom_site_symmetry_multiplicity
 _atom_site_fract_x
 _atom_site_fract_y
 _atom_site_fract_z
 _atom_site_occupancy
  In  In0  1  0.00000000  0.00000000  0.50000000  1
  Nb  Nb1  1  0.00000000  0.00000000  0.00000000  1
  Nb  Nb2  1  0.66666662  0.33333333  0.00283400  1
  Nb  Nb3  1  0.33333328  0.66666665  0.99716600  1
  Nb  Nb4  1  0.33333328  0.66666665  0.50283400  1
  Nb  Nb5  1  0.66666662  0.33333333  0.49716600  1
  Cr  Cr6  1  0.66666662  0.33333333  0.75000000  1
  Cr  Cr7  1  0.33333328  0.66666665  0.25000000  1
  S  S8  1  0.66805498  0.00269400  0.62999500  1
  S  S9  1  0.33463897  0.33194399  0.62999500  1
  S  S10  1  0.99730493  0.66535999  0.62999500  1
  S  S11  1  0.66536091  0.99730598  0.37000500  1
  S  S12  1  0.00269495  0.66805599  0.37000500  1
  S  S13  1  0.33194497  0.33463999  0.37000500  1
  S  S14  1  0.33194492  0.99730598  0.12999500  1
  S  S15  1  0.66536093  0.66805599  0.12999500  1
  S  S16  1  0.00269498  0.33463999  0.12999500  1
  S  S17  1  0.33463899  0.00269400  0.87000500  1
  S  S18  1  0.99730495  0.33194399  0.87000500  1
  S  S19  1  0.66805493  0.66535999  0.87000500  1
