# generated using pymatgen
data_Lu5(ReO6)2
_symmetry_space_group_name_H-M   'P 1'
_cell_length_a   5.99055386
_cell_length_b   6.85065079
_cell_length_c   7.31160975
_cell_angle_alpha   105.57274628
_cell_angle_beta   90.00000000
_cell_angle_gamma   115.92697144
_symmetry_Int_Tables_number   1
_chemical_formula_structural   Lu5(ReO6)2
_chemical_formula_sum   'Lu5 Re2 O12'
_cell_volume   257.55830463
_cell_formula_units_Z   1
loop_
 _symmetry_equiv_pos_site_id
 _symmetry_equiv_pos_as_xyz
  1  'x, y, z'
loop_
 _atom_site_type_symbol
 _atom_site_label
 _atom_site_symmetry_multiplicity
 _atom_site_fract_x
 _atom_site_fract_y
 _atom_site_fract_z
 _atom_site_occupancy
  Lu  Lu0  1  0.69983803  0.39967600  0.36387999  1
  Lu  Lu1  1  0.30016202  0.60032400  0.63611999  1
  Lu  Lu2  1  0.69102503  0.38205000  0.82287000  1
  Lu  Lu3  1  0.30897502  0.61795000  0.17712998  1
  Lu  Lu4  1  0.00000000  0.00000000  0.50000001  1
  Re  Re5  1  0.24725803  1.00000000  0.99999998  1
  Re  Re6  1  0.75274202  0.00000000  1.00000003  1
  O  O7  1  0.10074802  0.66675200  0.91308699  1
  O  O8  1  0.56600403  0.66675200  0.91308699  1
  O  O9  1  0.89925203  0.33324800  0.08691299  1
  O  O10  1  0.43399602  0.33324800  0.08691299  1
  O  O11  1  0.90354403  0.30638500  0.57241100  1
  O  O12  1  0.40284102  0.30638500  0.57241100  1
  O  O13  1  0.09645602  0.69361500  0.42758898  1
  O  O14  1  0.59715903  0.69361500  0.42758898  1
  O  O15  1  0.00346100  0.00692200  0.81318102  1
  O  O16  1  0.99653905  0.99307800  0.18681896  1
  O  O17  1  0.50141201  0.00282400  0.80265802  1
  O  O18  1  0.49858804  0.99717600  0.19734196  1
