# generated using pymatgen
data_HoNi4B
_symmetry_space_group_name_H-M   'P 1'
_cell_length_a   5.09533978
_cell_length_b   5.09534025
_cell_length_c   6.99565887
_cell_angle_alpha   90.00000000
_cell_angle_beta   90.00000000
_cell_angle_gamma   120.00000000
_symmetry_Int_Tables_number   1
_chemical_formula_structural   HoNi4B
_chemical_formula_sum   'Ho2 Ni8 B2'
_cell_volume   157.29162368
_cell_formula_units_Z   2
loop_
 _symmetry_equiv_pos_site_id
 _symmetry_equiv_pos_as_xyz
  1  'x, y, z'
loop_
 _atom_site_type_symbol
 _atom_site_label
 _atom_site_symmetry_multiplicity
 _atom_site_fract_x
 _atom_site_fract_y
 _atom_site_fract_z
 _atom_site_occupancy
  Ho  Ho0  1  0.00000000  0.00000000  0.50000001  1
  Ho  Ho1  1  0.00000000  0.00000000  0.00000000  1
  Ni  Ni2  1  0.66666670  0.33333333  1.00000002  1
  Ni  Ni3  1  0.33333336  0.66666665  1.00000002  1
  Ni  Ni4  1  0.50000003  0.49999999  0.70534901  1
  Ni  Ni5  1  0.50000004  0.99999998  0.70534901  1
  Ni  Ni6  1  0.00000001  0.49999999  0.70534901  1
  Ni  Ni7  1  0.50000003  0.49999999  0.29465101  1
  Ni  Ni8  1  0.50000004  0.99999998  0.29465101  1
  Ni  Ni9  1  0.00000001  0.49999999  0.29465101  1
  B  B10  1  0.33333336  0.66666665  0.50000001  1
  B  B11  1  0.66666670  0.33333333  0.50000001  1
