# generated using pymatgen
data_SrMoO4
_symmetry_space_group_name_H-M   'P 1'
_cell_length_a   5.44964600
_cell_length_b   5.44964600
_cell_length_c   7.18613052
_cell_angle_alpha   112.28277588
_cell_angle_beta   112.28277588
_cell_angle_gamma   90.00000000
_symmetry_Int_Tables_number   1
_chemical_formula_structural   SrMoO4
_chemical_formula_sum   'Sr2 Mo2 O8'
_cell_volume   180.13922664
_cell_formula_units_Z   2
loop_
 _symmetry_equiv_pos_site_id
 _symmetry_equiv_pos_as_xyz
  1  'x, y, z'
loop_
 _atom_site_type_symbol
 _atom_site_label
 _atom_site_symmetry_multiplicity
 _atom_site_fract_x
 _atom_site_fract_y
 _atom_site_fract_z
 _atom_site_occupancy
  Sr  Sr0  1  0.49999997  0.49999999  -0.00000005  1
  Sr  Sr1  1  0.24999996  0.74999998  0.49999995  1
  Mo  Mo2  1  0.74999997  0.24999999  0.49999996  1
  Mo  Mo3  1  0.00000000  0.00000000  0.00000000  1
  O  O4  1  0.93394694  0.84345498  0.16294591  1
  O  O5  1  0.06949099  0.18394799  0.66294699  1
  O  O6  1  0.59345596  0.47899899  0.66294595  1
  O  O7  1  0.22899898  0.31949099  0.16294697  1
  O  O8  1  0.52100094  0.93050897  0.33705293  1
  O  O9  1  0.15654396  0.77100098  0.83705395  1
  O  O10  1  0.68050898  0.06605200  0.83705297  1
  O  O11  1  0.81605296  0.40654499  0.33705394  1
