# generated using pymatgen
data_VPPb3O8
_symmetry_space_group_name_H-M   'P 1'
_cell_length_a   5.66149998
_cell_length_b   5.66149998
_cell_length_c   7.63594484
_cell_angle_alpha   68.24035645
_cell_angle_beta   68.24035645
_cell_angle_gamma   60.00000000
_symmetry_Int_Tables_number   1
_chemical_formula_structural   VPPb3O8
_chemical_formula_sum   'V1 P1 Pb3 O8'
_cell_volume   191.55969092
_cell_formula_units_Z   1
loop_
 _symmetry_equiv_pos_site_id
 _symmetry_equiv_pos_as_xyz
  1  'x, y, z'
loop_
 _atom_site_type_symbol
 _atom_site_label
 _atom_site_symmetry_multiplicity
 _atom_site_fract_x
 _atom_site_fract_y
 _atom_site_fract_z
 _atom_site_occupancy
  V  V0  1  0.40320398  0.40320400  0.79038803  1
  P  P1  1  0.59820697  0.59820700  0.20537904  1
  Pb  Pb2  1  0.78622096  0.78622100  0.64133705  1
  Pb  Pb3  1  0.20699399  0.20699400  0.37901801  1
  Pb  Pb4  1  0.99593495  0.99593499  0.01219507  1
  O  O5  1  0.67374896  0.67374900  0.97875305  1
  O  O6  1  0.31967998  0.31968000  0.04096002  1
  O  O7  1  0.27204797  0.72370900  0.28053403  1
  O  O8  1  0.72370896  0.72370900  0.28053405  1
  O  O9  1  0.72370898  0.27204800  0.28053403  1
  O  O10  1  0.76581298  0.26536600  0.70345503  1
  O  O11  1  0.26536599  0.26536600  0.70345502  1
  O  O12  1  0.26536597  0.76581300  0.70345504  1
