# generated using pymatgen
data_LuCu3Si2
_symmetry_space_group_name_H-M   'P 1'
_cell_length_a   3.94836402
_cell_length_b   4.91976643
_cell_length_c   4.91976643
_cell_angle_alpha   120.00000763
_cell_angle_beta   90.00000000
_cell_angle_gamma   90.00000000
_symmetry_Int_Tables_number   1
_chemical_formula_structural   LuCu3Si2
_chemical_formula_sum   'Lu1 Cu3 Si2'
_cell_volume   82.76310065
_cell_formula_units_Z   1
loop_
 _symmetry_equiv_pos_site_id
 _symmetry_equiv_pos_as_xyz
  1  'x, y, z'
loop_
 _atom_site_type_symbol
 _atom_site_label
 _atom_site_symmetry_multiplicity
 _atom_site_fract_x
 _atom_site_fract_y
 _atom_site_fract_z
 _atom_site_occupancy
  Lu  Lu0  1  0.00000000  0.00000000  0.00000000  1
  Cu  Cu1  1  0.50000000  0.00000000  0.50000001  1
  Si  Si2  1  -0.00000000  0.66666669  0.33333334  1
  Si  Si3  1  1.00000000  0.33333334  0.66666669  1
  Cu  Cu4  1  0.50000000  0.50000001  0.50000001  1
  Cu  Cu5  1  0.50000000  0.50000001  -0.00000000  1
