# generated using pymatgen
data_ZrTiSn2
_symmetry_space_group_name_H-M   'P 1'
_cell_length_a   4.21761513
_cell_length_b   4.21761513
_cell_length_c   12.61050129
_cell_angle_alpha   90.00000000
_cell_angle_beta   90.00000000
_cell_angle_gamma   90.00000000
_symmetry_Int_Tables_number   1
_chemical_formula_structural   ZrTiSn2
_chemical_formula_sum   'Zr3 Ti3 Sn6'
_cell_volume   224.31909464
_cell_formula_units_Z   3
loop_
 _symmetry_equiv_pos_site_id
 _symmetry_equiv_pos_as_xyz
  1  'x, y, z'
loop_
 _atom_site_type_symbol
 _atom_site_label
 _atom_site_symmetry_multiplicity
 _atom_site_fract_x
 _atom_site_fract_y
 _atom_site_fract_z
 _atom_site_occupancy
  Zr  Zr0  1  0.00000000  0.00000000  0.32857099  1
  Zr  Zr1  1  0.00000000  0.00000000  0.67142898  1
  Ti  Ti2  1  0.00000000  0.00000000  0.00000000  1
  Ti  Ti3  1  0.49999998  0.49999998  -0.00000000  1
  Zr  Zr4  1  0.49999998  0.49999998  0.33220799  1
  Ti  Ti5  1  0.49999998  0.49999998  0.66779198  1
  Sn  Sn6  1  0.49999998  0.00000000  0.15792700  1
  Sn  Sn7  1  0.49999998  0.00000000  0.49999999  1
  Sn  Sn8  1  0.49999998  0.00000000  0.84207298  1
  Sn  Sn9  1  0.00000000  0.49999998  0.15792700  1
  Sn  Sn10  1  0.00000000  0.49999998  0.49999999  1
  Sn  Sn11  1  0.00000000  0.49999998  0.84207298  1
