# generated using pymatgen
data_Ce2MgGe3
_symmetry_space_group_name_H-M   'P 1'
_cell_length_a   3.87798595
_cell_length_b   5.79233265
_cell_length_c   14.54582977
_cell_angle_alpha   90.00000000
_cell_angle_beta   90.00000000
_cell_angle_gamma   109.55743408
_symmetry_Int_Tables_number   1
_chemical_formula_structural   Ce2MgGe3
_chemical_formula_sum   'Ce4 Mg2 Ge6'
_cell_volume   307.88630438
_cell_formula_units_Z   2
loop_
 _symmetry_equiv_pos_site_id
 _symmetry_equiv_pos_as_xyz
  1  'x, y, z'
loop_
 _atom_site_type_symbol
 _atom_site_label
 _atom_site_symmetry_multiplicity
 _atom_site_fract_x
 _atom_site_fract_y
 _atom_site_fract_z
 _atom_site_occupancy
  Ce  Ce0  1  0.07102599  0.14205200  0.11011000  1
  Mg  Mg1  1  0.92897393  0.85794798  0.88989001  1
  Ce  Ce2  1  0.92897393  0.85794798  0.61011001  1
  Ce  Ce3  1  0.07102599  0.14205200  0.38989001  1
  Ce  Ce4  1  0.39232993  0.78465998  0.25000000  1
  Ge  Ge5  1  0.60766999  0.21533999  0.75000001  1
  Ge  Ge6  1  0.67788197  0.35576399  0.25000000  1
  Ge  Ge7  1  0.32211794  0.64423598  0.75000001  1
  Ge  Ge8  1  0.64130098  0.28260199  0.54959701  1
  Ge  Ge9  1  0.35869893  0.71739798  0.45040301  1
  Ge  Ge10  1  0.35869893  0.71739798  0.04959700  1
  Mg  Mg11  1  0.64130098  0.28260199  0.95040301  1
