# generated using pymatgen
data_SiO2
_symmetry_space_group_name_H-M   'P 1'
_cell_length_a   4.52412987
_cell_length_b   4.83280611
_cell_length_c   4.83154392
_cell_angle_alpha   119.99136353
_cell_angle_beta   90.00000000
_cell_angle_gamma   117.90872955
_symmetry_Int_Tables_number   1
_chemical_formula_structural   SiO2
_chemical_formula_sum   'Si2 O4'
_cell_volume   76.98152604
_cell_formula_units_Z   2
loop_
 _symmetry_equiv_pos_site_id
 _symmetry_equiv_pos_as_xyz
  1  'x, y, z'
loop_
 _atom_site_type_symbol
 _atom_site_label
 _atom_site_symmetry_multiplicity
 _atom_site_fract_x
 _atom_site_fract_y
 _atom_site_fract_z
 _atom_site_occupancy
  Si  Si0  1  0.86048301  0.72096605  0.61048306  1
  Si  Si1  1  0.63951701  0.27903402  0.88951703  1
  O  O2  1  0.60923101  0.50000004  0.75000005  1
  O  O3  1  0.89076902  0.50000004  0.25000004  1
  O  O4  1  0.75000002  0.00000000  0.62700001  1
  O  O5  1  0.25000001  0.00000000  0.87300001  1
