# generated using pymatgen
data_Tm2Mg4Ge3
_symmetry_space_group_name_H-M   'P 1'
_cell_length_a   4.40551901
_cell_length_b   7.20578814
_cell_length_c   7.20578766
_cell_angle_alpha   120.00000000
_cell_angle_beta   90.00000000
_cell_angle_gamma   90.00000000
_symmetry_Int_Tables_number   1
_chemical_formula_structural   Tm2Mg4Ge3
_chemical_formula_sum   'Tm2 Mg4 Ge3'
_cell_volume   198.10282106
_cell_formula_units_Z   1
loop_
 _symmetry_equiv_pos_site_id
 _symmetry_equiv_pos_as_xyz
  1  'x, y, z'
loop_
 _atom_site_type_symbol
 _atom_site_label
 _atom_site_symmetry_multiplicity
 _atom_site_fract_x
 _atom_site_fract_y
 _atom_site_fract_z
 _atom_site_occupancy
  Tm  Tm0  1  0.00000000  0.00000000  0.57231300  1
  Mg  Mg1  1  -0.00000000  0.57231298  -0.00000002  1
  Tm  Tm2  1  1.00000000  0.42768698  0.42768698  1
  Mg  Mg3  1  0.50000000  0.00000000  0.24375000  1
  Mg  Mg4  1  0.50000000  0.24374999  -0.00000001  1
  Mg  Mg5  1  0.50000000  0.75624997  0.75624997  1
  Ge  Ge6  1  0.50000000  0.33333332  0.66666665  1
  Ge  Ge7  1  0.50000000  0.66666664  0.33333331  1
  Ge  Ge8  1  0.00000000  0.00000000  0.00000000  1
