# generated using pymatgen
data_Te2Pt
_symmetry_space_group_name_H-M   'P 1'
_cell_length_a   3.88475204
_cell_length_b   3.88475204
_cell_length_c   7.02612209
_cell_angle_alpha   90.00000000
_cell_angle_beta   90.00000000
_cell_angle_gamma   120.00000000
_symmetry_Int_Tables_number   1
_chemical_formula_structural   Te2Pt
_chemical_formula_sum   'Te2 Pt1'
_cell_volume   91.82753571
_cell_formula_units_Z   1
loop_
 _symmetry_equiv_pos_site_id
 _symmetry_equiv_pos_as_xyz
  1  'x, y, z'
loop_
 _atom_site_type_symbol
 _atom_site_label
 _atom_site_symmetry_multiplicity
 _atom_site_fract_x
 _atom_site_fract_y
 _atom_site_fract_z
 _atom_site_occupancy
  Te  Te0  1  0.00000000  0.00000000  0.00000000  1
  Te  Te1  1  0.66666666  0.33333334  0.78535199  1
  Pt  Pt2  1  0.33333334  0.66666668  0.21464800  1
