# generated using pymatgen
data_Sc4FeSi7
_symmetry_space_group_name_H-M   'P 1'
_cell_length_a   5.09068632
_cell_length_b   5.09068632
_cell_length_c   8.46099091
_cell_angle_alpha   90.00000000
_cell_angle_beta   90.00000000
_cell_angle_gamma   119.36347198
_symmetry_Int_Tables_number   1
_chemical_formula_structural   Sc4FeSi7
_chemical_formula_sum   'Sc4 Fe1 Si7'
_cell_volume   191.09729997
_cell_formula_units_Z   1
loop_
 _symmetry_equiv_pos_site_id
 _symmetry_equiv_pos_as_xyz
  1  'x, y, z'
loop_
 _atom_site_type_symbol
 _atom_site_label
 _atom_site_symmetry_multiplicity
 _atom_site_fract_x
 _atom_site_fract_y
 _atom_site_fract_z
 _atom_site_occupancy
  Sc  Sc0  1  0.66541304  0.33458702  0.80782501  1
  Sc  Sc1  1  0.32958905  0.67041104  0.67621701  1
  Sc  Sc2  1  0.32958905  0.67041104  0.32378300  1
  Sc  Sc3  1  0.66541304  0.33458702  0.19217500  1
  Si  Si4  1  0.16473606  0.83526405  1.00000001  1
  Si  Si5  1  0.37507002  0.18510801  0.50000001  1
  Fe  Fe6  1  0.81489206  0.62493004  0.50000001  1
  Si  Si7  1  0.82468803  0.17531201  0.50000001  1
  Si  Si8  1  0.00544907  0.99455106  0.73266601  1
  Si  Si9  1  0.00544907  0.99455106  0.26733400  1
  Si  Si10  1  0.65415807  0.83298905  -0.00000000  1
  Si  Si11  1  0.16701103  0.34584202  -0.00000000  1
