# generated using pymatgen
data_AlRh
_symmetry_space_group_name_H-M   'P 1'
_cell_length_a   4.25040340
_cell_length_b   4.25040340
_cell_length_c   4.25040340
_cell_angle_alpha   60.00000000
_cell_angle_beta   60.00000000
_cell_angle_gamma   60.00000000
_symmetry_Int_Tables_number   1
_chemical_formula_structural   AlRh
_chemical_formula_sum   'Al2 Rh2'
_cell_volume   54.29695244
_cell_formula_units_Z   2
loop_
 _symmetry_equiv_pos_site_id
 _symmetry_equiv_pos_as_xyz
  1  'x, y, z'
loop_
 _atom_site_type_symbol
 _atom_site_label
 _atom_site_symmetry_multiplicity
 _atom_site_fract_x
 _atom_site_fract_y
 _atom_site_fract_z
 _atom_site_occupancy
  Al  Al0  1  0.00000000  0.00000000  0.00000000  1
  Rh  Rh1  1  0.24999999  0.24999999  0.24999999  1
  Rh  Rh2  1  0.74999998  0.74999998  0.74999998  1
  Al  Al3  1  0.49999999  0.49999999  0.49999999  1
