# generated using pymatgen
data_CaIn4O9
_symmetry_space_group_name_H-M   'P 1'
_cell_length_a   5.25440502
_cell_length_b   6.16812754
_cell_length_c   6.35802269
_cell_angle_alpha   80.71772766
_cell_angle_beta   68.93218231
_cell_angle_gamma   67.64099121
_symmetry_Int_Tables_number   1
_chemical_formula_structural   CaIn4O9
_chemical_formula_sum   'Ca1 In4 O9'
_cell_volume   177.75985131
_cell_formula_units_Z   1
loop_
 _symmetry_equiv_pos_site_id
 _symmetry_equiv_pos_as_xyz
  1  'x, y, z'
loop_
 _atom_site_type_symbol
 _atom_site_label
 _atom_site_symmetry_multiplicity
 _atom_site_fract_x
 _atom_site_fract_y
 _atom_site_fract_z
 _atom_site_occupancy
  Ca  Ca0  1  0.18738599  0.36728900  0.20925199  1
  In  In1  1  0.43237598  0.79902600  0.42136598  1
  In  In2  1  0.94228398  0.02751300  0.00395503  1
  In  In3  1  0.83498398  0.61238500  0.76043101  1
  In  In4  1  0.54807299  0.21641000  0.63839802  1
  O  O5  1  0.83471597  0.71212200  0.09007799  1
  O  O6  1  0.75880198  0.46426600  0.49918701  1
  O  O7  1  0.58267599  0.10619200  0.32783402  1
  O  O8  1  0.92913997  0.94969400  0.68637400  1
  O  O9  1  0.42692398  0.86654500  0.74842699  1
  O  O10  1  0.18300698  0.99471400  0.21689296  1
  O  O11  1  0.24148599  0.53280500  0.48908499  1
  O  O12  1  0.13645999  0.30523800  0.87759801  1
  O  O13  1  0.61168398  0.34579900  0.93112302  1
