# generated using pymatgen
data_ScB2SO6
_symmetry_space_group_name_H-M   'P 1'
_cell_length_a   4.37670708
_cell_length_b   4.42251778
_cell_length_c   6.69078827
_cell_angle_alpha   82.22664642
_cell_angle_beta   77.33095551
_cell_angle_gamma   69.68881226
_symmetry_Int_Tables_number   1
_chemical_formula_structural   ScB2SO6
_chemical_formula_sum   'Sc1 B2 S1 O6'
_cell_volume   118.25002740
_cell_formula_units_Z   1
loop_
 _symmetry_equiv_pos_site_id
 _symmetry_equiv_pos_as_xyz
  1  'x, y, z'
loop_
 _atom_site_type_symbol
 _atom_site_label
 _atom_site_symmetry_multiplicity
 _atom_site_fract_x
 _atom_site_fract_y
 _atom_site_fract_z
 _atom_site_occupancy
  Sc  Sc0  1  0.92514098  0.08060200  0.02152002  1
  S  S1  1  0.62434398  0.32022802  0.54834402  1
  B  B2  1  0.22201899  0.24439001  0.34652801  1
  B  B3  1  0.71761998  0.74317604  0.73809002  1
  O  O4  1  0.31068399  0.33273202  0.50396001  1
  O  O5  1  0.59314498  0.63638503  0.60560701  1
  O  O6  1  0.71142898  0.06684500  0.72102903  1
  O  O7  1  0.90118898  0.22682101  0.36456202  1
  O  O8  1  0.40280999  0.18297201  0.15102001  1
  O  O9  1  0.82601798  0.58444903  0.91544103  1
