# generated using pymatgen
data_RbZnCdTe3
_symmetry_space_group_name_H-M   'P 1'
_cell_length_a   4.44670582
_cell_length_b   8.39333820
_cell_length_c   11.56323624
_cell_angle_alpha   90.00000000
_cell_angle_beta   90.00000000
_cell_angle_gamma   105.36071014
_symmetry_Int_Tables_number   1
_chemical_formula_structural   RbZnCdTe3
_chemical_formula_sum   'Rb2 Zn2 Cd2 Te6'
_cell_volume   416.15436468
_cell_formula_units_Z   2
loop_
 _symmetry_equiv_pos_site_id
 _symmetry_equiv_pos_as_xyz
  1  'x, y, z'
loop_
 _atom_site_type_symbol
 _atom_site_label
 _atom_site_symmetry_multiplicity
 _atom_site_fract_x
 _atom_site_fract_y
 _atom_site_fract_z
 _atom_site_occupancy
  Rb  Rb0  1  0.25756898  0.51513798  0.74999998  1
  Rb  Rb1  1  0.74243100  0.48486198  0.24999999  1
  Cd  Cd2  1  0.00000000  0.00000000  0.00000000  1
  Cd  Cd3  1  0.00000000  0.00000000  0.49999999  1
  Zn  Zn4  1  0.53934002  0.07868000  0.74999998  1
  Zn  Zn5  1  0.46065996  0.92131996  0.24999999  1
  Te  Te6  1  0.94031298  0.88062596  0.74999998  1
  Te  Te7  1  0.62043601  0.24087199  0.55260699  1
  Te  Te8  1  0.37956397  0.75912797  0.05260700  1
  Te  Te9  1  0.37956397  0.75912797  0.44739299  1
  Te  Te10  1  0.62043601  0.24087199  0.94739298  1
  Te  Te11  1  0.05968699  0.11937400  0.24999999  1
