# generated using pymatgen
data_Mg2AlO3
_symmetry_space_group_name_H-M   'P 1'
_cell_length_a   2.87660003
_cell_length_b   3.03866124
_cell_length_c   14.69570637
_cell_angle_alpha   93.12342072
_cell_angle_beta   90.00000000
_cell_angle_gamma   118.25090027
_symmetry_Int_Tables_number   1
_chemical_formula_structural   Mg2AlO3
_chemical_formula_sum   'Mg4 Al2 O6'
_cell_volume   112.93750877
_cell_formula_units_Z   2
loop_
 _symmetry_equiv_pos_site_id
 _symmetry_equiv_pos_as_xyz
  1  'x, y, z'
loop_
 _atom_site_type_symbol
 _atom_site_label
 _atom_site_symmetry_multiplicity
 _atom_site_fract_x
 _atom_site_fract_y
 _atom_site_fract_z
 _atom_site_occupancy
  Mg  Mg0  1  0.66499602  0.32999201  0.83643398  1
  Mg  Mg1  1  0.00000000  0.00000000  0.49999999  1
  Mg  Mg2  1  0.33500405  0.67000801  0.16356600  1
  Al  Al3  1  0.33204005  0.66408001  0.66724399  1
  Al  Al4  1  0.66796002  0.33592001  0.33275599  1
  Mg  Mg5  1  0.00000000  0.00000000  0.00000000  1
  O  O6  1  0.32513005  0.65026001  0.92409698  1
  O  O7  1  0.68749302  0.37498601  0.58973299  1
  O  O8  1  0.02009300  0.04018600  0.25583499  1
  O  O9  1  0.97990706  0.95981402  0.74416498  1
  O  O10  1  0.31250704  0.62501401  0.41026699  1
  O  O11  1  0.67487002  0.34974001  0.07590300  1
