# generated using pymatgen
data_CeCdAu
_symmetry_space_group_name_H-M   'P 1'
_cell_length_a   4.61271715
_cell_length_b   7.53962421
_cell_length_c   7.53962517
_cell_angle_alpha   119.99999237
_cell_angle_beta   90.00000000
_cell_angle_gamma   90.00000000
_symmetry_Int_Tables_number   1
_chemical_formula_structural   CeCdAu
_chemical_formula_sum   'Ce3 Cd3 Au3'
_cell_volume   227.08421457
_cell_formula_units_Z   3
loop_
 _symmetry_equiv_pos_site_id
 _symmetry_equiv_pos_as_xyz
  1  'x, y, z'
loop_
 _atom_site_type_symbol
 _atom_site_label
 _atom_site_symmetry_multiplicity
 _atom_site_fract_x
 _atom_site_fract_y
 _atom_site_fract_z
 _atom_site_occupancy
  Ce  Ce0  1  0.99999997  0.42437697  0.42437696  1
  Ce  Ce1  1  0.00000000  0.00000000  0.57562298  1
  Ce  Ce2  1  0.99999997  0.57562296  0.99999993  1
  Cd  Cd3  1  0.49999998  0.75449195  0.75449192  1
  Cd  Cd4  1  0.49999998  0.00000000  0.24550799  1
  Cd  Cd5  1  0.49999998  0.24550798  0.99999995  1
  Au  Au6  1  0.49999998  0.66666662  0.33333328  1
  Au  Au7  1  0.49999998  0.33333331  0.66666662  1
  Au  Au8  1  0.00000000  0.00000000  0.00000000  1
