# generated using pymatgen
data_KGa2CuSn2Te7
_symmetry_space_group_name_H-M   'P 1'
_cell_length_a   7.63638163
_cell_length_b   7.63638163
_cell_length_c   7.65012217
_cell_angle_alpha   104.91001129
_cell_angle_beta   104.42715454
_cell_angle_gamma   119.51412964
_symmetry_Int_Tables_number   1
_chemical_formula_structural   KGa2CuSn2Te7
_chemical_formula_sum   'K1 Ga2 Cu1 Sn2 Te7'
_cell_volume   335.58329056
_cell_formula_units_Z   1
loop_
 _symmetry_equiv_pos_site_id
 _symmetry_equiv_pos_as_xyz
  1  'x, y, z'
loop_
 _atom_site_type_symbol
 _atom_site_label
 _atom_site_symmetry_multiplicity
 _atom_site_fract_x
 _atom_site_fract_y
 _atom_site_fract_z
 _atom_site_occupancy
  Sn  Sn0  1  0.75171903  0.25724001  0.00895903  1
  Sn  Sn1  1  0.24828102  0.74276001  0.99104103  1
  Cu  Cu2  1  0.76488603  0.26488601  0.50000004  1
  Ga  Ga3  1  0.23511402  0.73511401  0.50000001  1
  Ga  Ga4  1  0.50000002  0.50000001  0.00000001  1
  Te  Te5  1  0.45631402  0.20649600  0.66281004  1
  K  K6  1  0.95177504  0.71665201  0.66842705  1
  Te  Te7  1  0.44938502  0.20898000  0.16932702  1
  Te  Te8  1  0.96034704  0.71994201  0.16932703  1
  Te  Te9  1  0.03965301  0.28005801  0.83067302  1
  Te  Te10  1  0.55061503  0.79102002  0.83067303  1
  Te  Te11  1  0.04822501  0.28334801  0.33157301  1
  Te  Te12  1  0.54368603  0.79350402  0.33719002  1
