# generated using pymatgen
data_Zr5(CS)3
_symmetry_space_group_name_H-M   'P 1'
_cell_length_a   3.34089994
_cell_length_b   5.78117180
_cell_length_c   8.75351429
_cell_angle_alpha   102.26976013
_cell_angle_beta   90.00000000
_cell_angle_gamma   90.00000000
_symmetry_Int_Tables_number   1
_chemical_formula_structural   Zr5(CS)3
_chemical_formula_sum   'Zr5 C3 S3'
_cell_volume   165.20626972
_cell_formula_units_Z   1
loop_
 _symmetry_equiv_pos_site_id
 _symmetry_equiv_pos_as_xyz
  1  'x, y, z'
loop_
 _atom_site_type_symbol
 _atom_site_label
 _atom_site_symmetry_multiplicity
 _atom_site_fract_x
 _atom_site_fract_y
 _atom_site_fract_z
 _atom_site_occupancy
  Zr  Zr0  1  0.50000001  0.37107902  0.63337797  1
  Zr  Zr1  1  0.00000000  0.88159304  0.63286998  1
  Zr  Zr2  1  0.50000001  0.62892103  0.36662199  1
  Zr  Zr3  1  0.00000000  0.11840700  0.36712998  1
  Zr  Zr4  1  0.00000000  0.00000000  0.00000000  1
  C  C5  1  -0.00000000  0.50000002  0.49999998  1
  C  C6  1  0.50000001  0.00000000  0.49999997  1
  S  S7  1  0.50000001  0.22714901  0.16349400  1
  S  S8  1  -0.00000000  0.72483303  0.16892300  1
  S  S9  1  0.50000001  0.77285103  0.83650597  1
  C  C10  1  0.00000000  0.27516701  0.83107696  1
