# generated using pymatgen
data_LiCu5O4
_symmetry_space_group_name_H-M   'P 1'
_cell_length_a   2.86593509
_cell_length_b   2.86958098
_cell_length_c   11.49213028
_cell_angle_alpha   90.00000000
_cell_angle_beta   90.00000000
_cell_angle_gamma   90.00000000
_symmetry_Int_Tables_number   1
_chemical_formula_structural   LiCu5O4
_chemical_formula_sum   'Li1 Cu5 O4'
_cell_volume   94.51165668
_cell_formula_units_Z   1
loop_
 _symmetry_equiv_pos_site_id
 _symmetry_equiv_pos_as_xyz
  1  'x, y, z'
loop_
 _atom_site_type_symbol
 _atom_site_label
 _atom_site_symmetry_multiplicity
 _atom_site_fract_x
 _atom_site_fract_y
 _atom_site_fract_z
 _atom_site_occupancy
  Li  Li0  1  0.24641099  0.25000000  0.90154498  1
  Cu  Cu1  1  0.24641099  0.25000000  0.59845499  1
  O  O2  1  0.75358898  0.75000000  0.09845500  1
  Cu  Cu3  1  0.75358898  0.75000000  0.40154499  1
  O  O4  1  0.25319299  0.25000000  0.24999999  1
  Cu  Cu5  1  0.74680698  0.75000000  0.74999998  1
  Cu  Cu6  1  0.25096699  0.25000000  0.41260099  1
  Cu  Cu7  1  0.25096699  0.25000000  0.08739900  1
  O  O8  1  0.74903298  0.75000000  0.58739899  1
  O  O9  1  0.74903298  0.75000000  0.91260098  1
