# generated using pymatgen
data_InAs
_symmetry_space_group_name_H-M   'P 1'
_cell_length_a   3.15925908
_cell_length_b   4.43673706
_cell_length_c   4.46131802
_cell_angle_alpha   90.00000000
_cell_angle_beta   90.00000000
_cell_angle_gamma   90.00000000
_symmetry_Int_Tables_number   1
_chemical_formula_structural   InAs
_chemical_formula_sum   'In2 As2'
_cell_volume   62.53341061
_cell_formula_units_Z   2
loop_
 _symmetry_equiv_pos_site_id
 _symmetry_equiv_pos_as_xyz
  1  'x, y, z'
loop_
 _atom_site_type_symbol
 _atom_site_label
 _atom_site_symmetry_multiplicity
 _atom_site_fract_x
 _atom_site_fract_y
 _atom_site_fract_z
 _atom_site_occupancy
  In  In0  1  0.49999999  0.74999999  0.23604100  1
  In  In1  1  0.49999999  0.25000000  0.76395900  1
  As  As2  1  0.00000000  0.74999999  0.72322300  1
  As  As3  1  0.00000000  0.25000000  0.27677700  1
