# generated using pymatgen
data_Li3MnF6
_symmetry_space_group_name_H-M   'P 1'
_cell_length_a   4.83185911
_cell_length_b   5.06345129
_cell_length_c   5.07588959
_cell_angle_alpha   61.26673508
_cell_angle_beta   89.90787506
_cell_angle_gamma   89.86750031
_symmetry_Int_Tables_number   1
_chemical_formula_structural   Li3MnF6
_chemical_formula_sum   'Li3 Mn1 F6'
_cell_volume   108.89442933
_cell_formula_units_Z   1
loop_
 _symmetry_equiv_pos_site_id
 _symmetry_equiv_pos_as_xyz
  1  'x, y, z'
loop_
 _atom_site_type_symbol
 _atom_site_label
 _atom_site_symmetry_multiplicity
 _atom_site_fract_x
 _atom_site_fract_y
 _atom_site_fract_z
 _atom_site_occupancy
  Li  Li0  1  0.43063499  0.99941402  0.00241903  1
  Li  Li1  1  0.93066898  0.99873302  0.99956405  1
  Li  Li2  1  0.93241799  0.33411001  0.33398405  1
  Mn  Mn3  1  0.43260499  0.66609902  0.66562402  1
  F  F4  1  0.68153499  0.31649701  0.68449203  1
  F  F5  1  0.68120599  0.00606200  0.31484703  1
  F  F6  1  0.18118500  0.31585501  0.00209701  1
  F  F7  1  0.68244999  0.68470102  0.99677003  1
  F  F8  1  0.18254299  0.99501702  0.68473001  1
  F  F9  1  0.18135299  0.68341402  0.31557101  1
