# generated using pymatgen
data_Li5Mn3O8
_symmetry_space_group_name_H-M   'P 1'
_cell_length_a   5.06024551
_cell_length_b   5.94266224
_cell_length_c   5.94280815
_cell_angle_alpha   60.45437241
_cell_angle_beta   73.32331085
_cell_angle_gamma   73.31900787
_symmetry_Int_Tables_number   1
_chemical_formula_structural   Li5Mn3O8
_chemical_formula_sum   'Li5 Mn3 O8'
_cell_volume   146.64189555
_cell_formula_units_Z   1
loop_
 _symmetry_equiv_pos_site_id
 _symmetry_equiv_pos_as_xyz
  1  'x, y, z'
loop_
 _atom_site_type_symbol
 _atom_site_label
 _atom_site_symmetry_multiplicity
 _atom_site_fract_x
 _atom_site_fract_y
 _atom_site_fract_z
 _atom_site_occupancy
  Li  Li0  1  0.49227498  0.25387001  0.24556603  1
  Li  Li1  1  0.99222193  0.99554905  0.50392704  1
  Li  Li2  1  0.50741696  0.75430304  0.74625903  1
  Li  Li3  1  0.00741998  0.49625403  0.00429599  1
  Mn  Mn4  1  0.99995995  0.50098203  0.49883905  1
  Mn  Mn5  1  0.49987498  0.24883701  0.75100404  1
  Mn  Mn6  1  0.00051396  0.99624005  0.00400598  1
  Li  Li7  1  0.50050496  0.75400504  0.24622702  1
  O  O8  1  0.72830494  0.90621705  0.86597504  1
  O  O9  1  0.22831797  0.61599703  0.15621200  1
  O  O10  1  0.27031399  0.13630801  0.09255001  1
  O  O11  1  0.77028395  0.84257305  0.38629703  1
  O  O12  1  0.75376397  0.37176602  0.40460904  1
  O  O13  1  0.25377699  0.15461501  0.62175403  1
  O  O14  1  0.24750497  0.59584203  0.62665502  1
  O  O15  1  0.74754597  0.37664202  0.84582405  1
