# generated using pymatgen
data_BaNbO6
_symmetry_space_group_name_H-M   'P 1'
_cell_length_a   5.02721548
_cell_length_b   5.02721548
_cell_length_c   5.02721548
_cell_angle_alpha   97.90116882
_cell_angle_beta   97.90116882
_cell_angle_gamma   97.90117645
_symmetry_Int_Tables_number   1
_chemical_formula_structural   BaNbO6
_chemical_formula_sum   'Ba1 Nb1 O6'
_cell_volume   123.05819960
_cell_formula_units_Z   1
loop_
 _symmetry_equiv_pos_site_id
 _symmetry_equiv_pos_as_xyz
  1  'x, y, z'
loop_
 _atom_site_type_symbol
 _atom_site_label
 _atom_site_symmetry_multiplicity
 _atom_site_fract_x
 _atom_site_fract_y
 _atom_site_fract_z
 _atom_site_occupancy
  Ba  Ba0  1  0.50000003  0.50000002  0.50000005  1
  Nb  Nb1  1  0.00000000  0.00000000  0.00000000  1
  O  O2  1  0.07743903  0.77173402  0.72994006  1
  O  O3  1  0.72994002  0.07743900  0.77173405  1
  O  O4  1  0.22826601  0.27006001  0.92256104  1
  O  O5  1  0.27006004  0.92256103  0.22826606  1
  O  O6  1  0.92256103  0.22826601  0.27006005  1
  O  O7  1  0.77173404  0.72994002  0.07743906  1
