# generated using pymatgen
data_LiV5F12
_symmetry_space_group_name_H-M   'P 1'
_cell_length_a   4.61641216
_cell_length_b   4.61641216
_cell_length_c   9.35829258
_cell_angle_alpha   90.00000000
_cell_angle_beta   90.00000000
_cell_angle_gamma   90.00000000
_symmetry_Int_Tables_number   1
_chemical_formula_structural   LiV5F12
_chemical_formula_sum   'Li1 V5 F12'
_cell_volume   199.43701808
_cell_formula_units_Z   1
loop_
 _symmetry_equiv_pos_site_id
 _symmetry_equiv_pos_as_xyz
  1  'x, y, z'
loop_
 _atom_site_type_symbol
 _atom_site_label
 _atom_site_symmetry_multiplicity
 _atom_site_fract_x
 _atom_site_fract_y
 _atom_site_fract_z
 _atom_site_occupancy
  V  V0  1  0.00000000  0.00000000  0.00000000  1
  V  V1  1  0.49999998  0.49999998  0.50000002  1
  V  V2  1  0.00000000  0.00000000  0.33310701  1
  V  V3  1  0.00000000  0.00000000  0.66689303  1
  Li  Li4  1  0.49999998  0.49999998  0.83310704  1
  V  V5  1  0.49999998  0.49999998  0.16689301  1
  F  F6  1  0.29806699  0.29806699  -0.00000000  1
  F  F7  1  0.70193298  0.70193298  -0.00000000  1
  F  F8  1  0.20193299  0.79806697  0.50000002  1
  F  F9  1  0.79806697  0.20193299  0.50000002  1
  F  F10  1  0.30926499  0.30926499  0.34107902  1
  F  F11  1  0.69073498  0.69073498  0.65892103  1
  F  F12  1  0.69073498  0.69073498  0.34107902  1
  F  F13  1  0.19073499  0.80926497  0.84107904  1
  F  F14  1  0.19073499  0.80926497  0.15892101  1
  F  F15  1  0.30926499  0.30926499  0.65892103  1
  F  F16  1  0.80926497  0.19073499  0.15892101  1
  F  F17  1  0.80926497  0.19073499  0.84107904  1
