# generated using pymatgen
data_KEuC16
_symmetry_space_group_name_H-M   'P 1'
_cell_length_a   4.97615623
_cell_length_b   4.98163700
_cell_length_c   11.00547600
_cell_angle_alpha   83.51668549
_cell_angle_beta   76.93382263
_cell_angle_gamma   60.03638840
_symmetry_Int_Tables_number   1
_chemical_formula_structural   KEuC16
_chemical_formula_sum   'K1 Eu1 C16'
_cell_volume   230.23561037
_cell_formula_units_Z   1
loop_
 _symmetry_equiv_pos_site_id
 _symmetry_equiv_pos_as_xyz
  1  'x, y, z'
loop_
 _atom_site_type_symbol
 _atom_site_label
 _atom_site_symmetry_multiplicity
 _atom_site_fract_x
 _atom_site_fract_y
 _atom_site_fract_z
 _atom_site_occupancy
  K  K0  1  0.00000000  0.00000000  0.00000000  1
  Eu  Eu1  1  0.74999997  0.49999997  0.50000002  1
  C  C2  1  0.04146800  0.16736799  0.24989900  1
  C  C3  1  0.45873500  0.83263195  0.75010101  1
  C  C4  1  0.79116396  0.16736799  0.75010104  1
  C  C5  1  0.70863299  0.83263195  0.24989900  1
  C  C6  1  0.70853197  0.33263198  0.25010101  1
  C  C7  1  0.29126500  0.66736796  0.74989901  1
  C  C8  1  0.95883596  0.33263198  0.74989904  1
  C  C9  1  0.04136702  0.66736796  0.25010099  1
  C  C10  1  0.54036297  0.16740199  0.25174001  1
  C  C11  1  0.95950497  0.83259795  0.74826002  1
  C  C12  1  0.29223499  0.16740199  0.74826003  1
  C  C13  1  0.20789701  0.83259795  0.25173999  1
  C  C14  1  0.20963700  0.33259798  0.24826000  1
  C  C15  1  0.79049498  0.66740196  0.75174002  1
  C  C16  1  0.45776498  0.33259798  0.75174003  1
  C  C17  1  0.54210299  0.66740196  0.24826000  1
