# generated using pymatgen
data_CaMg7
_symmetry_space_group_name_H-M   'P 1'
_cell_length_a   4.69256687
_cell_length_b   4.69948292
_cell_length_c   9.37640285
_cell_angle_alpha   90.00000000
_cell_angle_beta   90.00000000
_cell_angle_gamma   90.00000000
_symmetry_Int_Tables_number   1
_chemical_formula_structural   CaMg7
_chemical_formula_sum   'Ca1 Mg7'
_cell_volume   206.77441653
_cell_formula_units_Z   1
loop_
 _symmetry_equiv_pos_site_id
 _symmetry_equiv_pos_as_xyz
  1  'x, y, z'
loop_
 _atom_site_type_symbol
 _atom_site_label
 _atom_site_symmetry_multiplicity
 _atom_site_fract_x
 _atom_site_fract_y
 _atom_site_fract_z
 _atom_site_occupancy
  Mg  Mg0  1  0.00000000  0.00000000  0.24797100  1
  Mg  Mg1  1  0.00000000  0.00000000  0.75202901  1
  Mg  Mg2  1  0.50000001  0.50000001  0.25095800  1
  Ca  Ca3  1  0.50000001  0.50000001  0.74904201  1
  Mg  Mg4  1  0.00000000  0.50000001  0.50000001  1
  Mg  Mg5  1  0.00000000  0.50000001  -0.00000000  1
  Mg  Mg6  1  0.50000001  0.00000000  0.50000001  1
  Mg  Mg7  1  0.50000001  0.00000000  0.00000000  1
