# generated using pymatgen
data_BiTe13
_symmetry_space_group_name_H-M   'P 1'
_cell_length_a   4.18268394
_cell_length_b   6.11050749
_cell_length_c   17.45744896
_cell_angle_alpha   95.04559326
_cell_angle_beta   96.88036346
_cell_angle_gamma   90.00000000
_symmetry_Int_Tables_number   1
_chemical_formula_structural   BiTe13
_chemical_formula_sum   'Bi1 Te13'
_cell_volume   441.22834996
_cell_formula_units_Z   1
loop_
 _symmetry_equiv_pos_site_id
 _symmetry_equiv_pos_as_xyz
  1  'x, y, z'
loop_
 _atom_site_type_symbol
 _atom_site_label
 _atom_site_symmetry_multiplicity
 _atom_site_fract_x
 _atom_site_fract_y
 _atom_site_fract_z
 _atom_site_occupancy
  Te  Te0  1  0.14952900  0.58105600  0.29905799  1
  Te  Te1  1  0.85047102  0.41894400  0.70094199  1
  Te  Te2  1  0.44466801  0.97247100  0.88933597  1
  Te  Te3  1  0.55533201  0.02752900  0.11066400  1
  Te  Te4  1  0.87947602  0.93618800  0.75895198  1
  Te  Te5  1  0.12052400  0.06381200  0.24104799  1
  Te  Te6  1  0.29975001  0.63996600  0.59949998  1
  Te  Te7  1  0.70025001  0.36003400  0.40049999  1
  Te  Te8  1  0.70072401  0.84818800  0.40144799  1
  Te  Te9  1  0.99971002  0.25003800  0.99941998  1
  Bi  Bi10  1  0.58224301  0.54231900  0.16448600  1
  Te  Te11  1  0.29927601  0.15181200  0.59855199  1
  Te  Te12  1  0.00029000  0.74996200  0.00057999  1
  Te  Te13  1  0.41775701  0.45768100  0.83551398  1
