# generated using pymatgen
data_YbEu2Ag9
_symmetry_space_group_name_H-M   'P 1'
_cell_length_a   4.94968319
_cell_length_b   7.85221386
_cell_length_c   7.89799690
_cell_angle_alpha   90.00000000
_cell_angle_beta   90.00000000
_cell_angle_gamma   90.00000000
_symmetry_Int_Tables_number   1
_chemical_formula_structural   YbEu2Ag9
_chemical_formula_sum   'Yb1 Eu2 Ag9'
_cell_volume   306.96331810
_cell_formula_units_Z   1
loop_
 _symmetry_equiv_pos_site_id
 _symmetry_equiv_pos_as_xyz
  1  'x, y, z'
loop_
 _atom_site_type_symbol
 _atom_site_label
 _atom_site_symmetry_multiplicity
 _atom_site_fract_x
 _atom_site_fract_y
 _atom_site_fract_z
 _atom_site_occupancy
  Eu  Eu0  1  0.74999997  0.02037700  0.29078100  1
  Ag  Ag1  1  0.24999999  0.97962302  0.70921901  1
  Yb  Yb2  1  0.24999999  0.47962301  0.79078101  1
  Eu  Eu3  1  0.74999997  0.52037701  0.20921900  1
  Ag  Ag4  1  0.74999997  0.69085301  0.60467801  1
  Ag  Ag5  1  0.24999999  0.30914701  0.39532200  1
  Ag  Ag6  1  0.24999999  0.80914701  0.10467800  1
  Ag  Ag7  1  0.74999997  0.19085300  0.89532201  1
  Ag  Ag8  1  0.74999997  0.81497901  0.93266801  1
  Ag  Ag9  1  0.24999999  0.18502100  0.06733200  1
  Ag  Ag10  1  0.24999999  0.68502101  0.43266801  1
  Ag  Ag11  1  0.74999997  0.31497901  0.56733201  1
