# generated using pymatgen
data_HoSi3Ni
_symmetry_space_group_name_H-M   'P 1'
_cell_length_a   5.59793186
_cell_length_b   7.82224226
_cell_length_c   7.82224226
_cell_angle_alpha   75.91300201
_cell_angle_beta   69.03353882
_cell_angle_gamma   69.03353882
_symmetry_Int_Tables_number   1
_chemical_formula_structural   HoSi3Ni
_chemical_formula_sum   'Ho4 Si12 Ni4'
_cell_volume   296.04266099
_cell_formula_units_Z   4
loop_
 _symmetry_equiv_pos_site_id
 _symmetry_equiv_pos_as_xyz
  1  'x, y, z'
loop_
 _atom_site_type_symbol
 _atom_site_label
 _atom_site_symmetry_multiplicity
 _atom_site_fract_x
 _atom_site_fract_y
 _atom_site_fract_z
 _atom_site_occupancy
  Ho  Ho0  1  0.63018905  0.60665498  0.13296701  1
  Ho  Ho1  1  0.36981103  0.39334498  0.86703298  1
  Ho  Ho2  1  0.13019001  0.13296699  0.60665399  1
  Ho  Ho3  1  0.86981007  0.86703297  0.39334600  1
  Si  Si4  1  0.25000004  0.49999998  0.49999998  1
  Si  Si5  1  0.75000004  0.49999998  0.50000000  1
  Si  Si6  1  0.48637506  0.76362497  0.76362498  1
  Si  Si7  1  0.01362502  0.23637499  0.23637499  1
  Si  Si8  1  0.51362502  0.23637499  0.23637501  1
  Ni  Ni9  1  0.98637506  0.76362497  0.76362500  1
  Si  Si10  1  0.89114302  0.25997899  0.95773400  1
  Si  Si11  1  0.10885706  0.74002097  0.04226599  1
  Si  Si12  1  0.39114407  0.95773296  0.25997899  1
  Si  Si13  1  0.60885601  0.04226700  0.74002100  1
  Si  Si14  1  0.25000000  0.00000000  0.00000001  1
  Si  Si15  1  0.75000000  0.00000000  0.00000003  1
  Si  Si16  1  0.86640504  0.51732698  0.74986400  1
  Ni  Ni17  1  0.13359504  0.48267298  0.25013599  1
  Ni  Ni18  1  0.36640406  0.74986497  0.51732698  1
  Ni  Ni19  1  0.63359602  0.25013499  0.48267301  1
