# generated using pymatgen
data_Sc7Mn7AlSi5
_symmetry_space_group_name_H-M   'P 1'
_cell_length_a   6.78695202
_cell_length_b   7.06883097
_cell_length_c   7.06883097
_cell_angle_alpha   90.00000000
_cell_angle_beta   90.00000000
_cell_angle_gamma   90.00000000
_symmetry_Int_Tables_number   1
_chemical_formula_structural   Sc7Mn7AlSi5
_chemical_formula_sum   'Sc7 Mn7 Al1 Si5'
_cell_volume   339.13293806
_cell_formula_units_Z   1
loop_
 _symmetry_equiv_pos_site_id
 _symmetry_equiv_pos_as_xyz
  1  'x, y, z'
loop_
 _atom_site_type_symbol
 _atom_site_label
 _atom_site_symmetry_multiplicity
 _atom_site_fract_x
 _atom_site_fract_y
 _atom_site_fract_z
 _atom_site_occupancy
  Sc  Sc0  1  0.00000000  0.18086500  0.18086500  1
  Mn  Mn1  1  0.50000000  0.68086500  0.31913500  1
  Mn  Mn2  1  0.50000000  0.31913500  0.68086500  1
  Sc  Sc3  1  1.00000000  0.81913500  0.81913500  1
  Mn  Mn4  1  0.00000000  0.65232300  0.34767700  1
  Mn  Mn5  1  0.50000000  0.84767700  0.84767700  1
  Mn  Mn6  1  0.50000000  0.15232300  0.15232300  1
  Mn  Mn7  1  1.00000000  0.34767700  0.65232300  1
  Si  Si8  1  0.28440100  0.37373800  0.37373800  1
  Si  Si9  1  0.78440100  0.87373800  0.12626200  1
  Si  Si10  1  0.78440100  0.12626200  0.87373800  1
  Sc  Sc11  1  0.28440100  0.62626200  0.62626200  1
  Si  Si12  1  0.21559900  0.12626200  0.87373800  1
  Si  Si13  1  0.21559900  0.87373800  0.12626200  1
  Al  Al14  1  0.71559900  0.37373800  0.37373800  1
  Mn  Mn15  1  0.71559900  0.62626200  0.62626200  1
  Sc  Sc16  1  0.25000000  0.50000000  -0.00000000  1
  Sc  Sc17  1  0.75000000  0.50000000  -0.00000000  1
  Sc  Sc18  1  0.25000000  0.00000000  0.50000000  1
  Sc  Sc19  1  0.75000000  0.00000000  0.50000000  1
