# generated using pymatgen
data_SrAu2
_symmetry_space_group_name_H-M   'P 1'
_cell_length_a   3.85523295
_cell_length_b   4.83933401
_cell_length_c   8.42356300
_cell_angle_alpha   89.99967957
_cell_angle_beta   90.00000000
_cell_angle_gamma   90.00000000
_symmetry_Int_Tables_number   1
_chemical_formula_structural   SrAu2
_chemical_formula_sum   'Sr2 Au4'
_cell_volume   157.15639292
_cell_formula_units_Z   2
loop_
 _symmetry_equiv_pos_site_id
 _symmetry_equiv_pos_as_xyz
  1  'x, y, z'
loop_
 _atom_site_type_symbol
 _atom_site_label
 _atom_site_symmetry_multiplicity
 _atom_site_fract_x
 _atom_site_fract_y
 _atom_site_fract_z
 _atom_site_occupancy
  Sr  Sr0  1  0.00000000  0.99998595  0.00659099  1
  Sr  Sr1  1  0.00000000  0.49998198  0.49551200  1
  Au  Au2  1  0.50000001  0.49998798  0.83688001  1
  Au  Au3  1  0.50000001  0.49997798  0.18239300  1
  Au  Au4  1  0.50000001  0.99989495  0.64812700  1
  Au  Au5  1  0.50000001  0.99997095  0.33049800  1
