# generated using pymatgen
data_Nb3(B2Os)2
_symmetry_space_group_name_H-M   'P 1'
_cell_length_a   2.93556094
_cell_length_b   8.56287384
_cell_length_c   8.56287384
_cell_angle_alpha   90.00000000
_cell_angle_beta   90.00000000
_cell_angle_gamma   90.00000000
_symmetry_Int_Tables_number   1
_chemical_formula_structural   Nb3(B2Os)2
_chemical_formula_sum   'Nb6 B8 Os4'
_cell_volume   215.24357249
_cell_formula_units_Z   2
loop_
 _symmetry_equiv_pos_site_id
 _symmetry_equiv_pos_as_xyz
  1  'x, y, z'
loop_
 _atom_site_type_symbol
 _atom_site_label
 _atom_site_symmetry_multiplicity
 _atom_site_fract_x
 _atom_site_fract_y
 _atom_site_fract_z
 _atom_site_occupancy
  Nb  Nb0  1  0.50000001  0.00000000  -0.00000000  1
  Nb  Nb1  1  0.50000001  0.50000001  0.50000001  1
  Nb  Nb2  1  0.50000001  0.00000000  0.34724401  1
  Nb  Nb3  1  0.50000001  0.34724401  -0.00000000  1
  Nb  Nb4  1  0.50000001  0.65275601  -0.00000000  1
  Nb  Nb5  1  0.50000001  1.00000002  0.65275601  1
  B  B6  1  0.50000001  0.30667601  0.30667601  1
  B  B7  1  0.50000001  0.30667601  0.69332401  1
  B  B8  1  0.50000001  0.69332401  0.30667601  1
  B  B9  1  0.50000001  0.69332401  0.69332401  1
  B  B10  1  0.00000000  0.82387002  0.82387002  1
  B  B11  1  0.00000000  0.82387002  0.17613000  1
  B  B12  1  0.00000000  0.17613000  0.82387002  1
  B  B13  1  1.00000002  0.17613000  0.17613000  1
  Os  Os14  1  0.00000000  0.50000001  0.75633101  1
  Os  Os15  1  0.00000000  0.75633101  0.50000001  1
  Os  Os16  1  0.00000000  0.24366900  0.50000001  1
  Os  Os17  1  0.00000000  0.50000001  0.24366900  1
