# generated using pymatgen
data_Zr4Ge4Ir
_symmetry_space_group_name_H-M   'P 1'
_cell_length_a   4.28762150
_cell_length_b   4.28762150
_cell_length_c   9.44088173
_cell_angle_alpha   89.99925232
_cell_angle_beta   89.99932861
_cell_angle_gamma   60.00738525
_symmetry_Int_Tables_number   1
_chemical_formula_structural   Zr4Ge4Ir
_chemical_formula_sum   'Zr4 Ge4 Ir1'
_cell_volume   150.31709813
_cell_formula_units_Z   1
loop_
 _symmetry_equiv_pos_site_id
 _symmetry_equiv_pos_as_xyz
  1  'x, y, z'
loop_
 _atom_site_type_symbol
 _atom_site_label
 _atom_site_symmetry_multiplicity
 _atom_site_fract_x
 _atom_site_fract_y
 _atom_site_fract_z
 _atom_site_occupancy
  Zr  Zr0  1  0.66666669  0.66666666  0.16807897  1
  Zr  Zr1  1  0.66666669  0.66666666  0.83250799  1
  Zr  Zr2  1  0.66670102  0.66666666  0.50017698  1
  Ge  Ge3  1  0.99998303  0.99998298  0.29406796  1
  Ge  Ge4  1  0.99998303  0.99998198  0.70643297  1
  Ge  Ge5  1  0.33333334  0.33333333  0.01913398  1
  Zr  Zr6  1  0.99997703  0.99997098  0.99895398  1
  Ge  Ge7  1  0.33333334  0.33333333  0.36455099  1
  Ir  Ir8  1  0.33333334  0.33333333  0.63599500  1
