# generated using pymatgen
data_CoNiB7HCl
_symmetry_space_group_name_H-M   'P 1'
_cell_length_a   4.79789925
_cell_length_b   4.79789925
_cell_length_c   4.79789972
_cell_angle_alpha   95.33894348
_cell_angle_beta   95.33894348
_cell_angle_gamma   95.33892822
_symmetry_Int_Tables_number   1
_chemical_formula_structural   CoNiB7HCl
_chemical_formula_sum   'Co1 Ni1 B7 H1 Cl1'
_cell_volume   108.91290451
_cell_formula_units_Z   1
loop_
 _symmetry_equiv_pos_site_id
 _symmetry_equiv_pos_as_xyz
  1  'x, y, z'
loop_
 _atom_site_type_symbol
 _atom_site_label
 _atom_site_symmetry_multiplicity
 _atom_site_fract_x
 _atom_site_fract_y
 _atom_site_fract_z
 _atom_site_occupancy
  Cl  Cl0  1  0.00000000  0.00000000  0.00000000  1
  B  B1  1  0.50000000  0.50000000  0.50000005  1
  B  B2  1  0.26345700  0.50000000  0.73654303  1
  B  B3  1  0.73654300  0.26345700  0.50000005  1
  B  B4  1  0.50000000  0.73654300  0.26345708  1
  Ni  Ni5  1  0.17801400  0.51703400  0.32427104  1
  B  B6  1  0.82198600  0.67572900  0.48296609  1
  B  B7  1  0.32427100  0.17801400  0.51703402  1
  Co  Co8  1  0.48296601  0.82198599  0.67572907  1
  H  H9  1  0.51703400  0.32427100  0.17801405  1
  B  B10  1  0.67572900  0.48296600  0.82198606  1
