# generated using pymatgen
data_Zr2Al5Cu2
_symmetry_space_group_name_H-M   'P 1'
_cell_length_a   5.26915741
_cell_length_b   5.26915741
_cell_length_c   5.26915741
_cell_angle_alpha   60.00000000
_cell_angle_beta   60.00000000
_cell_angle_gamma   60.00000000
_symmetry_Int_Tables_number   1
_chemical_formula_structural   Zr2Al5Cu2
_chemical_formula_sum   'Zr2 Al5 Cu2'
_cell_volume   103.44476576
_cell_formula_units_Z   1
loop_
 _symmetry_equiv_pos_site_id
 _symmetry_equiv_pos_as_xyz
  1  'x, y, z'
loop_
 _atom_site_type_symbol
 _atom_site_label
 _atom_site_symmetry_multiplicity
 _atom_site_fract_x
 _atom_site_fract_y
 _atom_site_fract_z
 _atom_site_occupancy
  Cu  Cu0  1  0.25000000  0.25000000  0.25000000  1
  Cu  Cu1  1  0.75000001  0.75000001  0.75000001  1
  Al  Al2  1  0.00000000  0.00000000  0.00000000  1
  Zr  Zr3  1  0.78266601  0.78266601  0.21733400  1
  Al  Al4  1  0.21733400  0.78266601  0.78266601  1
  Al  Al5  1  0.21733400  0.78266601  0.21733400  1
  Zr  Zr6  1  0.21733400  0.21733400  0.78266601  1
  Al  Al7  1  0.78266601  0.21733400  0.21733400  1
  Al  Al8  1  0.78266601  0.21733400  0.78266601  1
