# generated using pymatgen
data_LiMnF3
_symmetry_space_group_name_H-M   'P 1'
_cell_length_a   5.30305243
_cell_length_b   5.30305243
_cell_length_c   5.69582319
_cell_angle_alpha   62.25605392
_cell_angle_beta   62.25605392
_cell_angle_gamma   59.99999619
_symmetry_Int_Tables_number   1
_chemical_formula_structural   LiMnF3
_chemical_formula_sum   'Li2 Mn2 F6'
_cell_volume   116.97421108
_cell_formula_units_Z   2
loop_
 _symmetry_equiv_pos_site_id
 _symmetry_equiv_pos_as_xyz
  1  'x, y, z'
loop_
 _atom_site_type_symbol
 _atom_site_label
 _atom_site_symmetry_multiplicity
 _atom_site_fract_x
 _atom_site_fract_y
 _atom_site_fract_z
 _atom_site_occupancy
  Li  Li0  1  0.79571103  0.79571099  0.61286702  1
  Li  Li1  1  0.29571101  0.29571100  0.11286700  1
  Mn  Mn2  1  0.50641802  0.50641799  0.48074602  1
  Mn  Mn3  1  0.00641800  0.00641800  0.98074604  1
  F  F4  1  0.59997103  0.91670799  0.25703200  1
  F  F5  1  0.72628901  0.41670800  0.75703203  1
  F  F6  1  0.09997102  0.72628899  0.75703203  1
  F  F7  1  0.22628902  0.59997099  0.25703201  1
  F  F8  1  0.91670801  0.22628900  0.25703201  1
  F  F9  1  0.41670800  0.09997100  0.75703203  1
