# generated using pymatgen
data_Cl2
_symmetry_space_group_name_H-M   'P 1'
_cell_length_a   7.11446285
_cell_length_b   7.11446285
_cell_length_c   9.90323830
_cell_angle_alpha   90.00000000
_cell_angle_beta   90.00000000
_cell_angle_gamma   90.00000000
_symmetry_Int_Tables_number   1
_chemical_formula_structural   Cl2
_chemical_formula_sum   Cl18
_cell_volume   501.25816689
_cell_formula_units_Z   9
loop_
 _symmetry_equiv_pos_site_id
 _symmetry_equiv_pos_as_xyz
  1  'x, y, z'
loop_
 _atom_site_type_symbol
 _atom_site_label
 _atom_site_symmetry_multiplicity
 _atom_site_fract_x
 _atom_site_fract_y
 _atom_site_fract_z
 _atom_site_occupancy
  Cl  Cl0  1  0.00000000  0.00000000  0.74999998  1
  Cl  Cl1  1  0.00000000  0.00000000  0.24999999  1
  Cl  Cl2  1  0.64995601  0.05935200  -0.00000000  1
  Cl  Cl3  1  0.35004401  0.94064802  -0.00000000  1
  Cl  Cl4  1  0.05935200  0.35004401  0.49999999  1
  Cl  Cl5  1  0.94064802  0.64995601  0.49999999  1
  Cl  Cl6  1  0.20929300  0.32129301  0.67193398  1
  Cl  Cl7  1  0.67870701  0.20929300  0.17193399  1
  Cl  Cl8  1  0.17679700  0.17273700  -0.00000000  1
  Cl  Cl9  1  0.82726302  0.17679700  0.49999999  1
  Cl  Cl10  1  0.17273700  0.82320302  0.49999999  1
  Cl  Cl11  1  0.82320302  0.82726302  -0.00000000  1
  Cl  Cl12  1  0.20929300  0.32129301  0.32806599  1
  Cl  Cl13  1  0.67870701  0.20929300  0.82806598  1
  Cl  Cl14  1  0.32129301  0.79070702  0.82806598  1
  Cl  Cl15  1  0.79070702  0.67870701  0.32806599  1
  Cl  Cl16  1  0.79070702  0.67870701  0.67193398  1
  Cl  Cl17  1  0.32129301  0.79070702  0.17193399  1
