# generated using pymatgen
data_Li3Mn5O11
_symmetry_space_group_name_H-M   'P 1'
_cell_length_a   5.16999102
_cell_length_b   5.40238190
_cell_length_c   7.88599396
_cell_angle_alpha   105.87290955
_cell_angle_beta   103.27518463
_cell_angle_gamma   102.38054657
_symmetry_Int_Tables_number   1
_chemical_formula_structural   Li3Mn5O11
_chemical_formula_sum   'Li3 Mn5 O11'
_cell_volume   196.95125056
_cell_formula_units_Z   1
loop_
 _symmetry_equiv_pos_site_id
 _symmetry_equiv_pos_as_xyz
  1  'x, y, z'
loop_
 _atom_site_type_symbol
 _atom_site_label
 _atom_site_symmetry_multiplicity
 _atom_site_fract_x
 _atom_site_fract_y
 _atom_site_fract_z
 _atom_site_occupancy
  Li  Li0  1  0.89732494  0.80676097  0.30494100  1
  Li  Li1  1  0.49508893  0.96206797  0.47627302  1
  Li  Li2  1  0.11234599  0.18763899  0.69328702  1
  Mn  Mn3  1  0.71353497  0.41646899  0.91747902  1
  Mn  Mn4  1  0.20141097  0.40102899  0.39370401  1
  O  O5  1  0.00915793  0.98650396  0.00611701  1
  Mn  Mn6  1  0.60169798  0.18510399  0.20100900  1
  Mn  Mn7  1  0.79192195  0.59221798  0.59807501  1
  Mn  Mn8  1  0.38988794  0.79183197  0.80513502  1
  O  O9  1  0.94000397  0.34211199  0.14613799  1
  O  O10  1  0.55400696  0.59485298  0.37172801  1
  O  O11  1  0.13734695  0.79551297  0.57009802  1
  O  O12  1  0.35411499  0.13936600  0.95174002  1
  O  O13  1  0.66575194  0.80256997  0.02722300  1
  O  O14  1  0.27910900  0.03233500  0.26564300  1
  O  O15  1  0.86411698  0.21139799  0.43615800  1
  O  O16  1  0.43870797  0.45796598  0.65310601  1
  O  O17  1  0.00413596  0.63340498  0.84197803  1
  O  O18  1  0.74921399  0.05239700  0.73793701  1
