# generated using pymatgen
data_Ho(AlCr)6
_symmetry_space_group_name_H-M   'P 1'
_cell_length_a   4.90769005
_cell_length_b   6.62828064
_cell_length_c   6.62828064
_cell_angle_alpha   81.21930695
_cell_angle_beta   68.27153015
_cell_angle_gamma   68.27153015
_symmetry_Int_Tables_number   1
_chemical_formula_structural   Ho(AlCr)6
_chemical_formula_sum   'Ho1 Al6 Cr6'
_cell_volume   186.03361833
_cell_formula_units_Z   1
loop_
 _symmetry_equiv_pos_site_id
 _symmetry_equiv_pos_as_xyz
  1  'x, y, z'
loop_
 _atom_site_type_symbol
 _atom_site_label
 _atom_site_symmetry_multiplicity
 _atom_site_fract_x
 _atom_site_fract_y
 _atom_site_fract_z
 _atom_site_occupancy
  Ho  Ho0  1  0.00000000  0.00000000  0.00000000  1
  Cr  Cr1  1  0.00000000  0.00000000  0.50000000  1
  Cr  Cr2  1  0.49999998  1.00000000  0.49999999  1
  Cr  Cr3  1  0.99999999  0.50000000  -0.00000001  1
  Cr  Cr4  1  0.49999999  0.50000000  -0.00000001  1
  Cr  Cr5  1  0.49999998  0.76584400  0.23415599  1
  Cr  Cr6  1  0.49999999  0.23415600  0.76584399  1
  Al  Al7  1  0.65218199  0.34781800  0.34781799  1
  Al  Al8  1  0.34781799  0.65218200  0.65218199  1
  Al  Al9  1  -0.00000001  0.33667300  0.66332699  1
  Al  Al10  1  -0.00000001  0.66332700  0.33667300  1
  Al  Al11  1  0.69998698  0.80001300  0.80001298  1
  Al  Al12  1  0.30001299  0.19998700  0.19998699  1
