# generated using pymatgen
data_In
_symmetry_space_group_name_H-M   'P 1'
_cell_length_a   5.55010796
_cell_length_b   7.00128603
_cell_length_c   7.00128651
_cell_angle_alpha   60.00000000
_cell_angle_beta   90.00000000
_cell_angle_gamma   90.00000000
_symmetry_Int_Tables_number   1
_chemical_formula_structural   In
_chemical_formula_sum   In8
_cell_volume   235.60675254
_cell_formula_units_Z   8
loop_
 _symmetry_equiv_pos_site_id
 _symmetry_equiv_pos_as_xyz
  1  'x, y, z'
loop_
 _atom_site_type_symbol
 _atom_site_label
 _atom_site_symmetry_multiplicity
 _atom_site_fract_x
 _atom_site_fract_y
 _atom_site_fract_z
 _atom_site_occupancy
  In  In0  1  0.75000001  0.65524001  0.17237997  1
  In  In1  1  0.75000001  0.17238000  0.17237999  1
  In  In2  1  0.75000001  0.17238000  0.65523998  1
  In  In3  1  0.25000000  0.34476001  0.82761997  1
  In  In4  1  0.25000000  0.82762001  0.82761996  1
  In  In5  1  0.25000000  0.82762001  0.34475996  1
  In  In6  1  0.25000000  0.33333334  0.33333332  1
  In  In7  1  0.75000001  0.66666668  0.66666663  1
