# generated using pymatgen
data_SrEuGe
_symmetry_space_group_name_H-M   'P 1'
_cell_length_a   3.61230493
_cell_length_b   3.61230421
_cell_length_c   6.51612997
_cell_angle_alpha   90.00160217
_cell_angle_beta   90.00160217
_cell_angle_gamma   60.00419998
_symmetry_Int_Tables_number   1
_chemical_formula_structural   SrEuGe
_chemical_formula_sum   'Sr1 Eu1 Ge1'
_cell_volume   73.63892991
_cell_formula_units_Z   1
loop_
 _symmetry_equiv_pos_site_id
 _symmetry_equiv_pos_as_xyz
  1  'x, y, z'
loop_
 _atom_site_type_symbol
 _atom_site_label
 _atom_site_symmetry_multiplicity
 _atom_site_fract_x
 _atom_site_fract_y
 _atom_site_fract_z
 _atom_site_occupancy
  Ge  Ge0  1  0.99995705  0.99995596  0.96491298  1
  Eu  Eu1  1  0.66672903  0.66672898  0.25589999  1
  Sr  Sr2  1  0.33333335  0.33329465  0.77918800  1
