# generated using pymatgen
data_Ce4Al5Ge9
_symmetry_space_group_name_H-M   'P 1'
_cell_length_a   6.14907408
_cell_length_b   8.06974602
_cell_length_c   8.23930454
_cell_angle_alpha   90.00000000
_cell_angle_beta   111.91032410
_cell_angle_gamma   90.00000000
_symmetry_Int_Tables_number   1
_chemical_formula_structural   Ce4Al5Ge9
_chemical_formula_sum   'Ce4 Al5 Ge9'
_cell_volume   379.31500084
_cell_formula_units_Z   1
loop_
 _symmetry_equiv_pos_site_id
 _symmetry_equiv_pos_as_xyz
  1  'x, y, z'
loop_
 _atom_site_type_symbol
 _atom_site_label
 _atom_site_symmetry_multiplicity
 _atom_site_fract_x
 _atom_site_fract_y
 _atom_site_fract_z
 _atom_site_occupancy
  Ce  Ce0  1  0.11396800  0.58304400  0.22793601  1
  Ce  Ce1  1  0.38603200  0.08304400  0.77206404  1
  Ce  Ce2  1  0.61396801  0.91695600  0.22793604  1
  Ce  Ce3  1  0.88603201  0.41695600  0.77206407  1
  Al  Al4  1  0.03435800  0.75000000  0.56871602  1
  Ge  Ge5  1  0.00000000  0.00000000  0.00000000  1
  Al  Al6  1  0.53435801  0.75000000  0.56871604  1
  Al  Al7  1  0.50000001  0.50000000  0.00000002  1
  Al  Al8  1  0.96564201  0.25000000  0.43128406  1
  Al  Al9  1  0.46564201  0.25000000  0.43128404  1
  Ge  Ge10  1  0.70115801  0.75000000  0.90231606  1
  Ge  Ge11  1  0.20115800  0.75000000  0.90231604  1
  Ge  Ge12  1  0.29884200  0.25000000  0.09768402  1
  Ge  Ge13  1  0.68687301  0.55189900  0.37374604  1
  Ge  Ge14  1  0.79884201  0.25000000  0.09768404  1
  Ge  Ge15  1  0.81312701  0.05189900  0.62625406  1
  Ge  Ge16  1  0.18687300  0.94810100  0.37374602  1
  Ge  Ge17  1  0.31312700  0.44810100  0.62625403  1
