# generated using pymatgen
data_SrTe
_symmetry_space_group_name_H-M   'P 1'
_cell_length_a   3.93641806
_cell_length_b   5.56707001
_cell_length_c   14.17504120
_cell_angle_alpha   101.32469177
_cell_angle_beta   90.00000000
_cell_angle_gamma   90.00000000
_symmetry_Int_Tables_number   1
_chemical_formula_structural   SrTe
_chemical_formula_sum   'Sr5 Te5'
_cell_volume   304.58826595
_cell_formula_units_Z   5
loop_
 _symmetry_equiv_pos_site_id
 _symmetry_equiv_pos_as_xyz
  1  'x, y, z'
loop_
 _atom_site_type_symbol
 _atom_site_label
 _atom_site_symmetry_multiplicity
 _atom_site_fract_x
 _atom_site_fract_y
 _atom_site_fract_z
 _atom_site_occupancy
  Sr  Sr0  1  0.99999999  0.20001000  0.40002000  1
  Sr  Sr1  1  0.00000000  0.60190000  0.20380000  1
  Sr  Sr2  1  0.00000000  0.00000000  0.00000000  1
  Sr  Sr3  1  0.00000000  0.39810000  0.79620001  1
  Sr  Sr4  1  0.99999999  0.79999000  0.59998000  1
  Te  Te5  1  0.49999999  0.50000000  -0.00000000  1
  Te  Te6  1  0.49999999  0.89957800  0.79915600  1
  Te  Te7  1  0.49999999  0.29968300  0.59936600  1
  Te  Te8  1  0.49999999  0.70031700  0.40063400  1
  Te  Te9  1  0.49999999  0.10042200  0.20084400  1
