# generated using pymatgen
data_MgAg2
_symmetry_space_group_name_H-M   'P 1'
_cell_length_a   3.21091604
_cell_length_b   5.60221148
_cell_length_c   7.10415030
_cell_angle_alpha   107.14324188
_cell_angle_beta   90.00000000
_cell_angle_gamma   106.65306091
_symmetry_Int_Tables_number   1
_chemical_formula_structural   MgAg2
_chemical_formula_sum   'Mg2 Ag4'
_cell_volume   116.49263687
_cell_formula_units_Z   2
loop_
 _symmetry_equiv_pos_site_id
 _symmetry_equiv_pos_as_xyz
  1  'x, y, z'
loop_
 _atom_site_type_symbol
 _atom_site_label
 _atom_site_symmetry_multiplicity
 _atom_site_fract_x
 _atom_site_fract_y
 _atom_site_fract_z
 _atom_site_occupancy
  Mg  Mg0  1  0.47320595  0.94641198  0.20744705  1
  Ag  Ag1  1  0.52679399  0.05358800  0.79255302  1
  Ag  Ag2  1  0.19279998  0.38559999  0.14135902  1
  Ag  Ag3  1  0.85430595  0.70861198  0.46713004  1
  Mg  Mg4  1  0.14569398  0.29138799  0.53287002  1
  Ag  Ag5  1  0.80719996  0.61439999  0.85864104  1
