# generated using pymatgen
data_Ca4Mg(SbO4)3
_symmetry_space_group_name_H-M   'P 1'
_cell_length_a   5.59066296
_cell_length_b   5.77052164
_cell_length_c   7.90176916
_cell_angle_alpha   89.87149048
_cell_angle_beta   90.53466797
_cell_angle_gamma   89.71958923
_symmetry_Int_Tables_number   1
_chemical_formula_structural   Ca4Mg(SbO4)3
_chemical_formula_sum   'Ca4 Mg1 Sb3 O12'
_cell_volume   254.90448379
_cell_formula_units_Z   1
loop_
 _symmetry_equiv_pos_site_id
 _symmetry_equiv_pos_as_xyz
  1  'x, y, z'
loop_
 _atom_site_type_symbol
 _atom_site_label
 _atom_site_symmetry_multiplicity
 _atom_site_fract_x
 _atom_site_fract_y
 _atom_site_fract_z
 _atom_site_occupancy
  Ca  Ca0  1  0.98595299  0.43853799  0.75052805  1
  Ca  Ca1  1  0.01404698  0.56146699  0.24947402  1
  Ca  Ca2  1  0.51381497  0.94041098  0.74830805  1
  Ca  Ca3  1  0.48619800  0.05958500  0.25168802  1
  Mg  Mg4  1  0.50000098  0.49999999  0.00000104  1
  Sb  Sb5  1  0.99999700  0.00000000  0.50000004  1
  Sb  Sb6  1  0.99999400  0.00000600  1.00000003  1
  Sb  Sb7  1  0.50000398  0.49999899  0.49999904  1
  O  O8  1  0.70556100  0.19657999  0.95476403  1
  O  O9  1  0.29444197  0.80341998  0.04523204  1
  O  O10  1  0.79391298  0.69742198  0.54434406  1
  O  O11  1  0.20608499  0.30256999  0.45565601  1
  O  O12  1  0.80385598  0.70917898  0.94695305  1
  O  O13  1  0.19614099  0.29082399  0.05304802  1
  O  O14  1  0.69653300  0.20775899  0.55047403  1
  O  O15  1  0.30346597  0.79224098  0.44952804  1
  O  O16  1  0.09251600  0.02067000  0.75321900  1
  O  O17  1  0.90747697  0.97933197  0.24678208  1
  O  O18  1  0.40759098  0.52063699  0.74564503  1
  O  O19  1  0.59240899  0.47936099  0.25435704  1
