# generated using pymatgen
data_KAg2F4
_symmetry_space_group_name_H-M   'P 1'
_cell_length_a   3.84713101
_cell_length_b   6.47263765
_cell_length_c   6.47263765
_cell_angle_alpha   108.57659912
_cell_angle_beta   90.00000000
_cell_angle_gamma   90.00000000
_symmetry_Int_Tables_number   1
_chemical_formula_structural   KAg2F4
_chemical_formula_sum   'K1 Ag2 F4'
_cell_volume   152.77822127
_cell_formula_units_Z   1
loop_
 _symmetry_equiv_pos_site_id
 _symmetry_equiv_pos_as_xyz
  1  'x, y, z'
loop_
 _atom_site_type_symbol
 _atom_site_label
 _atom_site_symmetry_multiplicity
 _atom_site_fract_x
 _atom_site_fract_y
 _atom_site_fract_z
 _atom_site_occupancy
  K  K0  1  1.00000000  0.22202599  0.22202599  1
  Ag  Ag1  1  0.50000000  0.49578899  0.83817897  1
  Ag  Ag2  1  0.50000000  0.83817898  0.49578896  1
  F  F3  1  -0.00000000  0.49360299  0.01838798  1
  F  F4  1  0.50000000  0.48448499  0.48448498  1
  F  F5  1  0.50000000  0.01753000  0.01753000  1
  F  F6  1  -0.00000000  0.01838800  0.49360299  1
