# generated using pymatgen
data_CeAu2
_symmetry_space_group_name_H-M   'P 1'
_cell_length_a   4.58978319
_cell_length_b   7.33181524
_cell_length_c   7.87051058
_cell_angle_alpha   90.00820160
_cell_angle_beta   90.04042053
_cell_angle_gamma   89.97303772
_symmetry_Int_Tables_number   1
_chemical_formula_structural   CeAu2
_chemical_formula_sum   'Ce4 Au8'
_cell_volume   264.85393518
_cell_formula_units_Z   4
loop_
 _symmetry_equiv_pos_site_id
 _symmetry_equiv_pos_as_xyz
  1  'x, y, z'
loop_
 _atom_site_type_symbol
 _atom_site_label
 _atom_site_symmetry_multiplicity
 _atom_site_fract_x
 _atom_site_fract_y
 _atom_site_fract_z
 _atom_site_occupancy
  Ce  Ce0  1  0.74999704  0.98780000  0.29813303  1
  Ce  Ce1  1  0.25015701  0.01216800  0.70193299  1
  Ce  Ce2  1  0.24996501  0.51213000  0.79796401  1
  Ce  Ce3  1  0.74982904  0.48789100  0.20192100  1
  Au  Au4  1  0.75000704  0.71246000  0.58671501  1
  Au  Au5  1  0.25000701  0.28750300  0.41315300  1
  Au  Au6  1  0.25039902  0.78752700  0.08676003  1
  Au  Au7  1  0.74961304  0.21259400  0.91341998  1
  Au  Au8  1  0.75031904  0.81286200  0.91677501  1
  Au  Au9  1  0.24971901  0.18718800  0.08315100  1
  Au  Au10  1  0.24988002  0.68711000  0.41668702  1
  Au  Au11  1  0.75010804  0.31276700  0.58338899  1
