# generated using pymatgen
data_Sm3Ga5Ni11
_symmetry_space_group_name_H-M   'P 1'
_cell_length_a   6.30760908
_cell_length_b   6.30760908
_cell_length_c   6.30760908
_cell_angle_alpha   83.49243164
_cell_angle_beta   83.49243164
_cell_angle_gamma   83.49242401
_symmetry_Int_Tables_number   1
_chemical_formula_structural   Sm3Ga5Ni11
_chemical_formula_sum   'Sm3 Ga5 Ni11'
_cell_volume   246.44375348
_cell_formula_units_Z   1
loop_
 _symmetry_equiv_pos_site_id
 _symmetry_equiv_pos_as_xyz
  1  'x, y, z'
loop_
 _atom_site_type_symbol
 _atom_site_label
 _atom_site_symmetry_multiplicity
 _atom_site_fract_x
 _atom_site_fract_y
 _atom_site_fract_z
 _atom_site_occupancy
  Sm  Sm0  1  0.35167201  0.35167200  0.35167202  1
  Sm  Sm1  1  0.64832802  0.64832799  0.64832803  1
  Ga  Ga2  1  0.00000000  0.00000000  0.49999999  1
  Ga  Ga3  1  0.50000000  0.00000000  0.00000002  1
  Ni  Ni4  1  0.00000002  0.49999999  1.00000000  1
  Ni  Ni5  1  0.28425203  0.71574799  1.00000001  1
  Ni  Ni6  1  0.00000001  0.28425200  0.71574800  1
  Ni  Ni7  1  0.71574800  0.00000000  0.28425202  1
  Ni  Ni8  1  0.00000003  0.71574799  0.28425202  1
  Ni  Ni9  1  0.28425200  0.00000000  0.71574800  1
  Ni  Ni10  1  0.71574801  0.28425200  1.00000002  1
  Ni  Ni11  1  0.65991502  0.65991499  0.13730904  1
  Ni  Ni12  1  0.13730903  0.65991499  0.65991501  1
  Ni  Ni13  1  0.65991500  0.13730900  0.65991502  1
  Ga  Ga14  1  0.34008501  0.34008500  0.86269101  1
  Ga  Ga15  1  0.86269101  0.34008500  0.34008504  1
  Ga  Ga16  1  0.34008503  0.86269099  0.34008503  1
  Ni  Ni17  1  0.09732200  0.09732200  0.09732200  1
  Sm  Sm18  1  0.90267803  0.90267799  0.90267804  1
