# generated using pymatgen
data_K2YBr4
_symmetry_space_group_name_H-M   'P 1'
_cell_length_a   5.65550804
_cell_length_b   5.65550804
_cell_length_c   10.11079693
_cell_angle_alpha   106.24090576
_cell_angle_beta   106.24090576
_cell_angle_gamma   90.00000000
_symmetry_Int_Tables_number   1
_chemical_formula_structural   K2YBr4
_chemical_formula_sum   'K2 Y1 Br4'
_cell_volume   297.02098369
_cell_formula_units_Z   1
loop_
 _symmetry_equiv_pos_site_id
 _symmetry_equiv_pos_as_xyz
  1  'x, y, z'
loop_
 _atom_site_type_symbol
 _atom_site_label
 _atom_site_symmetry_multiplicity
 _atom_site_fract_x
 _atom_site_fract_y
 _atom_site_fract_z
 _atom_site_occupancy
  Br  Br0  1  0.49999999  0.00000000  -0.00000001  1
  Br  Br1  1  0.14670599  0.14670600  0.29341200  1
  Br  Br2  1  0.85329396  0.85329398  0.70658797  1
  Br  Br3  1  -0.00000001  0.49999999  -0.00000001  1
  K  K4  1  0.35490898  0.35490899  0.70981799  1
  K  K5  1  0.64509097  0.64509099  0.29018197  1
  Y  Y6  1  0.00000000  0.00000000  0.00000000  1
