# generated using pymatgen
data_Mg2ZrUSi2BC3SN
_symmetry_space_group_name_H-M   'P 1'
_cell_length_a   3.11537194
_cell_length_b   5.52583504
_cell_length_c   9.25826263
_cell_angle_alpha   104.95806122
_cell_angle_beta   90.00000000
_cell_angle_gamma   106.37313080
_symmetry_Int_Tables_number   1
_chemical_formula_structural   Mg2ZrUSi2BC3SN
_chemical_formula_sum   'Mg2 Zr1 U1 Si2 B1 C3 S1 N1'
_cell_volume   147.28032493
_cell_formula_units_Z   1
loop_
 _symmetry_equiv_pos_site_id
 _symmetry_equiv_pos_as_xyz
  1  'x, y, z'
loop_
 _atom_site_type_symbol
 _atom_site_label
 _atom_site_symmetry_multiplicity
 _atom_site_fract_x
 _atom_site_fract_y
 _atom_site_fract_z
 _atom_site_occupancy
  C  C0  1  0.87899608  0.75799203  0.07110301  1
  U  U1  1  0.29347605  0.58695202  0.69027997  1
  C  C2  1  0.69883005  0.39766001  0.30734799  1
  Zr  Zr3  1  0.10405402  0.20810801  0.91805396  1
  B  B4  1  0.99579410  0.99158804  0.49537699  1
  S  S5  1  0.48696809  0.97393603  0.98824696  1
  Si  Si6  1  0.33956306  0.67912602  0.44211999  1
  Mg  Mg7  1  0.25510005  0.51020002  0.14301500  1
  N  N8  1  0.72810505  0.45621002  0.84799496  1
  Si  Si9  1  0.65266404  0.30532801  0.55101398  1
  C  C10  1  0.94865309  0.89730603  0.70717898  1
  Mg  Mg11  1  0.03987701  0.07975400  0.28181499  1
