# generated using pymatgen
data_Sc4CuTe4
_symmetry_space_group_name_H-M   'P 1'
_cell_length_a   5.94534922
_cell_length_b   8.68111420
_cell_length_c   8.68111420
_cell_angle_alpha   120.00000000
_cell_angle_beta   90.00000000
_cell_angle_gamma   90.00000000
_symmetry_Int_Tables_number   1
_chemical_formula_structural   Sc4CuTe4
_chemical_formula_sum   'Sc8 Cu2 Te8'
_cell_volume   388.02431362
_cell_formula_units_Z   2
loop_
 _symmetry_equiv_pos_site_id
 _symmetry_equiv_pos_as_xyz
  1  'x, y, z'
loop_
 _atom_site_type_symbol
 _atom_site_label
 _atom_site_symmetry_multiplicity
 _atom_site_fract_x
 _atom_site_fract_y
 _atom_site_fract_z
 _atom_site_occupancy
  Sc  Sc0  1  -0.00000000  0.33333332  0.66666663  1
  Sc  Sc1  1  0.99999996  0.66666665  0.33333331  1
  Te  Te2  1  0.49999998  0.66666665  0.33333331  1
  Sc  Sc3  1  0.49999998  0.33333332  0.66666663  1
  Te  Te4  1  0.24999999  0.26370199  -0.00000000  1
  Te  Te5  1  0.24999999  0.73629798  0.73629795  1
  Te  Te6  1  0.24999999  0.00000000  0.26370199  1
  Te  Te7  1  0.74999997  0.73629798  -0.00000001  1
  Te  Te8  1  0.74999997  0.26370199  0.26370198  1
  Te  Te9  1  0.74999997  0.99999997  0.73629795  1
  Sc  Sc10  1  0.24999999  0.60531998  -0.00000001  1
  Sc  Sc11  1  0.24999999  0.39467999  0.39467997  1
  Te  Te12  1  0.24999999  0.00000000  0.60531997  1
  Sc  Sc13  1  0.74999997  0.39467999  -0.00000001  1
  Sc  Sc14  1  0.74999997  0.60531998  0.60531996  1
  Sc  Sc15  1  0.74999997  0.99999997  0.39467996  1
  Cu  Cu16  1  0.00000000  0.00000000  0.00000000  1
  Cu  Cu17  1  0.49999998  0.00000000  -0.00000000  1
