# generated using pymatgen
data_In4Pt3
_symmetry_space_group_name_H-M   'P 1'
_cell_length_a   7.24185562
_cell_length_b   7.24185562
_cell_length_c   7.24185562
_cell_angle_alpha   109.15258026
_cell_angle_beta   109.63077545
_cell_angle_gamma   109.63077545
_symmetry_Int_Tables_number   1
_chemical_formula_structural   In4Pt3
_chemical_formula_sum   'In8 Pt6'
_cell_volume   292.35978076
_cell_formula_units_Z   2
loop_
 _symmetry_equiv_pos_site_id
 _symmetry_equiv_pos_as_xyz
  1  'x, y, z'
loop_
 _atom_site_type_symbol
 _atom_site_label
 _atom_site_symmetry_multiplicity
 _atom_site_fract_x
 _atom_site_fract_y
 _atom_site_fract_z
 _atom_site_occupancy
  In  In0  1  0.11888199  0.88353998  0.49755401  1
  Pt  Pt1  1  0.61401398  0.23534199  0.11646099  1
  Pt  Pt2  1  0.88111796  0.37867099  0.76465797  1
  Pt  Pt3  1  0.49999997  0.74999998  0.25000001  1
  Pt  Pt4  1  0.38598598  0.50244599  0.62132799  1
  Pt  Pt5  1  0.00000000  0.00000000  0.00000000  1
  In  In6  1  0.74783397  0.62757499  0.01942301  1
  In  In7  1  0.74070097  0.60899899  0.49805499  1
  Pt  Pt8  1  0.11094399  0.50194499  0.24264601  1
  In  In9  1  0.39184798  0.12025900  0.37242499  1
  In  In10  1  0.60815197  0.98057698  0.72841100  1
  In  In11  1  0.25929898  0.75735298  0.86829799  1
  In  In12  1  0.88905597  0.13170200  0.39100198  1
  In  In13  1  0.25216599  0.27158899  0.87974098  1
