# generated using pymatgen
data_Cr5S9
_symmetry_space_group_name_H-M   'P 1'
_cell_length_a   7.06155586
_cell_length_b   7.06155586
_cell_length_c   7.06155586
_cell_angle_alpha   60.00000000
_cell_angle_beta   60.00000000
_cell_angle_gamma   60.00000000
_symmetry_Int_Tables_number   1
_chemical_formula_structural   Cr5S9
_chemical_formula_sum   'Cr5 S9'
_cell_volume   248.99246196
_cell_formula_units_Z   1
loop_
 _symmetry_equiv_pos_site_id
 _symmetry_equiv_pos_as_xyz
  1  'x, y, z'
loop_
 _atom_site_type_symbol
 _atom_site_label
 _atom_site_symmetry_multiplicity
 _atom_site_fract_x
 _atom_site_fract_y
 _atom_site_fract_z
 _atom_site_occupancy
  S  S0  1  0.87878899  0.87878799  0.36363500  1
  S  S1  1  0.87878899  0.87878799  0.87878799  1
  S  S2  1  0.87878899  0.36363500  0.87878799  1
  S  S3  1  0.36363600  0.87878799  0.87878799  1
  S  S4  1  0.50000000  0.50000000  0.50000000  1
  Cr  Cr5  1  0.25000000  0.25000000  0.25000000  1
  S  S6  1  0.11628800  0.11628800  0.65113600  1
  S  S7  1  0.11628800  0.11628800  0.11628800  1
  S  S8  1  0.11628800  0.65113600  0.11628800  1
  S  S9  1  0.65113600  0.11628800  0.11628800  1
  Cr  Cr10  1  0.63447600  0.63447700  0.09657000  1
  Cr  Cr11  1  0.63447600  0.63447700  0.63447700  1
  Cr  Cr12  1  0.63447600  0.09657000  0.63447700  1
  Cr  Cr13  1  0.09656900  0.63447700  0.63447700  1
