# generated using pymatgen
data_Gd(NiGe)2
_symmetry_space_group_name_H-M   'P 1'
_cell_length_a   4.18069601
_cell_length_b   4.18069601
_cell_length_c   5.66311836
_cell_angle_alpha   111.66111755
_cell_angle_beta   111.66111755
_cell_angle_gamma   90.00000000
_symmetry_Int_Tables_number   1
_chemical_formula_structural   Gd(NiGe)2
_chemical_formula_sum   'Gd1 Ni2 Ge2'
_cell_volume   84.42503972
_cell_formula_units_Z   1
loop_
 _symmetry_equiv_pos_site_id
 _symmetry_equiv_pos_as_xyz
  1  'x, y, z'
loop_
 _atom_site_type_symbol
 _atom_site_label
 _atom_site_symmetry_multiplicity
 _atom_site_fract_x
 _atom_site_fract_y
 _atom_site_fract_z
 _atom_site_occupancy
  Gd  Gd0  1  0.00000000  0.00000000  0.00000000  1
  Ge  Ge1  1  0.62822205  0.62822202  0.25644406  1
  Ge  Ge2  1  0.37177803  0.37177801  0.74355602  1
  Ni  Ni3  1  0.75000003  0.25000001  0.50000004  1
  Ni  Ni4  1  0.25000005  0.75000002  0.50000005  1
