# generated using pymatgen
data_K2LiAgF6
_symmetry_space_group_name_H-M   'P 1'
_cell_length_a   6.10849428
_cell_length_b   6.10849428
_cell_length_c   6.13400507
_cell_angle_alpha   90.21407318
_cell_angle_beta   119.61818695
_cell_angle_gamma   119.99777222
_symmetry_Int_Tables_number   1
_chemical_formula_structural   K2LiAgF6
_chemical_formula_sum   'K2 Li1 Ag1 F6'
_cell_volume   162.47784385
_cell_formula_units_Z   1
loop_
 _symmetry_equiv_pos_site_id
 _symmetry_equiv_pos_as_xyz
  1  'x, y, z'
loop_
 _atom_site_type_symbol
 _atom_site_label
 _atom_site_symmetry_multiplicity
 _atom_site_fract_x
 _atom_site_fract_y
 _atom_site_fract_z
 _atom_site_occupancy
  K  K0  1  0.50399501  0.75085001  0.25484502  1
  K  K1  1  0.49600501  0.24915000  0.74515500  1
  Ag  Ag2  1  0.00000000  0.00000000  0.00000000  1
  Li  Li3  1  -0.00000000  0.50000001  0.50000000  1
  F  F4  1  0.46453401  0.70442001  0.70089401  1
  F  F5  1  0.00352599  0.76364001  0.29910601  1
  F  F6  1  0.53546601  0.29558001  0.29910601  1
  F  F7  1  0.99647403  0.23636000  0.70089400  1
  F  F8  1  0.94523703  0.26857901  0.21381601  1
  F  F9  1  0.05476300  0.73142101  0.78618400  1
