# generated using pymatgen
data_KCuO2
_symmetry_space_group_name_H-M   'P 1'
_cell_length_a   6.32733393
_cell_length_b   6.43655777
_cell_length_c   8.04813671
_cell_angle_alpha   90.00000000
_cell_angle_beta   90.00000000
_cell_angle_gamma   90.00000000
_symmetry_Int_Tables_number   1
_chemical_formula_structural   KCuO2
_chemical_formula_sum   'K4 Cu4 O8'
_cell_volume   327.77043055
_cell_formula_units_Z   4
loop_
 _symmetry_equiv_pos_site_id
 _symmetry_equiv_pos_as_xyz
  1  'x, y, z'
loop_
 _atom_site_type_symbol
 _atom_site_label
 _atom_site_symmetry_multiplicity
 _atom_site_fract_x
 _atom_site_fract_y
 _atom_site_fract_z
 _atom_site_occupancy
  O  O0  1  0.25000000  0.65099702  0.69575402  1
  O  O1  1  0.25000000  0.15099701  0.80424603  1
  O  O2  1  0.75000001  0.34900301  0.30424601  1
  O  O3  1  0.75000001  0.84900303  0.19575401  1
  O  O4  1  0.00000000  0.00000000  0.50000002  1
  O  O5  1  0.50000001  0.50000002  -0.00000000  1
  O  O6  1  0.50000001  0.00000000  0.50000002  1
  O  O7  1  0.00000000  0.50000002  0.00000000  1
  K  K8  1  0.25000000  0.41980102  0.38125801  1
  K  K9  1  0.25000000  0.91980103  0.11874200  1
  K  K10  1  0.75000001  0.58019902  0.61874202  1
  K  K11  1  0.75000001  0.08019900  0.88125803  1
  Cu  Cu12  1  0.25000000  0.44213002  0.87335503  1
  Cu  Cu13  1  0.25000000  0.94213003  0.62664502  1
  Cu  Cu14  1  0.75000001  0.55787002  0.12664500  1
  Cu  Cu15  1  0.75000001  0.05787000  0.37335501  1
