# generated using pymatgen
data_ZrPd
_symmetry_space_group_name_H-M   'P 1'
_cell_length_a   4.68114376
_cell_length_b   4.68114376
_cell_length_c   8.09883785
_cell_angle_alpha   73.20185089
_cell_angle_beta   73.20185089
_cell_angle_gamma   60.00000381
_symmetry_Int_Tables_number   1
_chemical_formula_structural   ZrPd
_chemical_formula_sum   'Zr4 Pd4'
_cell_volume   144.88377328
_cell_formula_units_Z   4
loop_
 _symmetry_equiv_pos_site_id
 _symmetry_equiv_pos_as_xyz
  1  'x, y, z'
loop_
 _atom_site_type_symbol
 _atom_site_label
 _atom_site_symmetry_multiplicity
 _atom_site_fract_x
 _atom_site_fract_y
 _atom_site_fract_z
 _atom_site_occupancy
  Zr  Zr0  1  0.12503899  0.12503900  0.62488302  1
  Zr  Zr1  1  0.62467997  0.62467999  0.12596005  1
  Pd  Pd2  1  0.00213900  0.00213900  0.99358302  1
  Pd  Pd3  1  0.49761798  0.49761799  0.50714605  1
  Zr  Zr4  1  0.37561098  0.37561100  0.87316705  1
  Zr  Zr5  1  0.87430496  0.87430499  0.37708508  1
  Pd  Pd6  1  0.74629096  0.74629099  0.76112708  1
  Pd  Pd7  1  0.25431699  0.25431700  0.23704903  1
