# generated using pymatgen
data_La4Tl4C
_symmetry_space_group_name_H-M   'P 1'
_cell_length_a   8.39427185
_cell_length_b   9.65630341
_cell_length_c   8.39427185
_cell_angle_alpha   115.76318359
_cell_angle_beta   90.00000000
_cell_angle_gamma   115.76318359
_symmetry_Int_Tables_number   1
_chemical_formula_structural   La4Tl4C
_chemical_formula_sum   'La8 Tl8 C2'
_cell_volume   536.69315682
_cell_formula_units_Z   2
loop_
 _symmetry_equiv_pos_site_id
 _symmetry_equiv_pos_as_xyz
  1  'x, y, z'
loop_
 _atom_site_type_symbol
 _atom_site_label
 _atom_site_symmetry_multiplicity
 _atom_site_fract_x
 _atom_site_fract_y
 _atom_site_fract_z
 _atom_site_occupancy
  La  La0  1  0.50000001  0.00000000  0.50000001  1
  La  La1  1  0.00000000  0.00000000  0.00000000  1
  La  La2  1  0.48642502  0.30249701  0.31607202  1
  La  La3  1  0.81607203  0.30249701  0.98642503  1
  Tl  Tl4  1  0.98642503  0.30249701  0.48642502  1
  La  La5  1  0.31607202  0.30249701  0.81607203  1
  La  La6  1  0.51357505  0.69750302  0.68392805  1
  La  La7  1  0.18392804  0.69750302  0.01357504  1
  Tl  Tl8  1  0.01357504  0.69750302  0.51357505  1
  La  La9  1  0.68392805  0.69750302  0.18392804  1
  Tl  Tl10  1  0.75000004  0.50000001  0.75000004  1
  Tl  Tl11  1  0.25000003  0.50000001  0.25000003  1
  Tl  Tl12  1  0.12411600  0.00000000  0.37588401  1
  Tl  Tl13  1  0.87588402  0.00000000  0.62411601  1
  Tl  Tl14  1  0.62411607  1.00000002  0.12411606  1
  Tl  Tl15  1  0.37588401  0.00000000  0.87588402  1
  C  C16  1  0.75000004  0.50000001  0.25000003  1
  C  C17  1  0.25000003  0.50000001  0.75000004  1
