# generated using pymatgen
data_Rb2Sr6P4N7O
_symmetry_space_group_name_H-M   'P 1'
_cell_length_a   4.61056900
_cell_length_b   9.05741215
_cell_length_c   9.23121834
_cell_angle_alpha   112.71092987
_cell_angle_beta   90.00000000
_cell_angle_gamma   90.00000000
_symmetry_Int_Tables_number   1
_chemical_formula_structural   Rb2Sr6P4N7O
_chemical_formula_sum   'Rb2 Sr6 P4 N7 O1'
_cell_volume   355.60455932
_cell_formula_units_Z   1
loop_
 _symmetry_equiv_pos_site_id
 _symmetry_equiv_pos_as_xyz
  1  'x, y, z'
loop_
 _atom_site_type_symbol
 _atom_site_label
 _atom_site_symmetry_multiplicity
 _atom_site_fract_x
 _atom_site_fract_y
 _atom_site_fract_z
 _atom_site_occupancy
  P  P0  1  0.07133100  0.23833099  0.14966899  1
  P  P1  1  0.07133100  0.76166897  0.35033098  1
  P  P2  1  0.92866900  0.76166897  0.85033100  1
  P  P3  1  0.92866900  0.23833099  0.64966902  1
  O  O4  1  0.38488500  0.18907499  0.09831599  1
  N  N5  1  0.38488500  0.81092497  0.40168398  1
  N  N6  1  0.61511500  0.81092497  0.90168400  1
  N  N7  1  0.61511500  0.18907499  0.59831602  1
  Rb  Rb8  1  0.91740200  0.28419099  0.02554499  1
  Sr  Sr9  1  0.91740200  0.71580897  0.47445498  1
  Sr  Sr10  1  0.08259800  0.71580897  0.97445501  1
  Sr  Sr11  1  0.08259800  0.28419099  0.52554501  1
  N  N12  1  0.08065500  0.38234099  0.30686199  1
  N  N13  1  0.08065500  0.61765898  0.19313798  1
  N  N14  1  0.91934500  0.61765898  0.69313800  1
  N  N15  1  0.91934500  0.38234099  0.80686202  1
  Rb  Rb16  1  0.91417200  0.09911600  0.17243400  1
  Sr  Sr17  1  0.91417200  0.90088397  0.32756597  1
  Sr  Sr18  1  0.08582800  0.90088397  0.82756599  1
  Sr  Sr19  1  0.08582800  0.09911600  0.67243402  1
