# generated using pymatgen
data_Rb2NaEu2Br9
_symmetry_space_group_name_H-M   'P 1'
_cell_length_a   7.15422153
_cell_length_b   7.15422153
_cell_length_c   12.42511845
_cell_angle_alpha   90.00000000
_cell_angle_beta   90.00000000
_cell_angle_gamma   119.11921692
_symmetry_Int_Tables_number   1
_chemical_formula_structural   Rb2NaEu2Br9
_chemical_formula_sum   'Rb2 Na1 Eu2 Br9'
_cell_volume   555.57466634
_cell_formula_units_Z   1
loop_
 _symmetry_equiv_pos_site_id
 _symmetry_equiv_pos_as_xyz
  1  'x, y, z'
loop_
 _atom_site_type_symbol
 _atom_site_label
 _atom_site_symmetry_multiplicity
 _atom_site_fract_x
 _atom_site_fract_y
 _atom_site_fract_z
 _atom_site_occupancy
  Rb  Rb0  1  0.50000003  0.50000001  0.24999999  1
  Rb  Rb1  1  0.50000003  0.50000001  0.74999997  1
  Br  Br2  1  0.76219701  0.24035001  -0.00000000  1
  Na  Na3  1  0.23780306  0.75965002  -0.00000000  1
  Eu  Eu4  1  0.75965001  0.23780301  0.49999998  1
  Eu  Eu5  1  0.24035006  0.76219702  0.49999998  1
  Br  Br6  1  0.00000004  0.50000001  0.17748199  1
  Br  Br7  1  0.50000000  0.00000000  0.32251799  1
  Br  Br8  1  0.80442504  0.65883802  0.49999998  1
  Br  Br9  1  0.19557502  0.34116201  0.49999998  1
  Br  Br10  1  0.65883806  0.80442502  -0.00000000  1
  Br  Br11  1  0.34116201  0.19557501  0.99999996  1
  Br  Br12  1  0.00000004  0.50000001  0.82251797  1
  Br  Br13  1  0.50000000  0.00000000  0.67748198  1
