# generated using pymatgen
data_U2Te7
_symmetry_space_group_name_H-M   'P 1'
_cell_length_a   8.52099991
_cell_length_b   8.52099991
_cell_length_c   11.87034035
_cell_angle_alpha   92.30442047
_cell_angle_beta   92.30442047
_cell_angle_gamma   119.28103638
_symmetry_Int_Tables_number   1
_chemical_formula_structural   U2Te7
_chemical_formula_sum   'U4 Te14'
_cell_volume   749.37159065
_cell_formula_units_Z   2
loop_
 _symmetry_equiv_pos_site_id
 _symmetry_equiv_pos_as_xyz
  1  'x, y, z'
loop_
 _atom_site_type_symbol
 _atom_site_label
 _atom_site_symmetry_multiplicity
 _atom_site_fract_x
 _atom_site_fract_y
 _atom_site_fract_z
 _atom_site_occupancy
  Te  Te0  1  0.98098995  0.01901000  0.74999997  1
  Te  Te1  1  0.01900999  0.98098995  0.24999998  1
  U  U2  1  0.58507897  0.29237399  0.43451698  1
  U  U3  1  0.70762596  0.41492098  0.06548298  1
  U  U4  1  0.29237398  0.58507897  0.93451697  1
  U  U5  1  0.41492098  0.70762596  0.56548298  1
  Te  Te6  1  0.40376398  0.29246199  0.87128598  1
  Te  Te7  1  0.56083697  0.91859495  0.80488097  1
  Te  Te8  1  0.75625696  0.02794100  0.46271898  1
  Te  Te9  1  0.97205895  0.24374299  0.03728098  1
  Te  Te10  1  0.08140499  0.43916298  0.69511898  1
  Te  Te11  1  0.70753796  0.59623597  0.62871397  1
  Te  Te12  1  0.29246198  0.40376398  0.37128598  1
  Te  Te13  1  0.91859495  0.56083697  0.30488098  1
  Te  Te14  1  0.02794100  0.75625696  0.96271897  1
  Te  Te15  1  0.24374298  0.97205895  0.53728098  1
  Te  Te16  1  0.43916298  0.08140500  0.19511899  1
  Te  Te17  1  0.59623597  0.70753796  0.12871398  1
