# generated using pymatgen
data_EuCl
_symmetry_space_group_name_H-M   'P 1'
_cell_length_a   3.24562192
_cell_length_b   4.48171806
_cell_length_c   4.48171806
_cell_angle_alpha   82.46606445
_cell_angle_beta   68.77104187
_cell_angle_gamma   68.77104187
_symmetry_Int_Tables_number   1
_chemical_formula_structural   EuCl
_chemical_formula_sum   'Eu1 Cl1'
_cell_volume   56.64350668
_cell_formula_units_Z   1
loop_
 _symmetry_equiv_pos_site_id
 _symmetry_equiv_pos_as_xyz
  1  'x, y, z'
loop_
 _atom_site_type_symbol
 _atom_site_label
 _atom_site_symmetry_multiplicity
 _atom_site_fract_x
 _atom_site_fract_y
 _atom_site_fract_z
 _atom_site_occupancy
  Cl  Cl0  1  0.25000004  0.49999997  0.49999994  1
  Eu  Eu1  1  0.00000000  0.00000000  0.00000000  1
