# generated using pymatgen
data_Na12P3F
_symmetry_space_group_name_H-M   'P 1'
_cell_length_a   6.58412409
_cell_length_b   7.70701981
_cell_length_c   9.93796539
_cell_angle_alpha   90.00000000
_cell_angle_beta   90.00000000
_cell_angle_gamma   90.00000000
_symmetry_Int_Tables_number   1
_chemical_formula_structural   Na12P3F
_chemical_formula_sum   'Na12 P3 F1'
_cell_volume   504.29186500
_cell_formula_units_Z   1
loop_
 _symmetry_equiv_pos_site_id
 _symmetry_equiv_pos_as_xyz
  1  'x, y, z'
loop_
 _atom_site_type_symbol
 _atom_site_label
 _atom_site_symmetry_multiplicity
 _atom_site_fract_x
 _atom_site_fract_y
 _atom_site_fract_z
 _atom_site_occupancy
  Na  Na0  1  0.33605000  0.67067202  0.06912900  1
  Na  Na1  1  0.16395000  0.17067200  0.43087098  1
  Na  Na2  1  0.66394999  0.32932801  0.56912898  1
  Na  Na3  1  0.83604999  0.82932802  0.93087096  1
  Na  Na4  1  0.66394999  0.32932801  0.93087096  1
  Na  Na5  1  0.83604999  0.82932802  0.56912898  1
  Na  Na6  1  0.33605000  0.67067202  0.43087098  1
  Na  Na7  1  0.16395000  0.17067200  0.06912900  1
  Na  Na8  1  0.85772999  0.54155801  0.24999999  1
  Na  Na9  1  0.64226999  0.04155800  0.24999999  1
  F  F10  1  0.14227000  0.45844201  0.74999997  1
  Na  Na11  1  0.35773000  0.95844202  0.74999997  1
  P  P12  1  0.05277000  0.88176902  0.24999999  1
  P  P13  1  0.44722999  0.38176901  0.24999999  1
  P  P14  1  0.94722999  0.11823100  0.74999997  1
  Na  Na15  1  0.55276999  0.61823102  0.74999997  1
