# generated using pymatgen
data_Ce2Cu3Bi
_symmetry_space_group_name_H-M   'P 1'
_cell_length_a   3.97782993
_cell_length_b   3.97782993
_cell_length_c   7.52378702
_cell_angle_alpha   90.00000000
_cell_angle_beta   90.00000000
_cell_angle_gamma   90.00000000
_symmetry_Int_Tables_number   1
_chemical_formula_structural   Ce2Cu3Bi
_chemical_formula_sum   'Ce2 Cu3 Bi1'
_cell_volume   119.04986749
_cell_formula_units_Z   1
loop_
 _symmetry_equiv_pos_site_id
 _symmetry_equiv_pos_as_xyz
  1  'x, y, z'
loop_
 _atom_site_type_symbol
 _atom_site_label
 _atom_site_symmetry_multiplicity
 _atom_site_fract_x
 _atom_site_fract_y
 _atom_site_fract_z
 _atom_site_occupancy
  Ce  Ce0  1  0.00000000  0.50000001  0.32557300  1
  Ce  Ce1  1  0.50000001  0.00000000  0.67442700  1
  Cu  Cu2  1  0.00000000  0.00000000  0.00000000  1
  Cu  Cu3  1  0.50000001  0.50000001  -0.00000000  1
  Bi  Bi4  1  0.00000000  0.50000001  0.81631300  1
  Cu  Cu5  1  0.50000001  0.00000000  0.18368700  1
