# generated using pymatgen
data_LiIn(CuS)6
_symmetry_space_group_name_H-M   'P 1'
_cell_length_a   6.64244032
_cell_length_b   6.64244032
_cell_length_c   7.35231352
_cell_angle_alpha   63.14561462
_cell_angle_beta   63.14561462
_cell_angle_gamma   59.99999619
_symmetry_Int_Tables_number   1
_chemical_formula_structural   LiIn(CuS)6
_chemical_formula_sum   'Li1 In1 Cu6 S6'
_cell_volume   239.69210727
_cell_formula_units_Z   1
loop_
 _symmetry_equiv_pos_site_id
 _symmetry_equiv_pos_as_xyz
  1  'x, y, z'
loop_
 _atom_site_type_symbol
 _atom_site_label
 _atom_site_symmetry_multiplicity
 _atom_site_fract_x
 _atom_site_fract_y
 _atom_site_fract_z
 _atom_site_occupancy
  In  In0  1  0.83345197  0.83345200  0.49964403  1
  Li  Li1  1  0.16654799  0.16654800  0.50035601  1
  Cu  Cu2  1  0.96013899  0.28784600  0.12826002  1
  Cu  Cu3  1  0.28784598  0.62375500  0.12826002  1
  Cu  Cu4  1  0.62375497  0.96013900  0.12826002  1
  Cu  Cu5  1  0.37624500  0.03986100  0.87174002  1
  Cu  Cu6  1  0.71215399  0.37624500  0.87174003  1
  Cu  Cu7  1  0.03986098  0.71215400  0.87174003  1
  S  S8  1  0.75284799  0.08344600  0.74420602  1
  S  S9  1  0.41949998  0.75284800  0.74420603  1
  S  S10  1  0.08344599  0.41950000  0.74420602  1
  S  S11  1  0.91655398  0.58050000  0.25579502  1
  S  S12  1  0.58049999  0.24715200  0.25579401  1
  S  S13  1  0.24715198  0.91655400  0.25579402  1
