# generated using pymatgen
data_Ca3DyMgCr3O12
_symmetry_space_group_name_H-M   'P 1'
_cell_length_a   5.45367098
_cell_length_b   5.66596413
_cell_length_c   7.74829054
_cell_angle_alpha   90.00000000
_cell_angle_beta   89.80087280
_cell_angle_gamma   90.00000000
_symmetry_Int_Tables_number   1
_chemical_formula_structural   Ca3DyMgCr3O12
_chemical_formula_sum   'Ca3 Dy1 Mg1 Cr3 O12'
_cell_volume   239.42308813
_cell_formula_units_Z   1
loop_
 _symmetry_equiv_pos_site_id
 _symmetry_equiv_pos_as_xyz
  1  'x, y, z'
loop_
 _atom_site_type_symbol
 _atom_site_label
 _atom_site_symmetry_multiplicity
 _atom_site_fract_x
 _atom_site_fract_y
 _atom_site_fract_z
 _atom_site_occupancy
  Ca  Ca0  1  0.01455800  0.94017498  0.25011901  1
  Ca  Ca1  1  0.48544198  0.44017499  0.24988103  1
  Dy  Dy2  1  0.51455798  0.55982499  0.75011904  1
  Ca  Ca3  1  0.98544196  0.05982500  0.74988106  1
  Cr  Cr4  1  0.00000000  0.49999999  -0.00000000  1
  Mg  Mg5  1  0.49999998  0.00000000  0.50000003  1
  Cr  Cr6  1  0.00000000  0.49999999  0.50000001  1
  Cr  Cr7  1  0.49999998  0.00000000  0.00000002  1
  O  O8  1  0.10041000  0.46592899  0.74266902  1
  O  O9  1  0.20676299  0.19214300  0.05100001  1
  O  O10  1  0.18675299  0.20857500  0.44708902  1
  O  O11  1  0.31324699  0.70857498  0.05291102  1
  O  O12  1  0.29323699  0.69214298  0.44900002  1
  O  O13  1  0.39958998  0.96592898  0.75733103  1
  O  O14  1  0.60040997  0.03407100  0.24266903  1
  O  O15  1  0.70676297  0.30785699  0.55100004  1
  O  O16  1  0.68675297  0.29142499  0.94708905  1
  O  O17  1  0.79323697  0.80785698  0.94900006  1
  O  O18  1  0.81324697  0.79142498  0.55291105  1
  O  O19  1  0.89958996  0.53407099  0.25733105  1
