# generated using pymatgen
data_Cs2Cd3Te7
_symmetry_space_group_name_H-M   'P 1'
_cell_length_a   4.51552820
_cell_length_b   8.97592068
_cell_length_c   11.81866455
_cell_angle_alpha   90.00000000
_cell_angle_beta   90.00000000
_cell_angle_gamma   104.56840515
_symmetry_Int_Tables_number   1
_chemical_formula_structural   Cs2Cd3Te7
_chemical_formula_sum   'Cs2 Cd3 Te7'
_cell_volume   463.62104176
_cell_formula_units_Z   1
loop_
 _symmetry_equiv_pos_site_id
 _symmetry_equiv_pos_as_xyz
  1  'x, y, z'
loop_
 _atom_site_type_symbol
 _atom_site_label
 _atom_site_symmetry_multiplicity
 _atom_site_fract_x
 _atom_site_fract_y
 _atom_site_fract_z
 _atom_site_occupancy
  Cs  Cs0  1  0.24874303  0.49748600  0.75000003  1
  Cs  Cs1  1  0.75125701  0.50251400  0.25000001  1
  Cd  Cd2  1  0.00000000  0.00000000  0.50000002  1
  Te  Te3  1  0.00000000  0.00000000  0.00000000  1
  Cd  Cd4  1  0.46205106  0.92410199  0.25000001  1
  Cd  Cd5  1  0.53794898  0.07589800  0.75000003  1
  Te  Te6  1  0.38114405  0.76228799  0.04390500  1
  Te  Te7  1  0.61885599  0.23771200  0.95609504  1
  Te  Te8  1  0.93541503  0.87082999  0.75000003  1
  Te  Te9  1  0.06458501  0.12917000  0.25000001  1
  Te  Te10  1  0.38114405  0.76228799  0.45609502  1
  Te  Te11  1  0.61885599  0.23771200  0.54390502  1
