# generated using pymatgen
data_Li2VF11
_symmetry_space_group_name_H-M   'P 1'
_cell_length_a   5.29252672
_cell_length_b   5.61769485
_cell_length_c   7.13515091
_cell_angle_alpha   106.90293884
_cell_angle_beta   95.00865936
_cell_angle_gamma   114.52117920
_symmetry_Int_Tables_number   1
_chemical_formula_structural   Li2VF11
_chemical_formula_sum   'Li2 V1 F11'
_cell_volume   179.32131860
_cell_formula_units_Z   1
loop_
 _symmetry_equiv_pos_site_id
 _symmetry_equiv_pos_as_xyz
  1  'x, y, z'
loop_
 _atom_site_type_symbol
 _atom_site_label
 _atom_site_symmetry_multiplicity
 _atom_site_fract_x
 _atom_site_fract_y
 _atom_site_fract_z
 _atom_site_occupancy
  Li  Li0  1  0.67736799  0.29286897  0.23940997  1
  Li  Li1  1  0.32263194  0.70713093  0.76058993  1
  F  F2  1  0.00000000  0.00000000  0.49999998  1
  F  F3  1  0.00000000  0.00000000  0.00000000  1
  F  F4  1  0.86757102  0.00826600  0.74401397  1
  F  F5  1  0.78600600  0.16386598  0.44514097  1
  F  F6  1  0.99044496  0.66554793  0.87298992  1
  F  F7  1  0.69940995  0.65386193  0.37036894  1
  F  F8  1  0.37424199  0.16797898  0.99322995  1
  F  F9  1  0.13242890  0.99173390  0.25598593  1
  F  F10  1  0.62575793  0.83202092  0.00676994  1
  F  F11  1  0.30058997  0.34613797  0.62963095  1
  V  V12  1  0.00955497  0.33445197  0.12700997  1
  F  F13  1  0.21399392  0.83613392  0.55485893  1
