# generated using pymatgen
data_Zr4Mn7Sn6
_symmetry_space_group_name_H-M   'P 1'
_cell_length_a   7.46574020
_cell_length_b   7.46574020
_cell_length_c   7.46574020
_cell_angle_alpha   109.47122192
_cell_angle_beta   109.47122192
_cell_angle_gamma   109.47122192
_symmetry_Int_Tables_number   1
_chemical_formula_structural   Zr4Mn7Sn6
_chemical_formula_sum   'Zr4 Mn7 Sn6'
_cell_volume   320.32933177
_cell_formula_units_Z   1
loop_
 _symmetry_equiv_pos_site_id
 _symmetry_equiv_pos_as_xyz
  1  'x, y, z'
loop_
 _atom_site_type_symbol
 _atom_site_label
 _atom_site_symmetry_multiplicity
 _atom_site_fract_x
 _atom_site_fract_y
 _atom_site_fract_z
 _atom_site_occupancy
  Zr  Zr0  1  0.50000002  0.50000001  0.50000003  1
  Zr  Zr1  1  1.00000001  0.50000001  1.00000002  1
  Zr  Zr2  1  0.00000000  0.00000000  0.49999999  1
  Zr  Zr3  1  0.49999999  0.00000000  0.00000001  1
  Mn  Mn4  1  0.50000004  0.75000001  0.25000005  1
  Mn  Mn5  1  0.75000000  0.25000000  0.50000002  1
  Mn  Mn6  1  0.25000003  0.50000001  0.75000001  1
  Mn  Mn7  1  0.25000004  0.75000001  0.50000003  1
  Mn  Mn8  1  0.50000001  0.25000000  0.75000001  1
  Mn  Mn9  1  0.75000002  0.50000001  0.25000004  1
  Sn  Sn10  1  1.00000003  0.70348201  0.70348204  1
  Sn  Sn11  1  0.70348203  0.70348201  0.00000006  1
  Sn  Sn12  1  0.70348199  0.00000000  0.70348200  1
  Sn  Sn13  1  0.00000002  0.29651800  0.29651801  1
  Sn  Sn14  1  0.29651801  0.29651800  0.00000002  1
  Sn  Sn15  1  0.29651799  0.00000000  0.29651800  1
  Mn  Mn16  1  0.00000000  0.00000000  0.00000000  1
