# generated using pymatgen
data_K2Nb2S3
_symmetry_space_group_name_H-M   'P 1'
_cell_length_a   4.13740587
_cell_length_b   6.04440022
_cell_length_c   6.21669149
_cell_angle_alpha   73.36413574
_cell_angle_beta   70.56325531
_cell_angle_gamma   69.98591614
_symmetry_Int_Tables_number   1
_chemical_formula_structural   K2Nb2S3
_chemical_formula_sum   'K2 Nb2 S3'
_cell_volume   135.12121543
_cell_formula_units_Z   1
loop_
 _symmetry_equiv_pos_site_id
 _symmetry_equiv_pos_as_xyz
  1  'x, y, z'
loop_
 _atom_site_type_symbol
 _atom_site_label
 _atom_site_symmetry_multiplicity
 _atom_site_fract_x
 _atom_site_fract_y
 _atom_site_fract_z
 _atom_site_occupancy
  K  K0  1  0.43062808  0.83551000  0.30323399  1
  K  K1  1  0.56937204  0.16449000  0.69676597  1
  Nb  Nb2  1  0.79884406  0.31596700  0.08634497  1
  Nb  Nb3  1  0.20115606  0.68403300  0.91365500  1
  S  S4  1  0.84261309  0.60229800  0.71247597  1
  S  S5  1  0.15738704  0.39770200  0.28752400  1
  S  S6  1  0.00000000  0.00000000  0.00000000  1
