# generated using pymatgen
data_Ce(NiGe)2
_symmetry_space_group_name_H-M   'P 1'
_cell_length_a   4.22278976
_cell_length_b   4.22278976
_cell_length_c   5.81579590
_cell_angle_alpha   111.28730774
_cell_angle_beta   111.28730774
_cell_angle_gamma   90.00000000
_symmetry_Int_Tables_number   1
_chemical_formula_structural   Ce(NiGe)2
_chemical_formula_sum   'Ce1 Ni2 Ge2'
_cell_volume   88.99468150
_cell_formula_units_Z   1
loop_
 _symmetry_equiv_pos_site_id
 _symmetry_equiv_pos_as_xyz
  1  'x, y, z'
loop_
 _atom_site_type_symbol
 _atom_site_label
 _atom_site_symmetry_multiplicity
 _atom_site_fract_x
 _atom_site_fract_y
 _atom_site_fract_z
 _atom_site_occupancy
  Ce  Ce0  1  0.00000000  0.00000000  0.00000000  1
  Ge  Ge1  1  0.63334199  0.63334202  0.26668394  1
  Ge  Ge2  1  0.36665799  0.36665801  0.73331598  1
  Ni  Ni3  1  0.75000001  0.25000001  0.49999996  1
  Ni  Ni4  1  0.24999997  0.75000002  0.49999995  1
