# generated using pymatgen
data_Sm2Fe4B11Ru
_symmetry_space_group_name_H-M   'P 1'
_cell_length_a   5.00277996
_cell_length_b   5.00277996
_cell_length_c   6.97422314
_cell_angle_alpha   90.00000000
_cell_angle_beta   90.00000000
_cell_angle_gamma   90.00000000
_symmetry_Int_Tables_number   1
_chemical_formula_structural   Sm2Fe4B11Ru
_chemical_formula_sum   'Sm2 Fe4 B11 Ru1'
_cell_volume   174.54951298
_cell_formula_units_Z   1
loop_
 _symmetry_equiv_pos_site_id
 _symmetry_equiv_pos_as_xyz
  1  'x, y, z'
loop_
 _atom_site_type_symbol
 _atom_site_label
 _atom_site_symmetry_multiplicity
 _atom_site_fract_x
 _atom_site_fract_y
 _atom_site_fract_z
 _atom_site_occupancy
  Sm  Sm0  1  0.75000001  0.25000000  0.25000000  1
  Sm  Sm1  1  0.25000000  0.75000001  0.74999999  1
  Fe  Fe2  1  0.00390900  0.75000001  0.11275500  1
  Fe  Fe3  1  0.49609100  0.75000001  0.11275500  1
  B  B4  1  0.75000001  0.00390900  0.61275499  1
  B  B5  1  0.75000001  0.49609100  0.61275499  1
  B  B6  1  0.99609101  0.25000000  0.88724498  1
  B  B7  1  0.50390900  0.25000000  0.88724498  1
  Fe  Fe8  1  0.25000000  0.99609101  0.38724499  1
  Fe  Fe9  1  0.25000000  0.50390900  0.38724499  1
  B  B10  1  0.57551400  0.75000001  0.40798499  1
  B  B11  1  0.92448601  0.75000001  0.40798499  1
  Ru  Ru12  1  0.75000001  0.57551400  0.90798498  1
  B  B13  1  0.75000001  0.92448601  0.90798498  1
  B  B14  1  0.42448600  0.25000000  0.59201499  1
  B  B15  1  0.07551400  0.25000000  0.59201499  1
  B  B16  1  0.25000000  0.42448600  0.09201500  1
  B  B17  1  0.25000000  0.07551400  0.09201500  1
