# generated using pymatgen
data_Zr4V3(CoSn)3
_symmetry_space_group_name_H-M   'P 1'
_cell_length_a   5.46017408
_cell_length_b   5.46017361
_cell_length_c   9.00659084
_cell_angle_alpha   90.00000000
_cell_angle_beta   90.00000000
_cell_angle_gamma   120.00000000
_symmetry_Int_Tables_number   1
_chemical_formula_structural   Zr4V3(CoSn)3
_chemical_formula_sum   'Zr4 V3 Co3 Sn3'
_cell_volume   232.54339368
_cell_formula_units_Z   1
loop_
 _symmetry_equiv_pos_site_id
 _symmetry_equiv_pos_as_xyz
  1  'x, y, z'
loop_
 _atom_site_type_symbol
 _atom_site_label
 _atom_site_symmetry_multiplicity
 _atom_site_fract_x
 _atom_site_fract_y
 _atom_site_fract_z
 _atom_site_occupancy
  Zr  Zr0  1  0.00000000  0.00000000  0.00000000  1
  V  V1  1  0.49999997  0.49999999  0.24852600  1
  Co  Co2  1  -0.00000002  0.49999999  0.75147401  1
  Co  Co3  1  0.49999997  0.49999999  0.75147401  1
  Co  Co4  1  0.49999999  0.00000000  0.75147401  1
  V  V5  1  0.49999999  0.00000000  0.24852600  1
  V  V6  1  -0.00000002  0.49999999  0.24852600  1
  Zr  Zr7  1  0.66666664  0.33333333  0.50000001  1
  Zr  Zr8  1  0.33333330  0.66666666  0.50000001  1
  Sn  Sn9  1  0.66666664  0.33333333  -0.00000000  1
  Sn  Sn10  1  0.33333330  0.66666666  -0.00000000  1
  Zr  Zr11  1  0.00000000  0.00000000  0.66638801  1
  Sn  Sn12  1  0.00000000  0.00000000  0.33361201  1
