# generated using pymatgen
data_SrCaBrO
_symmetry_space_group_name_H-M   'P 1'
_cell_length_a   3.51403189
_cell_length_b   5.00300694
_cell_length_c   10.33736420
_cell_angle_alpha   90.00000000
_cell_angle_beta   99.78592682
_cell_angle_gamma   90.00000000
_symmetry_Int_Tables_number   1
_chemical_formula_structural   SrCaBrO
_chemical_formula_sum   'Sr2 Ca2 Br2 O2'
_cell_volume   179.09401440
_cell_formula_units_Z   2
loop_
 _symmetry_equiv_pos_site_id
 _symmetry_equiv_pos_as_xyz
  1  'x, y, z'
loop_
 _atom_site_type_symbol
 _atom_site_label
 _atom_site_symmetry_multiplicity
 _atom_site_fract_x
 _atom_site_fract_y
 _atom_site_fract_z
 _atom_site_occupancy
  Sr  Sr0  1  0.21893101  0.75000001  0.43786199  1
  Sr  Sr1  1  0.78106902  0.25000000  0.56213798  1
  Ca  Ca2  1  0.37882601  0.75000001  0.75765199  1
  Ca  Ca3  1  0.62117401  0.25000000  0.24234799  1
  Br  Br4  1  0.03886800  0.75000001  0.07773600  1
  Br  Br5  1  0.96113202  0.25000000  0.92226397  1
  O  O6  1  0.80091202  0.75000001  0.60182398  1
  O  O7  1  0.19908800  0.25000000  0.39817599  1
