# generated using pymatgen
data_RbNa3V4O12
_symmetry_space_group_name_H-M   'P 1'
_cell_length_a   5.93297958
_cell_length_b   7.47269917
_cell_length_c   7.47269917
_cell_angle_alpha   87.03321838
_cell_angle_beta   79.28910828
_cell_angle_gamma   79.28910828
_symmetry_Int_Tables_number   1
_chemical_formula_structural   RbNa3V4O12
_chemical_formula_sum   'Rb1 Na3 V4 O12'
_cell_volume   319.81027495
_cell_formula_units_Z   1
loop_
 _symmetry_equiv_pos_site_id
 _symmetry_equiv_pos_as_xyz
  1  'x, y, z'
loop_
 _atom_site_type_symbol
 _atom_site_label
 _atom_site_symmetry_multiplicity
 _atom_site_fract_x
 _atom_site_fract_y
 _atom_site_fract_z
 _atom_site_occupancy
  Na  Na0  1  0.74999998  0.19803700  0.80196301  1
  Rb  Rb1  1  0.25000002  0.80196301  0.19803695  1
  Na  Na2  1  0.74999999  0.59456801  0.40543197  1
  Na  Na3  1  0.25000001  0.40543200  0.59456798  1
  V  V4  1  0.22238500  0.29894700  0.12933698  1
  V  V5  1  0.27761502  0.87066301  0.70105295  1
  V  V6  1  0.77761500  0.70105301  0.87066297  1
  V  V7  1  0.72238498  0.12933700  0.29894700  1
  O  O8  1  0.78556800  0.91976901  0.38714095  1
  O  O9  1  0.71443199  0.61285901  0.08023097  1
  O  O10  1  0.21443199  0.08023100  0.61285900  1
  O  O11  1  0.28556800  0.38714100  0.91976899  1
  O  O12  1  0.51398901  0.85836301  0.83123096  1
  O  O13  1  0.98601097  0.16876900  0.14163700  1
  O  O14  1  0.48601099  0.14163700  0.16876900  1
  O  O15  1  0.01398903  0.83123101  0.85836295  1
  O  O16  1  0.14940701  0.46226400  0.28708197  1
  O  O17  1  0.35059301  0.71291801  0.53773596  1
  O  O18  1  0.85059299  0.53773601  0.71291798  1
  O  O19  1  0.64940699  0.28708200  0.46226399  1
