# generated using pymatgen
data_MnS2
_symmetry_space_group_name_H-M   'P 1'
_cell_length_a   3.52916193
_cell_length_b   4.58622980
_cell_length_c   5.60904217
_cell_angle_alpha   90.00000000
_cell_angle_beta   90.00000000
_cell_angle_gamma   90.00000000
_symmetry_Int_Tables_number   1
_chemical_formula_structural   MnS2
_chemical_formula_sum   'Mn2 S4'
_cell_volume   90.78541909
_cell_formula_units_Z   2
loop_
 _symmetry_equiv_pos_site_id
 _symmetry_equiv_pos_as_xyz
  1  'x, y, z'
loop_
 _atom_site_type_symbol
 _atom_site_label
 _atom_site_symmetry_multiplicity
 _atom_site_fract_x
 _atom_site_fract_y
 _atom_site_fract_z
 _atom_site_occupancy
  Mn  Mn0  1  0.50000001  0.50000002  0.49999999  1
  Mn  Mn1  1  0.00000000  0.00000000  0.00000000  1
  S  S2  1  0.50000001  0.31653701  0.88924997  1
  S  S3  1  0.00000000  0.18346301  0.38924999  1
  S  S4  1  0.00000000  0.81653704  0.61074998  1
  S  S5  1  0.50000001  0.68346303  0.11075000  1
