# generated using pymatgen
data_CeAl4Ni
_symmetry_space_group_name_H-M   'P 1'
_cell_length_a   4.08689594
_cell_length_b   6.61744308
_cell_length_c   7.88753176
_cell_angle_alpha   90.00000000
_cell_angle_beta   105.01507568
_cell_angle_gamma   90.00000000
_symmetry_Int_Tables_number   1
_chemical_formula_structural   CeAl4Ni
_chemical_formula_sum   'Ce2 Al8 Ni2'
_cell_volume   206.03360368
_cell_formula_units_Z   2
loop_
 _symmetry_equiv_pos_site_id
 _symmetry_equiv_pos_as_xyz
  1  'x, y, z'
loop_
 _atom_site_type_symbol
 _atom_site_label
 _atom_site_symmetry_multiplicity
 _atom_site_fract_x
 _atom_site_fract_y
 _atom_site_fract_z
 _atom_site_occupancy
  Ce  Ce0  1  0.88006901  0.25000000  0.76013798  1
  Ce  Ce1  1  0.11993100  0.74999999  0.23986199  1
  Al  Al2  1  0.31479200  0.55122699  0.62958398  1
  Al  Al3  1  0.07020500  0.25000000  0.14041000  1
  Al  Al4  1  0.50000001  0.99999999  0.99999997  1
  Al  Al5  1  0.68520801  0.44877299  0.37041599  1
  Al  Al6  1  0.50000001  0.49999999  0.99999997  1
  Al  Al7  1  0.68520801  0.05122700  0.37041599  1
  Al  Al8  1  0.31479200  0.94877299  0.62958398  1
  Al  Al9  1  0.92979501  0.74999999  0.85958997  1
  Ni  Ni10  1  0.77544501  0.74999999  0.55088998  1
  Ni  Ni11  1  0.22455500  0.25000000  0.44910999  1
