# generated using pymatgen
data_Bi6Br5O9
_symmetry_space_group_name_H-M   'P 1'
_cell_length_a   3.66086006
_cell_length_b   8.87906742
_cell_length_c   12.84671307
_cell_angle_alpha   90.00000000
_cell_angle_beta   90.00000000
_cell_angle_gamma   90.00000000
_symmetry_Int_Tables_number   1
_chemical_formula_structural   Bi6Br5O9
_chemical_formula_sum   'Bi6 Br5 O9'
_cell_volume   417.58270762
_cell_formula_units_Z   1
loop_
 _symmetry_equiv_pos_site_id
 _symmetry_equiv_pos_as_xyz
  1  'x, y, z'
loop_
 _atom_site_type_symbol
 _atom_site_label
 _atom_site_symmetry_multiplicity
 _atom_site_fract_x
 _atom_site_fract_y
 _atom_site_fract_z
 _atom_site_occupancy
  Bi  Bi0  1  0.74999999  0.34336498  0.45634000  1
  Bi  Bi1  1  0.25000000  0.65663497  0.54366000  1
  Br  Br2  1  0.74999999  0.84336496  0.04366000  1
  Br  Br3  1  0.25000000  0.15663499  0.95634000  1
  Bi  Bi4  1  0.74999999  0.97440195  0.65972200  1
  Bi  Bi5  1  0.25000000  0.02559800  0.34027800  1
  Bi  Bi6  1  0.74999999  0.47440198  0.84027800  1
  Bi  Bi7  1  0.25000000  0.52559798  0.15972200  1
  O  O8  1  0.74999999  0.21180499  0.29092500  1
  O  O9  1  0.25000000  0.17342399  0.51310100  1
  Br  Br10  1  0.74999999  0.32657598  0.01310100  1
  Br  Br11  1  0.25000000  0.67342397  0.98689899  1
  O  O12  1  0.25000000  0.49659398  0.39558000  1
  O  O13  1  0.74999999  0.50340598  0.60442000  1
  Br  Br14  1  0.25000000  0.99659395  0.10442000  1
  O  O15  1  0.25000000  0.78819496  0.70907500  1
  O  O16  1  0.74999999  0.71180497  0.20907500  1
  O  O17  1  0.25000000  0.28819499  0.79092500  1
  O  O18  1  0.74999999  0.00340600  0.89558000  1
  O  O19  1  0.74999999  0.82657596  0.48689900  1
