# generated using pymatgen
data_LaCrO3
_symmetry_space_group_name_H-M   'P 1'
_cell_length_a   5.43777752
_cell_length_b   5.56924057
_cell_length_c   8.03293514
_cell_angle_alpha   90.05126190
_cell_angle_beta   88.57949829
_cell_angle_gamma   90.01828003
_symmetry_Int_Tables_number   1
_chemical_formula_structural   LaCrO3
_chemical_formula_sum   'La4 Cr4 O12'
_cell_volume   243.19687731
_cell_formula_units_Z   4
loop_
 _symmetry_equiv_pos_site_id
 _symmetry_equiv_pos_as_xyz
  1  'x, y, z'
loop_
 _atom_site_type_symbol
 _atom_site_label
 _atom_site_symmetry_multiplicity
 _atom_site_fract_x
 _atom_site_fract_y
 _atom_site_fract_z
 _atom_site_occupancy
  La  La0  1  0.25113702  0.75092599  0.50062397  1
  La  La1  1  0.75074002  0.25164200  0.00023399  1
  La  La2  1  0.74926002  0.24835000  0.49976599  1
  La  La3  1  0.24886302  0.74908099  0.99937696  1
  Cr  Cr4  1  0.25000001  0.24999700  0.24999999  1
  Cr  Cr5  1  0.25000101  0.24999700  0.74999999  1
  Cr  Cr6  1  0.75000103  0.75000299  0.74999996  1
  Cr  Cr7  1  0.75000103  0.75000399  0.24999997  1
  O  O8  1  0.74495503  0.82529398  0.50006796  1
  O  O9  1  0.24705701  0.32532799  0.99975098  1
  O  O10  1  0.25294201  0.17467300  0.50024799  1
  O  O11  1  0.75504403  0.67470599  0.99993197  1
  O  O12  1  0.02731302  0.95608098  0.78328996  1
  O  O13  1  0.54003202  0.47707299  0.28546598  1
  O  O14  1  0.95996802  0.02292700  0.21453300  1
  O  O15  1  0.47268602  0.54391799  0.71670997  1
  O  O16  1  0.46047303  0.97817498  0.21144296  1
  O  O17  1  0.97320403  0.45654799  0.71311498  1
  O  O18  1  0.52679501  0.04345200  0.78688399  1
  O  O19  1  0.03952701  0.52182499  0.28855698  1
