# generated using pymatgen
data_La2(B3Rh2)3
_symmetry_space_group_name_H-M   'P 1'
_cell_length_a   5.61697817
_cell_length_b   5.61697721
_cell_length_c   8.57639027
_cell_angle_alpha   90.00000000
_cell_angle_beta   90.00000000
_cell_angle_gamma   120.00000000
_symmetry_Int_Tables_number   1
_chemical_formula_structural   La2(B3Rh2)3
_chemical_formula_sum   'La2 B9 Rh6'
_cell_volume   234.33683774
_cell_formula_units_Z   1
loop_
 _symmetry_equiv_pos_site_id
 _symmetry_equiv_pos_as_xyz
  1  'x, y, z'
loop_
 _atom_site_type_symbol
 _atom_site_label
 _atom_site_symmetry_multiplicity
 _atom_site_fract_x
 _atom_site_fract_y
 _atom_site_fract_z
 _atom_site_occupancy
  La  La0  1  0.00000000  0.00000000  0.29322199  1
  La  La1  1  0.00000000  0.00000000  0.70677798  1
  Rh  Rh2  1  0.33333328  0.66666667  -0.00000000  1
  Rh  Rh3  1  0.66666663  0.33333334  -0.00000000  1
  Rh  Rh4  1  0.33333328  0.66666667  0.33296699  1
  Rh  Rh5  1  0.66666663  0.33333334  0.33296699  1
  Rh  Rh6  1  0.66666663  0.33333334  0.66703298  1
  Rh  Rh7  1  0.33333328  0.66666667  0.66703298  1
  B  B8  1  0.49999999  0.00000000  0.16431199  1
  B  B9  1  0.49999995  0.50000000  0.16431199  1
  B  B10  1  -0.00000003  0.50000000  0.16431199  1
  B  B11  1  0.49999999  0.00000000  0.83568797  1
  B  B12  1  0.49999995  0.50000000  0.83568797  1
  B  B13  1  -0.00000003  0.50000000  0.83568797  1
  B  B14  1  0.49999999  0.00000000  0.49999998  1
  B  B15  1  0.49999995  0.50000000  0.49999998  1
  B  B16  1  -0.00000003  0.50000000  0.49999998  1
