# generated using pymatgen
data_In7Ag9
_symmetry_space_group_name_H-M   'P 1'
_cell_length_a   6.18842602
_cell_length_b   8.28060913
_cell_length_c   8.28060913
_cell_angle_alpha   119.99166870
_cell_angle_beta   90.00000000
_cell_angle_gamma   90.00000000
_symmetry_Int_Tables_number   1
_chemical_formula_structural   In7Ag9
_chemical_formula_sum   'In7 Ag9'
_cell_volume   367.51228326
_cell_formula_units_Z   1
loop_
 _symmetry_equiv_pos_site_id
 _symmetry_equiv_pos_as_xyz
  1  'x, y, z'
loop_
 _atom_site_type_symbol
 _atom_site_label
 _atom_site_symmetry_multiplicity
 _atom_site_fract_x
 _atom_site_fract_y
 _atom_site_fract_z
 _atom_site_occupancy
  In  In0  1  0.49999900  0.66666667  0.33333335  1
  In  In1  1  0.49999900  0.33333333  0.66666668  1
  In  In2  1  0.99999900  0.33333333  0.66666668  1
  Ag  Ag3  1  0.99999900  0.66666667  0.33333335  1
  In  In4  1  0.24999000  0.74074300  0.74074302  1
  In  In5  1  0.25001100  0.25924800  0.99999501  1
  Ag  Ag6  1  0.25001100  0.99999500  0.25924803  1
  In  In7  1  0.74999000  0.25925700  0.25925701  1
  Ag  Ag8  1  0.75001100  0.74075200  0.00000502  1
  In  In9  1  0.75001100  0.00000500  0.74075200  1
  Ag  Ag10  1  0.24999400  0.39045300  0.39045301  1
  Ag  Ag11  1  0.24999800  0.60957400  0.00000302  1
  Ag  Ag12  1  0.24999800  0.00000300  0.60957400  1
  Ag  Ag13  1  0.74999400  0.60954700  0.60954702  1
  Ag  Ag14  1  0.74999800  0.39042600  0.99999701  1
  Ag  Ag15  1  0.74999800  0.99999700  0.39042603  1
