# generated using pymatgen
data_Rb5Ag3AsAuS8
_symmetry_space_group_name_H-M   'P 1'
_cell_length_a   6.42097807
_cell_length_b   7.53179550
_cell_length_c   11.13340092
_cell_angle_alpha   82.93945312
_cell_angle_beta   73.23987579
_cell_angle_gamma   64.76967621
_symmetry_Int_Tables_number   1
_chemical_formula_structural   Rb5Ag3AsAuS8
_chemical_formula_sum   'Rb5 Ag3 As1 Au1 S8'
_cell_volume   466.37250953
_cell_formula_units_Z   1
loop_
 _symmetry_equiv_pos_site_id
 _symmetry_equiv_pos_as_xyz
  1  'x, y, z'
loop_
 _atom_site_type_symbol
 _atom_site_label
 _atom_site_symmetry_multiplicity
 _atom_site_fract_x
 _atom_site_fract_y
 _atom_site_fract_z
 _atom_site_occupancy
  Rb  Rb0  1  0.31290299  0.00000000  0.37419402  1
  Rb  Rb1  1  0.68709698  0.00000000  0.62580605  1
  Rb  Rb2  1  0.06290301  0.49999999  0.87419404  1
  Rb  Rb3  1  0.43709700  0.49999999  0.12580602  1
  Ag  Ag4  1  0.67523399  0.49999999  0.64953205  1
  Rb  Rb5  1  0.92523398  0.00000000  0.14953203  1
  Ag  Ag6  1  0.07476602  0.99999998  0.85046804  1
  Ag  Ag7  1  0.82476599  0.49999999  0.35046804  1
  Au  Au8  1  0.49999999  0.00000000  0.00000001  1
  As  As9  1  0.25000000  0.49999999  0.50000003  1
  S  S10  1  0.01697901  0.70230899  0.37870102  1
  S  S11  1  0.09799000  0.29768999  0.62129803  1
  S  S12  1  0.14567900  0.20231000  0.12129901  1
  S  S13  1  0.28071301  0.70230899  0.62129803  1
  S  S14  1  0.65200999  0.20231000  0.87870205  1
  S  S15  1  0.60432099  0.29768999  0.37870103  1
  S  S16  1  0.46928700  0.79769099  0.87870205  1
  S  S17  1  0.73302100  0.79769099  0.12129903  1
