# generated using pymatgen
data_Sm4Eu(FeB3)2
_symmetry_space_group_name_H-M   'P 1'
_cell_length_a   5.39013052
_cell_length_b   5.39013052
_cell_length_c   8.39797974
_cell_angle_alpha   71.28153229
_cell_angle_beta   71.28153229
_cell_angle_gamma   59.99999619
_symmetry_Int_Tables_number   1
_chemical_formula_structural   Sm4Eu(FeB3)2
_chemical_formula_sum   'Sm4 Eu1 Fe2 B6'
_cell_volume   196.25889788
_cell_formula_units_Z   1
loop_
 _symmetry_equiv_pos_site_id
 _symmetry_equiv_pos_as_xyz
  1  'x, y, z'
loop_
 _atom_site_type_symbol
 _atom_site_label
 _atom_site_symmetry_multiplicity
 _atom_site_fract_x
 _atom_site_fract_y
 _atom_site_fract_z
 _atom_site_occupancy
  Eu  Eu0  1  0.00000000  0.00000000  0.00000000  1
  Sm  Sm1  1  0.74924302  0.74924298  0.75227097  1
  Sm  Sm2  1  0.25075701  0.25075699  0.24772899  1
  Sm  Sm3  1  0.58310701  0.58310698  0.25067998  1
  Sm  Sm4  1  0.41689301  0.41689299  0.74931997  1
  Fe  Fe5  1  0.88017002  0.88016997  0.35948997  1
  Fe  Fe6  1  0.11983000  0.11983000  0.64050998  1
  B  B7  1  0.16850003  0.83149998  0.49999998  1
  B  B8  1  0.50000000  0.16849999  0.49999998  1
  B  B9  1  0.83150001  0.49999999  0.49999998  1
  B  B10  1  0.50000002  0.83149998  0.49999997  1
  B  B11  1  0.16850001  0.49999999  0.49999998  1
  B  B12  1  0.83149999  0.16849999  0.49999998  1
