# generated using pymatgen
data_Na2Fe2O3
_symmetry_space_group_name_H-M   'P 1'
_cell_length_a   3.33572793
_cell_length_b   5.48582506
_cell_length_c   5.50824118
_cell_angle_alpha   105.43047333
_cell_angle_beta   90.00000000
_cell_angle_gamma   107.69991302
_symmetry_Int_Tables_number   1
_chemical_formula_structural   Na2Fe2O3
_chemical_formula_sum   'Na2 Fe2 O3'
_cell_volume   92.20386603
_cell_formula_units_Z   1
loop_
 _symmetry_equiv_pos_site_id
 _symmetry_equiv_pos_as_xyz
  1  'x, y, z'
loop_
 _atom_site_type_symbol
 _atom_site_label
 _atom_site_symmetry_multiplicity
 _atom_site_fract_x
 _atom_site_fract_y
 _atom_site_fract_z
 _atom_site_occupancy
  Na  Na0  1  0.60795403  0.21590801  0.81615803  1
  Na  Na1  1  0.39204609  0.78409204  0.18384202  1
  Fe  Fe2  1  0.84463609  0.68927203  0.61282703  1
  Fe  Fe3  1  0.15536403  0.31072802  0.38717302  1
  O  O4  1  0.00000000  0.00000000  0.50000002  1
  O  O5  1  0.28213806  0.56427603  0.73263303  1
  O  O6  1  0.71786206  0.43572402  0.26736702  1
