# generated using pymatgen
data_Na6CoSb2S
_symmetry_space_group_name_H-M   'P 1'
_cell_length_a   5.74903393
_cell_length_b   6.95228815
_cell_length_c   6.95228863
_cell_angle_alpha   60.00000381
_cell_angle_beta   90.00000000
_cell_angle_gamma   90.00000000
_symmetry_Int_Tables_number   1
_chemical_formula_structural   Na6CoSb2S
_chemical_formula_sum   'Na6 Co1 Sb2 S1'
_cell_volume   240.64734676
_cell_formula_units_Z   1
loop_
 _symmetry_equiv_pos_site_id
 _symmetry_equiv_pos_as_xyz
  1  'x, y, z'
loop_
 _atom_site_type_symbol
 _atom_site_label
 _atom_site_symmetry_multiplicity
 _atom_site_fract_x
 _atom_site_fract_y
 _atom_site_fract_z
 _atom_site_occupancy
  Na  Na0  1  0.75000001  0.66666665  0.66666669  1
  Na  Na1  1  0.25000000  0.33333333  0.33333334  1
  S  S2  1  0.00000000  0.00000000  0.00000000  1
  Co  Co3  1  0.50000001  0.00000000  0.00000000  1
  Sb  Sb4  1  0.25000000  0.82922598  0.34154801  1
  Sb  Sb5  1  0.75000001  0.17077400  0.17077400  1
  Na  Na6  1  0.75000001  0.65845199  0.17077400  1
  Na  Na7  1  0.25000000  0.34154799  0.82922603  1
  Na  Na8  1  0.25000000  0.82922598  0.82922602  1
  Na  Na9  1  0.75000001  0.17077400  0.65845202  1
