# generated using pymatgen
data_SrAu2
_symmetry_space_group_name_H-M   'P 1'
_cell_length_a   4.71956778
_cell_length_b   7.58864689
_cell_length_c   8.03509140
_cell_angle_alpha   90.00000000
_cell_angle_beta   90.00000000
_cell_angle_gamma   90.00000000
_symmetry_Int_Tables_number   1
_chemical_formula_structural   SrAu2
_chemical_formula_sum   'Sr4 Au8'
_cell_volume   287.77786971
_cell_formula_units_Z   4
loop_
 _symmetry_equiv_pos_site_id
 _symmetry_equiv_pos_as_xyz
  1  'x, y, z'
loop_
 _atom_site_type_symbol
 _atom_site_label
 _atom_site_symmetry_multiplicity
 _atom_site_fract_x
 _atom_site_fract_y
 _atom_site_fract_z
 _atom_site_occupancy
  Sr  Sr0  1  0.75000004  0.48058101  0.18322999  1
  Sr  Sr1  1  0.25000001  0.01941900  0.68322997  1
  Sr  Sr2  1  0.25000001  0.51941901  0.81676996  1
  Sr  Sr3  1  0.75000004  0.98058101  0.31676998  1
  Au  Au4  1  0.75000004  0.33555700  0.57528197  1
  Au  Au5  1  0.25000001  0.66444301  0.42471798  1
  Au  Au6  1  0.25000001  0.16444300  0.07528200  1
  Au  Au7  1  0.75000004  0.83555701  0.92471795  1
  Au  Au8  1  0.75000004  0.70520701  0.60469997  1
  Au  Au9  1  0.25000001  0.29479300  0.39529998  1
  Au  Au10  1  0.25000001  0.79479301  0.10469999  1
  Au  Au11  1  0.75000004  0.20520700  0.89529996  1
