# generated using pymatgen
data_Ce2FeSi4
_symmetry_space_group_name_H-M   'P 1'
_cell_length_a   4.14112997
_cell_length_b   4.17650986
_cell_length_c   8.04532242
_cell_angle_alpha   105.04403687
_cell_angle_beta   90.00000000
_cell_angle_gamma   90.00000000
_symmetry_Int_Tables_number   1
_chemical_formula_structural   Ce2FeSi4
_chemical_formula_sum   'Ce2 Fe1 Si4'
_cell_volume   134.37857335
_cell_formula_units_Z   1
loop_
 _symmetry_equiv_pos_site_id
 _symmetry_equiv_pos_as_xyz
  1  'x, y, z'
loop_
 _atom_site_type_symbol
 _atom_site_label
 _atom_site_symmetry_multiplicity
 _atom_site_fract_x
 _atom_site_fract_y
 _atom_site_fract_z
 _atom_site_occupancy
  Si  Si0  1  0.25000000  0.10268000  0.20535900  1
  Ce  Ce1  1  0.75000001  0.89750203  0.79500400  1
  Fe  Fe2  1  0.25000000  0.30564701  0.61129500  1
  Si  Si3  1  0.25000000  0.45292201  0.90584400  1
  Ce  Ce4  1  0.75000001  0.56291602  0.12583200  1
  Si  Si5  1  0.25000000  0.73938402  0.47876900  1
  Si  Si6  1  0.75000001  0.24194801  0.48389700  1
