# generated using pymatgen
data_Lu4Rh5O11
_symmetry_space_group_name_H-M   'P 1'
_cell_length_a   5.24320507
_cell_length_b   5.76201677
_cell_length_c   7.59347296
_cell_angle_alpha   90.00000000
_cell_angle_beta   90.00000000
_cell_angle_gamma   90.00000000
_symmetry_Int_Tables_number   1
_chemical_formula_structural   Lu4Rh5O11
_chemical_formula_sum   'Lu4 Rh5 O11'
_cell_volume   229.40971895
_cell_formula_units_Z   1
loop_
 _symmetry_equiv_pos_site_id
 _symmetry_equiv_pos_as_xyz
  1  'x, y, z'
loop_
 _atom_site_type_symbol
 _atom_site_label
 _atom_site_symmetry_multiplicity
 _atom_site_fract_x
 _atom_site_fract_y
 _atom_site_fract_z
 _atom_site_occupancy
  Lu  Lu0  1  0.03268700  0.41330002  0.25000000  1
  Lu  Lu1  1  0.96731299  0.58670002  0.75000000  1
  Lu  Lu2  1  0.53268699  0.08670000  0.75000000  1
  Lu  Lu3  1  0.46731299  0.91330004  0.25000000  1
  Rh  Rh4  1  0.00000000  0.00000000  0.00000000  1
  Rh  Rh5  1  0.49999999  0.50000002  -0.00000000  1
  Rh  Rh6  1  0.00000000  0.00000000  0.50000000  1
  Rh  Rh7  1  0.49999999  0.50000002  0.50000000  1
  O  O8  1  0.32399700  0.18914901  0.06701200  1
  O  O9  1  0.67600299  0.81085103  0.93298801  1
  O  O10  1  0.82399699  0.31085101  0.93298801  1
  O  O11  1  0.67600299  0.81085103  0.56701200  1
  O  O12  1  0.17600300  0.68914903  0.06701200  1
  O  O13  1  0.32399700  0.18914901  0.43298800  1
  O  O14  1  0.17600300  0.68914903  0.43298800  1
  O  O15  1  0.82399699  0.31085101  0.56701200  1
  O  O16  1  0.64437299  0.55883802  0.25000000  1
  O  O17  1  0.35562700  0.44116202  0.75000000  1
  Rh  Rh18  1  0.14437300  0.94116204  0.75000000  1
  O  O19  1  0.85562699  0.05883800  0.25000000  1
