# generated using pymatgen
data_K2SiAs2
_symmetry_space_group_name_H-M   'P 1'
_cell_length_a   6.09371996
_cell_length_b   7.05777597
_cell_length_c   8.10093880
_cell_angle_alpha   115.82441711
_cell_angle_beta   112.09305573
_cell_angle_gamma   90.00000000
_symmetry_Int_Tables_number   1
_chemical_formula_structural   K2SiAs2
_chemical_formula_sum   'K4 Si2 As4'
_cell_volume   284.92280898
_cell_formula_units_Z   2
loop_
 _symmetry_equiv_pos_site_id
 _symmetry_equiv_pos_as_xyz
  1  'x, y, z'
loop_
 _atom_site_type_symbol
 _atom_site_label
 _atom_site_symmetry_multiplicity
 _atom_site_fract_x
 _atom_site_fract_y
 _atom_site_fract_z
 _atom_site_occupancy
  K  K0  1  0.64698500  0.31234000  0.29396998  1
  K  K1  1  0.14698600  0.98163101  0.29397100  1
  K  K2  1  0.35301500  0.68766001  0.70602997  1
  K  K3  1  0.85301400  0.01836900  0.70602895  1
  Si  Si4  1  0.25000000  0.50000001  0.00000001  1
  Si  Si5  1  0.75000000  0.50000001  -0.00000000  1
  As  As6  1  0.59492400  0.76729101  0.18984800  1
  As  As7  1  0.09492400  0.42255701  0.18984800  1
  As  As8  1  0.40507600  0.23270900  0.81015196  1
  As  As9  1  0.90507600  0.57744301  0.81015196  1
