# generated using pymatgen
data_KLiBr3
_symmetry_space_group_name_H-M   'P 1'
_cell_length_a   5.46203852
_cell_length_b   5.46191216
_cell_length_c   5.46445847
_cell_angle_alpha   90.03123474
_cell_angle_beta   89.97426605
_cell_angle_gamma   89.97633362
_symmetry_Int_Tables_number   1
_chemical_formula_structural   KLiBr3
_chemical_formula_sum   'K1 Li1 Br3'
_cell_volume   163.02208873
_cell_formula_units_Z   1
loop_
 _symmetry_equiv_pos_site_id
 _symmetry_equiv_pos_as_xyz
  1  'x, y, z'
loop_
 _atom_site_type_symbol
 _atom_site_label
 _atom_site_symmetry_multiplicity
 _atom_site_fract_x
 _atom_site_fract_y
 _atom_site_fract_z
 _atom_site_occupancy
  K  K0  1  0.99307140  0.99934621  0.99755318  1
  Li  Li1  1  0.48803465  0.50051814  0.49945426  1
  Br  Br2  1  0.48451657  0.00039615  0.49331631  1
  Br  Br3  1  0.98748911  0.50233529  0.50069835  1
  Br  Br4  1  0.48688619  0.49740622  0.99897785  1
