# generated using pymatgen
data_Rb3Te2I5(OF)4
_symmetry_space_group_name_H-M   'P 1'
_cell_length_a   7.28472185
_cell_length_b   7.40979052
_cell_length_c   7.40979052
_cell_angle_alpha   60.13397217
_cell_angle_beta   60.55679321
_cell_angle_gamma   60.55679321
_symmetry_Int_Tables_number   1
_chemical_formula_structural   Rb3Te2I5(OF)4
_chemical_formula_sum   'Rb3 Te2 I5 O4 F4'
_cell_volume   285.46907215
_cell_formula_units_Z   1
loop_
 _symmetry_equiv_pos_site_id
 _symmetry_equiv_pos_as_xyz
  1  'x, y, z'
loop_
 _atom_site_type_symbol
 _atom_site_label
 _atom_site_symmetry_multiplicity
 _atom_site_fract_x
 _atom_site_fract_y
 _atom_site_fract_z
 _atom_site_occupancy
  Rb  Rb0  1  0.62247901  0.12752100  0.62752099  1
  I  I1  1  0.37752100  0.87247898  0.37247901  1
  I  I2  1  0.00000000  0.00000000  0.00000000  1
  Te  Te3  1  1.00000002  0.49999999  0.50000000  1
  Te  Te4  1  0.50000001  0.49999999  0.00000001  1
  I  I5  1  -0.00000000  0.49999999  0.00000001  1
  I  I6  1  0.06295800  0.18704200  0.68704199  1
  O  O7  1  0.68132601  0.56867399  0.06867401  1
  I  I8  1  0.06802100  0.57076299  0.66869900  1
  O  O9  1  0.69251701  0.16869800  0.07076300  1
  O  O10  1  0.69251601  0.57076299  0.66869900  1
  O  O11  1  0.06802200  0.16869800  0.07076300  1
  F  F12  1  0.93704202  0.81295798  0.31295801  1
  F  F13  1  0.31867401  0.43132599  0.93132599  1
  F  F14  1  0.93197902  0.42923699  0.33130100  1
  Rb  Rb15  1  0.30748300  0.83130198  0.92923700  1
  F  F16  1  0.30748400  0.42923699  0.33130100  1
  Rb  Rb17  1  0.93197802  0.83130198  0.92923700  1
