# generated using pymatgen
data_Al8In7Cu5
_symmetry_space_group_name_H-M   'P 1'
_cell_length_a   7.63591909
_cell_length_b   7.63591909
_cell_length_c   7.63591814
_cell_angle_alpha   68.30289459
_cell_angle_beta   68.30289459
_cell_angle_gamma   68.30289459
_symmetry_Int_Tables_number   1
_chemical_formula_structural   Al8In7Cu5
_chemical_formula_sum   'Al8 In7 Cu5'
_cell_volume   370.11017161
_cell_formula_units_Z   1
loop_
 _symmetry_equiv_pos_site_id
 _symmetry_equiv_pos_as_xyz
  1  'x, y, z'
loop_
 _atom_site_type_symbol
 _atom_site_label
 _atom_site_symmetry_multiplicity
 _atom_site_fract_x
 _atom_site_fract_y
 _atom_site_fract_z
 _atom_site_occupancy
  In  In0  1  0.52922500  0.11879800  0.11879798  1
  In  In1  1  0.11879798  0.52922501  0.11879799  1
  In  In2  1  0.88120198  0.47077501  0.88120198  1
  In  In3  1  0.11879800  0.11879800  0.52922501  1
  In  In4  1  0.88120196  0.88120201  0.47077497  1
  In  In5  1  0.47077496  0.88120201  0.88120199  1
  Cu  Cu6  1  0.82491098  0.50948201  0.50948198  1
  Cu  Cu7  1  0.82146499  0.29604300  0.29604298  1
  Al  Al8  1  0.70395697  0.70395701  0.17853497  1
  Cu  Cu9  1  0.17508898  0.49051801  0.49051800  1
  Al  Al10  1  0.29604299  0.29604300  0.82146500  1
  Al  Al11  1  0.49051799  0.17508900  0.49051799  1
  Cu  Cu12  1  0.17853497  0.70395701  0.70395700  1
  In  In13  1  0.92408196  0.92408202  0.92408198  1
  Al  Al14  1  0.49051798  0.49051801  0.17508898  1
  Al  Al15  1  0.70395700  0.17853500  0.70395699  1
  Al  Al16  1  0.50948196  0.82491101  0.50948198  1
  Al  Al17  1  0.29604296  0.82146501  0.29604298  1
  Al  Al18  1  0.50948198  0.50948201  0.82491099  1
  Cu  Cu19  1  0.07591800  0.07591800  0.07591800  1
