# generated using pymatgen
data_TlAgTe2
_symmetry_space_group_name_H-M   'P 1'
_cell_length_a   4.03922367
_cell_length_b   4.03922367
_cell_length_c   7.16591930
_cell_angle_alpha   73.63021851
_cell_angle_beta   73.63021851
_cell_angle_gamma   60.00000381
_symmetry_Int_Tables_number   1
_chemical_formula_structural   TlAgTe2
_chemical_formula_sum   'Tl1 Ag1 Te2'
_cell_volume   95.73911238
_cell_formula_units_Z   1
loop_
 _symmetry_equiv_pos_site_id
 _symmetry_equiv_pos_as_xyz
  1  'x, y, z'
loop_
 _atom_site_type_symbol
 _atom_site_label
 _atom_site_symmetry_multiplicity
 _atom_site_fract_x
 _atom_site_fract_y
 _atom_site_fract_z
 _atom_site_occupancy
  Te  Te0  1  0.75838400  0.75838401  0.72484806  1
  Te  Te1  1  0.24161600  0.24161600  0.27515202  1
  Ag  Ag2  1  0.50000000  0.50000001  0.50000004  1
  Tl  Tl3  1  0.00000000  0.00000000  0.00000000  1
