# generated using pymatgen
data_CuAgO2
_symmetry_space_group_name_H-M   'P 1'
_cell_length_a   3.96819401
_cell_length_b   6.03709984
_cell_length_c   6.74372816
_cell_angle_alpha   116.59034729
_cell_angle_beta   107.11038971
_cell_angle_gamma   90.00000000
_symmetry_Int_Tables_number   1
_chemical_formula_structural   CuAgO2
_chemical_formula_sum   'Cu2 Ag2 O4'
_cell_volume   136.42437299
_cell_formula_units_Z   2
loop_
 _symmetry_equiv_pos_site_id
 _symmetry_equiv_pos_as_xyz
  1  'x, y, z'
loop_
 _atom_site_type_symbol
 _atom_site_label
 _atom_site_symmetry_multiplicity
 _atom_site_fract_x
 _atom_site_fract_y
 _atom_site_fract_z
 _atom_site_occupancy
  Cu  Cu0  1  0.99999995  0.72374600  0.99999995  1
  Cu  Cu1  1  -0.00000001  0.27625400  -0.00000002  1
  Ag  Ag2  1  0.30366795  0.80366800  0.60733595  1
  Ag  Ag3  1  0.69633198  0.19633200  0.39266398  1
  O  O4  1  0.16009495  0.91412100  0.32018994  1
  O  O5  1  0.16009398  0.40606800  0.32018897  1
  O  O6  1  0.83990596  0.59393200  0.67981095  1
  O  O7  1  0.83990499  0.08587900  0.67980999  1
