# generated using pymatgen
data_Zr9Sn8Pd
_symmetry_space_group_name_H-M   'P 1'
_cell_length_a   5.88508415
_cell_length_b   8.66997814
_cell_length_c   8.66997910
_cell_angle_alpha   120.00000000
_cell_angle_beta   90.00000000
_cell_angle_gamma   90.00000000
_symmetry_Int_Tables_number   1
_chemical_formula_structural   Zr9Sn8Pd
_chemical_formula_sum   'Zr9 Sn8 Pd1'
_cell_volume   383.10636006
_cell_formula_units_Z   1
loop_
 _symmetry_equiv_pos_site_id
 _symmetry_equiv_pos_as_xyz
  1  'x, y, z'
loop_
 _atom_site_type_symbol
 _atom_site_label
 _atom_site_symmetry_multiplicity
 _atom_site_fract_x
 _atom_site_fract_y
 _atom_site_fract_z
 _atom_site_occupancy
  Zr  Zr0  1  0.24999999  0.73091601  0.99999999  1
  Zr  Zr1  1  0.74999998  0.73091601  0.73091600  1
  Sn  Sn2  1  0.24999999  0.26908400  0.26908400  1
  Zr  Zr3  1  0.24999999  1.00000001  0.73091602  1
  Sn  Sn4  1  0.74999998  0.00000000  0.26908399  1
  Zr  Zr5  1  0.74999998  0.26908400  0.99999997  1
  Zr  Zr6  1  0.49999999  0.66666667  0.33333335  1
  Sn  Sn7  1  0.99999997  0.66666667  0.33333335  1
  Zr  Zr8  1  0.49999999  0.33333334  0.66666665  1
  Zr  Zr9  1  0.99999997  0.33333334  0.66666665  1
  Pd  Pd10  1  0.49999999  0.00000000  -0.00000000  1
  Zr  Zr11  1  0.00000000  0.00000000  0.00000000  1
  Zr  Zr12  1  0.24999999  0.00000000  0.38533198  1
  Sn  Sn13  1  0.74999998  0.00000000  0.61466797  1
  Sn  Sn14  1  0.74999998  0.61466801  0.99999999  1
  Sn  Sn15  1  0.24999999  0.61466801  0.61466800  1
  Sn  Sn16  1  0.24999999  0.38533200  0.00000002  1
  Sn  Sn17  1  0.74999998  0.38533200  0.38533200  1
