# generated using pymatgen
data_Mn13P5
_symmetry_space_group_name_H-M   'P 1'
_cell_length_a   3.32482409
_cell_length_b   6.14102602
_cell_length_c   10.68292904
_cell_angle_alpha   89.71154022
_cell_angle_beta   90.00000000
_cell_angle_gamma   90.00000000
_symmetry_Int_Tables_number   1
_chemical_formula_structural   Mn13P5
_chemical_formula_sum   'Mn13 P5'
_cell_volume   218.11947832
_cell_formula_units_Z   1
loop_
 _symmetry_equiv_pos_site_id
 _symmetry_equiv_pos_as_xyz
  1  'x, y, z'
loop_
 _atom_site_type_symbol
 _atom_site_label
 _atom_site_symmetry_multiplicity
 _atom_site_fract_x
 _atom_site_fract_y
 _atom_site_fract_z
 _atom_site_occupancy
  Mn  Mn0  1  0.00000000  0.87146098  0.87344098  1
  Mn  Mn1  1  0.00000000  0.87259098  0.12935001  1
  Mn  Mn2  1  0.00000000  0.37450299  0.62193098  1
  Mn  Mn3  1  0.49999999  0.60202399  0.00290601  1
  Mn  Mn4  1  0.49999999  0.10457200  0.50155298  1
  Mn  Mn5  1  0.49999999  0.19265200  0.20757300  1
  Mn  Mn6  1  0.49999999  0.69519499  0.70721198  1
  Mn  Mn7  1  0.49999999  0.70476899  0.29344700  1
  Mn  Mn8  1  0.49999999  0.19679800  0.78745197  1
  Mn  Mn9  1  0.00000000  0.25730299  0.00125901  1
  Mn  Mn10  1  0.00000000  0.75978899  0.50232599  1
  Mn  Mn11  1  0.00000000  0.36562299  0.37276399  1
  P  P12  1  0.00000000  0.99834398  0.33957601  1
  P  P13  1  0.00000000  0.49182899  0.83763597  1
  P  P14  1  0.00000000  0.48985399  0.16996400  1
  P  P15  1  0.00000000  0.99290698  0.66268399  1
  Mn  Mn16  1  0.49999999  0.01729300  0.00113300  1
  P  P17  1  0.49999999  0.51229099  0.48779199  1
