# generated using pymatgen
data_Mn3O4
_symmetry_space_group_name_H-M   'P 1'
_cell_length_a   5.88859940
_cell_length_b   5.88859940
_cell_length_c   5.88859987
_cell_angle_alpha   61.08683395
_cell_angle_beta   61.08683395
_cell_angle_gamma   61.08683014
_symmetry_Int_Tables_number   1
_chemical_formula_structural   Mn3O4
_chemical_formula_sum   'Mn6 O8'
_cell_volume   147.91722896
_cell_formula_units_Z   2
loop_
 _symmetry_equiv_pos_site_id
 _symmetry_equiv_pos_as_xyz
  1  'x, y, z'
loop_
 _atom_site_type_symbol
 _atom_site_label
 _atom_site_symmetry_multiplicity
 _atom_site_fract_x
 _atom_site_fract_y
 _atom_site_fract_z
 _atom_site_occupancy
  Mn  Mn0  1  0.12043200  0.12043200  0.12043201  1
  Mn  Mn1  1  0.87956798  0.87956803  0.87956805  1
  Mn  Mn2  1  0.50000001  0.00000000  0.50000001  1
  Mn  Mn3  1  -0.00000003  0.50000002  0.50000001  1
  Mn  Mn4  1  0.49999999  0.50000002  1.00000002  1
  Mn  Mn5  1  0.49999999  0.50000002  0.50000003  1
  O  O6  1  0.25966699  0.25966701  0.25966701  1
  O  O7  1  0.25640999  0.25641001  0.71116601  1
  O  O8  1  0.71116600  0.25641001  0.25641002  1
  O  O9  1  0.25640997  0.71116603  0.25641003  1
  O  O10  1  0.74359000  0.28883401  0.74359002  1
  O  O11  1  0.28883397  0.74359003  0.74359003  1
  O  O12  1  0.74358998  0.74359003  0.28883405  1
  O  O13  1  0.74033298  0.74033303  0.74033304  1
