# generated using pymatgen
data_Li2Ge2TeO6
_symmetry_space_group_name_H-M   'P 1'
_cell_length_a   4.96731043
_cell_length_b   4.96731043
_cell_length_c   5.12169218
_cell_angle_alpha   99.44101715
_cell_angle_beta   99.44101715
_cell_angle_gamma   119.93617249
_symmetry_Int_Tables_number   1
_chemical_formula_structural   Li2Ge2TeO6
_chemical_formula_sum   'Li2 Ge2 Te1 O6'
_cell_volume   103.46405973
_cell_formula_units_Z   1
loop_
 _symmetry_equiv_pos_site_id
 _symmetry_equiv_pos_as_xyz
  1  'x, y, z'
loop_
 _atom_site_type_symbol
 _atom_site_label
 _atom_site_symmetry_multiplicity
 _atom_site_fract_x
 _atom_site_fract_y
 _atom_site_fract_z
 _atom_site_occupancy
  Li  Li0  1  0.32924104  0.67075903  1.00000002  1
  Li  Li1  1  0.67075903  0.32924102  0.00000005  1
  Ge  Ge2  1  0.16496905  0.83503104  0.50000004  1
  Te  Te3  1  0.50000004  0.50000003  0.50000003  1
  Ge  Ge4  1  0.83503103  0.16496901  0.50000003  1
  O  O5  1  0.75512806  0.75512804  0.29671007  1
  O  O6  1  0.09202402  0.44791502  0.28462802  1
  O  O7  1  0.44791501  0.09202400  0.28462802  1
  O  O8  1  0.55208506  0.90797605  0.71537205  1
  O  O9  1  0.90797605  0.55208503  0.71537205  1
  O  O10  1  0.24487202  0.24487201  0.70329000  1
