# generated using pymatgen
data_VO2
_symmetry_space_group_name_H-M   'P 1'
_cell_length_a   4.81040001
_cell_length_b   4.95134211
_cell_length_c   6.04119349
_cell_angle_alpha   86.97467041
_cell_angle_beta   79.77030182
_cell_angle_gamma   85.61749268
_symmetry_Int_Tables_number   1
_chemical_formula_structural   VO2
_chemical_formula_sum   'V4 O8'
_cell_volume   141.07468456
_cell_formula_units_Z   4
loop_
 _symmetry_equiv_pos_site_id
 _symmetry_equiv_pos_as_xyz
  1  'x, y, z'
loop_
 _atom_site_type_symbol
 _atom_site_label
 _atom_site_symmetry_multiplicity
 _atom_site_fract_x
 _atom_site_fract_y
 _atom_site_fract_z
 _atom_site_occupancy
  V  V0  1  0.49014901  0.74620000  0.15506799  1
  V  V1  1  0.50985100  0.25380000  0.84493200  1
  V  V2  1  0.97138600  0.25689100  0.32897801  1
  V  V3  1  0.02861401  0.74310900  0.67102198  1
  O  O4  1  0.72622701  0.90428600  0.87999899  1
  O  O5  1  0.78879000  0.42766800  0.62338600  1
  O  O6  1  0.75357600  0.43441200  0.14891600  1
  O  O7  1  0.24642401  0.56558800  0.85108399  1
  O  O8  1  0.21764800  0.04341100  0.58607300  1
  O  O9  1  0.78235201  0.95658900  0.41392699  1
  O  O10  1  0.21121001  0.57233200  0.37661399  1
  O  O11  1  0.27377300  0.09571400  0.12000100  1
