# generated using pymatgen
data_BiS3Br2
_symmetry_space_group_name_H-M   'P 1'
_cell_length_a   4.28230619
_cell_length_b   4.28230619
_cell_length_c   9.37844753
_cell_angle_alpha   90.00000000
_cell_angle_beta   90.00000000
_cell_angle_gamma   90.00000000
_symmetry_Int_Tables_number   1
_chemical_formula_structural   BiS3Br2
_chemical_formula_sum   'Bi1 S3 Br2'
_cell_volume   171.98334331
_cell_formula_units_Z   1
loop_
 _symmetry_equiv_pos_site_id
 _symmetry_equiv_pos_as_xyz
  1  'x, y, z'
loop_
 _atom_site_type_symbol
 _atom_site_label
 _atom_site_symmetry_multiplicity
 _atom_site_fract_x
 _atom_site_fract_y
 _atom_site_fract_z
 _atom_site_occupancy
  Bi  Bi0  1  0.49999998  0.00000000  0.14522601  1
  S  S1  1  0.00000000  0.49999998  0.85477404  1
  Br  Br2  1  0.49999998  0.00000000  0.67978703  1
  Br  Br3  1  0.00000000  0.49999998  0.32021302  1
  S  S4  1  0.49999998  0.49999998  -0.00000000  1
  S  S5  1  0.00000000  0.00000000  0.00000000  1
