# generated using pymatgen
data_Ce2As6Pt5
_symmetry_space_group_name_H-M   'P 1'
_cell_length_a   4.16245794
_cell_length_b   4.16245747
_cell_length_c   17.67156982
_cell_angle_alpha   90.00000000
_cell_angle_beta   90.00000000
_cell_angle_gamma   120.00000000
_symmetry_Int_Tables_number   1
_chemical_formula_structural   Ce2As6Pt5
_chemical_formula_sum   'Ce2 As6 Pt5'
_cell_volume   265.15842452
_cell_formula_units_Z   1
loop_
 _symmetry_equiv_pos_site_id
 _symmetry_equiv_pos_as_xyz
  1  'x, y, z'
loop_
 _atom_site_type_symbol
 _atom_site_label
 _atom_site_symmetry_multiplicity
 _atom_site_fract_x
 _atom_site_fract_y
 _atom_site_fract_z
 _atom_site_occupancy
  Ce  Ce0  1  0.00000000  0.00000000  0.10923599  1
  Ce  Ce1  1  0.00000000  0.00000000  0.89076396  1
  Pt  Pt2  1  0.00000000  0.00000000  0.49999998  1
  Pt  Pt3  1  0.33333330  0.66666668  0.74743297  1
  Pt  Pt4  1  0.66666666  0.33333334  0.25256699  1
  Pt  Pt5  1  0.33333330  0.66666668  0.35962198  1
  Pt  Pt6  1  0.66666666  0.33333334  0.64037797  1
  As  As7  1  0.33333330  0.66666668  0.99785095  1
  As  As8  1  0.66666666  0.33333334  0.78468996  1
  As  As9  1  0.33333330  0.66666668  0.21530999  1
  As  As10  1  0.66666666  0.33333334  0.39752998  1
  As  As11  1  0.33333330  0.66666668  0.60246997  1
  As  As12  1  0.66666666  0.33333334  0.00214900  1
