# generated using pymatgen
data_Ce5S4
_symmetry_space_group_name_H-M   'P 1'
_cell_length_a   5.91608381
_cell_length_b   8.72867203
_cell_length_c   8.72867107
_cell_angle_alpha   120.00000000
_cell_angle_beta   90.00000000
_cell_angle_gamma   90.00000000
_symmetry_Int_Tables_number   1
_chemical_formula_structural   Ce5S4
_chemical_formula_sum   'Ce10 S8'
_cell_volume   390.35635434
_cell_formula_units_Z   2
loop_
 _symmetry_equiv_pos_site_id
 _symmetry_equiv_pos_as_xyz
  1  'x, y, z'
loop_
 _atom_site_type_symbol
 _atom_site_label
 _atom_site_symmetry_multiplicity
 _atom_site_fract_x
 _atom_site_fract_y
 _atom_site_fract_z
 _atom_site_occupancy
  Ce  Ce0  1  0.75000002  0.99999997  0.26672096  1
  S  S1  1  0.25000001  0.26672099  0.26672100  1
  S  S2  1  0.75000002  0.26672099  1.00000003  1
  S  S3  1  0.50000002  0.33333332  0.66666668  1
  S  S4  1  0.25000001  0.00000000  0.73327903  1
  S  S5  1  0.25000001  0.73327898  1.00000000  1
  Ce  Ce6  1  1.00000003  0.66666665  0.33333332  1
  S  S7  1  1.00000003  0.33333332  0.66666668  1
  S  S8  1  0.50000002  0.66666665  0.33333332  1
  S  S9  1  0.75000002  0.73327898  0.73327899  1
  Ce  Ce10  1  0.00000000  0.00000000  0.00000000  1
  Ce  Ce11  1  0.50000002  0.00000000  -0.00000000  1
  Ce  Ce12  1  0.75000002  0.38775599  0.38775600  1
  Ce  Ce13  1  0.25000001  0.61224398  0.61224399  1
  Ce  Ce14  1  0.75000002  0.61224398  -0.00000003  1
  Ce  Ce15  1  0.75000002  0.00000000  0.61224402  1
  Ce  Ce16  1  0.25000001  0.00000000  0.38775601  1
  Ce  Ce17  1  0.25000001  0.38775599  -0.00000002  1
