# generated using pymatgen
data_LiMg5Sb4
_symmetry_space_group_name_H-M   'P 1'
_cell_length_a   3.73817492
_cell_length_b   7.70739079
_cell_length_c   7.70739079
_cell_angle_alpha   90.00000000
_cell_angle_beta   90.00000000
_cell_angle_gamma   90.00000000
_symmetry_Int_Tables_number   1
_chemical_formula_structural   LiMg5Sb4
_chemical_formula_sum   'Li1 Mg5 Sb4'
_cell_volume   222.06206686
_cell_formula_units_Z   1
loop_
 _symmetry_equiv_pos_site_id
 _symmetry_equiv_pos_as_xyz
  1  'x, y, z'
loop_
 _atom_site_type_symbol
 _atom_site_label
 _atom_site_symmetry_multiplicity
 _atom_site_fract_x
 _atom_site_fract_y
 _atom_site_fract_z
 _atom_site_occupancy
  Mg  Mg0  1  0.50000001  0.67539302  0.17539300  1
  Mg  Mg1  1  0.50000001  0.32460701  0.82460702  1
  Mg  Mg2  1  0.50000001  0.17539300  0.32460701  1
  Mg  Mg3  1  0.50000001  0.82460702  0.67539302  1
  Mg  Mg4  1  0.00000000  0.00000000  0.00000000  1
  Li  Li5  1  0.00000000  0.50000001  0.50000001  1
  Sb  Sb6  1  0.00000000  0.12721300  0.62721302  1
  Sb  Sb7  1  0.00000000  0.87278702  0.37278701  1
  Sb  Sb8  1  0.00000000  0.62721302  0.87278702  1
  Sb  Sb9  1  0.00000000  0.37278701  0.12721300  1
