# generated using pymatgen
data_Rb3F4
_symmetry_space_group_name_H-M   'P 1'
_cell_length_a   8.25172234
_cell_length_b   8.25172234
_cell_length_c   8.25172234
_cell_angle_alpha   60.00000000
_cell_angle_beta   60.00000000
_cell_angle_gamma   60.00000000
_symmetry_Int_Tables_number   1
_chemical_formula_structural   Rb3F4
_chemical_formula_sum   'Rb6 F8'
_cell_volume   397.30023302
_cell_formula_units_Z   2
loop_
 _symmetry_equiv_pos_site_id
 _symmetry_equiv_pos_as_xyz
  1  'x, y, z'
loop_
 _atom_site_type_symbol
 _atom_site_label
 _atom_site_symmetry_multiplicity
 _atom_site_fract_x
 _atom_site_fract_y
 _atom_site_fract_z
 _atom_site_occupancy
  Rb  Rb0  1  0.37500001  0.37500001  0.87500003  1
  Rb  Rb1  1  0.37500001  0.37500001  0.37500001  1
  Rb  Rb2  1  0.37500001  0.87500003  0.37500001  1
  Rb  Rb3  1  0.87500003  0.37500001  0.37500001  1
  Rb  Rb4  1  0.75000002  0.75000002  0.75000002  1
  F  F5  1  0.00000000  0.00000000  0.00000000  1
  F  F6  1  0.62007402  0.62007402  0.13977800  1
  F  F7  1  0.62007402  0.62007402  0.62007402  1
  F  F8  1  0.62007402  0.13977800  0.62007402  1
  F  F9  1  0.13977800  0.62007402  0.62007402  1
  F  F10  1  0.12992600  0.12992600  0.61022202  1
  Rb  Rb11  1  0.12992600  0.12992600  0.12992600  1
  F  F12  1  0.12992600  0.61022202  0.12992600  1
  F  F13  1  0.61022202  0.12992600  0.12992600  1
