# generated using pymatgen
data_LiTe19
_symmetry_space_group_name_H-M   'P 1'
_cell_length_a   6.41742802
_cell_length_b   6.41742802
_cell_length_c   12.46145821
_cell_angle_alpha   104.92124176
_cell_angle_beta   104.92124176
_cell_angle_gamma   90.00000000
_symmetry_Int_Tables_number   1
_chemical_formula_structural   LiTe19
_chemical_formula_sum   'Li1 Te19'
_cell_volume   477.96903828
_cell_formula_units_Z   1
loop_
 _symmetry_equiv_pos_site_id
 _symmetry_equiv_pos_as_xyz
  1  'x, y, z'
loop_
 _atom_site_type_symbol
 _atom_site_label
 _atom_site_symmetry_multiplicity
 _atom_site_fract_x
 _atom_site_fract_y
 _atom_site_fract_z
 _atom_site_occupancy
  Te  Te0  1  0.98601099  0.13921500  0.62598198  1
  Te  Te1  1  0.36078499  0.51398900  0.37401798  1
  Te  Te2  1  0.01323299  0.86002899  0.37401798  1
  Te  Te3  1  0.26398900  0.26323300  0.87401797  1
  Te  Te4  1  0.11002899  0.76323300  0.87401797  1
  Te  Te5  1  0.86078499  0.36002900  0.37401798  1
  Te  Te6  1  0.51323300  0.01398900  0.37401799  1
  Te  Te7  1  0.13997099  0.63921500  0.62598198  1
  Te  Te8  1  0.48601099  0.98676699  0.62598197  1
  Te  Te9  1  0.73676699  0.38997100  0.12598199  1
  Te  Te10  1  0.38921499  0.73601100  0.12598199  1
  Te  Te11  1  0.76398899  0.11078500  0.87401797  1
  Li  Li12  1  0.63997099  0.48676700  0.62598198  1
  Te  Te13  1  0.88921499  0.88997099  0.12598198  1
  Te  Te14  1  0.23676700  0.23601100  0.12598199  1
  Te  Te15  1  0.61002899  0.61078500  0.87401797  1
  Te  Te16  1  0.50000000  0.00000000  -0.00000000  1
  Te  Te17  1  0.74999999  0.75000000  0.49999998  1
  Te  Te18  1  0.25000000  0.25000000  0.49999998  1
  Te  Te19  1  -0.00000000  0.50000000  -0.00000000  1
