# generated using pymatgen
data_Sm3(GePt)4
_symmetry_space_group_name_H-M   'P 1'
_cell_length_a   4.19292784
_cell_length_b   7.17417622
_cell_length_c   8.10442448
_cell_angle_alpha   116.27043915
_cell_angle_beta   104.99183655
_cell_angle_gamma   90.00000000
_symmetry_Int_Tables_number   1
_chemical_formula_structural   Sm3(GePt)4
_chemical_formula_sum   'Sm3 Ge4 Pt4'
_cell_volume   209.31426902
_cell_formula_units_Z   1
loop_
 _symmetry_equiv_pos_site_id
 _symmetry_equiv_pos_as_xyz
  1  'x, y, z'
loop_
 _atom_site_type_symbol
 _atom_site_label
 _atom_site_symmetry_multiplicity
 _atom_site_fract_x
 _atom_site_fract_y
 _atom_site_fract_z
 _atom_site_occupancy
  Sm  Sm0  1  0.00000000  0.00000000  0.00000000  1
  Sm  Sm1  1  0.87310803  0.37310799  0.74621597  1
  Sm  Sm2  1  0.12689200  0.62689198  0.25378398  1
  Pt  Pt3  1  0.50000001  0.67740397  -0.00000001  1
  Ge  Ge4  1  0.50000001  0.32259599  -0.00000001  1
  Ge  Ge5  1  0.22056401  0.22056399  0.44112798  1
  Ge  Ge6  1  0.77943602  0.77943597  0.55887197  1
  Pt  Pt7  1  0.67466302  0.37369399  0.34932598  1
  Pt  Pt8  1  0.32533701  0.02436800  0.65067398  1
  Ge  Ge9  1  0.67466301  0.97563196  0.34932597  1
  Pt  Pt10  1  0.32533700  0.62630598  0.65067397  1
