# generated using pymatgen
data_Ba3BiO6
_symmetry_space_group_name_H-M   'P 1'
_cell_length_a   6.78205729
_cell_length_b   6.78205729
_cell_length_c   7.44305849
_cell_angle_alpha   62.89670563
_cell_angle_beta   62.89670563
_cell_angle_gamma   60.00000763
_symmetry_Int_Tables_number   1
_chemical_formula_structural   Ba3BiO6
_chemical_formula_sum   'Ba3 Bi1 O6'
_cell_volume   252.14310586
_cell_formula_units_Z   1
loop_
 _symmetry_equiv_pos_site_id
 _symmetry_equiv_pos_as_xyz
  1  'x, y, z'
loop_
 _atom_site_type_symbol
 _atom_site_label
 _atom_site_symmetry_multiplicity
 _atom_site_fract_x
 _atom_site_fract_y
 _atom_site_fract_z
 _atom_site_occupancy
  Ba  Ba0  1  0.50000000  0.50000000  0.50000003  1
  Ba  Ba1  1  0.15977900  0.15977900  0.52066302  1
  Ba  Ba2  1  0.84022101  0.84022100  0.47933704  1
  Bi  Bi3  1  0.00000000  0.00000000  0.00000000  1
  O  O4  1  0.57429501  0.92324499  0.23811503  1
  O  O5  1  0.92324500  0.26434500  0.23811503  1
  O  O6  1  0.26434501  0.57429500  0.23811502  1
  O  O7  1  0.73565500  0.42570500  0.76188504  1
  O  O8  1  0.07675501  0.73565500  0.76188503  1
  O  O9  1  0.42570500  0.07675500  0.76188503  1
