# generated using pymatgen
data_ScGeIr
_symmetry_space_group_name_H-M   'P 1'
_cell_length_a   3.96172309
_cell_length_b   6.74003601
_cell_length_c   6.74003649
_cell_angle_alpha   120.00000000
_cell_angle_beta   90.00000000
_cell_angle_gamma   90.00000000
_symmetry_Int_Tables_number   1
_chemical_formula_structural   ScGeIr
_chemical_formula_sum   'Sc3 Ge3 Ir3'
_cell_volume   155.86162965
_cell_formula_units_Z   3
loop_
 _symmetry_equiv_pos_site_id
 _symmetry_equiv_pos_as_xyz
  1  'x, y, z'
loop_
 _atom_site_type_symbol
 _atom_site_label
 _atom_site_symmetry_multiplicity
 _atom_site_fract_x
 _atom_site_fract_y
 _atom_site_fract_z
 _atom_site_occupancy
  Sc  Sc0  1  0.99999998  0.40454901  0.40454902  1
  Sc  Sc1  1  -0.00000000  1.00000002  0.59545105  1
  Sc  Sc2  1  -0.00000000  0.59545101  0.00000003  1
  Ge  Ge3  1  0.49999999  0.66666668  0.33333337  1
  Ge  Ge4  1  0.49999999  0.33333334  0.66666669  1
  Ge  Ge5  1  0.00000000  0.00000000  0.00000000  1
  Ir  Ir6  1  0.49999999  0.73607402  0.73607404  1
  Ir  Ir7  1  0.49999999  1.00000002  0.26392605  1
  Ir  Ir8  1  0.49999999  0.26392601  0.00000001  1
