# generated using pymatgen
data_SmLu3Cr4O12
_symmetry_space_group_name_H-M   'P 1'
_cell_length_a   5.27090883
_cell_length_b   5.62167501
_cell_length_c   7.57156706
_cell_angle_alpha   90.00000000
_cell_angle_beta   90.07176971
_cell_angle_gamma   90.00000000
_symmetry_Int_Tables_number   1
_chemical_formula_structural   SmLu3Cr4O12
_chemical_formula_sum   'Sm1 Lu3 Cr4 O12'
_cell_volume   224.35547524
_cell_formula_units_Z   1
loop_
 _symmetry_equiv_pos_site_id
 _symmetry_equiv_pos_as_xyz
  1  'x, y, z'
loop_
 _atom_site_type_symbol
 _atom_site_label
 _atom_site_symmetry_multiplicity
 _atom_site_fract_x
 _atom_site_fract_y
 _atom_site_fract_z
 _atom_site_occupancy
  Lu  Lu0  1  0.48109202  0.56757900  0.25086101  1
  Sm  Sm1  1  0.01890800  0.06757900  0.24913900  1
  Lu  Lu2  1  0.51890802  0.43242100  0.74913900  1
  Lu  Lu3  1  0.98109203  0.93242100  0.75086101  1
  Cr  Cr4  1  0.50000002  0.00000000  0.00000001  1
  Cr  Cr5  1  0.00000000  0.50000000  0.49999999  1
  Cr  Cr6  1  0.50000002  0.00000000  0.50000000  1
  Cr  Cr7  1  0.00000000  0.50000000  -0.00000000  1
  O  O8  1  0.61257002  0.95599700  0.25132901  1
  O  O9  1  0.88743003  0.45599700  0.24867102  1
  O  O10  1  0.38743001  0.04400300  0.74867100  1
  O  O11  1  0.11257000  0.54400300  0.75132899  1
  O  O12  1  0.19083401  0.80205900  0.05666200  1
  O  O13  1  0.30916601  0.30205900  0.44333800  1
  O  O14  1  0.80371503  0.18950100  0.55607901  1
  O  O15  1  0.69628502  0.68950100  0.94392100  1
  O  O16  1  0.80916603  0.19794100  0.94333801  1
  O  O17  1  0.69083402  0.69794100  0.55666201  1
  O  O18  1  0.19628501  0.81049900  0.44392100  1
  O  O19  1  0.30371501  0.31049900  0.05607901  1
