# generated using pymatgen
data_Cs2UCu2Te7
_symmetry_space_group_name_H-M   'P 1'
_cell_length_a   4.42394400
_cell_length_b   9.00359154
_cell_length_c   11.70792007
_cell_angle_alpha   90.00000000
_cell_angle_beta   90.00000000
_cell_angle_gamma   104.22182465
_symmetry_Int_Tables_number   1
_chemical_formula_structural   Cs2UCu2Te7
_chemical_formula_sum   'Cs2 U1 Cu2 Te7'
_cell_volume   452.05012369
_cell_formula_units_Z   1
loop_
 _symmetry_equiv_pos_site_id
 _symmetry_equiv_pos_as_xyz
  1  'x, y, z'
loop_
 _atom_site_type_symbol
 _atom_site_label
 _atom_site_symmetry_multiplicity
 _atom_site_fract_x
 _atom_site_fract_y
 _atom_site_fract_z
 _atom_site_occupancy
  Cs  Cs0  1  0.74714501  0.49429000  0.25000000  1
  Cs  Cs1  1  0.25285501  0.50571000  0.75000000  1
  Te  Te2  1  0.00000000  0.00000000  0.00000000  1
  U  U3  1  0.00000000  0.00000000  0.50000000  1
  Cu  Cu4  1  0.53696900  0.07393800  0.75000000  1
  Cu  Cu5  1  0.46303103  0.92606200  0.25000000  1
  Te  Te6  1  0.05847900  0.11695800  0.25000000  1
  Te  Te7  1  0.38248002  0.76496000  0.05704500  1
  Te  Te8  1  0.61752001  0.23504000  0.55704500  1
  Te  Te9  1  0.61752001  0.23504000  0.94295499  1
  Te  Te10  1  0.94152103  0.88304200  0.75000000  1
  Te  Te11  1  0.38248002  0.76496000  0.44295500  1
