# generated using pymatgen
data_Ce5O9
_symmetry_space_group_name_H-M   'P 1'
_cell_length_a   3.90050006
_cell_length_b   3.90050006
_cell_length_c   14.21633434
_cell_angle_alpha   97.88491058
_cell_angle_beta   97.88491058
_cell_angle_gamma   90.00000000
_symmetry_Int_Tables_number   1
_chemical_formula_structural   Ce5O9
_chemical_formula_sum   'Ce5 O9'
_cell_volume   212.17649746
_cell_formula_units_Z   1
loop_
 _symmetry_equiv_pos_site_id
 _symmetry_equiv_pos_as_xyz
  1  'x, y, z'
loop_
 _atom_site_type_symbol
 _atom_site_label
 _atom_site_symmetry_multiplicity
 _atom_site_fract_x
 _atom_site_fract_y
 _atom_site_fract_z
 _atom_site_occupancy
  Ce  Ce0  1  0.65226898  0.15226900  0.30453799  1
  Ce  Ce1  1  0.24999998  0.74999998  0.49999999  1
  Ce  Ce2  1  0.84773097  0.34773099  0.69546199  1
  Ce  Ce3  1  0.44270597  0.94270598  0.88541199  1
  Ce  Ce4  1  0.05729399  0.55729399  0.11458799  1
  O  O5  1  0.10820700  0.10820700  0.21641400  1
  O  O6  1  0.69815397  0.69815398  0.39630798  1
  O  O7  1  0.30184599  0.30184599  0.60369200  1
  O  O8  1  0.89179296  0.89179298  0.78358598  1
  O  O9  1  0.40226298  0.40226299  0.80452600  1
  O  O10  1  0.00000000  0.00000000  0.00000000  1
  O  O11  1  0.59773697  0.59773699  0.19547398  1
  O  O12  1  0.20414599  0.20414600  0.40829200  1
  O  O13  1  0.79585397  0.79585398  0.59170798  1
