# generated using pymatgen
data_Mg5Zn4
_symmetry_space_group_name_H-M   'P 1'
_cell_length_a   3.40365100
_cell_length_b   7.83459377
_cell_length_c   7.83459377
_cell_angle_alpha   120.00000000
_cell_angle_beta   90.00000000
_cell_angle_gamma   90.00000000
_symmetry_Int_Tables_number   1
_chemical_formula_structural   Mg5Zn4
_chemical_formula_sum   'Mg5 Zn4'
_cell_volume   180.92918216
_cell_formula_units_Z   1
loop_
 _symmetry_equiv_pos_site_id
 _symmetry_equiv_pos_as_xyz
  1  'x, y, z'
loop_
 _atom_site_type_symbol
 _atom_site_label
 _atom_site_symmetry_multiplicity
 _atom_site_fract_x
 _atom_site_fract_y
 _atom_site_fract_z
 _atom_site_occupancy
  Mg  Mg0  1  0.50000000  0.74531201  0.74531196  1
  Zn  Zn1  1  0.50000000  1.00000001  0.25468796  1
  Zn  Zn2  1  0.50000000  0.25468800  -0.00000001  1
  Mg  Mg3  1  0.00000000  0.40413701  0.40413698  1
  Mg  Mg4  1  1.00000000  0.00000000  0.59586299  1
  Mg  Mg5  1  -0.00000000  0.59586301  0.99999996  1
  Mg  Mg6  1  0.50000000  0.66666668  0.33333331  1
  Zn  Zn7  1  0.50000000  0.33333334  0.66666664  1
  Zn  Zn8  1  0.00000000  0.00000000  0.00000000  1
