# generated using pymatgen
data_Mg2O3
_symmetry_space_group_name_H-M   'P 1'
_cell_length_a   5.37073565
_cell_length_b   5.37073565
_cell_length_c   5.71036911
_cell_angle_alpha   61.94871521
_cell_angle_beta   61.94871521
_cell_angle_gamma   60.00000381
_symmetry_Int_Tables_number   1
_chemical_formula_structural   Mg2O3
_chemical_formula_sum   'Mg4 O6'
_cell_volume   119.78422304
_cell_formula_units_Z   2
loop_
 _symmetry_equiv_pos_site_id
 _symmetry_equiv_pos_as_xyz
  1  'x, y, z'
loop_
 _atom_site_type_symbol
 _atom_site_label
 _atom_site_symmetry_multiplicity
 _atom_site_fract_x
 _atom_site_fract_y
 _atom_site_fract_z
 _atom_site_occupancy
  Mg  Mg0  1  0.64429201  0.64429201  0.06712397  1
  Mg  Mg1  1  0.85570801  0.85570801  0.43287596  1
  Mg  Mg2  1  0.14429200  0.14429200  0.56712399  1
  Mg  Mg3  1  0.35570801  0.35570800  0.93287598  1
  O  O4  1  0.75000001  0.45008800  0.74999997  1
  O  O5  1  0.54991201  0.95008801  0.24999997  1
  O  O6  1  0.95008801  0.25000000  0.24999997  1
  O  O7  1  0.04991200  0.75000001  0.74999998  1
  O  O8  1  0.45008801  0.04991200  0.74999998  1
  O  O9  1  0.25000001  0.54991201  0.24999998  1
