# generated using pymatgen
data_BiS4
_symmetry_space_group_name_H-M   'P 1'
_cell_length_a   3.80154896
_cell_length_b   9.27176762
_cell_length_c   14.43049431
_cell_angle_alpha   90.00000000
_cell_angle_beta   90.00000000
_cell_angle_gamma   90.00000000
_symmetry_Int_Tables_number   1
_chemical_formula_structural   BiS4
_chemical_formula_sum   'Bi4 S16'
_cell_volume   508.63276596
_cell_formula_units_Z   4
loop_
 _symmetry_equiv_pos_site_id
 _symmetry_equiv_pos_as_xyz
  1  'x, y, z'
loop_
 _atom_site_type_symbol
 _atom_site_label
 _atom_site_symmetry_multiplicity
 _atom_site_fract_x
 _atom_site_fract_y
 _atom_site_fract_z
 _atom_site_occupancy
  Bi  Bi0  1  0.75000001  0.34026401  0.54990399  1
  Bi  Bi1  1  0.25000000  0.65973603  0.45009599  1
  S  S2  1  0.75000001  0.84026403  0.95009598  1
  S  S3  1  0.25000000  0.15973601  0.04990400  1
  S  S4  1  0.75000001  0.96851604  0.33705999  1
  Bi  Bi5  1  0.25000000  0.03148400  0.66293999  1
  S  S6  1  0.75000001  0.46851602  0.16294000  1
  Bi  Bi7  1  0.25000000  0.53148402  0.83705998  1
  S  S8  1  0.75000001  0.48212902  0.39490999  1
  S  S9  1  0.25000000  0.51787102  0.60508999  1
  S  S10  1  0.75000001  0.98212904  0.10509000  1
  S  S11  1  0.25000000  0.01787100  0.89490998  1
  S  S12  1  0.75000001  0.83147803  0.50498699  1
  S  S13  1  0.25000000  0.16852201  0.49501299  1
  S  S14  1  0.75000001  0.33147801  0.99501298  1
  S  S15  1  0.25000000  0.66852203  0.00498700  1
  S  S16  1  0.75000001  0.21969801  0.70756798  1
  S  S17  1  0.25000000  0.78030203  0.29243199  1
  S  S18  1  0.75000001  0.71969803  0.79243198  1
  S  S19  1  0.25000000  0.28030201  0.20756800  1
