# generated using pymatgen
data_CsTiBr3
_symmetry_space_group_name_H-M   'P 1'
_cell_length_a   6.55739880
_cell_length_b   7.64187002
_cell_length_c   7.64187050
_cell_angle_alpha   60.00000000
_cell_angle_beta   90.00000000
_cell_angle_gamma   90.00000000
_symmetry_Int_Tables_number   1
_chemical_formula_structural   CsTiBr3
_chemical_formula_sum   'Cs2 Ti2 Br6'
_cell_volume   331.63590866
_cell_formula_units_Z   2
loop_
 _symmetry_equiv_pos_site_id
 _symmetry_equiv_pos_as_xyz
  1  'x, y, z'
loop_
 _atom_site_type_symbol
 _atom_site_label
 _atom_site_symmetry_multiplicity
 _atom_site_fract_x
 _atom_site_fract_y
 _atom_site_fract_z
 _atom_site_occupancy
  Cs  Cs0  1  0.75000002  0.66666668  0.66666663  1
  Cs  Cs1  1  0.25000001  0.33333334  0.33333332  1
  Ti  Ti2  1  0.50000002  0.00000000  0.00000000  1
  Ti  Ti3  1  0.00000000  0.00000000  0.00000000  1
  Br  Br4  1  0.75000002  0.16180800  0.67638398  1
  Br  Br5  1  0.25000001  0.32361600  0.83819198  1
  Br  Br6  1  0.75000002  0.67638401  0.16180797  1
  Br  Br7  1  0.25000001  0.83819201  0.32361597  1
  Br  Br8  1  0.25000001  0.83819201  0.83819196  1
  Br  Br9  1  0.75000002  0.16180800  0.16180799  1
