# generated using pymatgen
data_LiMg9N6
_symmetry_space_group_name_H-M   'P 1'
_cell_length_a   5.51760578
_cell_length_b   5.51760578
_cell_length_c   6.46269941
_cell_angle_alpha   115.26977539
_cell_angle_beta   115.26977539
_cell_angle_gamma   90.00000000
_symmetry_Int_Tables_number   1
_chemical_formula_structural   LiMg9N6
_chemical_formula_sum   'Li1 Mg9 N6'
_cell_volume   156.85146910
_cell_formula_units_Z   1
loop_
 _symmetry_equiv_pos_site_id
 _symmetry_equiv_pos_as_xyz
  1  'x, y, z'
loop_
 _atom_site_type_symbol
 _atom_site_label
 _atom_site_symmetry_multiplicity
 _atom_site_fract_x
 _atom_site_fract_y
 _atom_site_fract_z
 _atom_site_occupancy
  Mg  Mg0  1  0.19153800  0.02991000  0.72144799  1
  Mg  Mg1  1  0.47009000  0.30846200  0.27855197  1
  Mg  Mg2  1  0.00000000  0.00000000  0.00000000  1
  Li  Li3  1  0.49999999  0.50000001  -0.00000004  1
  Mg  Mg4  1  0.52990999  0.69153801  0.72144794  1
  Mg  Mg5  1  0.02990998  0.52991001  0.72144797  1
  Mg  Mg6  1  0.69153801  0.19153800  0.72144796  1
  Mg  Mg7  1  0.97009001  0.47009001  0.27855195  1
  Mg  Mg8  1  0.30846198  0.80846201  0.27855195  1
  Mg  Mg9  1  0.80846198  0.97009001  0.27855193  1
  N  N10  1  0.88113700  0.61886401  0.00000094  1
  N  N11  1  0.38113697  0.88113701  0.99999994  1
  N  N12  1  0.61886301  0.11886300  -0.00000002  1
  N  N13  1  0.11886299  0.38113601  0.99999897  1
  N  N14  1  0.74999999  0.75000001  0.49999994  1
  N  N15  1  0.25000000  0.25000000  0.49999998  1
