# generated using pymatgen
data_Na4LiO7
_symmetry_space_group_name_H-M   'P 1'
_cell_length_a   5.67612362
_cell_length_b   5.67612362
_cell_length_c   5.67612362
_cell_angle_alpha   90.44226837
_cell_angle_beta   89.55773163
_cell_angle_gamma   89.55773163
_symmetry_Int_Tables_number   1
_chemical_formula_structural   Na4LiO7
_chemical_formula_sum   'Na4 Li1 O7'
_cell_volume   182.85907485
_cell_formula_units_Z   1
loop_
 _symmetry_equiv_pos_site_id
 _symmetry_equiv_pos_as_xyz
  1  'x, y, z'
loop_
 _atom_site_type_symbol
 _atom_site_label
 _atom_site_symmetry_multiplicity
 _atom_site_fract_x
 _atom_site_fract_y
 _atom_site_fract_z
 _atom_site_occupancy
  Na  Na0  1  0.00000000  0.00000000  0.00000000  1
  Na  Na1  1  0.49999999  0.00000000  0.50000005  1
  Na  Na2  1  -0.00000003  0.49999999  0.49999999  1
  Na  Na3  1  0.49999995  0.49999999  0.00000000  1
  O  O4  1  0.60632796  0.39367199  0.39367203  1
  O  O5  1  0.10953996  0.59656998  0.10881298  1
  O  O6  1  0.40342998  0.10881300  0.89046005  1
  O  O7  1  0.89118692  0.89045998  0.59657002  1
  Li  Li8  1  0.39367195  0.60632798  0.60632801  1
  O  O9  1  0.89045995  0.40342999  0.89118706  1
  O  O10  1  0.59656993  0.89118698  0.10953999  1
  O  O11  1  0.10881299  0.10954000  0.40343002  1
