# generated using pymatgen
data_CaMg7
_symmetry_space_group_name_H-M   'P 1'
_cell_length_a   5.50202417
_cell_length_b   7.03764582
_cell_length_c   7.03764582
_cell_angle_alpha   120.00000000
_cell_angle_beta   90.00000000
_cell_angle_gamma   90.00000000
_symmetry_Int_Tables_number   1
_chemical_formula_structural   CaMg7
_chemical_formula_sum   'Ca1 Mg7'
_cell_volume   235.99779136
_cell_formula_units_Z   1
loop_
 _symmetry_equiv_pos_site_id
 _symmetry_equiv_pos_as_xyz
  1  'x, y, z'
loop_
 _atom_site_type_symbol
 _atom_site_label
 _atom_site_symmetry_multiplicity
 _atom_site_fract_x
 _atom_site_fract_y
 _atom_site_fract_z
 _atom_site_occupancy
  Mg  Mg0  1  0.74999998  0.82573901  0.17426099  1
  Mg  Mg1  1  0.74999998  0.34852201  0.17426099  1
  Mg  Mg2  1  0.74999998  0.82573901  0.65147798  1
  Mg  Mg3  1  0.24999999  0.17426100  0.82573900  1
  Mg  Mg4  1  0.24999999  0.65147801  0.82573899  1
  Mg  Mg5  1  0.24999999  0.17426100  0.34852200  1
  Mg  Mg6  1  0.24999999  0.66666668  0.33333332  1
  Ca  Ca7  1  0.74999998  0.33333334  0.66666666  1
