# generated using pymatgen
data_DyHg
_symmetry_space_group_name_H-M   'P 1'
_cell_length_a   3.93005395
_cell_length_b   4.84509706
_cell_length_c   6.05451441
_cell_angle_alpha   90.00000000
_cell_angle_beta   108.93865967
_cell_angle_gamma   90.00000000
_symmetry_Int_Tables_number   1
_chemical_formula_structural   DyHg
_chemical_formula_sum   'Dy2 Hg2'
_cell_volume   109.04611409
_cell_formula_units_Z   2
loop_
 _symmetry_equiv_pos_site_id
 _symmetry_equiv_pos_as_xyz
  1  'x, y, z'
loop_
 _atom_site_type_symbol
 _atom_site_label
 _atom_site_symmetry_multiplicity
 _atom_site_fract_x
 _atom_site_fract_y
 _atom_site_fract_z
 _atom_site_occupancy
  Hg  Hg0  1  0.86207102  0.74999999  0.72414203  1
  Hg  Hg1  1  0.13792900  0.25000000  0.27585801  1
  Dy  Dy2  1  0.58521202  0.74999999  0.17042402  1
  Dy  Dy3  1  0.41478801  0.25000000  0.82957602  1
