# generated using pymatgen
data_SmGaAu
_symmetry_space_group_name_H-M   'P 1'
_cell_length_a   4.55110407
_cell_length_b   5.70916653
_cell_length_c   5.70916653
_cell_angle_alpha   78.11960602
_cell_angle_beta   66.51064301
_cell_angle_gamma   66.51064301
_symmetry_Int_Tables_number   1
_chemical_formula_structural   SmGaAu
_chemical_formula_sum   'Sm2 Ga2 Au2'
_cell_volume   124.58011529
_cell_formula_units_Z   2
loop_
 _symmetry_equiv_pos_site_id
 _symmetry_equiv_pos_as_xyz
  1  'x, y, z'
loop_
 _atom_site_type_symbol
 _atom_site_label
 _atom_site_symmetry_multiplicity
 _atom_site_fract_x
 _atom_site_fract_y
 _atom_site_fract_z
 _atom_site_occupancy
  Sm  Sm0  1  0.47007099  0.27992900  0.77992897  1
  Sm  Sm1  1  0.52992897  0.72007101  0.22007096  1
  Ga  Ga2  1  0.83386097  0.71006601  0.62221195  1
  Au  Au3  1  0.16613899  0.28993400  0.37778798  1
  Au  Au4  1  0.16613996  0.87778801  0.78993297  1
  Ga  Ga5  1  0.83386000  0.12221200  0.21006696  1
