# generated using pymatgen
data_Li3MnF4
_symmetry_space_group_name_H-M   'P 1'
_cell_length_a   3.09388208
_cell_length_b   5.06925249
_cell_length_c   10.01591778
_cell_angle_alpha   77.24176788
_cell_angle_beta   84.36796570
_cell_angle_gamma   85.13294983
_symmetry_Int_Tables_number   1
_chemical_formula_structural   Li3MnF4
_chemical_formula_sum   'Li6 Mn2 F8'
_cell_volume   152.14512412
_cell_formula_units_Z   2
loop_
 _symmetry_equiv_pos_site_id
 _symmetry_equiv_pos_as_xyz
  1  'x, y, z'
loop_
 _atom_site_type_symbol
 _atom_site_label
 _atom_site_symmetry_multiplicity
 _atom_site_fract_x
 _atom_site_fract_y
 _atom_site_fract_z
 _atom_site_occupancy
  Li  Li0  1  0.00064192  0.75148300  0.75091896  1
  F  F1  1  0.50055490  0.75269200  0.24737798  1
  F  F2  1  0.49944496  0.24730800  0.75262199  1
  F  F3  1  0.99935794  0.24851700  0.24908101  1
  F  F4  1  0.49999998  0.00000000  0.50000000  1
  F  F5  1  0.49999993  0.50000000  -0.00000001  1
  F  F6  1  -0.00000005  0.50000000  0.49999997  1
  F  F7  1  0.00000000  0.00000000  0.00000000  1
  F  F8  1  0.47778289  0.86782900  0.88654496  1
  Mn  Mn9  1  0.97631587  0.86512900  0.38361998  1
  Mn  Mn10  1  0.97858993  0.35796300  0.88590899  1
  Li  Li11  1  0.47595194  0.36522900  0.38283299  1
  Li  Li12  1  0.52404791  0.63477100  0.61716698  1
  Li  Li13  1  0.02140993  0.64203700  0.11409098  1
  Li  Li14  1  0.02368398  0.13487100  0.61637998  1
  Li  Li15  1  0.52221697  0.13217100  0.11345500  1
