# generated using pymatgen
data_Mn5S7
_symmetry_space_group_name_H-M   'P 1'
_cell_length_a   5.47688484
_cell_length_b   5.53734207
_cell_length_c   5.52387190
_cell_angle_alpha   90.00000000
_cell_angle_beta   89.62528229
_cell_angle_gamma   90.00000000
_symmetry_Int_Tables_number   1
_chemical_formula_structural   Mn5S7
_chemical_formula_sum   'Mn5 S7'
_cell_volume   167.52100627
_cell_formula_units_Z   1
loop_
 _symmetry_equiv_pos_site_id
 _symmetry_equiv_pos_as_xyz
  1  'x, y, z'
loop_
 _atom_site_type_symbol
 _atom_site_label
 _atom_site_symmetry_multiplicity
 _atom_site_fract_x
 _atom_site_fract_y
 _atom_site_fract_z
 _atom_site_occupancy
  Mn  Mn0  1  0.50000001  0.49999999  -0.00000002  1
  Mn  Mn1  1  0.50000001  0.00000000  0.50000000  1
  Mn  Mn2  1  0.00000000  0.49999999  0.50000002  1
  Mn  Mn3  1  0.00000000  0.00000000  0.00000000  1
  S  S4  1  0.11883900  0.10710300  0.39542601  1
  S  S5  1  0.88116103  0.60710299  0.10457398  1
  S  S6  1  0.39390701  0.88122899  0.88094702  1
  Mn  Mn7  1  0.60609302  0.38122900  0.61905301  1
  S  S8  1  0.88116103  0.89289699  0.60457400  1
  S  S9  1  0.11883900  0.39289699  0.89542603  1
  S  S10  1  0.60609302  0.11877100  0.11905298  1
  S  S11  1  0.39390701  0.61877099  0.38094700  1
