# generated using pymatgen
data_Be3InB
_symmetry_space_group_name_H-M   'P 1'
_cell_length_a   3.88947105
_cell_length_b   3.88947105
_cell_length_c   3.88947105
_cell_angle_alpha   90.00000000
_cell_angle_beta   90.00000000
_cell_angle_gamma   90.00000000
_symmetry_Int_Tables_number   1
_chemical_formula_structural   Be3InB
_chemical_formula_sum   'Be3 In1 B1'
_cell_volume   58.83986008
_cell_formula_units_Z   1
loop_
 _symmetry_equiv_pos_site_id
 _symmetry_equiv_pos_as_xyz
  1  'x, y, z'
loop_
 _atom_site_type_symbol
 _atom_site_label
 _atom_site_symmetry_multiplicity
 _atom_site_fract_x
 _atom_site_fract_y
 _atom_site_fract_z
 _atom_site_occupancy
  In  In0  1  0.49999999  0.49999999  0.49999999  1
  B  B1  1  0.00000000  0.00000000  0.00000000  1
  Be  Be2  1  0.00000000  0.49999999  -0.00000000  1
  Be  Be3  1  0.00000000  0.00000000  0.49999999  1
  Be  Be4  1  0.49999999  0.00000000  -0.00000000  1
