# generated using pymatgen
data_Sc8AlGe3I2
_symmetry_space_group_name_H-M   'P 1'
_cell_length_a   7.28648663
_cell_length_b   7.28648663
_cell_length_c   7.28648663
_cell_angle_alpha   71.74290466
_cell_angle_beta   69.91832733
_cell_angle_gamma   110.08167267
_symmetry_Int_Tables_number   1
_chemical_formula_structural   Sc8AlGe3I2
_chemical_formula_sum   'Sc8 Al1 Ge3 I2'
_cell_volume   297.70540672
_cell_formula_units_Z   1
loop_
 _symmetry_equiv_pos_site_id
 _symmetry_equiv_pos_as_xyz
  1  'x, y, z'
loop_
 _atom_site_type_symbol
 _atom_site_label
 _atom_site_symmetry_multiplicity
 _atom_site_fract_x
 _atom_site_fract_y
 _atom_site_fract_z
 _atom_site_occupancy
  Al  Al0  1  0.86703602  0.24203600  0.12500001  1
  I  I1  1  0.13296400  0.00796400  0.62500002  1
  Ge  Ge2  1  0.63296401  0.62500001  0.24203602  1
  Sc  Sc3  1  0.36703601  0.12500000  0.00796400  1
  Ge  Ge4  1  -0.00000000  0.50000001  0.50000003  1
  Ge  Ge5  1  0.50000001  0.75000001  0.75000004  1
  Sc  Sc6  1  0.11328700  0.72834101  0.01504202  1
  Sc  Sc7  1  0.61328701  0.23495800  0.52165902  1
  Sc  Sc8  1  0.38671300  0.86505401  0.37832903  1
  I  I9  1  0.74338402  0.01504300  0.87167002  1
  Sc  Sc10  1  0.88671302  0.87167101  0.38494603  1
  Sc  Sc11  1  0.24338400  0.37833001  0.23495702  1
  Sc  Sc12  1  0.25661600  0.38494501  0.72834203  1
  Sc  Sc13  1  0.75661602  0.52165801  0.86505503  1
