# generated using pymatgen
data_Lu4Al7Co
_symmetry_space_group_name_H-M   'P 1'
_cell_length_a   4.12900400
_cell_length_b   7.04707098
_cell_length_c   7.95476913
_cell_angle_alpha   90.00000000
_cell_angle_beta   90.00000000
_cell_angle_gamma   90.00000000
_symmetry_Int_Tables_number   1
_chemical_formula_structural   Lu4Al7Co
_chemical_formula_sum   'Lu4 Al7 Co1'
_cell_volume   231.46297434
_cell_formula_units_Z   1
loop_
 _symmetry_equiv_pos_site_id
 _symmetry_equiv_pos_as_xyz
  1  'x, y, z'
loop_
 _atom_site_type_symbol
 _atom_site_label
 _atom_site_symmetry_multiplicity
 _atom_site_fract_x
 _atom_site_fract_y
 _atom_site_fract_z
 _atom_site_occupancy
  Lu  Lu0  1  0.25000000  0.03112400  0.19105500  1
  Lu  Lu1  1  0.75000000  0.96887600  0.80894499  1
  Lu  Lu2  1  0.25000000  0.53112400  0.30894499  1
  Lu  Lu3  1  0.75000000  0.46887600  0.69105499  1
  Co  Co4  1  0.25000000  0.74847100  0.62096299  1
  Al  Al5  1  0.75000000  0.25152900  0.37903699  1
  Al  Al6  1  0.25000000  0.24847100  0.87903699  1
  Al  Al7  1  0.75000000  0.75152900  0.12096300  1
  Al  Al8  1  0.75000000  0.35706300  0.06226700  1
  Al  Al9  1  0.25000000  0.64293700  0.93773298  1
  Al  Al10  1  0.75000000  0.85706300  0.43773299  1
  Al  Al11  1  0.25000000  0.14293700  0.56226699  1
