# generated using pymatgen
data_Mg3Ge
_symmetry_space_group_name_H-M   'P 1'
_cell_length_a   3.44021797
_cell_length_b   4.38077784
_cell_length_c   10.06563473
_cell_angle_alpha   90.00000000
_cell_angle_beta   99.83952332
_cell_angle_gamma   90.00000000
_symmetry_Int_Tables_number   1
_chemical_formula_structural   Mg3Ge
_chemical_formula_sum   'Mg6 Ge2'
_cell_volume   149.46604455
_cell_formula_units_Z   2
loop_
 _symmetry_equiv_pos_site_id
 _symmetry_equiv_pos_as_xyz
  1  'x, y, z'
loop_
 _atom_site_type_symbol
 _atom_site_label
 _atom_site_symmetry_multiplicity
 _atom_site_fract_x
 _atom_site_fract_y
 _atom_site_fract_z
 _atom_site_occupancy
  Mg  Mg0  1  0.30483500  0.25000001  0.60967001  1
  Mg  Mg1  1  0.56107300  0.25000001  0.12214599  1
  Mg  Mg2  1  0.69516500  0.75000003  0.39033000  1
  Mg  Mg3  1  0.43892700  0.75000003  0.87785402  1
  Mg  Mg4  1  0.94319500  0.25000001  0.88639001  1
  Ge  Ge5  1  0.16797000  0.25000001  0.33594001  1
  Mg  Mg6  1  0.05680500  0.75000003  0.11361000  1
  Ge  Ge7  1  0.83203000  0.75000003  0.66406000  1
