# generated using pymatgen
data_Te
_symmetry_space_group_name_H-M   'P 1'
_cell_length_a   4.32777786
_cell_length_b   4.32777786
_cell_length_c   13.56567383
_cell_angle_alpha   80.82141876
_cell_angle_beta   80.82141876
_cell_angle_gamma   60.00000381
_symmetry_Int_Tables_number   1
_chemical_formula_structural   Te
_chemical_formula_sum   Te7
_cell_volume   216.27546248
_cell_formula_units_Z   7
loop_
 _symmetry_equiv_pos_site_id
 _symmetry_equiv_pos_as_xyz
  1  'x, y, z'
loop_
 _atom_site_type_symbol
 _atom_site_label
 _atom_site_symmetry_multiplicity
 _atom_site_fract_x
 _atom_site_fract_y
 _atom_site_fract_z
 _atom_site_occupancy
  Te  Te0  1  0.00000000  0.00000000  0.00000000  1
  Te  Te1  1  0.42608901  0.42608899  0.72173298  1
  Te  Te2  1  0.57391102  0.57391099  0.27826699  1
  Te  Te3  1  0.12803500  0.12803500  0.61589498  1
  Te  Te4  1  0.87196503  0.87196499  0.38410499  1
  Te  Te5  1  0.29151701  0.29151699  0.12544900  1
  Te  Te6  1  0.70848302  0.70848299  0.87455097  1
