# generated using pymatgen
data_Tl2(CuS)3
_symmetry_space_group_name_H-M   'P 1'
_cell_length_a   4.68460083
_cell_length_b   4.68460083
_cell_length_c   9.20080185
_cell_angle_alpha   90.00000000
_cell_angle_beta   90.00000000
_cell_angle_gamma   90.00000000
_symmetry_Int_Tables_number   1
_chemical_formula_structural   Tl2(CuS)3
_chemical_formula_sum   'Tl2 Cu3 S3'
_cell_volume   201.91605840
_cell_formula_units_Z   1
loop_
 _symmetry_equiv_pos_site_id
 _symmetry_equiv_pos_as_xyz
  1  'x, y, z'
loop_
 _atom_site_type_symbol
 _atom_site_label
 _atom_site_symmetry_multiplicity
 _atom_site_fract_x
 _atom_site_fract_y
 _atom_site_fract_z
 _atom_site_occupancy
  Cu  Cu0  1  0.75000003  0.25000001  -0.00000000  1
  S  S1  1  0.25000001  0.75000003  -0.00000000  1
  S  S2  1  0.75000003  0.75000003  0.67076701  1
  S  S3  1  0.25000001  0.25000001  0.32923301  1
  Tl  Tl4  1  0.75000003  0.75000003  0.30203700  1
  Tl  Tl5  1  0.25000001  0.25000001  0.69796301  1
  Cu  Cu6  1  0.75000003  0.75000003  0.91193901  1
  Cu  Cu7  1  0.25000001  0.25000001  0.08806100  1
