# generated using pymatgen
data_CeMg2
_symmetry_space_group_name_H-M   'P 1'
_cell_length_a   4.43384409
_cell_length_b   4.43384409
_cell_length_c   8.85109615
_cell_angle_alpha   90.00000000
_cell_angle_beta   90.00000000
_cell_angle_gamma   90.00000000
_symmetry_Int_Tables_number   1
_chemical_formula_structural   CeMg2
_chemical_formula_sum   'Ce2 Mg4'
_cell_volume   174.00346393
_cell_formula_units_Z   2
loop_
 _symmetry_equiv_pos_site_id
 _symmetry_equiv_pos_as_xyz
  1  'x, y, z'
loop_
 _atom_site_type_symbol
 _atom_site_label
 _atom_site_symmetry_multiplicity
 _atom_site_fract_x
 _atom_site_fract_y
 _atom_site_fract_z
 _atom_site_occupancy
  Ce  Ce0  1  0.00000000  0.49999999  0.73107099  1
  Ce  Ce1  1  0.49999999  0.00000000  0.26892900  1
  Mg  Mg2  1  0.00000000  0.49999999  0.36326399  1
  Mg  Mg3  1  0.49999999  0.00000000  0.63673599  1
  Mg  Mg4  1  0.00000000  0.00000000  0.00000000  1
  Mg  Mg5  1  0.49999999  0.49999999  0.00000000  1
