# generated using pymatgen
data_KIn7PS5
_symmetry_space_group_name_H-M   'P 1'
_cell_length_a   7.25730324
_cell_length_b   7.79893780
_cell_length_c   7.79893780
_cell_angle_alpha   120.00000000
_cell_angle_beta   90.00000000
_cell_angle_gamma   90.00000000
_symmetry_Int_Tables_number   1
_chemical_formula_structural   KIn7PS5
_chemical_formula_sum   'K1 In7 P1 S5'
_cell_volume   382.27580779
_cell_formula_units_Z   1
loop_
 _symmetry_equiv_pos_site_id
 _symmetry_equiv_pos_as_xyz
  1  'x, y, z'
loop_
 _atom_site_type_symbol
 _atom_site_label
 _atom_site_symmetry_multiplicity
 _atom_site_fract_x
 _atom_site_fract_y
 _atom_site_fract_z
 _atom_site_occupancy
  In  In0  1  0.51478498  0.33333334  0.66666664  1
  P  P1  1  0.48521498  0.66666667  0.33333330  1
  S  S2  1  -0.00000000  0.50000001  -0.00000002  1
  K  K3  1  0.00000000  0.00000000  0.49999999  1
  In  In4  1  0.99999997  0.50000001  0.49999997  1
  In  In5  1  0.49999998  0.00000000  -0.00000000  1
  S  S6  1  0.85791397  0.33333334  0.66666664  1
  In  In7  1  0.14208600  0.66666667  0.33333330  1
  S  S8  1  0.30942099  0.65749101  0.82874596  1
  S  S9  1  0.30942099  0.17125500  0.82874598  1
  In  In10  1  0.69057898  0.34250900  0.17125399  1
  In  In11  1  0.69057898  0.82874501  0.17125397  1
  In  In12  1  0.69057898  0.82874501  0.65748996  1
  S  S13  1  0.30942099  0.17125500  0.34250999  1
