# generated using pymatgen
data_Li9TeO8
_symmetry_space_group_name_H-M   'P 1'
_cell_length_a   5.57089472
_cell_length_b   5.57089472
_cell_length_c   6.39634609
_cell_angle_alpha   90.00000000
_cell_angle_beta   90.00000000
_cell_angle_gamma   95.45558167
_symmetry_Int_Tables_number   1
_chemical_formula_structural   Li9TeO8
_chemical_formula_sum   'Li9 Te1 O8'
_cell_volume   197.61054756
_cell_formula_units_Z   1
loop_
 _symmetry_equiv_pos_site_id
 _symmetry_equiv_pos_as_xyz
  1  'x, y, z'
loop_
 _atom_site_type_symbol
 _atom_site_label
 _atom_site_symmetry_multiplicity
 _atom_site_fract_x
 _atom_site_fract_y
 _atom_site_fract_z
 _atom_site_occupancy
  Li  Li0  1  0.15652204  0.84347802  0.49999999  1
  Li  Li1  1  0.15652204  0.84347802  -0.00000000  1
  Li  Li2  1  0.59713705  0.87992402  0.74999999  1
  Li  Li3  1  0.12007602  0.40286301  0.25000000  1
  Li  Li4  1  0.87992404  0.59713701  0.74999999  1
  Li  Li5  1  0.40286301  0.12007600  0.25000000  1
  Te  Te6  1  0.84347802  0.15652200  0.99999999  1
  Li  Li7  1  0.84347802  0.15652200  0.49999999  1
  Li  Li8  1  0.34555002  0.34555001  0.74999999  1
  Li  Li9  1  0.65445004  0.65445001  0.25000000  1
  O  O10  1  0.27398104  0.68558401  0.74999999  1
  O  O11  1  0.31441604  0.72601901  0.25000000  1
  O  O12  1  0.20217501  0.20217500  0.49191699  1
  O  O13  1  0.20217501  0.20217500  0.00808300  1
  O  O14  1  0.79782505  0.79782502  0.50808299  1
  O  O15  1  0.79782505  0.79782502  0.99191699  1
  O  O16  1  0.72601903  0.31441601  0.25000000  1
  O  O17  1  0.68558402  0.27398101  0.74999999  1
