# generated using pymatgen
data_Tl3Cu2Se
_symmetry_space_group_name_H-M   'P 1'
_cell_length_a   4.29723692
_cell_length_b   4.29723692
_cell_length_c   11.93643665
_cell_angle_alpha   90.00000000
_cell_angle_beta   90.00000000
_cell_angle_gamma   90.00000000
_symmetry_Int_Tables_number   1
_chemical_formula_structural   Tl3Cu2Se
_chemical_formula_sum   'Tl3 Cu2 Se1'
_cell_volume   220.42116535
_cell_formula_units_Z   1
loop_
 _symmetry_equiv_pos_site_id
 _symmetry_equiv_pos_as_xyz
  1  'x, y, z'
loop_
 _atom_site_type_symbol
 _atom_site_label
 _atom_site_symmetry_multiplicity
 _atom_site_fract_x
 _atom_site_fract_y
 _atom_site_fract_z
 _atom_site_occupancy
  Tl  Tl0  1  0.50000001  0.00000000  0.71896402  1
  Tl  Tl1  1  0.00000000  0.50000001  0.28103601  1
  Cu  Cu2  1  0.50000001  0.50000001  -0.00000000  1
  Cu  Cu3  1  0.00000000  0.00000000  0.00000000  1
  Se  Se4  1  0.50000001  0.00000000  0.10533700  1
  Tl  Tl5  1  0.00000000  0.50000001  0.89466303  1
