# generated using pymatgen
data_Sm2Co17
_symmetry_space_group_name_H-M   'P 1'
_cell_length_a   6.42534113
_cell_length_b   6.42534113
_cell_length_c   6.42534161
_cell_angle_alpha   83.21544647
_cell_angle_beta   83.21544647
_cell_angle_gamma   83.21544647
_symmetry_Int_Tables_number   1
_chemical_formula_structural   Sm2Co17
_chemical_formula_sum   'Sm2 Co17'
_cell_volume   260.10409780
_cell_formula_units_Z   1
loop_
 _symmetry_equiv_pos_site_id
 _symmetry_equiv_pos_as_xyz
  1  'x, y, z'
loop_
 _atom_site_type_symbol
 _atom_site_label
 _atom_site_symmetry_multiplicity
 _atom_site_fract_x
 _atom_site_fract_y
 _atom_site_fract_z
 _atom_site_occupancy
  Sm  Sm0  1  0.65932504  0.65932501  0.65932510  1
  Sm  Sm1  1  0.34067502  0.34067500  0.34067505  1
  Co  Co2  1  0.34365902  0.34365900  0.84511606  1
  Co  Co3  1  0.29335704  0.70664301  0.00000006  1
  Co  Co4  1  0.70664303  0.29335700  0.00000006  1
  Co  Co5  1  0.15488403  0.65634101  0.65634106  1
  Co  Co6  1  0.90308706  0.90308701  0.90308713  1
  Co  Co7  1  0.65634104  0.65634101  0.15488408  1
  Co  Co8  1  0.84511603  0.34365900  0.34365908  1
  Co  Co9  1  0.00000000  0.00000000  0.50000001  1
  Co  Co10  1  0.34365905  0.84511601  0.34365908  1
  Co  Co11  1  0.00000001  0.29335700  0.70664303  1
  Co  Co12  1  0.00000003  0.70664301  0.29335705  1
  Co  Co13  1  0.09691301  0.09691300  0.09691301  1
  Co  Co14  1  0.65634102  0.15488400  0.65634107  1
  Co  Co15  1  0.50000001  0.00000000  0.00000003  1
  Co  Co16  1  0.29335701  0.00000000  0.70664304  1
  Co  Co17  1  0.00000002  0.50000001  0.00000003  1
  Co  Co18  1  0.70664301  0.00000000  0.29335705  1
