# generated using pymatgen
data_NbTe9
_symmetry_space_group_name_H-M   'P 1'
_cell_length_a   4.24723005
_cell_length_b   7.28324270
_cell_length_c   10.37369823
_cell_angle_alpha   91.63376617
_cell_angle_beta   90.00000000
_cell_angle_gamma   106.95230103
_symmetry_Int_Tables_number   1
_chemical_formula_structural   NbTe9
_chemical_formula_sum   'Nb1 Te9'
_cell_volume   306.81590537
_cell_formula_units_Z   1
loop_
 _symmetry_equiv_pos_site_id
 _symmetry_equiv_pos_as_xyz
  1  'x, y, z'
loop_
 _atom_site_type_symbol
 _atom_site_label
 _atom_site_symmetry_multiplicity
 _atom_site_fract_x
 _atom_site_fract_y
 _atom_site_fract_z
 _atom_site_occupancy
  Te  Te0  1  0.00000000  0.00000000  0.49999999  1
  Te  Te1  1  0.00000000  0.00000000  0.00000000  1
  Te  Te2  1  0.28560399  0.57120800  0.68446598  1
  Te  Te3  1  0.71439599  0.42879200  0.31553399  1
  Te  Te4  1  0.35699299  0.71398600  0.44162499  1
  Te  Te5  1  0.64300699  0.28601400  0.55837499  1
  Te  Te6  1  0.91943398  0.83886800  0.74023598  1
  Nb  Nb7  1  0.08056600  0.16113200  0.25976399  1
  Te  Te8  1  0.63840199  0.27680400  0.92443298  1
  Te  Te9  1  0.36159799  0.72319600  0.07556700  1
