# generated using pymatgen
data_NaLi3V4O12
_symmetry_space_group_name_H-M   'P 1'
_cell_length_a   5.84315729
_cell_length_b   6.93689823
_cell_length_c   6.93689823
_cell_angle_alpha   83.17213440
_cell_angle_beta   74.47444916
_cell_angle_gamma   74.47444916
_symmetry_Int_Tables_number   1
_chemical_formula_structural   NaLi3V4O12
_chemical_formula_sum   'Na1 Li3 V4 O12'
_cell_volume   260.69261294
_cell_formula_units_Z   1
loop_
 _symmetry_equiv_pos_site_id
 _symmetry_equiv_pos_as_xyz
  1  'x, y, z'
loop_
 _atom_site_type_symbol
 _atom_site_label
 _atom_site_symmetry_multiplicity
 _atom_site_fract_x
 _atom_site_fract_y
 _atom_site_fract_z
 _atom_site_occupancy
  Na  Na0  1  0.50000002  0.75480600  0.24519399  1
  Li  Li1  1  0.00000000  0.23850700  0.76149299  1
  Li  Li2  1  0.50000002  0.08593300  0.91406699  1
  V  V3  1  0.97773803  0.39322200  0.20222399  1
  V  V4  1  0.47771802  0.19871400  0.39121900  1
  V  V5  1  0.02226200  0.79777600  0.60677799  1
  V  V6  1  0.52228202  0.60878100  0.80128599  1
  Li  Li7  1  0.00000000  0.89936700  0.10063299  1
  O  O8  1  0.09893300  0.21780800  0.01870400  1
  O  O9  1  0.92026603  0.63215700  0.10073199  1
  O  O10  1  0.59235502  0.01935800  0.20714600  1
  O  O11  1  0.18740701  0.36287400  0.35745099  1
  O  O12  1  0.07973401  0.89926800  0.36784299  1
  O  O13  1  0.68990402  0.35974200  0.35233099  1
  O  O14  1  0.81259303  0.64254900  0.63712599  1
  O  O15  1  0.41209801  0.10156600  0.63424900  1
  O  O16  1  0.31009601  0.64766900  0.64025799  1
  O  O17  1  0.90106703  0.98129599  0.78219198  1
  O  O18  1  0.58790202  0.36575100  0.89843399  1
  O  O19  1  0.40764502  0.79285400  0.98064198  1
