# generated using pymatgen
data_Ce7Al
_symmetry_space_group_name_H-M   'P 1'
_cell_length_a   5.99448204
_cell_length_b   6.36661386
_cell_length_c   6.36661339
_cell_angle_alpha   120.00000000
_cell_angle_beta   90.00000000
_cell_angle_gamma   90.00000000
_symmetry_Int_Tables_number   1
_chemical_formula_structural   Ce7Al
_chemical_formula_sum   'Ce7 Al1'
_cell_volume   210.42594390
_cell_formula_units_Z   1
loop_
 _symmetry_equiv_pos_site_id
 _symmetry_equiv_pos_as_xyz
  1  'x, y, z'
loop_
 _atom_site_type_symbol
 _atom_site_label
 _atom_site_symmetry_multiplicity
 _atom_site_fract_x
 _atom_site_fract_y
 _atom_site_fract_z
 _atom_site_occupancy
  Ce  Ce0  1  0.74999999  0.33333333  0.66666667  1
  Al  Al1  1  0.25000000  0.66666667  0.33333332  1
  Ce  Ce2  1  0.25000000  0.17132200  0.34264400  1
  Ce  Ce3  1  0.25000000  0.65735600  0.82867800  1
  Ce  Ce4  1  0.25000000  0.17132200  0.82867802  1
  Ce  Ce5  1  0.74999999  0.82867800  0.65735599  1
  Ce  Ce6  1  0.74999999  0.34264400  0.17132199  1
  Ce  Ce7  1  0.74999999  0.82867800  0.17132197  1
