# generated using pymatgen
data_K4LiMnTe4
_symmetry_space_group_name_H-M   'P 1'
_cell_length_a   6.62074518
_cell_length_b   6.62074518
_cell_length_c   6.93790197
_cell_angle_alpha   90.00000000
_cell_angle_beta   90.00000000
_cell_angle_gamma   90.00000000
_symmetry_Int_Tables_number   1
_chemical_formula_structural   K4LiMnTe4
_chemical_formula_sum   'K4 Li1 Mn1 Te4'
_cell_volume   304.11784591
_cell_formula_units_Z   1
loop_
 _symmetry_equiv_pos_site_id
 _symmetry_equiv_pos_as_xyz
  1  'x, y, z'
loop_
 _atom_site_type_symbol
 _atom_site_label
 _atom_site_symmetry_multiplicity
 _atom_site_fract_x
 _atom_site_fract_y
 _atom_site_fract_z
 _atom_site_occupancy
  Mn  Mn0  1  0.00000000  0.00000000  0.75000000  1
  Li  Li1  1  0.00000000  0.00000000  0.25000000  1
  Te  Te2  1  0.32176599  0.14089000  0.50000000  1
  Te  Te3  1  0.67823398  0.85910998  0.50000000  1
  K  K4  1  0.32176599  0.85910998  -0.00000000  1
  K  K5  1  0.67823398  0.14089000  0.00000000  1
  K  K6  1  0.14089000  0.67823398  0.50000000  1
  K  K7  1  0.85910998  0.32176599  0.50000000  1
  Te  Te8  1  0.85910998  0.67823398  -0.00000000  1
  Te  Te9  1  0.14089000  0.32176599  -0.00000000  1
