# generated using pymatgen
data_CuO2
_symmetry_space_group_name_H-M   'P 1'
_cell_length_a   2.81982803
_cell_length_b   4.94505596
_cell_length_c   5.06192017
_cell_angle_alpha   71.09681702
_cell_angle_beta   89.99982452
_cell_angle_gamma   89.99967194
_symmetry_Int_Tables_number   1
_chemical_formula_structural   CuO2
_chemical_formula_sum   'Cu2 O4'
_cell_volume   66.77765843
_cell_formula_units_Z   2
loop_
 _symmetry_equiv_pos_site_id
 _symmetry_equiv_pos_as_xyz
  1  'x, y, z'
loop_
 _atom_site_type_symbol
 _atom_site_label
 _atom_site_symmetry_multiplicity
 _atom_site_fract_x
 _atom_site_fract_y
 _atom_site_fract_z
 _atom_site_occupancy
  Cu  Cu0  1  0.50000000  0.50000000  0.00000001  1
  Cu  Cu1  1  0.00000000  0.00000000  0.00000000  1
  O  O2  1  0.49999500  0.23267900  0.80415604  1
  O  O3  1  0.99999800  0.73268500  0.80415006  1
  O  O4  1  0.50000500  0.76732100  0.19584504  1
  O  O5  1  0.00000200  0.26731600  0.19585002  1
