# generated using pymatgen
data_Cs2AlHgI6
_symmetry_space_group_name_H-M   'P 1'
_cell_length_a   8.47416687
_cell_length_b   8.47416687
_cell_length_c   8.47416687
_cell_angle_alpha   60.00000000
_cell_angle_beta   60.00000000
_cell_angle_gamma   60.00000000
_symmetry_Int_Tables_number   1
_chemical_formula_structural   Cs2AlHgI6
_chemical_formula_sum   'Cs2 Al1 Hg1 I6'
_cell_volume   430.30464810
_cell_formula_units_Z   1
loop_
 _symmetry_equiv_pos_site_id
 _symmetry_equiv_pos_as_xyz
  1  'x, y, z'
loop_
 _atom_site_type_symbol
 _atom_site_label
 _atom_site_symmetry_multiplicity
 _atom_site_fract_x
 _atom_site_fract_y
 _atom_site_fract_z
 _atom_site_occupancy
  Cs  Cs0  1  0.25000001  0.25000001  0.25000001  1
  Cs  Cs1  1  0.75000002  0.75000002  0.75000002  1
  Al  Al2  1  0.00000000  0.00000000  0.00000000  1
  Hg  Hg3  1  0.50000001  0.50000001  0.50000001  1
  I  I4  1  0.23395301  0.76604702  0.23395301  1
  I  I5  1  0.23395301  0.23395301  0.76604702  1
  I  I6  1  0.76604702  0.23395301  0.76604702  1
  I  I7  1  0.23395301  0.76604702  0.76604702  1
  I  I8  1  0.76604702  0.23395301  0.23395301  1
  I  I9  1  0.76604702  0.76604702  0.23395301  1
