# generated using pymatgen
data_Cr6Te5Se3
_symmetry_space_group_name_H-M   'P 1'
_cell_length_a   7.88474417
_cell_length_b   7.88474417
_cell_length_c   7.88474417
_cell_angle_alpha   60.00000000
_cell_angle_beta   60.00000000
_cell_angle_gamma   60.00000000
_symmetry_Int_Tables_number   1
_chemical_formula_structural   Cr6Te5Se3
_chemical_formula_sum   'Cr6 Te5 Se3'
_cell_volume   346.61537401
_cell_formula_units_Z   1
loop_
 _symmetry_equiv_pos_site_id
 _symmetry_equiv_pos_as_xyz
  1  'x, y, z'
loop_
 _atom_site_type_symbol
 _atom_site_label
 _atom_site_symmetry_multiplicity
 _atom_site_fract_x
 _atom_site_fract_y
 _atom_site_fract_z
 _atom_site_occupancy
  Te  Te0  1  0.37500000  0.87499999  0.87499999  1
  Te  Te1  1  0.87499999  0.87499999  0.37500000  1
  Cr  Cr2  1  0.87499999  0.87499999  0.87499999  1
  Te  Te3  1  0.87499999  0.37500000  0.87499999  1
  Te  Te4  1  0.49999999  0.49999999  0.49999999  1
  Cr  Cr5  1  0.25000000  0.25000000  0.25000000  1
  Cr  Cr6  1  0.63088699  0.63088699  0.63088699  1
  Se  Se7  1  0.11911300  0.64266099  0.11911300  1
  Se  Se8  1  0.11911300  0.11911300  0.64266099  1
  Te  Te9  1  0.64266099  0.11911300  0.11911300  1
  Cr  Cr10  1  0.63088699  0.63088699  0.10733900  1
  Cr  Cr11  1  0.10733900  0.63088699  0.63088699  1
  Cr  Cr12  1  0.63088699  0.10733900  0.63088699  1
  Se  Se13  1  0.11911300  0.11911300  0.11911300  1
