# generated using pymatgen
data_U2TeSe
_symmetry_space_group_name_H-M   'P 1'
_cell_length_a   4.08843613
_cell_length_b   4.44696617
_cell_length_c   5.79179478
_cell_angle_alpha   90.00000000
_cell_angle_beta   110.66790009
_cell_angle_gamma   90.00000000
_symmetry_Int_Tables_number   1
_chemical_formula_structural   U2TeSe
_chemical_formula_sum   'U2 Te1 Se1'
_cell_volume   98.52441807
_cell_formula_units_Z   1
loop_
 _symmetry_equiv_pos_site_id
 _symmetry_equiv_pos_as_xyz
  1  'x, y, z'
loop_
 _atom_site_type_symbol
 _atom_site_label
 _atom_site_symmetry_multiplicity
 _atom_site_fract_x
 _atom_site_fract_y
 _atom_site_fract_z
 _atom_site_occupancy
  Te  Te0  1  0.86020398  0.00000000  0.72040801  1
  Se  Se1  1  0.14094400  0.49999998  0.28188800  1
  U  U2  1  0.42001699  0.49999998  0.84003400  1
  U  U3  1  0.57883498  0.00000000  0.15767000  1
