# generated using pymatgen
data_CsBaCu3S4
_symmetry_space_group_name_H-M   'P 1'
_cell_length_a   5.89162779
_cell_length_b   5.89162827
_cell_length_c   15.23618412
_cell_angle_alpha   90.00000000
_cell_angle_beta   90.00000000
_cell_angle_gamma   120.00000000
_symmetry_Int_Tables_number   1
_chemical_formula_structural   CsBaCu3S4
_chemical_formula_sum   'Cs2 Ba2 Cu6 S8'
_cell_volume   458.01266031
_cell_formula_units_Z   2
loop_
 _symmetry_equiv_pos_site_id
 _symmetry_equiv_pos_as_xyz
  1  'x, y, z'
loop_
 _atom_site_type_symbol
 _atom_site_label
 _atom_site_symmetry_multiplicity
 _atom_site_fract_x
 _atom_site_fract_y
 _atom_site_fract_z
 _atom_site_occupancy
  Cs  Cs0  1  0.66666671  0.33333335  0.09080700  1
  Ba  Ba1  1  0.33333338  0.66666670  0.59080700  1
  Cs  Cs2  1  0.33333338  0.66666670  0.90919299  1
  Ba  Ba3  1  0.66666671  0.33333335  0.40919300  1
  Cu  Cu4  1  0.83351406  0.66702803  0.74999999  1
  Cu  Cu5  1  0.16648605  0.83351404  0.25000000  1
  Cu  Cu6  1  0.16648602  0.33297202  0.25000000  1
  Cu  Cu7  1  0.83351404  0.16648601  0.74999999  1
  Cu  Cu8  1  0.66702806  0.83351404  0.25000000  1
  Cu  Cu9  1  0.33297202  0.16648601  0.74999999  1
  S  S10  1  0.66666671  0.33333335  0.65653699  1
  S  S11  1  0.33333338  0.66666670  0.15653700  1
  S  S12  1  0.33333338  0.66666670  0.34346300  1
  S  S13  1  0.66666671  0.33333335  0.84346299  1
  S  S14  1  0.00000000  0.00000000  0.34288900  1
  S  S15  1  0.00000000  0.00000000  0.84288899  1
  S  S16  1  0.00000000  0.00000000  0.15711100  1
  S  S17  1  0.00000000  0.00000000  0.65711099  1
