# generated using pymatgen
data_Tm3Sn2GeAu3
_symmetry_space_group_name_H-M   'P 1'
_cell_length_a   3.78429294
_cell_length_b   7.73649597
_cell_length_c   7.73649597
_cell_angle_alpha   120.00000000
_cell_angle_beta   90.00000000
_cell_angle_gamma   90.00000000
_symmetry_Int_Tables_number   1
_chemical_formula_structural   Tm3Sn2GeAu3
_chemical_formula_sum   'Tm3 Sn2 Ge1 Au3'
_cell_volume   196.15707924
_cell_formula_units_Z   1
loop_
 _symmetry_equiv_pos_site_id
 _symmetry_equiv_pos_as_xyz
  1  'x, y, z'
loop_
 _atom_site_type_symbol
 _atom_site_label
 _atom_site_symmetry_multiplicity
 _atom_site_fract_x
 _atom_site_fract_y
 _atom_site_fract_z
 _atom_site_occupancy
  Tm  Tm0  1  0.50000001  0.59432100  0.59432099  1
  Tm  Tm1  1  0.50000001  0.40567900  -0.00000000  1
  Tm  Tm2  1  0.50000001  0.00000000  0.40567900  1
  Sn  Sn3  1  -0.00000000  0.73810200  0.99999999  1
  Sn  Sn4  1  0.00000000  0.26189800  0.26189800  1
  Au  Au5  1  1.00000002  0.00000000  0.73810200  1
  Au  Au6  1  0.50000001  0.00000000  -0.00000000  1
  Au  Au7  1  0.00000000  0.33333333  0.66666666  1
  Ge  Ge8  1  1.00000002  0.66666667  0.33333333  1
