# generated using pymatgen
data_CeAlPt
_symmetry_space_group_name_H-M   'P 1'
_cell_length_a   4.48866177
_cell_length_b   7.17360401
_cell_length_c   7.92197514
_cell_angle_alpha   90.00000000
_cell_angle_beta   90.00000000
_cell_angle_gamma   90.00000000
_symmetry_Int_Tables_number   1
_chemical_formula_structural   CeAlPt
_chemical_formula_sum   'Ce4 Al4 Pt4'
_cell_volume   255.08666499
_cell_formula_units_Z   4
loop_
 _symmetry_equiv_pos_site_id
 _symmetry_equiv_pos_as_xyz
  1  'x, y, z'
loop_
 _atom_site_type_symbol
 _atom_site_label
 _atom_site_symmetry_multiplicity
 _atom_site_fract_x
 _atom_site_fract_y
 _atom_site_fract_z
 _atom_site_occupancy
  Ce  Ce0  1  0.75000004  0.47257800  0.82443499  1
  Ce  Ce1  1  0.25000001  0.02742200  0.32443499  1
  Ce  Ce2  1  0.75000004  0.97257800  0.67556499  1
  Ce  Ce3  1  0.25000001  0.52742200  0.17556500  1
  Al  Al4  1  0.25000001  0.64134600  0.55883199  1
  Al  Al5  1  0.25000001  0.14134600  0.94116798  1
  Al  Al6  1  0.75000004  0.35865400  0.44116799  1
  Al  Al7  1  0.75000004  0.85865400  0.05883200  1
  Pt  Pt8  1  0.25000001  0.77900000  0.87178799  1
  Pt  Pt9  1  0.25000001  0.27900000  0.62821199  1
  Pt  Pt10  1  0.75000004  0.72100000  0.37178799  1
  Pt  Pt11  1  0.75000004  0.22100000  0.12821200  1
