# generated using pymatgen
data_PrNi5B
_symmetry_space_group_name_H-M   'P 1'
_cell_length_a   5.38118649
_cell_length_b   5.38118649
_cell_length_c   5.38118601
_cell_angle_alpha   60.12806320
_cell_angle_beta   60.12806320
_cell_angle_gamma   60.12807465
_symmetry_Int_Tables_number   1
_chemical_formula_structural   PrNi5B
_chemical_formula_sum   'Pr1 Ni5 B1'
_cell_volume   110.50381281
_cell_formula_units_Z   1
loop_
 _symmetry_equiv_pos_site_id
 _symmetry_equiv_pos_as_xyz
  1  'x, y, z'
loop_
 _atom_site_type_symbol
 _atom_site_label
 _atom_site_symmetry_multiplicity
 _atom_site_fract_x
 _atom_site_fract_y
 _atom_site_fract_z
 _atom_site_occupancy
  Ni  Ni0  1  0.00000003  0.49999998  -0.00000003  1
  Ni  Ni1  1  0.49999999  0.00000000  -0.00000002  1
  Ni  Ni2  1  0.00000000  0.00000000  0.50000002  1
  Pr  Pr3  1  0.50000002  0.49999998  0.49999998  1
  Ni  Ni4  1  0.00000000  0.00000000  0.00000000  1
  B  B5  1  0.28049001  0.28048999  0.28048999  1
  Ni  Ni6  1  0.71951003  0.71950998  0.71950997  1
