# generated using pymatgen
data_AgTe2
_symmetry_space_group_name_H-M   'P 1'
_cell_length_a   2.72260308
_cell_length_b   2.72260308
_cell_length_c   6.48583889
_cell_angle_alpha   101.48794556
_cell_angle_beta   101.48794556
_cell_angle_gamma   92.92943573
_symmetry_Int_Tables_number   1
_chemical_formula_structural   AgTe2
_chemical_formula_sum   'Ag1 Te2'
_cell_volume   45.96302978
_cell_formula_units_Z   1
loop_
 _symmetry_equiv_pos_site_id
 _symmetry_equiv_pos_as_xyz
  1  'x, y, z'
loop_
 _atom_site_type_symbol
 _atom_site_label
 _atom_site_symmetry_multiplicity
 _atom_site_fract_x
 _atom_site_fract_y
 _atom_site_fract_z
 _atom_site_occupancy
  Te  Te0  1  0.34057900  0.34057899  0.68115800  1
  Ag  Ag1  1  0.65942100  0.65942099  0.31884202  1
  Te  Te2  1  0.00000000  0.00000000  0.00000000  1
