# generated using pymatgen
data_Tm3(CdAu2)2
_symmetry_space_group_name_H-M   'P 1'
_cell_length_a   4.16062689
_cell_length_b   7.62096405
_cell_length_c   7.62096453
_cell_angle_alpha   120.00000000
_cell_angle_beta   90.00000000
_cell_angle_gamma   90.00000000
_symmetry_Int_Tables_number   1
_chemical_formula_structural   Tm3(CdAu2)2
_chemical_formula_sum   'Tm3 Cd2 Au4'
_cell_volume   209.27109956
_cell_formula_units_Z   1
loop_
 _symmetry_equiv_pos_site_id
 _symmetry_equiv_pos_as_xyz
  1  'x, y, z'
loop_
 _atom_site_type_symbol
 _atom_site_label
 _atom_site_symmetry_multiplicity
 _atom_site_fract_x
 _atom_site_fract_y
 _atom_site_fract_z
 _atom_site_occupancy
  Tm  Tm0  1  1.00000003  0.58809601  1.00000002  1
  Tm  Tm1  1  1.00000003  0.41190401  0.41190402  1
  Tm  Tm2  1  1.00000003  0.00000000  0.58809600  1
  Cd  Cd3  1  0.50000001  0.00000000  0.23963400  1
  Au  Au4  1  0.50000001  0.23963400  0.00000001  1
  Cd  Cd5  1  0.50000001  0.76036601  0.76036603  1
  Au  Au6  1  0.00000000  0.00000000  0.00000000  1
  Au  Au7  1  0.50000001  0.33333334  0.66666668  1
  Au  Au8  1  0.50000001  0.66666668  0.33333336  1
