# generated using pymatgen
data_Lu5Ga3
_symmetry_space_group_name_H-M   'P 1'
_cell_length_a   6.36929321
_cell_length_b   8.44556427
_cell_length_c   8.44556427
_cell_angle_alpha   60.00000000
_cell_angle_beta   90.00000000
_cell_angle_gamma   90.00000000
_symmetry_Int_Tables_number   1
_chemical_formula_structural   Lu5Ga3
_chemical_formula_sum   'Lu10 Ga6'
_cell_volume   393.44063867
_cell_formula_units_Z   2
loop_
 _symmetry_equiv_pos_site_id
 _symmetry_equiv_pos_as_xyz
  1  'x, y, z'
loop_
 _atom_site_type_symbol
 _atom_site_label
 _atom_site_symmetry_multiplicity
 _atom_site_fract_x
 _atom_site_fract_y
 _atom_site_fract_z
 _atom_site_occupancy
  Lu  Lu0  1  0.24999999  0.24304899  0.75695098  1
  Lu  Lu1  1  0.74999997  0.75695098  0.24304899  1
  Lu  Lu2  1  0.74999997  0.24304899  -0.00000000  1
  Lu  Lu3  1  0.24999999  0.00000000  0.24304899  1
  Lu  Lu4  1  0.24999999  0.75695098  -0.00000000  1
  Lu  Lu5  1  0.74999997  0.00000000  0.75695098  1
  Lu  Lu6  1  0.00000000  0.66666665  0.66666665  1
  Lu  Lu7  1  0.49999998  0.33333332  0.33333332  1
  Lu  Lu8  1  0.00000000  0.33333332  0.33333332  1
  Lu  Lu9  1  0.49999998  0.66666665  0.66666665  1
  Ga  Ga10  1  0.24999999  0.00000000  0.60544098  1
  Ga  Ga11  1  0.74999997  0.60544098  -0.00000000  1
  Ga  Ga12  1  0.74999997  0.39455899  0.60544098  1
  Ga  Ga13  1  0.24999999  0.60544098  0.39455899  1
  Ga  Ga14  1  0.24999999  0.39455899  -0.00000000  1
  Ga  Ga15  1  0.74999997  0.00000000  0.39455899  1
