# generated using pymatgen
data_Al2Ag3S5
_symmetry_space_group_name_H-M   'P 1'
_cell_length_a   3.97873306
_cell_length_b   3.97873306
_cell_length_c   14.23267555
_cell_angle_alpha   90.00000000
_cell_angle_beta   90.00000000
_cell_angle_gamma   90.00000000
_symmetry_Int_Tables_number   1
_chemical_formula_structural   Al2Ag3S5
_chemical_formula_sum   'Al2 Ag3 S5'
_cell_volume   225.30776269
_cell_formula_units_Z   1
loop_
 _symmetry_equiv_pos_site_id
 _symmetry_equiv_pos_as_xyz
  1  'x, y, z'
loop_
 _atom_site_type_symbol
 _atom_site_label
 _atom_site_symmetry_multiplicity
 _atom_site_fract_x
 _atom_site_fract_y
 _atom_site_fract_z
 _atom_site_occupancy
  S  S0  1  0.00000000  0.49999999  0.86631803  1
  Ag  Ag1  1  0.49999999  0.00000000  0.13368200  1
  S  S2  1  0.49999999  0.00000000  0.58951002  1
  S  S3  1  0.00000000  0.49999999  0.41049001  1
  Ag  Ag4  1  0.49999999  0.00000000  0.89426703  1
  S  S5  1  0.00000000  0.49999999  0.10573300  1
  Ag  Ag6  1  0.00000000  0.49999999  0.68791502  1
  S  S7  1  0.49999999  0.00000000  0.31208501  1
  Al  Al8  1  0.00000000  0.00000000  0.50000002  1
  Al  Al9  1  0.49999999  0.49999999  0.50000002  1
