# generated using pymatgen
data_SrAl4
_symmetry_space_group_name_H-M   'P 1'
_cell_length_a   4.55354786
_cell_length_b   4.55354786
_cell_length_c   10.71801567
_cell_angle_alpha   90.00000000
_cell_angle_beta   90.00000000
_cell_angle_gamma   90.00000000
_symmetry_Int_Tables_number   1
_chemical_formula_structural   SrAl4
_chemical_formula_sum   'Sr2 Al8'
_cell_volume   222.23589103
_cell_formula_units_Z   2
loop_
 _symmetry_equiv_pos_site_id
 _symmetry_equiv_pos_as_xyz
  1  'x, y, z'
loop_
 _atom_site_type_symbol
 _atom_site_label
 _atom_site_symmetry_multiplicity
 _atom_site_fract_x
 _atom_site_fract_y
 _atom_site_fract_z
 _atom_site_occupancy
  Sr  Sr0  1  0.00000000  0.50000002  0.75067102  1
  Sr  Sr1  1  0.50000002  0.00000000  0.24932901  1
  Al  Al2  1  0.00000000  0.50000002  0.12597000  1
  Al  Al3  1  0.00000000  0.00000000  0.50000002  1
  Al  Al4  1  0.50000002  0.00000000  0.87403003  1
  Al  Al5  1  0.50000002  0.50000002  0.50000002  1
  Al  Al6  1  0.50000002  0.00000000  0.63089602  1
  Al  Al7  1  0.50000002  0.50000002  -0.00000000  1
  Al  Al8  1  0.00000000  0.00000000  0.00000000  1
  Al  Al9  1  0.00000000  0.50000002  0.36910401  1
