# generated using pymatgen
data_Ho3Hf(FeC3)3
_symmetry_space_group_name_H-M   'P 1'
_cell_length_a   5.97023487
_cell_length_b   5.97023487
_cell_length_c   6.91317654
_cell_angle_alpha   114.03555298
_cell_angle_beta   114.03555298
_cell_angle_gamma   93.25234985
_symmetry_Int_Tables_number   1
_chemical_formula_structural   Ho3Hf(FeC3)3
_chemical_formula_sum   'Ho3 Hf1 Fe3 C9'
_cell_volume   198.07620025
_cell_formula_units_Z   1
loop_
 _symmetry_equiv_pos_site_id
 _symmetry_equiv_pos_as_xyz
  1  'x, y, z'
loop_
 _atom_site_type_symbol
 _atom_site_label
 _atom_site_symmetry_multiplicity
 _atom_site_fract_x
 _atom_site_fract_y
 _atom_site_fract_z
 _atom_site_occupancy
  Ho  Ho0  1  0.11488102  0.61488102  0.22976199  1
  Ho  Ho1  1  0.38511904  0.88511903  0.77023798  1
  Hf  Hf2  1  0.13511901  0.13511900  0.27023800  1
  Ho  Ho3  1  0.86488105  0.86488103  0.72976196  1
  Fe  Fe4  1  0.82222603  0.43495601  0.38634697  1
  C  C5  1  0.04860902  0.43587901  0.61365300  1
  Fe  Fe6  1  0.56504402  0.17777401  0.61365299  1
  C  C7  1  0.56412104  0.95139103  0.38634696  1
  C  C8  1  0.42777402  0.31504401  0.11365298  1
  C  C9  1  0.68587904  0.79860902  0.11365296  1
  C  C10  1  0.68495603  0.57222602  0.88634698  1
  Fe  Fe11  1  0.20139101  0.31412101  0.88634701  1
  C  C12  1  0.76471204  0.76471202  -0.00000005  1
  C  C13  1  0.48528804  0.98528803  0.49999997  1
  C  C14  1  0.23528801  0.23528801  -0.00000001  1
  C  C15  1  0.01471202  0.51471201  0.50000000  1
