# generated using pymatgen
data_ZnS
_symmetry_space_group_name_H-M   'P 1'
_cell_length_a   4.02085018
_cell_length_b   4.02084875
_cell_length_c   17.48459244
_cell_angle_alpha   90.00000000
_cell_angle_beta   90.00000000
_cell_angle_gamma   120.00000763
_symmetry_Int_Tables_number   1
_chemical_formula_structural   ZnS
_chemical_formula_sum   'Zn6 S6'
_cell_volume   244.80582091
_cell_formula_units_Z   6
loop_
 _symmetry_equiv_pos_site_id
 _symmetry_equiv_pos_as_xyz
  1  'x, y, z'
loop_
 _atom_site_type_symbol
 _atom_site_label
 _atom_site_symmetry_multiplicity
 _atom_site_fract_x
 _atom_site_fract_y
 _atom_site_fract_z
 _atom_site_occupancy
  S  S0  1  0.66666663  0.33333334  0.24999999  1
  Zn  Zn1  1  0.33333330  0.66666669  0.74999998  1
  Zn  Zn2  1  0.66666663  0.33333334  0.89226298  1
  S  S3  1  0.33333330  0.66666669  0.39226299  1
  S  S4  1  0.33333330  0.66666669  0.10773700  1
  Zn  Zn5  1  0.66666663  0.33333334  0.60773698  1
  S  S6  1  0.66666663  0.33333334  0.74999998  1
  Zn  Zn7  1  0.33333330  0.66666669  0.24999999  1
  S  S8  1  0.00000000  0.00000000  0.93054298  1
  Zn  Zn9  1  0.00000000  0.00000000  0.43054299  1
  Zn  Zn10  1  0.00000000  0.00000000  0.06945700  1
  S  S11  1  0.00000000  0.00000000  0.56945699  1
