# generated using pymatgen
data_Ce2Al6CuSi
_symmetry_space_group_name_H-M   'P 1'
_cell_length_a   5.93402004
_cell_length_b   6.29807806
_cell_length_c   6.29807758
_cell_angle_alpha   120.00000000
_cell_angle_beta   90.00000000
_cell_angle_gamma   90.00000000
_symmetry_Int_Tables_number   1
_chemical_formula_structural   Ce2Al6CuSi
_chemical_formula_sum   'Ce2 Al6 Cu1 Si1'
_cell_volume   203.84294534
_cell_formula_units_Z   1
loop_
 _symmetry_equiv_pos_site_id
 _symmetry_equiv_pos_as_xyz
  1  'x, y, z'
loop_
 _atom_site_type_symbol
 _atom_site_label
 _atom_site_symmetry_multiplicity
 _atom_site_fract_x
 _atom_site_fract_y
 _atom_site_fract_z
 _atom_site_occupancy
  Ce  Ce0  1  0.25000000  0.33333332  0.66666664  1
  Ce  Ce1  1  0.74999999  0.66666664  0.33333330  1
  Al  Al2  1  0.00000000  0.00000000  0.00000000  1
  Cu  Cu3  1  0.50000000  0.00000000  -0.00000000  1
  Al  Al4  1  0.74999999  0.19689799  0.39379599  1
  Si  Si5  1  0.25000000  0.80310197  0.60620395  1
  Al  Al6  1  0.74999999  0.19689799  0.80310298  1
  Al  Al7  1  0.25000000  0.80310197  0.19689696  1
  Al  Al8  1  0.74999999  0.60620498  0.80310296  1
  Al  Al9  1  0.25000000  0.39379499  0.19689698  1
