# generated using pymatgen
data_Lu(Co2B)6
_symmetry_space_group_name_H-M   'P 1'
_cell_length_a   6.02046967
_cell_length_b   6.02046967
_cell_length_c   6.02047062
_cell_angle_alpha   104.35243225
_cell_angle_beta   104.35243225
_cell_angle_gamma   104.35242462
_symmetry_Int_Tables_number   1
_chemical_formula_structural   Lu(Co2B)6
_chemical_formula_sum   'Lu1 Co12 B6'
_cell_volume   193.36584677
_cell_formula_units_Z   1
loop_
 _symmetry_equiv_pos_site_id
 _symmetry_equiv_pos_as_xyz
  1  'x, y, z'
loop_
 _atom_site_type_symbol
 _atom_site_label
 _atom_site_symmetry_multiplicity
 _atom_site_fract_x
 _atom_site_fract_y
 _atom_site_fract_z
 _atom_site_occupancy
  Lu  Lu0  1  0.00000000  0.00000000  0.00000000  1
  Co  Co1  1  0.13061998  0.50000000  0.86938000  1
  Co  Co2  1  0.54362999  0.54363000  0.81337000  1
  Co  Co3  1  0.54362998  0.81337000  0.54363000  1
  Co  Co4  1  0.18662999  0.45637000  0.45637000  1
  Co  Co5  1  0.45637000  0.18663000  0.45637000  1
  Co  Co6  1  0.45636999  0.45637000  0.18663000  1
  Co  Co7  1  0.49999997  0.86938000  0.13061999  1
  Co  Co8  1  0.86938001  0.13062000  0.50000000  1
  Co  Co9  1  0.86937999  0.50000000  0.13061999  1
  Co  Co10  1  0.50000000  0.13062000  0.86938001  1
  Co  Co11  1  0.13061997  0.86938000  0.49999999  1
  Co  Co12  1  0.81336999  0.54363000  0.54363000  1
  B  B13  1  0.23545499  0.23545500  0.66518800  1
  B  B14  1  0.23545498  0.66518800  0.23545499  1
  B  B15  1  0.66518800  0.23545500  0.23545500  1
  B  B16  1  0.76454500  0.33481200  0.76454500  1
  B  B17  1  0.76454498  0.76454500  0.33481199  1
  B  B18  1  0.33481198  0.76454500  0.76454500  1
