# generated using pymatgen
data_Ce(GeIr)2
_symmetry_space_group_name_H-M   'P 1'
_cell_length_a   4.27632380
_cell_length_b   4.27632380
_cell_length_c   5.93810415
_cell_angle_alpha   111.10478973
_cell_angle_beta   111.10478973
_cell_angle_gamma   90.00000000
_symmetry_Int_Tables_number   1
_chemical_formula_structural   Ce(GeIr)2
_chemical_formula_sum   'Ce1 Ge2 Ir2'
_cell_volume   93.45614936
_cell_formula_units_Z   1
loop_
 _symmetry_equiv_pos_site_id
 _symmetry_equiv_pos_as_xyz
  1  'x, y, z'
loop_
 _atom_site_type_symbol
 _atom_site_label
 _atom_site_symmetry_multiplicity
 _atom_site_fract_x
 _atom_site_fract_y
 _atom_site_fract_z
 _atom_site_occupancy
  Ce  Ce0  1  0.00000000  0.00000000  0.00000000  1
  Ge  Ge1  1  0.61957299  0.61957301  0.23914594  1
  Ge  Ge2  1  0.38042699  0.38042701  0.76085398  1
  Ir  Ir3  1  0.75000001  0.25000000  0.49999996  1
  Ir  Ir4  1  0.24999997  0.75000001  0.49999996  1
