# generated using pymatgen
data_InGa4Se7S
_symmetry_space_group_name_H-M   'P 1'
_cell_length_a   6.86384821
_cell_length_b   6.86384821
_cell_length_c   7.73735523
_cell_angle_alpha   103.10953522
_cell_angle_beta   102.69198608
_cell_angle_gamma   119.77870178
_symmetry_Int_Tables_number   1
_chemical_formula_structural   InGa4Se7S
_chemical_formula_sum   'In1 Ga4 Se7 S1'
_cell_volume   283.32831349
_cell_formula_units_Z   1
loop_
 _symmetry_equiv_pos_site_id
 _symmetry_equiv_pos_as_xyz
  1  'x, y, z'
loop_
 _atom_site_type_symbol
 _atom_site_label
 _atom_site_symmetry_multiplicity
 _atom_site_fract_x
 _atom_site_fract_y
 _atom_site_fract_z
 _atom_site_occupancy
  In  In0  1  0.49999999  0.00000000  0.50000000  1
  Ga  Ga1  1  0.75746493  0.75746494  0.99999995  1
  Ga  Ga2  1  0.24253498  0.24253498  -0.00000001  1
  Ga  Ga3  1  0.75626897  0.25111898  0.00738800  1
  Ga  Ga4  1  0.24373095  0.74888094  0.99261193  1
  Se  Se5  1  0.52032498  0.18957698  0.21052000  1
  S  S6  1  0.02094296  0.69019494  0.21051995  1
  Se  Se7  1  0.51672794  0.68616594  0.20289396  1
  Se  Se8  1  0.02169799  0.18872298  0.21042098  1
  Se  Se9  1  0.97830193  0.81127693  0.78957895  1
  Se  Se10  1  0.48327197  0.31383397  0.79710597  1
  Se  Se11  1  0.97905696  0.30980497  0.78947999  1
  Se  Se12  1  0.47967494  0.81042293  0.78947994  1
